MODEL 1
REMARK VINA RESULT:     -10.3      0.000      0.000
REMARK SMILES O=C(OCCOCCOCCOCCOC(=O)c1nn(Cc2ccc(F)cc2)c2c1CN(C(=O)[C@H]1CC1(F)F)CC2)c1ccc(-c2c3nc(c(-c4cc(S(=O)(=O)[O-])ccc4F)c4ccc([nH]4)c(-c4cc(S(=O)(=O)[O-])ccc4F)c4nc(c(-c5cc(S(=O)(=O)[O-])ccc5F)c5ccc2[nH]5)C=C4)C=C3)cc1
REMARK SMILES IDX 8 1 7 2 6 3 5 4 4 5 3 6 2 7 1 8 42 9 43 10 104 11 44 12
REMARK SMILES IDX 103 13 45 14 46 15 47 16 97 17 48 18 102 19 96 20 98 21
REMARK SMILES IDX 49 22 101 23 95 24 94 25 50 27 82 28 62 29 81 30 63 31 66 32
REMARK SMILES IDX 80 33 99 34 64 35 65 36 79 38 100 39 67 40 51 41 52 42 60 43
REMARK SMILES IDX 53 44 59 45 61 46 58 47 54 48 55 49 56 50 57 51 83 52 84 53
REMARK SMILES IDX 92 54 85 55 91 56 93 57 90 58 86 59 87 60 88 61 89 62 68 63
REMARK SMILES IDX 69 64 77 65 70 66 76 67 78 68 75 69 71 70 72 71 73 72 74 73
REMARK SMILES IDX 9 74 10 75 11 76 12 77 13 78 14 79 15 80 16 81 17 82 18 83
REMARK SMILES IDX 19 84 30 85 20 86 29 87 31 88 41 89 32 90 40 91 21 92 22 93
REMARK SMILES IDX 23 94 28 95 24 96 27 97 25 98 26 99 33 100 34 101 35 102
REMARK SMILES IDX 36 103 37 104 38 105 39 106
REMARK H PARENT 98 26 66 37
REMARK Flexibility Score: inf
ROOT
ATOM      1  C   UNL A   1      36.026  20.862  25.425  1.00  0.00     0.188 C 
ENDROOT
BRANCH   1   2
ATOM      2  C   UNL A   1      37.527  21.138  25.195  1.00  0.00     0.188 C 
BRANCH   2   3
ATOM      3  O   UNL A   1      38.332  22.034  25.946  1.00  0.00    -0.376 OA
BRANCH   3   4
ATOM      4  C   UNL A   1      39.689  21.977  26.336  1.00  0.00     0.202 C 
BRANCH   4   5
ATOM      5  C   UNL A   1      40.357  22.817  27.423  1.00  0.00     0.261 C 
BRANCH   5   6
ATOM      6  O   UNL A   1      40.408  24.207  27.164  1.00  0.00    -0.460 OA
BRANCH   6   7
ATOM      7  C   UNL A   1      39.391  25.090  27.223  1.00  0.00     0.338 C 
ATOM      8  O   UNL A   1      38.358  24.807  26.616  1.00  0.00    -0.246 OA
BRANCH   7   9
ATOM      9  C   UNL A   1      39.459  26.411  27.904  1.00  0.00     0.060 A 
ATOM     10  C   UNL A   1      39.943  27.612  27.378  1.00  0.00     0.016 A 
ATOM     11  C   UNL A   1      39.018  26.389  29.239  1.00  0.00     0.016 A 
ATOM     12  C   UNL A   1      40.251  28.658  28.220  1.00  0.00     0.010 A 
ATOM     13  C   UNL A   1      39.275  27.448  30.079  1.00  0.00     0.010 A 
ATOM     14  C   UNL A   1      39.995  28.520  29.578  1.00  0.00    -0.014 A 
BRANCH  14  15
ATOM     15  C   UNL A   1      40.446  29.573  30.458  1.00  0.00     0.031 A 
ATOM     16  C   UNL A   1      39.366  30.507  30.848  1.00  0.00     0.074 A 
ATOM     17  C   UNL A   1      41.719  29.603  30.896  1.00  0.00     0.049 A 
ATOM     18  N   UNL A   1      39.253  31.755  30.538  1.00  0.00    -0.248 NA
ATOM     19  C   UNL A   1      38.169  29.943  31.494  1.00  0.00     0.031 C 
ATOM     20  C   UNL A   1      42.769  28.599  30.698  1.00  0.00     0.029 A 
ATOM     21  N   UNL A   1      42.324  30.507  31.705  1.00  0.00    -0.354 N 
ATOM     22  C   UNL A   1      38.105  32.193  31.185  1.00  0.00     0.074 A 
ATOM     23  C   UNL A   1      37.376  31.013  31.559  1.00  0.00     0.031 C 
ATOM     24  C   UNL A   1      43.779  28.830  31.569  1.00  0.00     0.029 A 
ATOM     25  C   UNL A   1      43.510  30.065  32.285  1.00  0.00     0.049 A 
ATOM     26  H   UNL A   1      41.954  31.404  31.871  1.00  0.00     0.167 HD
ATOM     27  C   UNL A   1      38.007  33.477  31.624  1.00  0.00     0.034 A 
ATOM     28  C   UNL A   1      44.174  30.651  33.320  1.00  0.00     0.034 A 
ATOM     29  C   UNL A   1      38.906  34.345  30.898  1.00  0.00     0.049 A 
ATOM     30  C   UNL A   1      43.739  32.074  33.328  1.00  0.00     0.074 A 
ATOM     31  C   UNL A   1      39.069  34.649  29.558  1.00  0.00     0.029 A 
ATOM     32  N   UNL A   1      40.083  34.719  31.505  1.00  0.00    -0.354 N 
ATOM     33  N   UNL A   1      43.983  32.900  32.345  1.00  0.00    -0.248 NA
ATOM     34  C   UNL A   1      42.600  32.425  34.166  1.00  0.00     0.031 C 
ATOM     35  C   UNL A   1      40.481  34.690  29.362  1.00  0.00     0.029 A 
ATOM     36  C   UNL A   1      41.099  34.510  30.601  1.00  0.00     0.049 A 
ATOM     37  H   UNL A   1      40.180  35.071  32.419  1.00  0.00     0.167 HD
ATOM     38  C   UNL A   1      42.807  33.614  32.177  1.00  0.00     0.074 A 
ATOM     39  C   UNL A   1      42.015  33.329  33.375  1.00  0.00     0.031 C 
ATOM     40  C   UNL A   1      42.452  34.130  30.962  1.00  0.00     0.034 A 
BRANCH  27  41
ATOM     41  C   UNL A   1      37.398  33.848  32.956  1.00  0.00     0.023 A 
ATOM     42  C   UNL A   1      38.071  33.441  34.122  1.00  0.00     0.031 A 
ATOM     43  C   UNL A   1      36.074  34.319  33.143  1.00  0.00     0.131 A 
ATOM     44  C   UNL A   1      37.419  33.445  35.368  1.00  0.00     0.055 A 
ATOM     45  C   UNL A   1      35.453  34.378  34.390  1.00  0.00     0.041 A 
ATOM     46  F   UNL A   1      35.273  34.660  32.127  1.00  0.00    -0.206 F 
ATOM     47  C   UNL A   1      36.114  33.912  35.510  1.00  0.00     0.022 A 
BRANCH  44  48
ATOM     48  S   UNL A   1      38.256  32.692  36.784  1.00  0.00     0.124 S 
ATOM     49  O   UNL A   1      38.679  33.868  37.536  1.00  0.00    -0.237 OA
ATOM     50  O   UNL A   1      37.184  31.899  37.379  1.00  0.00    -0.237 OA
ATOM     51  O   UNL A   1      39.333  31.920  36.170  1.00  0.00    -0.744 OA
ENDBRANCH  44  48
ENDBRANCH  27  41
BRANCH  28  52
ATOM     52  C   UNL A   1      44.808  29.976  34.496  1.00  0.00     0.023 A 
ATOM     53  C   UNL A   1      44.182  28.908  35.180  1.00  0.00     0.031 A 
ATOM     54  C   UNL A   1      46.168  30.203  34.810  1.00  0.00     0.131 A 
ATOM     55  C   UNL A   1      44.909  28.123  36.111  1.00  0.00     0.055 A 
ATOM     56  C   UNL A   1      46.880  29.426  35.729  1.00  0.00     0.041 A 
ATOM     57  F   UNL A   1      46.890  31.135  34.170  1.00  0.00    -0.206 F 
ATOM     58  C   UNL A   1      46.256  28.373  36.374  1.00  0.00     0.022 A 
BRANCH  55  59
ATOM     59  S   UNL A   1      44.143  26.675  36.915  1.00  0.00     0.124 S 
ATOM     60  O   UNL A   1      45.063  26.416  38.017  1.00  0.00    -0.237 OA
ATOM     61  O   UNL A   1      42.821  27.173  37.277  1.00  0.00    -0.237 OA
ATOM     62  O   UNL A   1      44.145  25.662  35.859  1.00  0.00    -0.744 OA
ENDBRANCH  55  59
ENDBRANCH  28  52
BRANCH  40  63
ATOM     63  C   UNL A   1      43.480  34.154  29.846  1.00  0.00     0.023 A 
ATOM     64  C   UNL A   1      43.668  33.136  28.879  1.00  0.00     0.031 A 
ATOM     65  C   UNL A   1      44.183  35.358  29.672  1.00  0.00     0.131 A 
ATOM     66  C   UNL A   1      44.535  33.358  27.785  1.00  0.00     0.055 A 
ATOM     67  C   UNL A   1      45.022  35.578  28.582  1.00  0.00     0.041 A 
ATOM     68  F   UNL A   1      44.018  36.370  30.538  1.00  0.00    -0.206 F 
ATOM     69  C   UNL A   1      45.202  34.578  27.634  1.00  0.00     0.022 A 
BRANCH  66  70
ATOM     70  S   UNL A   1      44.786  32.077  26.507  1.00  0.00     0.124 S 
ATOM     71  O   UNL A   1      43.903  32.503  25.428  1.00  0.00    -0.237 OA
ATOM     72  O   UNL A   1      46.218  32.165  26.238  1.00  0.00    -0.237 OA
ATOM     73  O   UNL A   1      44.374  30.840  27.174  1.00  0.00    -0.744 OA
ENDBRANCH  66  70
ENDBRANCH  40  63
ENDBRANCH  14  15
ENDBRANCH   7   9
ENDBRANCH   6   7
ENDBRANCH   5   6
ENDBRANCH   4   5
ENDBRANCH   3   4
ENDBRANCH   2   3
ENDBRANCH   1   2
BRANCH   1  74
ATOM     74  O   UNL A   1      35.438  19.773  24.739  1.00  0.00    -0.377 OA
BRANCH  74  75
ATOM     75  C   UNL A   1      34.032  19.820  24.707  1.00  0.00     0.188 C 
BRANCH  75  76
ATOM     76  C   UNL A   1      33.485  21.193  24.268  1.00  0.00     0.188 C 
BRANCH  76  77
ATOM     77  O   UNL A   1      32.522  21.897  25.032  1.00  0.00    -0.376 OA
BRANCH  77  78
ATOM     78  C   UNL A   1      32.743  23.241  25.410  1.00  0.00     0.202 C 
BRANCH  78  79
ATOM     79  C   UNL A   1      32.467  24.395  24.426  1.00  0.00     0.261 C 
BRANCH  79  80
ATOM     80  O   UNL A   1      33.524  24.794  23.543  1.00  0.00    -0.458 OA
BRANCH  80  81
ATOM     81  C   UNL A   1      33.198  25.645  22.523  1.00  0.00     0.359 C 
ATOM     82  O   UNL A   1      33.514  25.478  21.349  1.00  0.00    -0.244 OA
BRANCH  81  83
ATOM     83  C   UNL A   1      32.318  26.740  22.971  1.00  0.00     0.175 A 
ATOM     84  N   UNL A   1      31.042  26.817  22.536  1.00  0.00    -0.165 NA
ATOM     85  C   UNL A   1      32.602  27.813  23.877  1.00  0.00     0.028 A 
ATOM     86  N   UNL A   1      30.513  27.880  23.180  1.00  0.00    -0.264 N 
ATOM     87  C   UNL A   1      31.414  28.507  23.987  1.00  0.00     0.046 A 
ATOM     88  C   UNL A   1      33.847  28.220  24.600  1.00  0.00     0.159 C 
ATOM     89  C   UNL A   1      31.183  29.657  24.900  1.00  0.00     0.078 C 
ATOM     90  N   UNL A   1      33.518  29.182  25.667  1.00  0.00    -0.337 N 
ATOM     91  C   UNL A   1      32.543  30.241  25.331  1.00  0.00     0.126 C 
BRANCH  86  92
ATOM     92  C   UNL A   1      29.074  28.098  23.123  1.00  0.00     0.180 C 
BRANCH  92  93
ATOM     93  C   UNL A   1      28.694  29.501  22.716  1.00  0.00    -0.026 A 
ATOM     94  C   UNL A   1      27.751  30.229  23.462  1.00  0.00     0.008 A 
ATOM     95  C   UNL A   1      29.328  30.125  21.630  1.00  0.00     0.008 A 
ATOM     96  C   UNL A   1      27.471  31.560  23.148  1.00  0.00     0.039 A 
ATOM     97  C   UNL A   1      29.048  31.457  21.318  1.00  0.00     0.039 A 
ATOM     98  C   UNL A   1      28.130  32.164  22.086  1.00  0.00     0.123 A 
ATOM     99  F   UNL A   1      27.886  33.450  21.802  1.00  0.00    -0.207 F 
ENDBRANCH  92  93
ENDBRANCH  86  92
BRANCH  90 100
ATOM    100  C   UNL A   1      34.274  29.139  26.828  1.00  0.00     0.232 C 
ATOM    101  O   UNL A   1      34.193  28.230  27.651  1.00  0.00    -0.274 OA
BRANCH 100 102
ATOM    102  C   UNL A   1      35.240  30.230  27.059  1.00  0.00     0.154 C 
ATOM    103  C   UNL A   1      35.115  31.126  28.280  1.00  0.00     0.097 C 
ATOM    104  C   UNL A   1      36.205  30.127  28.180  1.00  0.00     0.260 C 
ATOM    105  F   UNL A   1      36.223  29.087  29.079  1.00  0.00    -0.206 F 
ATOM    106  F   UNL A   1      37.499  30.575  28.047  1.00  0.00    -0.206 F 
ENDBRANCH 100 102
ENDBRANCH  90 100
ENDBRANCH  81  83
ENDBRANCH  80  81
ENDBRANCH  79  80
ENDBRANCH  78  79
ENDBRANCH  77  78
ENDBRANCH  76  77
ENDBRANCH  75  76
ENDBRANCH  74  75
ENDBRANCH   1  74
TORSDOF 27
ENDMDL
MODEL 2
REMARK VINA RESULT:      -9.9      3.126      8.348
REMARK SMILES O=C(OCCOCCOCCOCCOC(=O)c1nn(Cc2ccc(F)cc2)c2c1CN(C(=O)[C@H]1CC1(F)F)CC2)c1ccc(-c2c3nc(c(-c4cc(S(=O)(=O)[O-])ccc4F)c4ccc([nH]4)c(-c4cc(S(=O)(=O)[O-])ccc4F)c4nc(c(-c5cc(S(=O)(=O)[O-])ccc5F)c5ccc2[nH]5)C=C4)C=C3)cc1
REMARK SMILES IDX 8 1 7 2 6 3 5 4 4 5 3 6 2 7 1 8 42 9 43 10 104 11 44 12
REMARK SMILES IDX 103 13 45 14 46 15 47 16 97 17 48 18 102 19 96 20 98 21
REMARK SMILES IDX 49 22 101 23 95 24 94 25 50 27 82 28 62 29 81 30 63 31 66 32
REMARK SMILES IDX 80 33 99 34 64 35 65 36 79 38 100 39 67 40 51 41 52 42 60 43
REMARK SMILES IDX 53 44 59 45 61 46 58 47 54 48 55 49 56 50 57 51 83 52 84 53
REMARK SMILES IDX 92 54 85 55 91 56 93 57 90 58 86 59 87 60 88 61 89 62 68 63
REMARK SMILES IDX 69 64 77 65 70 66 76 67 78 68 75 69 71 70 72 71 73 72 74 73
REMARK SMILES IDX 9 74 10 75 11 76 12 77 13 78 14 79 15 80 16 81 17 82 18 83
REMARK SMILES IDX 19 84 30 85 20 86 29 87 31 88 41 89 32 90 40 91 21 92 22 93
REMARK SMILES IDX 23 94 28 95 24 96 27 97 25 98 26 99 33 100 34 101 35 102
REMARK SMILES IDX 36 103 37 104 38 105 39 106
REMARK H PARENT 98 26 66 37
REMARK Flexibility Score: inf
ROOT
ATOM      1  C   UNL A   1      34.262  30.936  27.599  1.00  0.00     0.188 C 
ENDROOT
BRANCH   1   2
ATOM      2  C   UNL A   1      34.928  32.275  27.984  1.00  0.00     0.188 C 
BRANCH   2   3
ATOM      3  O   UNL A   1      34.284  33.538  28.041  1.00  0.00    -0.376 OA
BRANCH   3   4
ATOM      4  C   UNL A   1      34.463  34.647  28.899  1.00  0.00     0.202 C 
BRANCH   4   5
ATOM      5  C   UNL A   1      34.088  34.721  30.377  1.00  0.00     0.261 C 
BRANCH   5   6
ATOM      6  O   UNL A   1      35.147  34.465  31.280  1.00  0.00    -0.460 OA
BRANCH   6   7
ATOM      7  C   UNL A   1      35.719  33.277  31.557  1.00  0.00     0.338 C 
ATOM      8  O   UNL A   1      35.031  32.437  32.138  1.00  0.00    -0.246 OA
BRANCH   7   9
ATOM      9  C   UNL A   1      37.142  32.939  31.280  1.00  0.00     0.060 A 
ATOM     10  C   UNL A   1      37.709  32.613  30.045  1.00  0.00     0.016 A 
ATOM     11  C   UNL A   1      37.957  32.912  32.425  1.00  0.00     0.016 A 
ATOM     12  C   UNL A   1      38.945  32.005  29.994  1.00  0.00     0.010 A 
ATOM     13  C   UNL A   1      39.213  32.352  32.377  1.00  0.00     0.010 A 
ATOM     14  C   UNL A   1      39.638  31.800  31.180  1.00  0.00    -0.014 A 
BRANCH  14  15
ATOM     15  C   UNL A   1      40.867  31.045  31.119  1.00  0.00     0.031 A 
ATOM     16  C   UNL A   1      41.935  31.731  30.357  1.00  0.00     0.074 A 
ATOM     17  C   UNL A   1      40.985  29.872  31.771  1.00  0.00     0.049 A 
ATOM     18  N   UNL A   1      42.461  31.367  29.236  1.00  0.00    -0.248 NA
ATOM     19  C   UNL A   1      42.327  33.083  30.788  1.00  0.00     0.031 C 
ATOM     20  C   UNL A   1      40.032  29.250  32.694  1.00  0.00     0.029 A 
ATOM     21  N   UNL A   1      42.041  29.024  31.821  1.00  0.00    -0.354 N 
ATOM     22  C   UNL A   1      43.444  32.310  28.967  1.00  0.00     0.074 A 
ATOM     23  C   UNL A   1      43.167  33.437  29.815  1.00  0.00     0.031 C 
ATOM     24  C   UNL A   1      40.656  28.272  33.390  1.00  0.00     0.029 A 
ATOM     25  C   UNL A   1      42.004  28.111  32.871  1.00  0.00     0.049 A 
ATOM     26  H   UNL A   1      42.777  29.051  31.167  1.00  0.00     0.167 HD
ATOM     27  C   UNL A   1      44.572  31.959  28.293  1.00  0.00     0.034 A 
ATOM     28  C   UNL A   1      43.034  27.335  33.308  1.00  0.00     0.034 A 
ATOM     29  C   UNL A   1      44.356  30.770  27.501  1.00  0.00     0.049 A 
ATOM     30  C   UNL A   1      43.974  27.224  32.160  1.00  0.00     0.074 A 
ATOM     31  C   UNL A   1      43.464  30.438  26.498  1.00  0.00     0.029 A 
ATOM     32  N   UNL A   1      44.830  29.570  27.983  1.00  0.00    -0.354 N 
ATOM     33  N   UNL A   1      43.657  26.645  31.032  1.00  0.00    -0.248 NA
ATOM     34  C   UNL A   1      45.053  28.200  32.076  1.00  0.00     0.031 C 
ATOM     35  C   UNL A   1      43.068  29.098  26.788  1.00  0.00     0.029 A 
ATOM     36  C   UNL A   1      43.808  28.654  27.886  1.00  0.00     0.049 A 
ATOM     37  H   UNL A   1      45.733  29.400  28.333  1.00  0.00     0.167 HD
ATOM     38  C   UNL A   1      44.176  27.472  30.047  1.00  0.00     0.074 A 
ATOM     39  C   UNL A   1      45.088  28.375  30.751  1.00  0.00     0.031 C 
ATOM     40  C   UNL A   1      43.606  27.551  28.808  1.00  0.00     0.034 A 
BRANCH  27  41
ATOM     41  C   UNL A   1      45.947  32.460  28.670  1.00  0.00     0.023 A 
ATOM     42  C   UNL A   1      46.723  33.068  27.667  1.00  0.00     0.031 A 
ATOM     43  C   UNL A   1      46.637  32.125  29.862  1.00  0.00     0.131 A 
ATOM     44  C   UNL A   1      48.107  33.251  27.839  1.00  0.00     0.055 A 
ATOM     45  C   UNL A   1      47.998  32.364  30.051  1.00  0.00     0.041 A 
ATOM     46  F   UNL A   1      46.063  31.465  30.874  1.00  0.00    -0.206 F 
ATOM     47  C   UNL A   1      48.749  32.904  29.025  1.00  0.00     0.022 A 
BRANCH  44  48
ATOM     48  S   UNL A   1      49.085  33.820  26.427  1.00  0.00     0.124 S 
ATOM     49  O   UNL A   1      49.850  32.622  26.097  1.00  0.00    -0.237 OA
ATOM     50  O   UNL A   1      48.046  34.202  25.477  1.00  0.00    -0.237 OA
ATOM     51  O   UNL A   1      49.862  34.928  26.978  1.00  0.00    -0.744 OA
ENDBRANCH  44  48
ENDBRANCH  27  41
BRANCH  28  52
ATOM     52  C   UNL A   1      43.426  27.051  34.724  1.00  0.00     0.023 A 
ATOM     53  C   UNL A   1      43.923  25.791  35.132  1.00  0.00     0.031 A 
ATOM     54  C   UNL A   1      43.561  28.104  35.659  1.00  0.00     0.131 A 
ATOM     55  C   UNL A   1      44.527  25.631  36.405  1.00  0.00     0.055 A 
ATOM     56  C   UNL A   1      44.158  27.940  36.913  1.00  0.00     0.041 A 
ATOM     57  F   UNL A   1      43.201  29.360  35.358  1.00  0.00    -0.206 F 
ATOM     58  C   UNL A   1      44.655  26.704  37.287  1.00  0.00     0.022 A 
BRANCH  55  59
ATOM     59  S   UNL A   1      45.270  24.037  36.895  1.00  0.00     0.124 S 
ATOM     60  O   UNL A   1      46.669  24.228  36.529  1.00  0.00    -0.237 OA
ATOM     61  O   UNL A   1      44.976  23.973  38.322  1.00  0.00    -0.237 OA
ATOM     62  O   UNL A   1      44.547  23.063  36.078  1.00  0.00    -0.744 OA
ENDBRANCH  55  59
ENDBRANCH  28  52
BRANCH  40  63
ATOM     63  C   UNL A   1      42.556  26.528  28.415  1.00  0.00     0.023 A 
ATOM     64  C   UNL A   1      42.819  25.204  27.985  1.00  0.00     0.031 A 
ATOM     65  C   UNL A   1      41.219  26.881  28.660  1.00  0.00     0.131 A 
ATOM     66  C   UNL A   1      41.751  24.293  27.823  1.00  0.00     0.055 A 
ATOM     67  C   UNL A   1      40.171  25.975  28.515  1.00  0.00     0.041 A 
ATOM     68  F   UNL A   1      40.914  28.112  29.102  1.00  0.00    -0.206 F 
ATOM     69  C   UNL A   1      40.433  24.676  28.096  1.00  0.00     0.022 A 
BRANCH  66  70
ATOM     70  S   UNL A   1      42.052  22.573  27.290  1.00  0.00     0.124 S 
ATOM     71  O   UNL A   1      41.807  22.619  25.853  1.00  0.00    -0.237 OA
ATOM     72  O   UNL A   1      43.435  22.344  27.698  1.00  0.00    -0.237 OA
ATOM     73  O   UNL A   1      41.066  21.799  28.048  1.00  0.00    -0.744 OA
ENDBRANCH  66  70
ENDBRANCH  40  63
ENDBRANCH  14  15
ENDBRANCH   7   9
ENDBRANCH   6   7
ENDBRANCH   5   6
ENDBRANCH   4   5
ENDBRANCH   3   4
ENDBRANCH   2   3
ENDBRANCH   1   2
BRANCH   1  74
ATOM     74  O   UNL A   1      32.851  30.857  27.651  1.00  0.00    -0.377 OA
BRANCH  74  75
ATOM     75  C   UNL A   1      32.334  29.653  27.137  1.00  0.00     0.188 C 
BRANCH  75  76
ATOM     76  C   UNL A   1      33.408  28.559  26.972  1.00  0.00     0.188 C 
BRANCH  76  77
ATOM     77  O   UNL A   1      33.814  28.091  25.698  1.00  0.00    -0.376 OA
BRANCH  77  78
ATOM     78  C   UNL A   1      33.648  28.896  24.547  1.00  0.00     0.202 C 
BRANCH  78  79
ATOM     79  C   UNL A   1      34.283  28.493  23.202  1.00  0.00     0.261 C 
BRANCH  79  80
ATOM     80  O   UNL A   1      33.409  28.103  22.134  1.00  0.00    -0.458 OA
BRANCH  80  81
ATOM     81  C   UNL A   1      33.170  26.766  21.979  1.00  0.00     0.359 C 
ATOM     82  O   UNL A   1      33.726  26.051  21.152  1.00  0.00    -0.244 OA
BRANCH  81  83
ATOM     83  C   UNL A   1      32.244  26.243  23.000  1.00  0.00     0.175 A 
ATOM     84  N   UNL A   1      32.664  25.340  23.911  1.00  0.00    -0.165 NA
ATOM     85  C   UNL A   1      30.866  26.570  23.221  1.00  0.00     0.028 A 
ATOM     86  N   UNL A   1      31.602  25.131  24.717  1.00  0.00    -0.264 N 
ATOM     87  C   UNL A   1      30.505  25.842  24.337  1.00  0.00     0.046 A 
ATOM     88  C   UNL A   1      29.911  27.461  22.491  1.00  0.00     0.159 C 
ATOM     89  C   UNL A   1      29.184  25.926  25.015  1.00  0.00     0.078 C 
ATOM     90  N   UNL A   1      28.721  27.712  23.323  1.00  0.00    -0.337 N 
ATOM     91  C   UNL A   1      28.160  26.554  24.049  1.00  0.00     0.126 C 
BRANCH  86  92
ATOM     92  C   UNL A   1      31.789  24.390  25.958  1.00  0.00     0.180 C 
BRANCH  92  93
ATOM     93  C   UNL A   1      32.570  23.110  25.783  1.00  0.00    -0.026 A 
ATOM     94  C   UNL A   1      32.078  22.081  24.962  1.00  0.00     0.008 A 
ATOM     95  C   UNL A   1      33.832  22.958  26.380  1.00  0.00     0.008 A 
ATOM     96  C   UNL A   1      32.843  20.939  24.719  1.00  0.00     0.039 A 
ATOM     97  C   UNL A   1      34.596  21.816  26.134  1.00  0.00     0.039 A 
ATOM     98  C   UNL A   1      34.098  20.822  25.299  1.00  0.00     0.123 A 
ATOM     99  F   UNL A   1      34.848  19.742  25.042  1.00  0.00    -0.207 F 
ENDBRANCH  92  93
ENDBRANCH  86  92
BRANCH  90 100
ATOM    100  C   UNL A   1      28.112  28.953  23.218  1.00  0.00     0.232 C 
ATOM    101  O   UNL A   1      26.896  29.114  23.285  1.00  0.00    -0.274 OA
BRANCH 100 102
ATOM    102  C   UNL A   1      28.982  30.133  23.048  1.00  0.00     0.154 C 
ATOM    103  C   UNL A   1      28.691  31.155  21.963  1.00  0.00     0.097 C 
ATOM    104  C   UNL A   1      28.463  31.479  23.391  1.00  0.00     0.260 C 
ATOM    105  F   UNL A   1      27.176  31.718  23.810  1.00  0.00    -0.206 F 
ATOM    106  F   UNL A   1      29.269  32.419  23.990  1.00  0.00    -0.206 F 
ENDBRANCH 100 102
ENDBRANCH  90 100
ENDBRANCH  81  83
ENDBRANCH  80  81
ENDBRANCH  79  80
ENDBRANCH  78  79
ENDBRANCH  77  78
ENDBRANCH  76  77
ENDBRANCH  75  76
ENDBRANCH  74  75
ENDBRANCH   1  74
TORSDOF 27
ENDMDL
MODEL 3
REMARK VINA RESULT:      -9.7      3.112      8.547
REMARK SMILES O=C(OCCOCCOCCOCCOC(=O)c1nn(Cc2ccc(F)cc2)c2c1CN(C(=O)[C@H]1CC1(F)F)CC2)c1ccc(-c2c3nc(c(-c4cc(S(=O)(=O)[O-])ccc4F)c4ccc([nH]4)c(-c4cc(S(=O)(=O)[O-])ccc4F)c4nc(c(-c5cc(S(=O)(=O)[O-])ccc5F)c5ccc2[nH]5)C=C4)C=C3)cc1
REMARK SMILES IDX 8 1 7 2 6 3 5 4 4 5 3 6 2 7 1 8 42 9 43 10 104 11 44 12
REMARK SMILES IDX 103 13 45 14 46 15 47 16 97 17 48 18 102 19 96 20 98 21
REMARK SMILES IDX 49 22 101 23 95 24 94 25 50 27 82 28 62 29 81 30 63 31 66 32
REMARK SMILES IDX 80 33 99 34 64 35 65 36 79 38 100 39 67 40 51 41 52 42 60 43
REMARK SMILES IDX 53 44 59 45 61 46 58 47 54 48 55 49 56 50 57 51 83 52 84 53
REMARK SMILES IDX 92 54 85 55 91 56 93 57 90 58 86 59 87 60 88 61 89 62 68 63
REMARK SMILES IDX 69 64 77 65 70 66 76 67 78 68 75 69 71 70 72 71 73 72 74 73
REMARK SMILES IDX 9 74 10 75 11 76 12 77 13 78 14 79 15 80 16 81 17 82 18 83
REMARK SMILES IDX 19 84 30 85 20 86 29 87 31 88 41 89 32 90 40 91 21 92 22 93
REMARK SMILES IDX 23 94 28 95 24 96 27 97 25 98 26 99 33 100 34 101 35 102
REMARK SMILES IDX 36 103 37 104 38 105 39 106
REMARK H PARENT 98 26 66 37
REMARK Flexibility Score: inf
ROOT
ATOM      1  C   UNL A   1      31.833  31.891  27.267  1.00  0.00     0.188 C 
ENDROOT
BRANCH   1   2
ATOM      2  C   UNL A   1      32.666  33.182  27.411  1.00  0.00     0.188 C 
BRANCH   2   3
ATOM      3  O   UNL A   1      32.336  34.298  28.223  1.00  0.00    -0.376 OA
BRANCH   3   4
ATOM      4  C   UNL A   1      33.141  35.285  28.836  1.00  0.00     0.202 C 
BRANCH   4   5
ATOM      5  C   UNL A   1      32.909  35.925  30.203  1.00  0.00     0.261 C 
BRANCH   5   6
ATOM      6  O   UNL A   1      33.777  35.483  31.229  1.00  0.00    -0.460 OA
BRANCH   6   7
ATOM      7  C   UNL A   1      34.433  34.307  31.299  1.00  0.00     0.338 C 
ATOM      8  O   UNL A   1      33.824  33.345  31.768  1.00  0.00    -0.246 OA
BRANCH   7   9
ATOM      9  C   UNL A   1      35.859  34.112  30.921  1.00  0.00     0.060 A 
ATOM     10  C   UNL A   1      36.433  34.290  29.660  1.00  0.00     0.016 A 
ATOM     11  C   UNL A   1      36.671  33.652  31.973  1.00  0.00     0.016 A 
ATOM     12  C   UNL A   1      37.674  33.756  29.387  1.00  0.00     0.010 A 
ATOM     13  C   UNL A   1      37.931  33.161  31.721  1.00  0.00     0.010 A 
ATOM     14  C   UNL A   1      38.365  33.115  30.407  1.00  0.00    -0.014 A 
BRANCH  14  15
ATOM     15  C   UNL A   1      39.601  32.450  30.067  1.00  0.00     0.031 A 
ATOM     16  C   UNL A   1      39.409  31.045  29.644  1.00  0.00     0.074 A 
ATOM     17  C   UNL A   1      40.769  33.120  30.090  1.00  0.00     0.049 A 
ATOM     18  N   UNL A   1      39.802  29.978  30.253  1.00  0.00    -0.248 NA
ATOM     19  C   UNL A   1      38.501  30.786  28.513  1.00  0.00     0.031 C 
ATOM     20  C   UNL A   1      40.988  34.553  30.310  1.00  0.00     0.029 A 
ATOM     21  N   UNL A   1      42.019  32.670  29.819  1.00  0.00    -0.354 N 
ATOM     22  C   UNL A   1      39.424  28.924  29.431  1.00  0.00     0.074 A 
ATOM     23  C   UNL A   1      38.452  29.454  28.514  1.00  0.00     0.031 C 
ATOM     24  C   UNL A   1      42.240  34.881  29.917  1.00  0.00     0.029 A 
ATOM     25  C   UNL A   1      42.950  33.668  29.548  1.00  0.00     0.049 A 
ATOM     26  H   UNL A   1      42.249  31.712  29.815  1.00  0.00     0.167 HD
ATOM     27  C   UNL A   1      40.168  27.786  29.381  1.00  0.00     0.034 A 
ATOM     28  C   UNL A   1      44.185  33.497  29.000  1.00  0.00     0.034 A 
ATOM     29  C   UNL A   1      40.964  27.632  30.577  1.00  0.00     0.049 A 
ATOM     30  C   UNL A   1      44.557  32.082  29.270  1.00  0.00     0.074 A 
ATOM     31  C   UNL A   1      40.661  27.562  31.925  1.00  0.00     0.029 A 
ATOM     32  N   UNL A   1      42.301  27.954  30.517  1.00  0.00    -0.354 N 
ATOM     33  N   UNL A   1      44.726  31.607  30.476  1.00  0.00    -0.248 NA
ATOM     34  C   UNL A   1      44.226  31.092  28.253  1.00  0.00     0.031 C 
ATOM     35  C   UNL A   1      41.669  28.343  32.566  1.00  0.00     0.029 A 
ATOM     36  C   UNL A   1      42.580  28.761  31.595  1.00  0.00     0.049 A 
ATOM     37  H   UNL A   1      42.940  27.660  29.828  1.00  0.00     0.167 HD
ATOM     38  C   UNL A   1      44.112  30.363  30.460  1.00  0.00     0.074 A 
ATOM     39  C   UNL A   1      43.886  30.070  29.043  1.00  0.00     0.031 C 
ATOM     40  C   UNL A   1      43.575  29.818  31.592  1.00  0.00     0.034 A 
BRANCH  27  41
ATOM     41  C   UNL A   1      40.461  27.049  28.094  1.00  0.00     0.023 A 
ATOM     42  C   UNL A   1      40.444  25.644  28.123  1.00  0.00     0.031 A 
ATOM     43  C   UNL A   1      41.024  27.634  26.932  1.00  0.00     0.131 A 
ATOM     44  C   UNL A   1      41.025  24.895  27.084  1.00  0.00     0.055 A 
ATOM     45  C   UNL A   1      41.544  26.886  25.875  1.00  0.00     0.041 A 
ATOM     46  F   UNL A   1      41.193  28.953  26.789  1.00  0.00    -0.206 F 
ATOM     47  C   UNL A   1      41.573  25.507  25.959  1.00  0.00     0.022 A 
BRANCH  44  48
ATOM     48  S   UNL A   1      41.181  23.105  27.291  1.00  0.00     0.124 S 
ATOM     49  O   UNL A   1      39.788  22.703  27.452  1.00  0.00    -0.237 OA
ATOM     50  O   UNL A   1      41.823  22.713  26.040  1.00  0.00    -0.237 OA
ATOM     51  O   UNL A   1      42.014  22.973  28.484  1.00  0.00    -0.744 OA
ENDBRANCH  44  48
ENDBRANCH  27  41
BRANCH  28  52
ATOM     52  C   UNL A   1      44.840  34.334  27.946  1.00  0.00     0.023 A 
ATOM     53  C   UNL A   1      46.006  35.094  28.202  1.00  0.00     0.031 A 
ATOM     54  C   UNL A   1      44.473  34.198  26.587  1.00  0.00     0.131 A 
ATOM     55  C   UNL A   1      46.746  35.660  27.133  1.00  0.00     0.055 A 
ATOM     56  C   UNL A   1      45.207  34.760  25.538  1.00  0.00     0.041 A 
ATOM     57  F   UNL A   1      43.434  33.437  26.214  1.00  0.00    -0.206 F 
ATOM     58  C   UNL A   1      46.356  35.483  25.806  1.00  0.00     0.022 A 
BRANCH  55  59
ATOM     59  S   UNL A   1      48.311  36.547  27.446  1.00  0.00     0.124 S 
ATOM     60  O   UNL A   1      48.987  36.434  26.158  1.00  0.00    -0.237 OA
ATOM     61  O   UNL A   1      47.853  37.879  27.823  1.00  0.00    -0.237 OA
ATOM     62  O   UNL A   1      48.922  35.781  28.532  1.00  0.00    -0.744 OA
ENDBRANCH  55  59
ENDBRANCH  28  52
BRANCH  40  63
ATOM     63  C   UNL A   1      43.887  30.455  32.933  1.00  0.00     0.023 A 
ATOM     64  C   UNL A   1      43.155  31.509  33.534  1.00  0.00     0.031 A 
ATOM     65  C   UNL A   1      44.883  29.831  33.703  1.00  0.00     0.131 A 
ATOM     66  C   UNL A   1      43.438  31.890  34.864  1.00  0.00     0.055 A 
ATOM     67  C   UNL A   1      45.146  30.200  35.020  1.00  0.00     0.041 A 
ATOM     68  F   UNL A   1      45.586  28.804  33.197  1.00  0.00    -0.206 F 
ATOM     69  C   UNL A   1      44.424  31.232  35.607  1.00  0.00     0.022 A 
BRANCH  66  70
ATOM     70  S   UNL A   1      42.501  33.230  35.679  1.00  0.00     0.124 S 
ATOM     71  O   UNL A   1      42.863  33.086  37.084  1.00  0.00    -0.237 OA
ATOM     72  O   UNL A   1      42.997  34.428  35.008  1.00  0.00    -0.237 OA
ATOM     73  O   UNL A   1      41.104  32.907  35.377  1.00  0.00    -0.744 OA
ENDBRANCH  66  70
ENDBRANCH  40  63
ENDBRANCH  14  15
ENDBRANCH   7   9
ENDBRANCH   6   7
ENDBRANCH   5   6
ENDBRANCH   4   5
ENDBRANCH   3   4
ENDBRANCH   2   3
ENDBRANCH   1   2
BRANCH   1  74
ATOM     74  O   UNL A   1      31.246  31.614  26.009  1.00  0.00    -0.377 OA
BRANCH  74  75
ATOM     75  C   UNL A   1      31.420  30.284  25.587  1.00  0.00     0.188 C 
BRANCH  75  76
ATOM     76  C   UNL A   1      31.878  29.346  26.721  1.00  0.00     0.188 C 
BRANCH  76  77
ATOM     77  O   UNL A   1      33.138  28.697  26.698  1.00  0.00    -0.376 OA
BRANCH  77  78
ATOM     78  C   UNL A   1      34.156  29.132  25.819  1.00  0.00     0.202 C 
BRANCH  78  79
ATOM     79  C   UNL A   1      34.495  28.333  24.546  1.00  0.00     0.261 C 
BRANCH  79  80
ATOM     80  O   UNL A   1      33.964  28.797  23.297  1.00  0.00    -0.458 OA
BRANCH  80  81
ATOM     81  C   UNL A   1      33.280  27.892  22.535  1.00  0.00     0.359 C 
ATOM     82  O   UNL A   1      33.753  27.289  21.577  1.00  0.00    -0.244 OA
BRANCH  81  83
ATOM     83  C   UNL A   1      31.928  27.629  23.061  1.00  0.00     0.175 A 
ATOM     84  N   UNL A   1      30.869  28.345  22.625  1.00  0.00    -0.165 NA
ATOM     85  C   UNL A   1      31.507  26.651  24.021  1.00  0.00     0.028 A 
ATOM     86  N   UNL A   1      29.800  27.810  23.252  1.00  0.00    -0.264 N 
ATOM     87  C   UNL A   1      30.137  26.799  24.099  1.00  0.00     0.046 A 
ATOM     88  C   UNL A   1      32.261  25.648  24.836  1.00  0.00     0.159 C 
ATOM     89  C   UNL A   1      29.233  25.931  24.900  1.00  0.00     0.078 C 
ATOM     90  N   UNL A   1      31.329  24.658  25.405  1.00  0.00    -0.337 N 
ATOM     91  C   UNL A   1      30.063  25.180  25.961  1.00  0.00     0.126 C 
BRANCH  86  92
ATOM     92  C   UNL A   1      28.462  28.193  22.820  1.00  0.00     0.180 C 
BRANCH  92  93
ATOM     93  C   UNL A   1      28.311  29.673  22.568  1.00  0.00    -0.026 A 
ATOM     94  C   UNL A   1      28.418  30.591  23.627  1.00  0.00     0.008 A 
ATOM     95  C   UNL A   1      28.132  30.159  21.263  1.00  0.00     0.008 A 
ATOM     96  C   UNL A   1      28.379  31.965  23.383  1.00  0.00     0.039 A 
ATOM     97  C   UNL A   1      28.094  31.534  21.021  1.00  0.00     0.039 A 
ATOM     98  C   UNL A   1      28.227  32.423  22.081  1.00  0.00     0.123 A 
ATOM     99  F   UNL A   1      28.220  33.741  21.840  1.00  0.00    -0.207 F 
ENDBRANCH  92  93
ENDBRANCH  86  92
BRANCH  90 100
ATOM    100  C   UNL A   1      31.780  23.356  25.548  1.00  0.00     0.232 C 
ATOM    101  O   UNL A   1      32.275  22.925  26.587  1.00  0.00    -0.274 OA
BRANCH 100 102
ATOM    102  C   UNL A   1      31.624  22.445  24.398  1.00  0.00     0.154 C 
ATOM    103  C   UNL A   1      32.424  22.665  23.125  1.00  0.00     0.097 C 
ATOM    104  C   UNL A   1      32.736  21.534  24.031  1.00  0.00     0.260 C 
ATOM    105  F   UNL A   1      33.955  21.522  24.667  1.00  0.00    -0.206 F 
ATOM    106  F   UNL A   1      32.489  20.253  23.594  1.00  0.00    -0.206 F 
ENDBRANCH 100 102
ENDBRANCH  90 100
ENDBRANCH  81  83
ENDBRANCH  80  81
ENDBRANCH  79  80
ENDBRANCH  78  79
ENDBRANCH  77  78
ENDBRANCH  76  77
ENDBRANCH  75  76
ENDBRANCH  74  75
ENDBRANCH   1  74
TORSDOF 27
ENDMDL
