MODEL 1
REMARK VINA RESULT:      -8.1      0.000      0.000
REMARK SMILES CCC(=O)N1c2ccc(S(=O)(=O)N3CCC(C)CC3)cc2C[C@H]1C(=O)OCCOCCOCCOCCOC(=O)c1ccc(-c2c3nc(c(-c4cc(S(=O)(=O)[O-])ccc4F)c4ccc([nH]4)c(-c4cc(S(=O)(=O)[O-])ccc4F)c4nc(c(-c5cc(S(=O)(=O)[O-])ccc5F)c5ccc2[nH]5)C=C4)C=C3)cc1
REMARK SMILES IDX 33 1 32 2 31 3 30 4 29 5 28 6 27 7 26 8 24 9 25 10 23 11
REMARK SMILES IDX 5 12 6 13 7 14 21 15 22 16 8 17 20 18 9 19 3 20 4 21 2 22
REMARK SMILES IDX 1 23 10 24 11 25 12 26 13 27 14 28 19 29 15 30 18 31 16 32
REMARK SMILES IDX 17 33 34 34 35 35 36 36 37 37 38 38 39 39 40 40 41 41 42 42
REMARK SMILES IDX 103 43 43 44 102 45 44 46 45 47 46 48 96 49 47 50 101 51
REMARK SMILES IDX 95 52 97 53 48 54 100 55 94 56 93 57 49 59 81 60 61 61 80 62
REMARK SMILES IDX 62 63 65 64 79 65 98 66 63 67 64 68 78 70 99 71 66 72 50 73
REMARK SMILES IDX 51 74 59 75 52 76 58 77 60 78 57 79 53 80 54 81 55 82 56 83
REMARK SMILES IDX 82 84 83 85 91 86 84 87 90 88 92 89 89 90 85 91 86 92 87 93
REMARK SMILES IDX 88 94 67 95 68 96 76 97 69 98 75 99 77 100 74 101 70 102
REMARK SMILES IDX 71 103 72 104 73 105
REMARK H PARENT 97 58 65 69
REMARK Flexibility Score: inf
ROOT
ATOM      1  C   UNL A   1      37.868  30.455  29.963  1.00  0.00     0.188 C 
ENDROOT
BRANCH   1   2
ATOM      2  O   UNL A   1      37.060  30.745  28.815  1.00  0.00    -0.377 OA
BRANCH   2   3
ATOM      3  C   UNL A   1      36.830  29.732  27.844  1.00  0.00     0.188 C 
BRANCH   3   4
ATOM      4  C   UNL A   1      35.375  29.701  27.374  1.00  0.00     0.188 C 
BRANCH   4   5
ATOM      5  O   UNL A   1      34.478  30.606  28.011  1.00  0.00    -0.376 OA
BRANCH   5   6
ATOM      6  C   UNL A   1      33.469  31.228  27.219  1.00  0.00     0.202 C 
BRANCH   6   7
ATOM      7  C   UNL A   1      32.136  30.483  27.067  1.00  0.00     0.261 C 
BRANCH   7   8
ATOM      8  O   UNL A   1      31.655  30.398  25.706  1.00  0.00    -0.462 OA
BRANCH   8   9
ATOM      9  C   UNL A   1      32.230  29.436  24.948  1.00  0.00     0.329 C 
ATOM     10  O   UNL A   1      33.203  29.628  24.218  1.00  0.00    -0.250 OA
BRANCH   9  11
ATOM     11  C   UNL A   1      31.691  28.020  25.145  1.00  0.00     0.204 C 
ATOM     12  N   UNL A   1      31.468  27.014  24.076  1.00  0.00    -0.298 N 
ATOM     13  C   UNL A   1      31.822  25.764  24.614  1.00  0.00     0.048 A 
ATOM     14  C   UNL A   1      31.456  24.526  24.145  1.00  0.00     0.028 A 
ATOM     15  C   UNL A   1      32.598  25.904  25.758  1.00  0.00    -0.020 A 
ATOM     16  C   UNL A   1      32.702  27.344  26.126  1.00  0.00     0.075 C 
ATOM     17  C   UNL A   1      31.913  23.416  24.833  1.00  0.00     0.024 A 
ATOM     18  C   UNL A   1      33.205  24.799  26.343  1.00  0.00     0.027 A 
ATOM     19  C   UNL A   1      32.873  23.540  25.833  1.00  0.00     0.083 A 
BRANCH  12  20
ATOM     20  C   UNL A   1      30.582  27.070  23.026  1.00  0.00     0.227 C 
ATOM     21  O   UNL A   1      30.941  26.828  21.873  1.00  0.00    -0.275 OA
BRANCH  20  22
ATOM     22  C   UNL A   1      29.104  27.201  23.389  1.00  0.00     0.097 C 
ATOM     23  C   UNL A   1      28.562  28.603  23.104  1.00  0.00     0.014 C 
ENDBRANCH  20  22
ENDBRANCH  12  20
BRANCH  19  24
ATOM     24  S   UNL A   1      33.813  22.090  26.267  1.00  0.00     0.243 S 
ATOM     25  O   UNL A   1      34.259  22.285  27.643  1.00  0.00    -0.207 OA
ATOM     26  O   UNL A   1      33.010  20.950  25.890  1.00  0.00    -0.207 OA
BRANCH  24  27
ATOM     27  N   UNL A   1      35.178  22.174  25.278  1.00  0.00    -0.198 NA
ATOM     28  C   UNL A   1      35.755  20.988  24.631  1.00  0.00     0.103 C 
ATOM     29  C   UNL A   1      35.922  23.417  25.057  1.00  0.00     0.103 C 
ATOM     30  C   UNL A   1      37.163  20.732  25.161  1.00  0.00     0.020 C 
ATOM     31  C   UNL A   1      37.354  23.301  25.571  1.00  0.00     0.020 C 
ATOM     32  C   UNL A   1      38.069  21.977  25.234  1.00  0.00    -0.012 C 
ATOM     33  C   UNL A   1      39.204  21.734  26.242  1.00  0.00     0.008 C 
ENDBRANCH  24  27
ENDBRANCH  19  24
ENDBRANCH   9  11
ENDBRANCH   8   9
ENDBRANCH   7   8
ENDBRANCH   6   7
ENDBRANCH   5   6
ENDBRANCH   4   5
ENDBRANCH   3   4
ENDBRANCH   2   3
ENDBRANCH   1   2
BRANCH   1  34
ATOM     34  C   UNL A   1      39.329  30.076  29.724  1.00  0.00     0.188 C 
BRANCH  34  35
ATOM     35  O   UNL A   1      40.277  30.768  30.539  1.00  0.00    -0.376 OA
BRANCH  35  36
ATOM     36  C   UNL A   1      40.203  30.552  31.949  1.00  0.00     0.202 C 
BRANCH  36  37
ATOM     37  C   UNL A   1      39.506  31.655  32.747  1.00  0.00     0.261 C 
BRANCH  37  38
ATOM     38  O   UNL A   1      40.306  32.846  32.823  1.00  0.00    -0.460 OA
BRANCH  38  39
ATOM     39  C   UNL A   1      40.081  33.758  31.847  1.00  0.00     0.338 C 
ATOM     40  O   UNL A   1      39.024  34.308  31.591  1.00  0.00    -0.246 OA
BRANCH  39  41
ATOM     41  C   UNL A   1      41.358  34.128  31.207  1.00  0.00     0.060 A 
ATOM     42  C   UNL A   1      41.430  34.101  29.807  1.00  0.00     0.016 A 
ATOM     43  C   UNL A   1      42.494  34.406  31.971  1.00  0.00     0.016 A 
ATOM     44  C   UNL A   1      42.654  34.294  29.168  1.00  0.00     0.010 A 
ATOM     45  C   UNL A   1      43.721  34.586  31.331  1.00  0.00     0.010 A 
ATOM     46  C   UNL A   1      43.812  34.488  29.932  1.00  0.00    -0.014 A 
BRANCH  46  47
ATOM     47  C   UNL A   1      45.145  34.384  29.295  1.00  0.00     0.031 A 
ATOM     48  C   UNL A   1      45.744  35.628  28.697  1.00  0.00     0.074 A 
ATOM     49  C   UNL A   1      45.797  33.211  29.240  1.00  0.00     0.049 A 
ATOM     50  N   UNL A   1      46.842  35.773  28.004  1.00  0.00    -0.248 NA
ATOM     51  C   UNL A   1      44.992  36.876  28.908  1.00  0.00     0.031 C 
ATOM     52  C   UNL A   1      45.326  31.956  29.823  1.00  0.00     0.029 A 
ATOM     53  N   UNL A   1      46.990  32.884  28.648  1.00  0.00    -0.354 N 
ATOM     54  C   UNL A   1      46.913  37.127  27.689  1.00  0.00     0.074 A 
ATOM     55  C   UNL A   1      45.729  37.751  28.241  1.00  0.00     0.031 C 
ATOM     56  C   UNL A   1      46.214  30.987  29.539  1.00  0.00     0.029 A 
ATOM     57  C   UNL A   1      47.291  31.544  28.723  1.00  0.00     0.049 A 
ATOM     58  H   UNL A   1      47.574  33.544  28.210  1.00  0.00     0.167 HD
ATOM     59  C   UNL A   1      47.877  37.787  27.003  1.00  0.00     0.034 A 
ATOM     60  C   UNL A   1      48.304  30.850  28.168  1.00  0.00     0.034 A 
ATOM     61  C   UNL A   1      49.036  37.140  26.438  1.00  0.00     0.049 A 
ATOM     62  C   UNL A   1      49.326  31.589  27.338  1.00  0.00     0.074 A 
ATOM     63  C   UNL A   1      50.077  37.703  25.720  1.00  0.00     0.029 A 
ATOM     64  N   UNL A   1      49.298  35.778  26.518  1.00  0.00    -0.354 N 
ATOM     65  N   UNL A   1      49.383  32.868  27.044  1.00  0.00    -0.248 NA
ATOM     66  C   UNL A   1      50.421  30.792  26.770  1.00  0.00     0.031 C 
ATOM     67  C   UNL A   1      50.935  36.673  25.314  1.00  0.00     0.029 A 
ATOM     68  C   UNL A   1      50.469  35.478  25.839  1.00  0.00     0.049 A 
ATOM     69  H   UNL A   1      48.735  35.122  26.987  1.00  0.00     0.167 HD
ATOM     70  C   UNL A   1      50.538  33.032  26.283  1.00  0.00     0.074 A 
ATOM     71  C   UNL A   1      51.148  31.724  26.169  1.00  0.00     0.031 C 
ATOM     72  C   UNL A   1      51.054  34.162  25.735  1.00  0.00     0.034 A 
BRANCH  59  73
ATOM     73  C   UNL A   1      47.675  39.265  26.781  1.00  0.00     0.023 A 
ATOM     74  C   UNL A   1      47.061  39.761  25.616  1.00  0.00     0.031 A 
ATOM     75  C   UNL A   1      48.148  40.195  27.723  1.00  0.00     0.131 A 
ATOM     76  C   UNL A   1      47.002  41.144  25.390  1.00  0.00     0.055 A 
ATOM     77  C   UNL A   1      48.018  41.571  27.527  1.00  0.00     0.041 A 
ATOM     78  F   UNL A   1      48.764  39.781  28.841  1.00  0.00    -0.206 F 
ATOM     79  C   UNL A   1      47.457  42.054  26.349  1.00  0.00     0.022 A 
BRANCH  76  80
ATOM     80  S   UNL A   1      46.456  41.737  23.765  1.00  0.00     0.124 S 
ATOM     81  O   UNL A   1      46.886  40.647  22.893  1.00  0.00    -0.237 OA
ATOM     82  O   UNL A   1      45.016  41.879  23.949  1.00  0.00    -0.237 OA
ATOM     83  O   UNL A   1      47.189  42.990  23.593  1.00  0.00    -0.744 OA
ENDBRANCH  76  80
ENDBRANCH  59  73
BRANCH  60  84
ATOM     84  C   UNL A   1      48.384  29.371  28.333  1.00  0.00     0.023 A 
ATOM     85  C   UNL A   1      47.778  28.503  27.411  1.00  0.00     0.031 A 
ATOM     86  C   UNL A   1      49.033  28.805  29.445  1.00  0.00     0.131 A 
ATOM     87  C   UNL A   1      47.797  27.118  27.638  1.00  0.00     0.055 A 
ATOM     88  C   UNL A   1      49.090  27.425  29.642  1.00  0.00     0.041 A 
ATOM     89  F   UNL A   1      49.629  29.591  30.356  1.00  0.00    -0.206 F 
ATOM     90  C   UNL A   1      48.459  26.573  28.740  1.00  0.00     0.022 A 
BRANCH  87  91
ATOM     91  S   UNL A   1      46.879  26.040  26.506  1.00  0.00     0.124 S 
ATOM     92  O   UNL A   1      45.554  26.651  26.521  1.00  0.00    -0.237 OA
ATOM     93  O   UNL A   1      47.638  26.182  25.269  1.00  0.00    -0.237 OA
ATOM     94  O   UNL A   1      46.967  24.726  27.141  1.00  0.00    -0.744 OA
ENDBRANCH  87  91
ENDBRANCH  60  84
BRANCH  72  95
ATOM     95  C   UNL A   1      52.371  34.032  25.011  1.00  0.00     0.023 A 
ATOM     96  C   UNL A   1      52.460  33.463  23.729  1.00  0.00     0.031 A 
ATOM     97  C   UNL A   1      53.553  34.489  25.620  1.00  0.00     0.131 A 
ATOM     98  C   UNL A   1      53.714  33.324  23.115  1.00  0.00     0.055 A 
ATOM     99  C   UNL A   1      54.790  34.393  24.983  1.00  0.00     0.041 A 
ATOM    100  F   UNL A   1      53.522  35.041  26.843  1.00  0.00    -0.206 F 
ATOM    101  C   UNL A   1      54.877  33.798  23.727  1.00  0.00     0.022 A 
BRANCH  98 102
ATOM    102  S   UNL A   1      53.816  32.446  21.532  1.00  0.00     0.124 S 
ATOM    103  O   UNL A   1      54.234  31.112  21.949  1.00  0.00    -0.237 OA
ATOM    104  O   UNL A   1      52.453  32.557  21.023  1.00  0.00    -0.237 OA
ATOM    105  O   UNL A   1      54.818  33.204  20.783  1.00  0.00    -0.744 OA
ENDBRANCH  98 102
ENDBRANCH  72  95
ENDBRANCH  46  47
ENDBRANCH  39  41
ENDBRANCH  38  39
ENDBRANCH  37  38
ENDBRANCH  36  37
ENDBRANCH  35  36
ENDBRANCH  34  35
ENDBRANCH   1  34
TORSDOF 27
ENDMDL
MODEL 2
REMARK VINA RESULT:      -8.0      6.357     11.896
REMARK SMILES CCC(=O)N1c2ccc(S(=O)(=O)N3CCC(C)CC3)cc2C[C@H]1C(=O)OCCOCCOCCOCCOC(=O)c1ccc(-c2c3nc(c(-c4cc(S(=O)(=O)[O-])ccc4F)c4ccc([nH]4)c(-c4cc(S(=O)(=O)[O-])ccc4F)c4nc(c(-c5cc(S(=O)(=O)[O-])ccc5F)c5ccc2[nH]5)C=C4)C=C3)cc1
REMARK SMILES IDX 33 1 32 2 31 3 30 4 29 5 28 6 27 7 26 8 24 9 25 10 23 11
REMARK SMILES IDX 5 12 6 13 7 14 21 15 22 16 8 17 20 18 9 19 3 20 4 21 2 22
REMARK SMILES IDX 1 23 10 24 11 25 12 26 13 27 14 28 19 29 15 30 18 31 16 32
REMARK SMILES IDX 17 33 34 34 35 35 36 36 37 37 38 38 39 39 40 40 41 41 42 42
REMARK SMILES IDX 103 43 43 44 102 45 44 46 45 47 46 48 96 49 47 50 101 51
REMARK SMILES IDX 95 52 97 53 48 54 100 55 94 56 93 57 49 59 81 60 61 61 80 62
REMARK SMILES IDX 62 63 65 64 79 65 98 66 63 67 64 68 78 70 99 71 66 72 50 73
REMARK SMILES IDX 51 74 59 75 52 76 58 77 60 78 57 79 53 80 54 81 55 82 56 83
REMARK SMILES IDX 82 84 83 85 91 86 84 87 90 88 92 89 89 90 85 91 86 92 87 93
REMARK SMILES IDX 88 94 67 95 68 96 76 97 69 98 75 99 77 100 74 101 70 102
REMARK SMILES IDX 71 103 72 104 73 105
REMARK H PARENT 97 58 65 69
REMARK Flexibility Score: inf
ROOT
ATOM      1  C   UNL A   1      44.095  25.891  37.913  1.00  0.00     0.188 C 
ENDROOT
BRANCH   1   2
ATOM      2  O   UNL A   1      42.765  26.399  38.079  1.00  0.00    -0.377 OA
BRANCH   2   3
ATOM      3  C   UNL A   1      41.968  26.666  36.933  1.00  0.00     0.188 C 
BRANCH   3   4
ATOM      4  C   UNL A   1      42.495  27.854  36.125  1.00  0.00     0.188 C 
BRANCH   4   5
ATOM      5  O   UNL A   1      41.596  28.940  35.926  1.00  0.00    -0.376 OA
BRANCH   5   6
ATOM      6  C   UNL A   1      42.142  30.228  35.652  1.00  0.00     0.202 C 
BRANCH   6   7
ATOM      7  C   UNL A   1      41.179  31.422  35.682  1.00  0.00     0.261 C 
BRANCH   7   8
ATOM      8  O   UNL A   1      39.956  31.180  36.414  1.00  0.00    -0.462 OA
BRANCH   8   9
ATOM      9  C   UNL A   1      39.386  32.275  36.967  1.00  0.00     0.329 C 
ATOM     10  O   UNL A   1      39.587  32.641  38.126  1.00  0.00    -0.250 OA
BRANCH   9  11
ATOM     11  C   UNL A   1      38.561  33.148  36.023  1.00  0.00     0.204 C 
ATOM     12  N   UNL A   1      39.100  34.038  34.963  1.00  0.00    -0.298 N 
ATOM     13  C   UNL A   1      38.214  33.953  33.874  1.00  0.00     0.048 A 
ATOM     14  C   UNL A   1      38.093  34.842  32.833  1.00  0.00     0.028 A 
ATOM     15  C   UNL A   1      37.395  32.835  33.970  1.00  0.00    -0.020 A 
ATOM     16  C   UNL A   1      37.629  32.146  35.270  1.00  0.00     0.075 C 
ATOM     17  C   UNL A   1      37.147  34.570  31.862  1.00  0.00     0.024 A 
ATOM     18  C   UNL A   1      36.574  32.465  32.912  1.00  0.00     0.027 A 
ATOM     19  C   UNL A   1      36.489  33.344  31.827  1.00  0.00     0.083 A 
BRANCH  12  20
ATOM     20  C   UNL A   1      39.886  35.157  35.108  1.00  0.00     0.227 C 
ATOM     21  O   UNL A   1      39.460  36.169  35.665  1.00  0.00    -0.275 OA
BRANCH  20  22
ATOM     22  C   UNL A   1      41.368  34.996  34.771  1.00  0.00     0.097 C 
ATOM     23  C   UNL A   1      41.607  34.872  33.265  1.00  0.00     0.014 C 
ENDBRANCH  20  22
ENDBRANCH  12  20
BRANCH  19  24
ATOM     24  S   UNL A   1      35.742  32.844  30.289  1.00  0.00     0.243 S 
ATOM     25  O   UNL A   1      34.476  32.207  30.633  1.00  0.00    -0.207 OA
ATOM     26  O   UNL A   1      35.794  33.992  29.414  1.00  0.00    -0.207 OA
BRANCH  24  27
ATOM     27  N   UNL A   1      36.770  31.640  29.706  1.00  0.00    -0.198 NA
ATOM     28  C   UNL A   1      36.286  30.303  29.335  1.00  0.00     0.103 C 
ATOM     29  C   UNL A   1      38.221  31.818  29.600  1.00  0.00     0.103 C 
ATOM     30  C   UNL A   1      36.904  29.247  30.247  1.00  0.00     0.020 C 
ATOM     31  C   UNL A   1      38.965  30.828  30.492  1.00  0.00     0.020 C 
ATOM     32  C   UNL A   1      38.423  29.384  30.467  1.00  0.00    -0.012 C 
ATOM     33  C   UNL A   1      38.828  28.661  31.762  1.00  0.00     0.008 C 
ENDBRANCH  24  27
ENDBRANCH  19  24
ENDBRANCH   9  11
ENDBRANCH   8   9
ENDBRANCH   7   8
ENDBRANCH   6   7
ENDBRANCH   5   6
ENDBRANCH   4   5
ENDBRANCH   3   4
ENDBRANCH   2   3
ENDBRANCH   1   2
BRANCH   1  34
ATOM     34  C   UNL A   1      45.248  26.725  38.472  1.00  0.00     0.188 C 
BRANCH  34  35
ATOM     35  O   UNL A   1      44.858  27.827  39.293  1.00  0.00    -0.376 OA
BRANCH  35  36
ATOM     36  C   UNL A   1      45.840  28.351  40.187  1.00  0.00     0.202 C 
BRANCH  36  37
ATOM     37  C   UNL A   1      46.044  29.866  40.126  1.00  0.00     0.261 C 
BRANCH  37  38
ATOM     38  O   UNL A   1      45.946  30.363  38.781  1.00  0.00    -0.460 OA
BRANCH  38  39
ATOM     39  C   UNL A   1      47.096  30.854  38.260  1.00  0.00     0.338 C 
ATOM     40  O   UNL A   1      48.205  30.352  38.335  1.00  0.00    -0.246 OA
BRANCH  39  41
ATOM     41  C   UNL A   1      46.803  32.039  37.431  1.00  0.00     0.060 A 
ATOM     42  C   UNL A   1      45.498  32.550  37.446  1.00  0.00     0.016 A 
ATOM     43  C   UNL A   1      47.768  32.582  36.581  1.00  0.00     0.016 A 
ATOM     44  C   UNL A   1      45.138  33.570  36.566  1.00  0.00     0.010 A 
ATOM     45  C   UNL A   1      47.405  33.593  35.691  1.00  0.00     0.010 A 
ATOM     46  C   UNL A   1      46.079  34.060  35.651  1.00  0.00    -0.014 A 
BRANCH  46  47
ATOM     47  C   UNL A   1      45.639  34.907  34.519  1.00  0.00     0.031 A 
ATOM     48  C   UNL A   1      45.257  34.228  33.232  1.00  0.00     0.074 A 
ATOM     49  C   UNL A   1      45.593  36.245  34.631  1.00  0.00     0.049 A 
ATOM     50  N   UNL A   1      44.938  34.750  32.077  1.00  0.00    -0.248 NA
ATOM     51  C   UNL A   1      45.242  32.756  33.255  1.00  0.00     0.031 C 
ATOM     52  C   UNL A   1      45.902  37.000  35.844  1.00  0.00     0.029 A 
ATOM     53  N   UNL A   1      45.286  37.205  33.702  1.00  0.00    -0.354 N 
ATOM     54  C   UNL A   1      44.689  33.673  31.232  1.00  0.00     0.074 A 
ATOM     55  C   UNL A   1      44.926  32.470  32.001  1.00  0.00     0.031 C 
ATOM     56  C   UNL A   1      45.789  38.313  35.576  1.00  0.00     0.029 A 
ATOM     57  C   UNL A   1      45.440  38.489  34.168  1.00  0.00     0.049 A 
ATOM     58  H   UNL A   1      44.984  36.995  32.789  1.00  0.00     0.167 HD
ATOM     59  C   UNL A   1      44.298  33.689  29.935  1.00  0.00     0.034 A 
ATOM     60  C   UNL A   1      45.341  39.666  33.518  1.00  0.00     0.034 A 
ATOM     61  C   UNL A   1      44.093  34.899  29.180  1.00  0.00     0.049 A 
ATOM     62  C   UNL A   1      44.984  39.661  32.052  1.00  0.00     0.074 A 
ATOM     63  C   UNL A   1      43.702  35.041  27.860  1.00  0.00     0.029 A 
ATOM     64  N   UNL A   1      44.278  36.183  29.679  1.00  0.00    -0.354 N 
ATOM     65  N   UNL A   1      44.753  38.638  31.260  1.00  0.00    -0.248 NA
ATOM     66  C   UNL A   1      44.870  40.969  31.392  1.00  0.00     0.031 C 
ATOM     67  C   UNL A   1      43.709  36.406  27.545  1.00  0.00     0.029 A 
ATOM     68  C   UNL A   1      44.035  37.120  28.687  1.00  0.00     0.049 A 
ATOM     69  H   UNL A   1      44.542  36.396  30.603  1.00  0.00     0.167 HD
ATOM     70  C   UNL A   1      44.436  39.182  30.018  1.00  0.00     0.074 A 
ATOM     71  C   UNL A   1      44.500  40.621  30.168  1.00  0.00     0.031 C 
ATOM     72  C   UNL A   1      44.111  38.551  28.860  1.00  0.00     0.034 A 
BRANCH  59  73
ATOM     73  C   UNL A   1      44.133  32.354  29.250  1.00  0.00     0.023 A 
ATOM     74  C   UNL A   1      45.137  31.820  28.421  1.00  0.00     0.031 A 
ATOM     75  C   UNL A   1      42.936  31.631  29.385  1.00  0.00     0.131 A 
ATOM     76  C   UNL A   1      44.897  30.637  27.705  1.00  0.00     0.055 A 
ATOM     77  C   UNL A   1      42.732  30.416  28.729  1.00  0.00     0.041 A 
ATOM     78  F   UNL A   1      41.934  32.104  30.142  1.00  0.00    -0.206 F 
ATOM     79  C   UNL A   1      43.709  29.919  27.870  1.00  0.00     0.022 A 
BRANCH  76  80
ATOM     80  S   UNL A   1      46.097  30.126  26.445  1.00  0.00     0.124 S 
ATOM     81  O   UNL A   1      45.420  28.983  25.837  1.00  0.00    -0.237 OA
ATOM     82  O   UNL A   1      46.210  31.319  25.614  1.00  0.00    -0.237 OA
ATOM     83  O   UNL A   1      47.289  29.792  27.223  1.00  0.00    -0.744 OA
ENDBRANCH  76  80
ENDBRANCH  59  73
BRANCH  60  84
ATOM     84  C   UNL A   1      45.628  40.945  34.227  1.00  0.00     0.023 A 
ATOM     85  C   UNL A   1      46.935  41.450  34.317  1.00  0.00     0.031 A 
ATOM     86  C   UNL A   1      44.598  41.660  34.866  1.00  0.00     0.131 A 
ATOM     87  C   UNL A   1      47.185  42.612  35.063  1.00  0.00     0.055 A 
ATOM     88  C   UNL A   1      44.845  42.840  35.568  1.00  0.00     0.041 A 
ATOM     89  F   UNL A   1      43.331  41.219  34.810  1.00  0.00    -0.206 F 
ATOM     90  C   UNL A   1      46.148  43.317  35.679  1.00  0.00     0.022 A 
BRANCH  87  91
ATOM     91  S   UNL A   1      48.902  43.152  35.279  1.00  0.00     0.124 S 
ATOM     92  O   UNL A   1      49.377  43.196  33.901  1.00  0.00    -0.237 OA
ATOM     93  O   UNL A   1      48.734  44.440  35.942  1.00  0.00    -0.237 OA
ATOM     94  O   UNL A   1      49.488  42.099  36.108  1.00  0.00    -0.744 OA
ENDBRANCH  87  91
ENDBRANCH  60  84
BRANCH  72  95
ATOM     95  C   UNL A   1      43.748  39.424  27.684  1.00  0.00     0.023 A 
ATOM     96  C   UNL A   1      44.729  40.038  26.886  1.00  0.00     0.031 A 
ATOM     97  C   UNL A   1      42.397  39.638  27.361  1.00  0.00     0.131 A 
ATOM     98  C   UNL A   1      44.341  40.876  25.830  1.00  0.00     0.055 A 
ATOM     99  C   UNL A   1      42.019  40.432  26.278  1.00  0.00     0.041 A 
ATOM    100  F   UNL A   1      41.422  39.073  28.091  1.00  0.00    -0.206 F 
ATOM    101  C   UNL A   1      42.993  41.065  25.512  1.00  0.00     0.022 A 
BRANCH  98 102
ATOM    102  S   UNL A   1      45.622  41.778  24.917  1.00  0.00     0.124 S 
ATOM    103  O   UNL A   1      44.872  42.903  24.370  1.00  0.00    -0.237 OA
ATOM    104  O   UNL A   1      46.584  42.103  25.966  1.00  0.00    -0.237 OA
ATOM    105  O   UNL A   1      46.090  40.805  23.930  1.00  0.00    -0.744 OA
ENDBRANCH  98 102
ENDBRANCH  72  95
ENDBRANCH  46  47
ENDBRANCH  39  41
ENDBRANCH  38  39
ENDBRANCH  37  38
ENDBRANCH  36  37
ENDBRANCH  35  36
ENDBRANCH  34  35
ENDBRANCH   1  34
TORSDOF 27
ENDMDL
MODEL 3
REMARK VINA RESULT:      -7.7      6.569     14.766
REMARK SMILES CCC(=O)N1c2ccc(S(=O)(=O)N3CCC(C)CC3)cc2C[C@H]1C(=O)OCCOCCOCCOCCOC(=O)c1ccc(-c2c3nc(c(-c4cc(S(=O)(=O)[O-])ccc4F)c4ccc([nH]4)c(-c4cc(S(=O)(=O)[O-])ccc4F)c4nc(c(-c5cc(S(=O)(=O)[O-])ccc5F)c5ccc2[nH]5)C=C4)C=C3)cc1
REMARK SMILES IDX 33 1 32 2 31 3 30 4 29 5 28 6 27 7 26 8 24 9 25 10 23 11
REMARK SMILES IDX 5 12 6 13 7 14 21 15 22 16 8 17 20 18 9 19 3 20 4 21 2 22
REMARK SMILES IDX 1 23 10 24 11 25 12 26 13 27 14 28 19 29 15 30 18 31 16 32
REMARK SMILES IDX 17 33 34 34 35 35 36 36 37 37 38 38 39 39 40 40 41 41 42 42
REMARK SMILES IDX 103 43 43 44 102 45 44 46 45 47 46 48 96 49 47 50 101 51
REMARK SMILES IDX 95 52 97 53 48 54 100 55 94 56 93 57 49 59 81 60 61 61 80 62
REMARK SMILES IDX 62 63 65 64 79 65 98 66 63 67 64 68 78 70 99 71 66 72 50 73
REMARK SMILES IDX 51 74 59 75 52 76 58 77 60 78 57 79 53 80 54 81 55 82 56 83
REMARK SMILES IDX 82 84 83 85 91 86 84 87 90 88 92 89 89 90 85 91 86 92 87 93
REMARK SMILES IDX 88 94 67 95 68 96 76 97 69 98 75 99 77 100 74 101 70 102
REMARK SMILES IDX 71 103 72 104 73 105
REMARK H PARENT 97 58 65 69
REMARK Flexibility Score: inf
ROOT
ATOM      1  C   UNL A   1      48.664  31.504  37.880  1.00  0.00     0.188 C 
ENDROOT
BRANCH   1   2
ATOM      2  O   UNL A   1      47.822  32.185  38.819  1.00  0.00    -0.377 OA
BRANCH   2   3
ATOM      3  C   UNL A   1      46.410  32.114  38.678  1.00  0.00     0.188 C 
BRANCH   3   4
ATOM      4  C   UNL A   1      45.821  33.400  38.095  1.00  0.00     0.188 C 
BRANCH   4   5
ATOM      5  O   UNL A   1      44.611  33.871  38.681  1.00  0.00    -0.376 OA
BRANCH   5   6
ATOM      6  C   UNL A   1      43.446  33.936  37.863  1.00  0.00     0.202 C 
BRANCH   6   7
ATOM      7  C   UNL A   1      43.415  35.010  36.766  1.00  0.00     0.261 C 
BRANCH   7   8
ATOM      8  O   UNL A   1      44.363  36.084  36.960  1.00  0.00    -0.462 OA
BRANCH   8   9
ATOM      9  C   UNL A   1      44.164  37.177  36.190  1.00  0.00     0.329 C 
ATOM     10  O   UNL A   1      43.760  38.258  36.622  1.00  0.00    -0.250 OA
BRANCH   9  11
ATOM     11  C   UNL A   1      44.605  37.056  34.732  1.00  0.00     0.204 C 
ATOM     12  N   UNL A   1      45.541  36.041  34.184  1.00  0.00    -0.298 N 
ATOM     13  C   UNL A   1      45.058  35.689  32.912  1.00  0.00     0.048 A 
ATOM     14  C   UNL A   1      45.757  35.078  31.899  1.00  0.00     0.028 A 
ATOM     15  C   UNL A   1      43.732  36.070  32.748  1.00  0.00    -0.020 A 
ATOM     16  C   UNL A   1      43.279  36.850  33.932  1.00  0.00     0.075 C 
ATOM     17  C   UNL A   1      45.088  34.825  30.716  1.00  0.00     0.024 A 
ATOM     18  C   UNL A   1      43.008  35.657  31.635  1.00  0.00     0.027 A 
ATOM     19  C   UNL A   1      43.708  34.989  30.625  1.00  0.00     0.083 A 
BRANCH  12  20
ATOM     20  C   UNL A   1      46.875  35.871  34.470  1.00  0.00     0.227 C 
ATOM     21  O   UNL A   1      47.258  34.972  35.219  1.00  0.00    -0.275 OA
BRANCH  20  22
ATOM     22  C   UNL A   1      47.860  36.683  33.632  1.00  0.00     0.097 C 
ATOM     23  C   UNL A   1      47.977  38.129  34.118  1.00  0.00     0.014 C 
ENDBRANCH  20  22
ENDBRANCH  12  20
BRANCH  19  24
ATOM     24  S   UNL A   1      42.853  34.132  29.318  1.00  0.00     0.243 S 
ATOM     25  O   UNL A   1      41.430  34.384  29.523  1.00  0.00    -0.207 OA
ATOM     26  O   UNL A   1      43.513  34.497  28.086  1.00  0.00    -0.207 OA
BRANCH  24  27
ATOM     27  N   UNL A   1      43.129  32.501  29.648  1.00  0.00    -0.198 NA
ATOM     28  C   UNL A   1      42.714  31.872  30.909  1.00  0.00     0.103 C 
ATOM     29  C   UNL A   1      43.863  31.621  28.736  1.00  0.00     0.103 C 
ATOM     30  C   UNL A   1      43.937  31.393  31.686  1.00  0.00     0.020 C 
ATOM     31  C   UNL A   1      45.135  31.087  29.388  1.00  0.00     0.020 C 
ATOM     32  C   UNL A   1      44.979  30.623  30.850  1.00  0.00    -0.012 C 
ATOM     33  C   UNL A   1      46.346  30.669  31.553  1.00  0.00     0.008 C 
ENDBRANCH  24  27
ENDBRANCH  19  24
ENDBRANCH   9  11
ENDBRANCH   8   9
ENDBRANCH   7   8
ENDBRANCH   6   7
ENDBRANCH   5   6
ENDBRANCH   4   5
ENDBRANCH   3   4
ENDBRANCH   2   3
ENDBRANCH   1   2
BRANCH   1  34
ATOM     34  C   UNL A   1      49.049  30.057  38.192  1.00  0.00     0.188 C 
BRANCH  34  35
ATOM     35  O   UNL A   1      50.144  29.543  37.432  1.00  0.00    -0.376 OA
BRANCH  35  36
ATOM     36  C   UNL A   1      49.839  28.590  36.414  1.00  0.00     0.202 C 
BRANCH  36  37
ATOM     37  C   UNL A   1      49.013  27.385  36.868  1.00  0.00     0.261 C 
BRANCH  37  38
ATOM     38  O   UNL A   1      48.528  26.620  35.753  1.00  0.00    -0.460 OA
BRANCH  38  39
ATOM     39  C   UNL A   1      47.406  25.898  35.990  1.00  0.00     0.338 C 
ATOM     40  O   UNL A   1      47.327  24.852  36.611  1.00  0.00    -0.246 OA
BRANCH  39  41
ATOM     41  C   UNL A   1      46.225  26.643  35.513  1.00  0.00     0.060 A 
ATOM     42  C   UNL A   1      44.976  26.009  35.565  1.00  0.00     0.016 A 
ATOM     43  C   UNL A   1      46.354  27.909  34.936  1.00  0.00     0.016 A 
ATOM     44  C   UNL A   1      43.862  26.614  34.986  1.00  0.00     0.010 A 
ATOM     45  C   UNL A   1      45.242  28.508  34.346  1.00  0.00     0.010 A 
ATOM     46  C   UNL A   1      44.003  27.844  34.331  1.00  0.00    -0.014 A 
BRANCH  46  47
ATOM     47  C   UNL A   1      42.919  28.345  33.456  1.00  0.00     0.031 A 
ATOM     48  C   UNL A   1      41.867  29.232  34.065  1.00  0.00     0.074 A 
ATOM     49  C   UNL A   1      42.866  28.009  32.156  1.00  0.00     0.049 A 
ATOM     50  N   UNL A   1      40.773  29.712  33.536  1.00  0.00    -0.248 NA
ATOM     51  C   UNL A   1      42.082  29.621  35.469  1.00  0.00     0.031 C 
ATOM     52  C   UNL A   1      43.854  27.191  31.456  1.00  0.00     0.029 A 
ATOM     53  N   UNL A   1      41.928  28.303  31.200  1.00  0.00    -0.354 N 
ATOM     54  C   UNL A   1      40.163  30.456  34.542  1.00  0.00     0.074 A 
ATOM     55  C   UNL A   1      40.995  30.336  35.720  1.00  0.00     0.031 C 
ATOM     56  C   UNL A   1      43.458  27.029  30.182  1.00  0.00     0.029 A 
ATOM     57  C   UNL A   1      42.172  27.697  29.989  1.00  0.00     0.049 A 
ATOM     58  H   UNL A   1      41.156  28.889  31.363  1.00  0.00     0.167 HD
ATOM     59  C   UNL A   1      39.015  31.174  34.485  1.00  0.00     0.034 A 
ATOM     60  C   UNL A   1      41.423  27.663  28.869  1.00  0.00     0.034 A 
ATOM     61  C   UNL A   1      38.187  31.259  33.308  1.00  0.00     0.049 A 
ATOM     62  C   UNL A   1      40.106  28.402  28.851  1.00  0.00     0.074 A 
ATOM     63  C   UNL A   1      37.001  31.951  33.132  1.00  0.00     0.029 A 
ATOM     64  N   UNL A   1      38.455  30.616  32.105  1.00  0.00    -0.354 N 
ATOM     65  N   UNL A   1      39.537  29.101  29.807  1.00  0.00    -0.248 NA
ATOM     66  C   UNL A   1      39.334  28.352  27.602  1.00  0.00     0.031 C 
ATOM     67  C   UNL A   1      36.522  31.677  31.844  1.00  0.00     0.029 A 
ATOM     68  C   UNL A   1      37.444  30.873  31.192  1.00  0.00     0.049 A 
ATOM     69  H   UNL A   1      39.247  30.060  31.927  1.00  0.00     0.167 HD
ATOM     70  C   UNL A   1      38.355  29.598  29.262  1.00  0.00     0.074 A 
ATOM     71  C   UNL A   1      38.298  29.124  27.895  1.00  0.00     0.031 C 
ATOM     72  C   UNL A   1      37.407  30.383  29.835  1.00  0.00     0.034 A 
BRANCH  59  73
ATOM     73  C   UNL A   1      38.571  31.863  35.752  1.00  0.00     0.023 A 
ATOM     74  C   UNL A   1      38.055  31.141  36.844  1.00  0.00     0.031 A 
ATOM     75  C   UNL A   1      38.615  33.264  35.850  1.00  0.00     0.131 A 
ATOM     76  C   UNL A   1      37.538  31.826  37.954  1.00  0.00     0.055 A 
ATOM     77  C   UNL A   1      38.169  33.936  36.990  1.00  0.00     0.041 A 
ATOM     78  F   UNL A   1      39.074  34.006  34.830  1.00  0.00    -0.206 F 
ATOM     79  C   UNL A   1      37.612  33.219  38.044  1.00  0.00     0.022 A 
BRANCH  76  80
ATOM     80  S   UNL A   1      36.638  30.883  39.215  1.00  0.00     0.124 S 
ATOM     81  O   UNL A   1      35.512  31.769  39.499  1.00  0.00    -0.237 OA
ATOM     82  O   UNL A   1      36.317  29.645  38.514  1.00  0.00    -0.237 OA
ATOM     83  O   UNL A   1      37.607  30.751  40.301  1.00  0.00    -0.744 OA
ENDBRANCH  76  80
ENDBRANCH  59  73
BRANCH  60  84
ATOM     84  C   UNL A   1      41.866  26.870  27.688  1.00  0.00     0.023 A 
ATOM     85  C   UNL A   1      41.819  25.467  27.696  1.00  0.00     0.031 A 
ATOM     86  C   UNL A   1      42.388  27.507  26.548  1.00  0.00     0.131 A 
ATOM     87  C   UNL A   1      42.323  24.745  26.602  1.00  0.00     0.055 A 
ATOM     88  C   UNL A   1      42.845  26.787  25.444  1.00  0.00     0.041 A 
ATOM     89  F   UNL A   1      42.455  28.847  26.491  1.00  0.00    -0.206 F 
ATOM     90  C   UNL A   1      42.824  25.395  25.473  1.00  0.00     0.022 A 
BRANCH  87  91
ATOM     91  S   UNL A   1      42.381  22.936  26.709  1.00  0.00     0.124 S 
ATOM     92  O   UNL A   1      43.713  22.713  27.259  1.00  0.00    -0.237 OA
ATOM     93  O   UNL A   1      41.262  22.649  27.600  1.00  0.00    -0.237 OA
ATOM     94  O   UNL A   1      42.196  22.507  25.324  1.00  0.00    -0.744 OA
ENDBRANCH  87  91
ENDBRANCH  60  84
BRANCH  72  95
ATOM     95  C   UNL A   1      36.259  30.819  28.959  1.00  0.00     0.023 A 
ATOM     96  C   UNL A   1      35.361  29.893  28.399  1.00  0.00     0.031 A 
ATOM     97  C   UNL A   1      36.064  32.184  28.687  1.00  0.00     0.131 A 
ATOM     98  C   UNL A   1      34.334  30.344  27.555  1.00  0.00     0.055 A 
ATOM     99  C   UNL A   1      35.010  32.629  27.888  1.00  0.00     0.041 A 
ATOM    100  F   UNL A   1      36.893  33.108  29.198  1.00  0.00    -0.206 F 
ATOM    101  C   UNL A   1      34.145  31.706  27.308  1.00  0.00     0.022 A 
BRANCH  98 102
ATOM    102  S   UNL A   1      33.289  29.118  26.723  1.00  0.00     0.124 S 
ATOM    103  O   UNL A   1      32.063  29.177  27.511  1.00  0.00    -0.237 OA
ATOM    104  O   UNL A   1      33.202  29.649  25.366  1.00  0.00    -0.237 OA
ATOM    105  O   UNL A   1      34.049  27.874  26.852  1.00  0.00    -0.744 OA
ENDBRANCH  98 102
ENDBRANCH  72  95
ENDBRANCH  46  47
ENDBRANCH  39  41
ENDBRANCH  38  39
ENDBRANCH  37  38
ENDBRANCH  36  37
ENDBRANCH  35  36
ENDBRANCH  34  35
ENDBRANCH   1  34
TORSDOF 27
ENDMDL
