MODEL 1
REMARK VINA RESULT:      -7.7      0.000      0.000
REMARK SMILES CCC[C@@H]([NH2+]Cc1cc(Cl)cs1)C(=O)OCCOCCOCCOCCOC(=O)c1ccc(-c2c3nc(c(-c4cc(S(=O)(=O)[O-])ccc4F)c4ccc([nH]4)c(-c4cc(S(=O)(=O)[O-])ccc4F)c4nc(c(-c5cc(S(=O)(=O)[O-])ccc5F)c5ccc2[nH]5)C=C4)C=C3)cc1
REMARK SMILES IDX 21 1 20 2 19 3 18 4 17 5 16 6 15 7 13 8 14 9 4 10 3 11 2 12
REMARK SMILES IDX 1 13 5 14 6 17 7 18 8 19 12 20 9 21 11 22 10 23 22 24 23 25
REMARK SMILES IDX 24 26 25 27 26 28 27 29 28 30 29 31 30 32 31 33 92 34 32 35
REMARK SMILES IDX 91 36 33 37 34 38 35 39 85 40 36 41 90 42 84 43 86 44 37 45
REMARK SMILES IDX 89 46 83 47 82 48 38 50 70 51 50 52 69 53 51 54 54 55 68 56
REMARK SMILES IDX 87 57 52 58 53 59 67 61 88 62 55 63 39 64 40 65 48 66 41 67
REMARK SMILES IDX 47 68 49 69 46 70 42 71 43 72 44 73 45 74 71 75 72 76 80 77
REMARK SMILES IDX 73 78 79 79 81 80 78 81 74 82 75 83 76 84 77 85 56 86 57 87
REMARK SMILES IDX 65 88 58 89 64 90 66 91 63 92 59 93 60 94 61 95 62 96
REMARK H PARENT 5 15 5 16 86 49 54 60
REMARK Flexibility Score: inf
ROOT
ATOM      1  O   UNL A   1      32.699  31.599  27.428  1.00  0.00    -0.377 OA
ENDROOT
BRANCH   1   2
ATOM      2  C   UNL A   1      32.182  30.596  26.584  1.00  0.00     0.188 C 
BRANCH   2   3
ATOM      3  C   UNL A   1      32.999  29.302  26.516  1.00  0.00     0.188 C 
BRANCH   3   4
ATOM      4  O   UNL A   1      33.783  28.994  25.384  1.00  0.00    -0.376 OA
BRANCH   4   5
ATOM      5  C   UNL A   1      34.359  27.724  25.127  1.00  0.00     0.202 C 
BRANCH   5   6
ATOM      6  C   UNL A   1      33.766  26.566  24.299  1.00  0.00     0.261 C 
BRANCH   6   7
ATOM      7  O   UNL A   1      34.096  26.454  22.912  1.00  0.00    -0.459 OA
BRANCH   7   8
ATOM      8  C   UNL A   1      33.190  25.753  22.201  1.00  0.00     0.364 C 
ATOM      9  O   UNL A   1      33.501  25.049  21.240  1.00  0.00    -0.245 OA
BRANCH   8  10
ATOM     10  C   UNL A   1      31.731  25.840  22.705  1.00  0.00     0.293 C 
BRANCH  10  11
ATOM     11  C   UNL A   1      30.842  27.008  22.216  1.00  0.00     0.077 C 
BRANCH  11  12
ATOM     12  C   UNL A   1      29.984  27.664  23.325  1.00  0.00     0.003 C 
ATOM     13  C   UNL A   1      29.864  29.183  23.247  1.00  0.00     0.004 C 
ENDBRANCH  11  12
ENDBRANCH  10  11
BRANCH  10  14
ATOM     14  N   UNL A   1      31.006  24.566  22.456  1.00  0.00    -0.330 N 
ATOM     15  H   UNL A   1      31.624  23.950  21.930  1.00  0.00     0.347 HD
ATOM     16  H   UNL A   1      30.156  24.820  21.951  1.00  0.00     0.347 HD
BRANCH  14  17
ATOM     17  C   UNL A   1      30.565  23.851  23.658  1.00  0.00     0.309 C 
BRANCH  17  18
ATOM     18  C   UNL A   1      31.677  23.163  24.399  1.00  0.00     0.060 A 
ATOM     19  C   UNL A   1      32.858  22.630  23.911  1.00  0.00     0.041 A 
ATOM     20  S   UNL A   1      31.565  22.954  26.100  1.00  0.00    -0.141 S 
ATOM     21  C   UNL A   1      33.618  21.980  24.919  1.00  0.00     0.052 A 
ATOM     22  C   UNL A   1      33.030  22.077  26.157  1.00  0.00     0.085 A 
ATOM     23  Cl  UNL A   1      35.087  21.173  24.591  1.00  0.00    -0.083 Cl
ENDBRANCH  17  18
ENDBRANCH  14  17
ENDBRANCH  10  14
ENDBRANCH   8  10
ENDBRANCH   7   8
ENDBRANCH   6   7
ENDBRANCH   5   6
ENDBRANCH   4   5
ENDBRANCH   3   4
ENDBRANCH   2   3
ENDBRANCH   1   2
BRANCH   1  24
ATOM     24  C   UNL A   1      34.106  31.700  27.611  1.00  0.00     0.188 C 
BRANCH  24  25
ATOM     25  C   UNL A   1      34.700  32.822  28.486  1.00  0.00     0.188 C 
BRANCH  25  26
ATOM     26  O   UNL A   1      33.982  33.072  29.686  1.00  0.00    -0.376 OA
BRANCH  26  27
ATOM     27  C   UNL A   1      34.435  34.117  30.533  1.00  0.00     0.202 C 
BRANCH  27  28
ATOM     28  C   UNL A   1      35.573  33.796  31.517  1.00  0.00     0.261 C 
BRANCH  28  29
ATOM     29  O   UNL A   1      36.902  34.169  31.117  1.00  0.00    -0.460 OA
BRANCH  29  30
ATOM     30  C   UNL A   1      37.939  33.421  31.546  1.00  0.00     0.338 C 
ATOM     31  O   UNL A   1      37.877  32.386  32.189  1.00  0.00    -0.246 OA
BRANCH  30  32
ATOM     32  C   UNL A   1      39.169  33.960  30.927  1.00  0.00     0.060 A 
ATOM     33  C   UNL A   1      39.149  34.334  29.576  1.00  0.00     0.016 A 
ATOM     34  C   UNL A   1      40.335  34.106  31.680  1.00  0.00     0.016 A 
ATOM     35  C   UNL A   1      40.305  34.828  28.967  1.00  0.00     0.010 A 
ATOM     36  C   UNL A   1      41.498  34.577  31.063  1.00  0.00     0.010 A 
ATOM     37  C   UNL A   1      41.497  34.914  29.697  1.00  0.00    -0.014 A 
BRANCH  37  38
ATOM     38  C   UNL A   1      42.785  35.164  29.000  1.00  0.00     0.031 A 
ATOM     39  C   UNL A   1      43.723  34.004  28.803  1.00  0.00     0.074 A 
ATOM     40  C   UNL A   1      43.116  36.387  28.548  1.00  0.00     0.049 A 
ATOM     41  N   UNL A   1      44.940  33.988  28.327  1.00  0.00    -0.248 NA
ATOM     42  C   UNL A   1      43.216  32.683  29.208  1.00  0.00     0.031 C 
ATOM     43  C   UNL A   1      42.267  37.574  28.622  1.00  0.00     0.029 A 
ATOM     44  N   UNL A   1      44.269  36.835  27.948  1.00  0.00    -0.354 N 
ATOM     45  C   UNL A   1      45.351  32.660  28.387  1.00  0.00     0.074 A 
ATOM     46  C   UNL A   1      44.263  31.909  28.974  1.00  0.00     0.031 C 
ATOM     47  C   UNL A   1      42.934  38.620  28.104  1.00  0.00     0.029 A 
ATOM     48  C   UNL A   1      44.276  38.190  27.709  1.00  0.00     0.049 A 
ATOM     49  H   UNL A   1      45.018  36.242  27.712  1.00  0.00     0.167 HD
ATOM     50  C   UNL A   1      46.527  32.119  27.985  1.00  0.00     0.034 A 
ATOM     51  C   UNL A   1      45.264  38.994  27.263  1.00  0.00     0.034 A 
ATOM     52  C   UNL A   1      47.606  32.886  27.412  1.00  0.00     0.049 A 
ATOM     53  C   UNL A   1      46.609  38.386  26.925  1.00  0.00     0.074 A 
ATOM     54  C   UNL A   1      48.832  32.437  26.954  1.00  0.00     0.029 A 
ATOM     55  N   UNL A   1      47.596  34.264  27.235  1.00  0.00    -0.354 N 
ATOM     56  N   UNL A   1      46.986  37.129  26.980  1.00  0.00    -0.248 NA
ATOM     57  C   UNL A   1      47.660  39.305  26.466  1.00  0.00     0.031 C 
ATOM     58  C   UNL A   1      49.596  33.549  26.586  1.00  0.00     0.029 A 
ATOM     59  C   UNL A   1      48.813  34.684  26.720  1.00  0.00     0.049 A 
ATOM     60  H   UNL A   1      46.837  34.855  27.445  1.00  0.00     0.167 HD
ATOM     61  C   UNL A   1      48.305  37.107  26.530  1.00  0.00     0.074 A 
ATOM     62  C   UNL A   1      48.653  38.471  26.197  1.00  0.00     0.031 C 
ATOM     63  C   UNL A   1      49.151  36.052  26.398  1.00  0.00     0.034 A 
BRANCH  50  64
ATOM     64  C   UNL A   1      46.727  30.640  28.209  1.00  0.00     0.023 A 
ATOM     65  C   UNL A   1      46.338  29.683  27.257  1.00  0.00     0.031 A 
ATOM     66  C   UNL A   1      47.299  30.180  29.409  1.00  0.00     0.131 A 
ATOM     67  C   UNL A   1      46.463  28.316  27.548  1.00  0.00     0.055 A 
ATOM     68  C   UNL A   1      47.498  28.821  29.657  1.00  0.00     0.041 A 
ATOM     69  F   UNL A   1      47.664  31.044  30.369  1.00  0.00    -0.206 F 
ATOM     70  C   UNL A   1      47.066  27.878  28.730  1.00  0.00     0.022 A 
BRANCH  67  71
ATOM     71  S   UNL A   1      45.693  27.117  26.425  1.00  0.00     0.124 S 
ATOM     72  O   UNL A   1      45.044  27.997  25.455  1.00  0.00    -0.237 OA
ATOM     73  O   UNL A   1      46.839  26.362  25.935  1.00  0.00    -0.237 OA
ATOM     74  O   UNL A   1      44.778  26.375  27.290  1.00  0.00    -0.744 OA
ENDBRANCH  67  71
ENDBRANCH  50  64
BRANCH  51  75
ATOM     75  C   UNL A   1      45.058  40.470  27.163  1.00  0.00     0.023 A 
ATOM     76  C   UNL A   1      44.696  41.074  25.949  1.00  0.00     0.031 A 
ATOM     77  C   UNL A   1      45.289  41.309  28.269  1.00  0.00     0.131 A 
ATOM     78  C   UNL A   1      44.625  42.474  25.856  1.00  0.00     0.055 A 
ATOM     79  C   UNL A   1      45.155  42.696  28.188  1.00  0.00     0.041 A 
ATOM     80  F   UNL A   1      45.650  40.787  29.453  1.00  0.00    -0.206 F 
ATOM     81  C   UNL A   1      44.835  43.288  26.971  1.00  0.00     0.022 A 
BRANCH  78  82
ATOM     82  S   UNL A   1      44.358  43.225  24.225  1.00  0.00     0.124 S 
ATOM     83  O   UNL A   1      44.953  44.544  24.407  1.00  0.00    -0.237 OA
ATOM     84  O   UNL A   1      45.081  42.309  23.349  1.00  0.00    -0.237 OA
ATOM     85  O   UNL A   1      42.904  43.210  24.077  1.00  0.00    -0.744 OA
ENDBRANCH  78  82
ENDBRANCH  51  75
BRANCH  63  86
ATOM     86  C   UNL A   1      50.521  36.324  25.822  1.00  0.00     0.023 A 
ATOM     87  C   UNL A   1      51.665  36.420  26.634  1.00  0.00     0.031 A 
ATOM     88  C   UNL A   1      50.685  36.473  24.433  1.00  0.00     0.131 A 
ATOM     89  C   UNL A   1      52.912  36.704  26.055  1.00  0.00     0.055 A 
ATOM     90  C   UNL A   1      51.938  36.689  23.857  1.00  0.00     0.041 A 
ATOM     91  F   UNL A   1      49.628  36.396  23.608  1.00  0.00    -0.206 F 
ATOM     92  C   UNL A   1      53.059  36.816  24.670  1.00  0.00     0.022 A 
BRANCH  89  93
ATOM     93  S   UNL A   1      54.331  37.007  27.144  1.00  0.00     0.124 S 
ATOM     94  O   UNL A   1      54.212  35.916  28.105  1.00  0.00    -0.237 OA
ATOM     95  O   UNL A   1      55.458  36.923  26.221  1.00  0.00    -0.237 OA
ATOM     96  O   UNL A   1      54.070  38.340  27.684  1.00  0.00    -0.744 OA
ENDBRANCH  89  93
ENDBRANCH  63  86
ENDBRANCH  37  38
ENDBRANCH  30  32
ENDBRANCH  29  30
ENDBRANCH  28  29
ENDBRANCH  27  28
ENDBRANCH  26  27
ENDBRANCH  25  26
ENDBRANCH  24  25
ENDBRANCH   1  24
TORSDOF 28
ENDMDL
MODEL 2
REMARK VINA RESULT:      -7.3      4.231      9.698
REMARK SMILES CCC[C@@H]([NH2+]Cc1cc(Cl)cs1)C(=O)OCCOCCOCCOCCOC(=O)c1ccc(-c2c3nc(c(-c4cc(S(=O)(=O)[O-])ccc4F)c4ccc([nH]4)c(-c4cc(S(=O)(=O)[O-])ccc4F)c4nc(c(-c5cc(S(=O)(=O)[O-])ccc5F)c5ccc2[nH]5)C=C4)C=C3)cc1
REMARK SMILES IDX 21 1 20 2 19 3 18 4 17 5 16 6 15 7 13 8 14 9 4 10 3 11 2 12
REMARK SMILES IDX 1 13 5 14 6 17 7 18 8 19 12 20 9 21 11 22 10 23 22 24 23 25
REMARK SMILES IDX 24 26 25 27 26 28 27 29 28 30 29 31 30 32 31 33 92 34 32 35
REMARK SMILES IDX 91 36 33 37 34 38 35 39 85 40 36 41 90 42 84 43 86 44 37 45
REMARK SMILES IDX 89 46 83 47 82 48 38 50 70 51 50 52 69 53 51 54 54 55 68 56
REMARK SMILES IDX 87 57 52 58 53 59 67 61 88 62 55 63 39 64 40 65 48 66 41 67
REMARK SMILES IDX 47 68 49 69 46 70 42 71 43 72 44 73 45 74 71 75 72 76 80 77
REMARK SMILES IDX 73 78 79 79 81 80 78 81 74 82 75 83 76 84 77 85 56 86 57 87
REMARK SMILES IDX 65 88 58 89 64 90 66 91 63 92 59 93 60 94 61 95 62 96
REMARK H PARENT 5 15 5 16 86 49 54 60
REMARK Flexibility Score: inf
ROOT
ATOM      1  O   UNL A   1      40.166  20.824  27.010  1.00  0.00    -0.377 OA
ENDROOT
BRANCH   1   2
ATOM      2  C   UNL A   1      39.796  22.144  26.688  1.00  0.00     0.188 C 
BRANCH   2   3
ATOM      3  C   UNL A   1      38.447  22.299  25.978  1.00  0.00     0.188 C 
BRANCH   3   4
ATOM      4  O   UNL A   1      37.870  23.571  25.778  1.00  0.00    -0.376 OA
BRANCH   4   5
ATOM      5  C   UNL A   1      36.654  23.802  25.085  1.00  0.00     0.202 C 
BRANCH   5   6
ATOM      6  C   UNL A   1      35.354  22.976  25.155  1.00  0.00     0.261 C 
BRANCH   6   7
ATOM      7  O   UNL A   1      35.388  21.585  24.826  1.00  0.00    -0.459 OA
BRANCH   7   8
ATOM      8  C   UNL A   1      34.385  20.878  25.386  1.00  0.00     0.364 C 
ATOM      9  O   UNL A   1      34.215  20.819  26.604  1.00  0.00    -0.245 OA
BRANCH   8  10
ATOM     10  C   UNL A   1      33.420  20.186  24.397  1.00  0.00     0.293 C 
BRANCH  10  11
ATOM     11  C   UNL A   1      32.866  18.785  24.751  1.00  0.00     0.077 C 
BRANCH  11  12
ATOM     12  C   UNL A   1      33.877  17.630  24.549  1.00  0.00     0.003 C 
ATOM     13  C   UNL A   1      33.945  17.059  23.136  1.00  0.00     0.004 C 
ENDBRANCH  11  12
ENDBRANCH  10  11
BRANCH  10  14
ATOM     14  N   UNL A   1      32.271  21.072  24.068  1.00  0.00    -0.330 N 
ATOM     15  H   UNL A   1      31.637  20.553  23.463  1.00  0.00     0.347 HD
ATOM     16  H   UNL A   1      32.672  21.900  23.626  1.00  0.00     0.347 HD
BRANCH  14  17
ATOM     17  C   UNL A   1      31.505  21.558  25.221  1.00  0.00     0.309 C 
BRANCH  17  18
ATOM     18  C   UNL A   1      31.399  23.056  25.292  1.00  0.00     0.060 A 
ATOM     19  C   UNL A   1      31.067  23.960  24.298  1.00  0.00     0.041 A 
ATOM     20  S   UNL A   1      31.719  23.862  26.775  1.00  0.00    -0.141 S 
ATOM     21  C   UNL A   1      31.161  25.308  24.736  1.00  0.00     0.052 A 
ATOM     22  C   UNL A   1      31.510  25.401  26.062  1.00  0.00     0.085 A 
ATOM     23  Cl  UNL A   1      30.875  26.636  23.701  1.00  0.00    -0.083 Cl
ENDBRANCH  17  18
ENDBRANCH  14  17
ENDBRANCH  10  14
ENDBRANCH   8  10
ENDBRANCH   7   8
ENDBRANCH   6   7
ENDBRANCH   5   6
ENDBRANCH   4   5
ENDBRANCH   3   4
ENDBRANCH   2   3
ENDBRANCH   1   2
BRANCH   1  24
ATOM     24  C   UNL A   1      41.295  20.240  26.372  1.00  0.00     0.188 C 
BRANCH  24  25
ATOM     25  C   UNL A   1      42.696  20.862  26.545  1.00  0.00     0.188 C 
BRANCH  25  26
ATOM     26  O   UNL A   1      43.196  21.512  25.387  1.00  0.00    -0.376 OA
BRANCH  26  27
ATOM     27  C   UNL A   1      42.710  22.811  25.084  1.00  0.00     0.202 C 
BRANCH  27  28
ATOM     28  C   UNL A   1      43.742  23.940  24.922  1.00  0.00     0.261 C 
BRANCH  28  29
ATOM     29  O   UNL A   1      45.057  23.698  25.450  1.00  0.00    -0.460 OA
BRANCH  29  30
ATOM     30  C   UNL A   1      46.023  24.610  25.217  1.00  0.00     0.338 C 
ATOM     31  O   UNL A   1      46.960  24.502  24.443  1.00  0.00    -0.246 OA
BRANCH  30  32
ATOM     32  C   UNL A   1      45.640  25.858  25.914  1.00  0.00     0.060 A 
ATOM     33  C   UNL A   1      45.135  26.931  25.168  1.00  0.00     0.016 A 
ATOM     34  C   UNL A   1      45.770  25.962  27.300  1.00  0.00     0.016 A 
ATOM     35  C   UNL A   1      44.785  28.125  25.805  1.00  0.00     0.010 A 
ATOM     36  C   UNL A   1      45.443  27.165  27.932  1.00  0.00     0.010 A 
ATOM     37  C   UNL A   1      44.976  28.262  27.186  1.00  0.00    -0.014 A 
BRANCH  37  38
ATOM     38  C   UNL A   1      44.879  29.600  27.825  1.00  0.00     0.031 A 
ATOM     39  C   UNL A   1      46.093  30.489  27.800  1.00  0.00     0.074 A 
ATOM     40  C   UNL A   1      43.743  30.021  28.411  1.00  0.00     0.049 A 
ATOM     41  N   UNL A   1      46.292  31.643  28.378  1.00  0.00    -0.248 NA
ATOM     42  C   UNL A   1      47.241  29.998  27.019  1.00  0.00     0.031 C 
ATOM     43  C   UNL A   1      42.485  29.278  28.446  1.00  0.00     0.029 A 
ATOM     44  N   UNL A   1      43.472  31.175  29.106  1.00  0.00    -0.354 N 
ATOM     45  C   UNL A   1      47.591  32.014  28.044  1.00  0.00     0.074 A 
ATOM     46  C   UNL A   1      48.139  30.944  27.238  1.00  0.00     0.031 C 
ATOM     47  C   UNL A   1      41.580  29.989  29.142  1.00  0.00     0.029 A 
ATOM     48  C   UNL A   1      42.207  31.210  29.646  1.00  0.00     0.049 A 
ATOM     49  H   UNL A   1      44.122  31.908  29.207  1.00  0.00     0.167 HD
ATOM     50  C   UNL A   1      48.261  33.144  28.375  1.00  0.00     0.034 A 
ATOM     51  C   UNL A   1      41.639  32.103  30.484  1.00  0.00     0.034 A 
ATOM     52  C   UNL A   1      47.702  34.195  29.190  1.00  0.00     0.049 A 
ATOM     53  C   UNL A   1      42.444  33.303  30.934  1.00  0.00     0.074 A 
ATOM     54  C   UNL A   1      48.286  35.390  29.571  1.00  0.00     0.029 A 
ATOM     55  N   UNL A   1      46.437  34.171  29.763  1.00  0.00    -0.354 N 
ATOM     56  N   UNL A   1      43.670  33.647  30.608  1.00  0.00    -0.248 NA
ATOM     57  C   UNL A   1      41.790  34.234  31.864  1.00  0.00     0.031 C 
ATOM     58  C   UNL A   1      47.413  36.044  30.446  1.00  0.00     0.029 A 
ATOM     59  C   UNL A   1      46.243  35.307  30.534  1.00  0.00     0.049 A 
ATOM     60  H   UNL A   1      45.775  33.451  29.641  1.00  0.00     0.167 HD
ATOM     61  C   UNL A   1      43.916  34.850  31.267  1.00  0.00     0.074 A 
ATOM     62  C   UNL A   1      42.710  35.178  31.997  1.00  0.00     0.031 C 
ATOM     63  C   UNL A   1      45.036  35.619  31.265  1.00  0.00     0.034 A 
BRANCH  50  64
ATOM     64  C   UNL A   1      49.692  33.270  27.910  1.00  0.00     0.023 A 
ATOM     65  C   UNL A   1      50.029  33.920  26.711  1.00  0.00     0.031 A 
ATOM     66  C   UNL A   1      50.733  32.708  28.670  1.00  0.00     0.131 A 
ATOM     67  C   UNL A   1      51.363  33.935  26.275  1.00  0.00     0.055 A 
ATOM     68  C   UNL A   1      52.068  32.800  28.273  1.00  0.00     0.041 A 
ATOM     69  F   UNL A   1      50.470  32.050  29.810  1.00  0.00    -0.206 F 
ATOM     70  C   UNL A   1      52.389  33.403  27.061  1.00  0.00     0.022 A 
BRANCH  67  71
ATOM     71  S   UNL A   1      51.720  34.527  24.598  1.00  0.00     0.124 S 
ATOM     72  O   UNL A   1      50.609  35.448  24.368  1.00  0.00    -0.237 OA
ATOM     73  O   UNL A   1      53.035  35.137  24.752  1.00  0.00    -0.237 OA
ATOM     74  O   UNL A   1      51.686  33.310  23.789  1.00  0.00    -0.744 OA
ENDBRANCH  67  71
ENDBRANCH  50  64
BRANCH  51  75
ATOM     75  C   UNL A   1      40.259  31.880  31.010  1.00  0.00     0.023 A 
ATOM     76  C   UNL A   1      40.018  30.988  32.066  1.00  0.00     0.031 A 
ATOM     77  C   UNL A   1      39.148  32.507  30.415  1.00  0.00     0.131 A 
ATOM     78  C   UNL A   1      38.699  30.708  32.461  1.00  0.00     0.055 A 
ATOM     79  C   UNL A   1      37.843  32.275  30.854  1.00  0.00     0.041 A 
ATOM     80  F   UNL A   1      39.318  33.362  29.393  1.00  0.00    -0.206 F 
ATOM     81  C   UNL A   1      37.611  31.359  31.874  1.00  0.00     0.022 A 
BRANCH  78  82
ATOM     82  S   UNL A   1      38.417  29.398  33.685  1.00  0.00     0.124 S 
ATOM     83  O   UNL A   1      38.063  30.173  34.869  1.00  0.00    -0.237 OA
ATOM     84  O   UNL A   1      37.337  28.637  33.069  1.00  0.00    -0.237 OA
ATOM     85  O   UNL A   1      39.705  28.711  33.751  1.00  0.00    -0.744 OA
ENDBRANCH  78  82
ENDBRANCH  51  75
BRANCH  63  86
ATOM     86  C   UNL A   1      44.993  36.917  32.036  1.00  0.00     0.023 A 
ATOM     87  C   UNL A   1      44.569  38.121  31.447  1.00  0.00     0.031 A 
ATOM     88  C   UNL A   1      45.370  36.944  33.392  1.00  0.00     0.131 A 
ATOM     89  C   UNL A   1      44.575  39.308  32.197  1.00  0.00     0.055 A 
ATOM     90  C   UNL A   1      45.311  38.114  34.150  1.00  0.00     0.041 A 
ATOM     91  F   UNL A   1      45.788  35.827  34.007  1.00  0.00    -0.206 F 
ATOM     92  C   UNL A   1      44.922  39.308  33.550  1.00  0.00     0.022 A 
BRANCH  89  93
ATOM     93  S   UNL A   1      44.203  40.872  31.358  1.00  0.00     0.124 S 
ATOM     94  O   UNL A   1      42.750  40.816  31.244  1.00  0.00    -0.237 OA
ATOM     95  O   UNL A   1      44.731  41.862  32.291  1.00  0.00    -0.237 OA
ATOM     96  O   UNL A   1      44.929  40.764  30.093  1.00  0.00    -0.744 OA
ENDBRANCH  89  93
ENDBRANCH  63  86
ENDBRANCH  37  38
ENDBRANCH  30  32
ENDBRANCH  29  30
ENDBRANCH  28  29
ENDBRANCH  27  28
ENDBRANCH  26  27
ENDBRANCH  25  26
ENDBRANCH  24  25
ENDBRANCH   1  24
TORSDOF 28
ENDMDL
MODEL 3
REMARK VINA RESULT:      -7.3      3.978      9.613
REMARK SMILES CCC[C@@H]([NH2+]Cc1cc(Cl)cs1)C(=O)OCCOCCOCCOCCOC(=O)c1ccc(-c2c3nc(c(-c4cc(S(=O)(=O)[O-])ccc4F)c4ccc([nH]4)c(-c4cc(S(=O)(=O)[O-])ccc4F)c4nc(c(-c5cc(S(=O)(=O)[O-])ccc5F)c5ccc2[nH]5)C=C4)C=C3)cc1
REMARK SMILES IDX 21 1 20 2 19 3 18 4 17 5 16 6 15 7 13 8 14 9 4 10 3 11 2 12
REMARK SMILES IDX 1 13 5 14 6 17 7 18 8 19 12 20 9 21 11 22 10 23 22 24 23 25
REMARK SMILES IDX 24 26 25 27 26 28 27 29 28 30 29 31 30 32 31 33 92 34 32 35
REMARK SMILES IDX 91 36 33 37 34 38 35 39 85 40 36 41 90 42 84 43 86 44 37 45
REMARK SMILES IDX 89 46 83 47 82 48 38 50 70 51 50 52 69 53 51 54 54 55 68 56
REMARK SMILES IDX 87 57 52 58 53 59 67 61 88 62 55 63 39 64 40 65 48 66 41 67
REMARK SMILES IDX 47 68 49 69 46 70 42 71 43 72 44 73 45 74 71 75 72 76 80 77
REMARK SMILES IDX 73 78 79 79 81 80 78 81 74 82 75 83 76 84 77 85 56 86 57 87
REMARK SMILES IDX 65 88 58 89 64 90 66 91 63 92 59 93 60 94 61 95 62 96
REMARK H PARENT 5 15 5 16 86 49 54 60
REMARK Flexibility Score: inf
ROOT
ATOM      1  O   UNL A   1      40.116  20.780  26.989  1.00  0.00    -0.377 OA
ENDROOT
BRANCH   1   2
ATOM      2  C   UNL A   1      39.676  22.089  26.706  1.00  0.00     0.188 C 
BRANCH   2   3
ATOM      3  C   UNL A   1      38.363  22.190  25.923  1.00  0.00     0.188 C 
BRANCH   3   4
ATOM      4  O   UNL A   1      37.746  23.439  25.693  1.00  0.00    -0.376 OA
BRANCH   4   5
ATOM      5  C   UNL A   1      36.592  23.629  24.891  1.00  0.00     0.202 C 
BRANCH   5   6
ATOM      6  C   UNL A   1      35.272  22.832  24.928  1.00  0.00     0.261 C 
BRANCH   6   7
ATOM      7  O   UNL A   1      35.270  21.460  24.526  1.00  0.00    -0.459 OA
BRANCH   7   8
ATOM      8  C   UNL A   1      34.204  20.770  24.982  1.00  0.00     0.364 C 
ATOM      9  O   UNL A   1      34.046  20.504  26.174  1.00  0.00    -0.245 OA
BRANCH   8  10
ATOM     10  C   UNL A   1      33.154  20.381  23.917  1.00  0.00     0.293 C 
BRANCH  10  11
ATOM     11  C   UNL A   1      32.390  19.045  24.076  1.00  0.00     0.077 C 
BRANCH  11  12
ATOM     12  C   UNL A   1      33.030  17.851  23.327  1.00  0.00     0.003 C 
ATOM     13  C   UNL A   1      34.342  17.336  23.914  1.00  0.00     0.004 C 
ENDBRANCH  11  12
ENDBRANCH  10  11
BRANCH  10  14
ATOM     14  N   UNL A   1      32.157  21.468  23.731  1.00  0.00    -0.330 N 
ATOM     15  H   UNL A   1      31.487  21.164  23.026  1.00  0.00     0.347 HD
ATOM     16  H   UNL A   1      32.690  22.295  23.459  1.00  0.00     0.347 HD
BRANCH  14  17
ATOM     17  C   UNL A   1      31.409  21.845  24.936  1.00  0.00     0.309 C 
BRANCH  17  18
ATOM     18  C   UNL A   1      31.396  23.324  25.205  1.00  0.00     0.060 A 
ATOM     19  C   UNL A   1      30.871  24.350  24.439  1.00  0.00     0.041 A 
ATOM     20  S   UNL A   1      32.112  23.934  26.643  1.00  0.00    -0.141 S 
ATOM     21  C   UNL A   1      31.136  25.632  24.992  1.00  0.00     0.052 A 
ATOM     22  C   UNL A   1      31.807  25.553  26.188  1.00  0.00     0.085 A 
ATOM     23  Cl  UNL A   1      30.666  27.083  24.225  1.00  0.00    -0.083 Cl
ENDBRANCH  17  18
ENDBRANCH  14  17
ENDBRANCH  10  14
ENDBRANCH   8  10
ENDBRANCH   7   8
ENDBRANCH   6   7
ENDBRANCH   5   6
ENDBRANCH   4   5
ENDBRANCH   3   4
ENDBRANCH   2   3
ENDBRANCH   1   2
BRANCH   1  24
ATOM     24  C   UNL A   1      41.313  20.302  26.388  1.00  0.00     0.188 C 
BRANCH  24  25
ATOM     25  C   UNL A   1      42.658  21.002  26.667  1.00  0.00     0.188 C 
BRANCH  25  26
ATOM     26  O   UNL A   1      43.178  21.733  25.566  1.00  0.00    -0.376 OA
BRANCH  26  27
ATOM     27  C   UNL A   1      42.603  22.996  25.268  1.00  0.00     0.202 C 
BRANCH  27  28
ATOM     28  C   UNL A   1      43.557  24.189  25.086  1.00  0.00     0.261 C 
BRANCH  28  29
ATOM     29  O   UNL A   1      44.890  24.039  25.604  1.00  0.00    -0.460 OA
BRANCH  29  30
ATOM     30  C   UNL A   1      45.797  25.001  25.338  1.00  0.00     0.338 C 
ATOM     31  O   UNL A   1      46.726  24.932  24.550  1.00  0.00    -0.246 OA
BRANCH  30  32
ATOM     32  C   UNL A   1      45.353  26.238  26.017  1.00  0.00     0.060 A 
ATOM     33  C   UNL A   1      44.689  27.225  25.277  1.00  0.00     0.016 A 
ATOM     34  C   UNL A   1      45.583  26.416  27.382  1.00  0.00     0.016 A 
ATOM     35  C   UNL A   1      44.278  28.408  25.896  1.00  0.00     0.010 A 
ATOM     36  C   UNL A   1      45.193  27.610  27.995  1.00  0.00     0.010 A 
ATOM     37  C   UNL A   1      44.565  28.625  27.250  1.00  0.00    -0.014 A 
BRANCH  37  38
ATOM     38  C   UNL A   1      44.391  29.975  27.844  1.00  0.00     0.031 A 
ATOM     39  C   UNL A   1      45.459  31.005  27.594  1.00  0.00     0.074 A 
ATOM     40  C   UNL A   1      43.312  30.286  28.587  1.00  0.00     0.049 A 
ATOM     41  N   UNL A   1      45.590  32.207  28.088  1.00  0.00    -0.248 NA
ATOM     42  C   UNL A   1      46.529  30.616  26.660  1.00  0.00     0.031 C 
ATOM     43  C   UNL A   1      42.182  29.396  28.849  1.00  0.00     0.029 A 
ATOM     44  N   UNL A   1      43.001  31.436  29.271  1.00  0.00    -0.354 N 
ATOM     45  C   UNL A   1      46.763  32.716  27.538  1.00  0.00     0.074 A 
ATOM     46  C   UNL A   1      47.318  31.677  26.697  1.00  0.00     0.031 C 
ATOM     47  C   UNL A   1      41.309  30.028  29.651  1.00  0.00     0.029 A 
ATOM     48  C   UNL A   1      41.839  31.345  30.003  1.00  0.00     0.049 A 
ATOM     49  H   UNL A   1      43.556  32.248  29.239  1.00  0.00     0.167 HD
ATOM     50  C   UNL A   1      47.321  33.938  27.716  1.00  0.00     0.034 A 
ATOM     51  C   UNL A   1      41.292  32.208  30.885  1.00  0.00     0.034 A 
ATOM     52  C   UNL A   1      46.759  34.957  28.568  1.00  0.00     0.049 A 
ATOM     53  C   UNL A   1      41.991  33.523  31.156  1.00  0.00     0.074 A 
ATOM     54  C   UNL A   1      47.232  36.236  28.806  1.00  0.00     0.029 A 
ATOM     55  N   UNL A   1      45.610  34.810  29.334  1.00  0.00    -0.354 N 
ATOM     56  N   UNL A   1      43.097  33.997  30.627  1.00  0.00    -0.248 NA
ATOM     57  C   UNL A   1      41.369  34.419  32.141  1.00  0.00     0.031 C 
ATOM     58  C   UNL A   1      46.423  36.826  29.782  1.00  0.00     0.029 A 
ATOM     59  C   UNL A   1      45.388  35.956  30.082  1.00  0.00     0.049 A 
ATOM     60  H   UNL A   1      45.038  34.008  29.346  1.00  0.00     0.167 HD
ATOM     61  C   UNL A   1      43.280  35.258  31.192  1.00  0.00     0.074 A 
ATOM     62  C   UNL A   1      42.167  35.475  32.091  1.00  0.00     0.031 C 
ATOM     63  C   UNL A   1      44.275  36.158  30.983  1.00  0.00     0.034 A 
BRANCH  50  64
ATOM     64  C   UNL A   1      48.635  34.213  27.024  1.00  0.00     0.023 A 
ATOM     65  C   UNL A   1      49.869  34.022  27.669  1.00  0.00     0.031 A 
ATOM     66  C   UNL A   1      48.649  34.695  25.704  1.00  0.00     0.131 A 
ATOM     67  C   UNL A   1      51.059  34.375  27.017  1.00  0.00     0.055 A 
ATOM     68  C   UNL A   1      49.842  34.964  25.030  1.00  0.00     0.041 A 
ATOM     69  F   UNL A   1      47.502  34.924  25.046  1.00  0.00    -0.206 F 
ATOM     70  C   UNL A   1      51.057  34.818  25.692  1.00  0.00     0.022 A 
BRANCH  67  71
ATOM     71  S   UNL A   1      52.601  34.386  27.973  1.00  0.00     0.124 S 
ATOM     72  O   UNL A   1      53.451  33.508  27.171  1.00  0.00    -0.237 OA
ATOM     73  O   UNL A   1      52.962  35.798  27.974  1.00  0.00    -0.237 OA
ATOM     74  O   UNL A   1      52.204  33.840  29.270  1.00  0.00    -0.744 OA
ENDBRANCH  67  71
ENDBRANCH  50  64
BRANCH  51  75
ATOM     75  C   UNL A   1      40.050  31.847  31.632  1.00  0.00     0.023 A 
ATOM     76  C   UNL A   1      38.805  32.389  31.279  1.00  0.00     0.031 A 
ATOM     77  C   UNL A   1      40.102  31.006  32.759  1.00  0.00     0.131 A 
ATOM     78  C   UNL A   1      37.674  32.126  32.071  1.00  0.00     0.055 A 
ATOM     79  C   UNL A   1      38.965  30.696  33.506  1.00  0.00     0.041 A 
ATOM     80  F   UNL A   1      41.269  30.468  33.151  1.00  0.00    -0.206 F 
ATOM     81  C   UNL A   1      37.743  31.269  33.172  1.00  0.00     0.022 A 
BRANCH  78  82
ATOM     82  S   UNL A   1      36.131  33.008  31.704  1.00  0.00     0.124 S 
ATOM     83  O   UNL A   1      36.111  32.973  30.246  1.00  0.00    -0.237 OA
ATOM     84  O   UNL A   1      35.141  32.177  32.380  1.00  0.00    -0.237 OA
ATOM     85  O   UNL A   1      36.345  34.327  32.295  1.00  0.00    -0.744 OA
ENDBRANCH  78  82
ENDBRANCH  51  75
BRANCH  63  86
ATOM     86  C   UNL A   1      44.181  37.484  31.701  1.00  0.00     0.023 A 
ATOM     87  C   UNL A   1      43.695  38.641  31.068  1.00  0.00     0.031 A 
ATOM     88  C   UNL A   1      44.569  37.584  33.050  1.00  0.00     0.131 A 
ATOM     89  C   UNL A   1      43.653  39.857  31.769  1.00  0.00     0.055 A 
ATOM     90  C   UNL A   1      44.463  38.781  33.760  1.00  0.00     0.041 A 
ATOM     91  F   UNL A   1      45.045  36.514  33.705  1.00  0.00    -0.206 F 
ATOM     92  C   UNL A   1      44.014  39.929  33.117  1.00  0.00     0.022 A 
BRANCH  89  93
ATOM     93  S   UNL A   1      43.200  41.367  30.871  1.00  0.00     0.124 S 
ATOM     94  O   UNL A   1      44.486  41.792  30.328  1.00  0.00    -0.237 OA
ATOM     95  O   UNL A   1      42.230  40.875  29.899  1.00  0.00    -0.237 OA
ATOM     96  O   UNL A   1      42.650  42.233  31.913  1.00  0.00    -0.744 OA
ENDBRANCH  89  93
ENDBRANCH  63  86
ENDBRANCH  37  38
ENDBRANCH  30  32
ENDBRANCH  29  30
ENDBRANCH  28  29
ENDBRANCH  27  28
ENDBRANCH  26  27
ENDBRANCH  25  26
ENDBRANCH  24  25
ENDBRANCH   1  24
TORSDOF 28
ENDMDL
