MODEL 1
REMARK VINA RESULT:     -11.1      0.000      0.000
REMARK SMILES CC(C)CCc1cc2c(cc1Cl)C=C(C(=O)OCCOCCOCCOCCOC(=O)c1ccc(-c3c4nc(c(-c5cc(S(=O)(=O)[O-])ccc5F)c5ccc([nH]5)c(-c5cc(S(=O)(=O)[O-])ccc5F)c5nc(c(-c6cc(S(=O)(=O)[O-])ccc6F)c6ccc3[nH]6)C=C5)C=C4)cc1)[C@@H](C(F)(F)F)O2
REMARK SMILES IDX 23 1 22 2 21 3 20 4 19 5 18 6 17 7 15 8 16 9 14 10 6 11 7 12
REMARK SMILES IDX 11 13 8 14 10 15 12 16 9 17 100 18 13 19 95 20 5 21 4 22
REMARK SMILES IDX 2 23 1 24 3 25 96 26 97 27 98 28 99 29 24 30 25 31 26 32
REMARK SMILES IDX 27 33 28 34 29 35 30 36 31 37 32 38 33 39 94 40 34 41 93 42
REMARK SMILES IDX 35 43 36 44 37 45 87 46 38 47 92 48 86 49 88 50 39 51 91 52
REMARK SMILES IDX 85 53 84 54 40 56 72 57 52 58 71 59 53 60 56 61 70 62 89 63
REMARK SMILES IDX 54 64 55 65 69 67 90 68 57 69 41 70 42 71 50 72 43 73 49 74
REMARK SMILES IDX 51 75 48 76 44 77 45 78 46 79 47 80 73 81 74 82 82 83 75 84
REMARK SMILES IDX 81 85 83 86 80 87 76 88 77 89 78 90 79 91 58 92 59 93 67 94
REMARK SMILES IDX 60 95 66 96 68 97 65 98 61 99 62 100 63 101 64 102
REMARK H PARENT 88 55 56 66
REMARK Flexibility Score: inf
ROOT
ATOM      1  O   UNL A   1      39.125  21.236  25.741  1.00  0.00    -0.377 OA
ENDROOT
BRANCH   1   2
ATOM      2  C   UNL A   1      38.130  22.241  25.745  1.00  0.00     0.188 C 
BRANCH   2   3
ATOM      3  C   UNL A   1      36.725  21.718  25.403  1.00  0.00     0.188 C 
BRANCH   3   4
ATOM      4  O   UNL A   1      35.816  21.757  26.501  1.00  0.00    -0.376 OA
BRANCH   4   5
ATOM      5  C   UNL A   1      34.472  22.128  26.212  1.00  0.00     0.202 C 
BRANCH   5   6
ATOM      6  C   UNL A   1      34.227  23.612  25.900  1.00  0.00     0.261 C 
BRANCH   6   7
ATOM      7  O   UNL A   1      32.847  24.013  25.944  1.00  0.00    -0.460 OA
BRANCH   7   8
ATOM      8  C   UNL A   1      32.099  23.765  24.854  1.00  0.00     0.338 C 
ATOM      9  O   UNL A   1      31.726  22.676  24.452  1.00  0.00    -0.246 OA
BRANCH   8  10
ATOM     10  C   UNL A   1      31.636  25.058  24.309  1.00  0.00     0.087 C 
ATOM     11  C   UNL A   1      28.807  28.839  22.575  1.00  0.00    -0.026 A 
ATOM     12  C   UNL A   1      30.189  28.547  22.563  1.00  0.00     0.052 A 
ATOM     13  C   UNL A   1      27.973  28.017  23.350  1.00  0.00     0.045 A 
ATOM     14  C   UNL A   1      30.704  27.433  23.235  1.00  0.00     0.128 A 
ATOM     15  C   UNL A   1      28.497  26.923  24.050  1.00  0.00     0.032 A 
ATOM     16  Cl  UNL A   1      26.259  28.216  23.422  1.00  0.00    -0.084 Cl
ATOM     17  C   UNL A   1      29.851  26.603  23.954  1.00  0.00     0.019 A 
ATOM     18  O   UNL A   1      32.046  27.214  23.108  1.00  0.00    -0.475 OA
ATOM     19  C   UNL A   1      30.350  25.364  24.520  1.00  0.00     0.027 C 
ATOM     20  C   UNL A   1      32.613  25.963  23.603  1.00  0.00     0.316 C 
BRANCH  11  21
ATOM     21  C   UNL A   1      28.305  29.929  21.650  1.00  0.00     0.037 C 
BRANCH  21  22
ATOM     22  C   UNL A   1      28.883  31.342  21.805  1.00  0.00     0.008 C 
BRANCH  22  23
ATOM     23  C   UNL A   1      28.805  31.937  23.219  1.00  0.00    -0.017 C 
ATOM     24  C   UNL A   1      29.080  33.441  23.215  1.00  0.00     0.007 C 
ATOM     25  C   UNL A   1      27.419  31.664  23.812  1.00  0.00     0.007 C 
ENDBRANCH  22  23
ENDBRANCH  21  22
ENDBRANCH  11  21
BRANCH  20  26
ATOM     26  C   UNL A   1      33.312  25.254  22.432  1.00  0.00     0.430 C 
ATOM     27  F   UNL A   1      34.430  24.611  22.842  1.00  0.00    -0.167 F 
ATOM     28  F   UNL A   1      32.514  24.332  21.848  1.00  0.00    -0.167 F 
ATOM     29  F   UNL A   1      33.681  26.134  21.471  1.00  0.00    -0.167 F 
ENDBRANCH  20  26
ENDBRANCH   8  10
ENDBRANCH   7   8
ENDBRANCH   6   7
ENDBRANCH   5   6
ENDBRANCH   4   5
ENDBRANCH   3   4
ENDBRANCH   2   3
ENDBRANCH   1   2
BRANCH   1  30
ATOM     30  C   UNL A   1      40.181  21.328  26.699  1.00  0.00     0.188 C 
BRANCH  30  31
ATOM     31  C   UNL A   1      41.320  20.285  26.775  1.00  0.00     0.188 C 
BRANCH  31  32
ATOM     32  O   UNL A   1      42.091  20.172  25.581  1.00  0.00    -0.376 OA
BRANCH  32  33
ATOM     33  C   UNL A   1      43.503  20.113  25.747  1.00  0.00     0.202 C 
BRANCH  33  34
ATOM     34  C   UNL A   1      44.224  21.386  25.292  1.00  0.00     0.261 C 
BRANCH  34  35
ATOM     35  O   UNL A   1      43.884  22.572  26.023  1.00  0.00    -0.460 OA
BRANCH  35  36
ATOM     36  C   UNL A   1      43.479  23.656  25.321  1.00  0.00     0.338 C 
ATOM     37  O   UNL A   1      43.394  23.759  24.111  1.00  0.00    -0.246 OA
BRANCH  36  38
ATOM     38  C   UNL A   1      42.959  24.628  26.306  1.00  0.00     0.060 A 
ATOM     39  C   UNL A   1      42.096  24.199  27.318  1.00  0.00     0.016 A 
ATOM     40  C   UNL A   1      43.282  25.984  26.171  1.00  0.00     0.016 A 
ATOM     41  C   UNL A   1      41.560  25.131  28.205  1.00  0.00     0.010 A 
ATOM     42  C   UNL A   1      42.737  26.916  27.058  1.00  0.00     0.010 A 
ATOM     43  C   UNL A   1      41.883  26.493  28.088  1.00  0.00    -0.014 A 
BRANCH  43  44
ATOM     44  C   UNL A   1      41.469  27.427  29.162  1.00  0.00     0.031 A 
ATOM     45  C   UNL A   1      40.246  28.281  29.049  1.00  0.00     0.074 A 
ATOM     46  C   UNL A   1      42.230  27.468  30.273  1.00  0.00     0.049 A 
ATOM     47  N   UNL A   1      39.701  29.047  29.960  1.00  0.00    -0.248 NA
ATOM     48  C   UNL A   1      39.543  28.282  27.759  1.00  0.00     0.031 C 
ATOM     49  C   UNL A   1      43.454  26.690  30.466  1.00  0.00     0.029 A 
ATOM     50  N   UNL A   1      42.092  28.175  31.438  1.00  0.00    -0.354 N 
ATOM     51  C   UNL A   1      38.577  29.605  29.367  1.00  0.00     0.074 A 
ATOM     52  C   UNL A   1      38.546  29.126  28.000  1.00  0.00     0.031 C 
ATOM     53  C   UNL A   1      43.945  26.948  31.685  1.00  0.00     0.029 A 
ATOM     54  C   UNL A   1      43.089  27.927  32.350  1.00  0.00     0.049 A 
ATOM     55  H   UNL A   1      41.349  28.800  31.606  1.00  0.00     0.167 HD
ATOM     56  C   UNL A   1      37.653  30.424  29.927  1.00  0.00     0.034 A 
ATOM     57  C   UNL A   1      43.293  28.425  33.587  1.00  0.00     0.034 A 
ATOM     58  C   UNL A   1      37.718  30.899  31.290  1.00  0.00     0.049 A 
ATOM     59  C   UNL A   1      42.272  29.361  34.172  1.00  0.00     0.074 A 
ATOM     60  C   UNL A   1      36.797  31.682  31.965  1.00  0.00     0.029 A 
ATOM     61  N   UNL A   1      38.756  30.656  32.178  1.00  0.00    -0.354 N 
ATOM     62  N   UNL A   1      41.147  29.785  33.643  1.00  0.00    -0.248 NA
ATOM     63  C   UNL A   1      42.529  29.877  35.523  1.00  0.00     0.031 C 
ATOM     64  C   UNL A   1      37.311  31.975  33.228  1.00  0.00     0.029 A 
ATOM     65  C   UNL A   1      38.519  31.311  33.378  1.00  0.00     0.049 A 
ATOM     66  H   UNL A   1      39.546  30.101  31.986  1.00  0.00     0.167 HD
ATOM     67  C   UNL A   1      40.554  30.601  34.602  1.00  0.00     0.074 A 
ATOM     68  C   UNL A   1      41.431  30.586  35.755  1.00  0.00     0.031 C 
ATOM     69  C   UNL A   1      39.392  31.298  34.529  1.00  0.00     0.034 A 
BRANCH  56  70
ATOM     70  C   UNL A   1      36.461  30.852  29.104  1.00  0.00     0.023 A 
ATOM     71  C   UNL A   1      35.957  32.162  29.214  1.00  0.00     0.031 A 
ATOM     72  C   UNL A   1      35.731  29.921  28.344  1.00  0.00     0.131 A 
ATOM     73  C   UNL A   1      34.737  32.492  28.609  1.00  0.00     0.055 A 
ATOM     74  C   UNL A   1      34.536  30.265  27.712  1.00  0.00     0.041 A 
ATOM     75  F   UNL A   1      36.165  28.656  28.216  1.00  0.00    -0.206 F 
ATOM     76  C   UNL A   1      34.026  31.552  27.855  1.00  0.00     0.022 A 
BRANCH  73  77
ATOM     77  S   UNL A   1      33.985  34.128  28.839  1.00  0.00     0.124 S 
ATOM     78  O   UNL A   1      35.012  35.008  28.289  1.00  0.00    -0.237 OA
ATOM     79  O   UNL A   1      32.766  34.018  28.043  1.00  0.00    -0.237 OA
ATOM     80  O   UNL A   1      33.792  34.226  30.281  1.00  0.00    -0.744 OA
ENDBRANCH  73  77
ENDBRANCH  56  70
BRANCH  57  81
ATOM     81  C   UNL A   1      44.488  27.968  34.355  1.00  0.00     0.023 A 
ATOM     82  C   UNL A   1      44.416  26.839  35.192  1.00  0.00     0.031 A 
ATOM     83  C   UNL A   1      45.670  28.726  34.364  1.00  0.00     0.131 A 
ATOM     84  C   UNL A   1      45.476  26.546  36.058  1.00  0.00     0.055 A 
ATOM     85  C   UNL A   1      46.753  28.386  35.176  1.00  0.00     0.041 A 
ATOM     86  F   UNL A   1      45.778  29.820  33.596  1.00  0.00    -0.206 F 
ATOM     87  C   UNL A   1      46.652  27.302  36.043  1.00  0.00     0.022 A 
BRANCH  84  88
ATOM     88  S   UNL A   1      45.306  25.267  37.334  1.00  0.00     0.124 S 
ATOM     89  O   UNL A   1      43.857  25.138  37.443  1.00  0.00    -0.237 OA
ATOM     90  O   UNL A   1      45.996  24.137  36.717  1.00  0.00    -0.237 OA
ATOM     91  O   UNL A   1      45.977  25.844  38.494  1.00  0.00    -0.744 OA
ENDBRANCH  84  88
ENDBRANCH  57  81
BRANCH  69  92
ATOM     92  C   UNL A   1      38.976  32.134  35.717  1.00  0.00     0.023 A 
ATOM     93  C   UNL A   1      38.306  31.539  36.804  1.00  0.00     0.031 A 
ATOM     94  C   UNL A   1      39.106  33.534  35.705  1.00  0.00     0.131 A 
ATOM     95  C   UNL A   1      37.752  32.343  37.808  1.00  0.00     0.055 A 
ATOM     96  C   UNL A   1      38.596  34.327  36.735  1.00  0.00     0.041 A 
ATOM     97  F   UNL A   1      39.729  34.152  34.689  1.00  0.00    -0.206 F 
ATOM     98  C   UNL A   1      37.902  33.732  37.784  1.00  0.00     0.022 A 
BRANCH  95  99
ATOM     99  S   UNL A   1      36.740  31.625  39.133  1.00  0.00     0.124 S 
ATOM    100  O   UNL A   1      35.472  32.331  38.960  1.00  0.00    -0.237 OA
ATOM    101  O   UNL A   1      36.719  30.211  38.771  1.00  0.00    -0.237 OA
ATOM    102  O   UNL A   1      37.471  31.952  40.352  1.00  0.00    -0.744 OA
ENDBRANCH  95  99
ENDBRANCH  69  92
ENDBRANCH  43  44
ENDBRANCH  36  38
ENDBRANCH  35  36
ENDBRANCH  34  35
ENDBRANCH  33  34
ENDBRANCH  32  33
ENDBRANCH  31  32
ENDBRANCH  30  31
ENDBRANCH   1  30
TORSDOF 27
ENDMDL
MODEL 2
REMARK VINA RESULT:     -10.5      5.432      9.095
REMARK SMILES CC(C)CCc1cc2c(cc1Cl)C=C(C(=O)OCCOCCOCCOCCOC(=O)c1ccc(-c3c4nc(c(-c5cc(S(=O)(=O)[O-])ccc5F)c5ccc([nH]5)c(-c5cc(S(=O)(=O)[O-])ccc5F)c5nc(c(-c6cc(S(=O)(=O)[O-])ccc6F)c6ccc3[nH]6)C=C5)C=C4)cc1)[C@@H](C(F)(F)F)O2
REMARK SMILES IDX 23 1 22 2 21 3 20 4 19 5 18 6 17 7 15 8 16 9 14 10 6 11 7 12
REMARK SMILES IDX 11 13 8 14 10 15 12 16 9 17 100 18 13 19 95 20 5 21 4 22
REMARK SMILES IDX 2 23 1 24 3 25 96 26 97 27 98 28 99 29 24 30 25 31 26 32
REMARK SMILES IDX 27 33 28 34 29 35 30 36 31 37 32 38 33 39 94 40 34 41 93 42
REMARK SMILES IDX 35 43 36 44 37 45 87 46 38 47 92 48 86 49 88 50 39 51 91 52
REMARK SMILES IDX 85 53 84 54 40 56 72 57 52 58 71 59 53 60 56 61 70 62 89 63
REMARK SMILES IDX 54 64 55 65 69 67 90 68 57 69 41 70 42 71 50 72 43 73 49 74
REMARK SMILES IDX 51 75 48 76 44 77 45 78 46 79 47 80 73 81 74 82 82 83 75 84
REMARK SMILES IDX 81 85 83 86 80 87 76 88 77 89 78 90 79 91 58 92 59 93 67 94
REMARK SMILES IDX 60 95 66 96 68 97 65 98 61 99 62 100 63 101 64 102
REMARK H PARENT 88 55 56 66
REMARK Flexibility Score: inf
ROOT
ATOM      1  O   UNL A   1      37.969  21.130  25.436  1.00  0.00    -0.377 OA
ENDROOT
BRANCH   1   2
ATOM      2  C   UNL A   1      36.605  21.501  25.396  1.00  0.00     0.188 C 
BRANCH   2   3
ATOM      3  C   UNL A   1      35.666  20.353  24.992  1.00  0.00     0.188 C 
BRANCH   3   4
ATOM      4  O   UNL A   1      34.406  20.380  25.660  1.00  0.00    -0.376 OA
BRANCH   4   5
ATOM      5  C   UNL A   1      33.733  21.634  25.717  1.00  0.00     0.202 C 
BRANCH   5   6
ATOM      6  C   UNL A   1      33.976  22.483  26.974  1.00  0.00     0.261 C 
BRANCH   6   7
ATOM      7  O   UNL A   1      33.567  23.855  26.857  1.00  0.00    -0.460 OA
BRANCH   7   8
ATOM      8  C   UNL A   1      32.246  24.101  26.817  1.00  0.00     0.338 C 
ATOM      9  O   UNL A   1      31.396  23.674  27.580  1.00  0.00    -0.246 OA
BRANCH   8  10
ATOM     10  C   UNL A   1      32.000  25.139  25.794  1.00  0.00     0.087 C 
ATOM     11  C   UNL A   1      30.773  29.408  23.435  1.00  0.00    -0.026 A 
ATOM     12  C   UNL A   1      31.035  28.085  23.018  1.00  0.00     0.052 A 
ATOM     13  C   UNL A   1      31.029  29.734  24.776  1.00  0.00     0.045 A 
ATOM     14  C   UNL A   1      31.462  27.108  23.923  1.00  0.00     0.128 A 
ATOM     15  C   UNL A   1      31.491  28.762  25.672  1.00  0.00     0.032 A 
ATOM     16  Cl  UNL A   1      30.709  31.294  25.444  1.00  0.00    -0.084 Cl
ATOM     17  C   UNL A   1      31.661  27.440  25.258  1.00  0.00     0.019 A 
ATOM     18  O   UNL A   1      31.630  25.848  23.424  1.00  0.00    -0.475 OA
ATOM     19  C   UNL A   1      31.949  26.403  26.231  1.00  0.00     0.027 C 
ATOM     20  C   UNL A   1      31.867  24.741  24.345  1.00  0.00     0.316 C 
BRANCH  11  21
ATOM     21  C   UNL A   1      30.108  30.344  22.445  1.00  0.00     0.037 C 
BRANCH  21  22
ATOM     22  C   UNL A   1      28.824  29.875  21.747  1.00  0.00     0.008 C 
BRANCH  22  23
ATOM     23  C   UNL A   1      27.545  29.947  22.595  1.00  0.00    -0.017 C 
ATOM     24  C   UNL A   1      27.291  28.641  23.347  1.00  0.00     0.007 C 
ATOM     25  C   UNL A   1      27.657  31.106  23.589  1.00  0.00     0.007 C 
ENDBRANCH  22  23
ENDBRANCH  21  22
ENDBRANCH  11  21
BRANCH  20  26
ATOM     26  C   UNL A   1      30.765  23.693  24.135  1.00  0.00     0.430 C 
ATOM     27  F   UNL A   1      30.333  23.681  22.852  1.00  0.00    -0.167 F 
ATOM     28  F   UNL A   1      31.191  22.442  24.422  1.00  0.00    -0.167 F 
ATOM     29  F   UNL A   1      29.690  23.941  24.921  1.00  0.00    -0.167 F 
ENDBRANCH  20  26
ENDBRANCH   8  10
ENDBRANCH   7   8
ENDBRANCH   6   7
ENDBRANCH   5   6
ENDBRANCH   4   5
ENDBRANCH   3   4
ENDBRANCH   2   3
ENDBRANCH   1   2
BRANCH   1  30
ATOM     30  C   UNL A   1      38.893  22.020  26.064  1.00  0.00     0.188 C 
BRANCH  30  31
ATOM     31  C   UNL A   1      40.233  21.532  26.661  1.00  0.00     0.188 C 
BRANCH  31  32
ATOM     32  O   UNL A   1      40.543  20.171  26.369  1.00  0.00    -0.376 OA
BRANCH  32  33
ATOM     33  C   UNL A   1      41.673  19.626  27.040  1.00  0.00     0.202 C 
BRANCH  33  34
ATOM     34  C   UNL A   1      42.742  19.080  26.088  1.00  0.00     0.261 C 
BRANCH  34  35
ATOM     35  O   UNL A   1      43.037  19.917  24.961  1.00  0.00    -0.460 OA
BRANCH  35  36
ATOM     36  C   UNL A   1      44.322  20.296  24.771  1.00  0.00     0.338 C 
ATOM     37  O   UNL A   1      45.177  19.705  24.138  1.00  0.00    -0.246 OA
BRANCH  36  38
ATOM     38  C   UNL A   1      44.440  21.670  25.303  1.00  0.00     0.060 A 
ATOM     39  C   UNL A   1      44.718  21.870  26.659  1.00  0.00     0.016 A 
ATOM     40  C   UNL A   1      44.201  22.760  24.456  1.00  0.00     0.016 A 
ATOM     41  C   UNL A   1      44.766  23.166  27.167  1.00  0.00     0.010 A 
ATOM     42  C   UNL A   1      44.243  24.058  24.971  1.00  0.00     0.010 A 
ATOM     43  C   UNL A   1      44.538  24.269  26.327  1.00  0.00    -0.014 A 
BRANCH  43  44
ATOM     44  C   UNL A   1      44.799  25.634  26.843  1.00  0.00     0.031 A 
ATOM     45  C   UNL A   1      46.157  26.261  26.789  1.00  0.00     0.074 A 
ATOM     46  C   UNL A   1      43.754  26.314  27.350  1.00  0.00     0.049 A 
ATOM     47  N   UNL A   1      46.499  27.488  27.089  1.00  0.00    -0.248 NA
ATOM     48  C   UNL A   1      47.272  25.413  26.347  1.00  0.00     0.031 C 
ATOM     49  C   UNL A   1      42.397  25.778  27.466  1.00  0.00     0.029 A 
ATOM     50  N   UNL A   1      43.658  27.586  27.851  1.00  0.00    -0.354 N 
ATOM     51  C   UNL A   1      47.864  27.574  26.850  1.00  0.00     0.074 A 
ATOM     52  C   UNL A   1      48.296  26.257  26.427  1.00  0.00     0.031 C 
ATOM     53  C   UNL A   1      41.601  26.720  27.987  1.00  0.00     0.029 A 
ATOM     54  C   UNL A   1      42.391  27.916  28.266  1.00  0.00     0.049 A 
ATOM     55  H   UNL A   1      44.424  28.203  27.907  1.00  0.00     0.167 HD
ATOM     56  C   UNL A   1      48.668  28.660  26.959  1.00  0.00     0.034 A 
ATOM     57  C   UNL A   1      41.912  29.056  28.807  1.00  0.00     0.034 A 
ATOM     58  C   UNL A   1      48.213  29.958  27.399  1.00  0.00     0.049 A 
ATOM     59  C   UNL A   1      42.834  30.236  28.951  1.00  0.00     0.074 A 
ATOM     60  C   UNL A   1      48.939  31.133  27.483  1.00  0.00     0.029 A 
ATOM     61  N   UNL A   1      46.931  30.254  27.843  1.00  0.00    -0.354 N 
ATOM     62  N   UNL A   1      44.097  30.339  28.606  1.00  0.00    -0.248 NA
ATOM     63  C   UNL A   1      42.273  31.458  29.539  1.00  0.00     0.031 C 
ATOM     64  C   UNL A   1      48.124  32.116  28.046  1.00  0.00     0.029 A 
ATOM     65  C   UNL A   1      46.860  31.580  28.243  1.00  0.00     0.049 A 
ATOM     66  H   UNL A   1      46.182  29.616  27.871  1.00  0.00     0.167 HD
ATOM     67  C   UNL A   1      44.475  31.642  28.917  1.00  0.00     0.074 A 
ATOM     68  C   UNL A   1      43.299  32.297  29.451  1.00  0.00     0.031 C 
ATOM     69  C   UNL A   1      45.687  32.235  28.776  1.00  0.00     0.034 A 
BRANCH  56  70
ATOM     70  C   UNL A   1      50.122  28.534  26.573  1.00  0.00     0.023 A 
ATOM     71  C   UNL A   1      50.513  28.666  25.226  1.00  0.00     0.031 A 
ATOM     72  C   UNL A   1      51.088  28.119  27.507  1.00  0.00     0.131 A 
ATOM     73  C   UNL A   1      51.823  28.347  24.847  1.00  0.00     0.055 A 
ATOM     74  C   UNL A   1      52.402  27.839  27.129  1.00  0.00     0.041 A 
ATOM     75  F   UNL A   1      50.763  27.968  28.802  1.00  0.00    -0.206 F 
ATOM     76  C   UNL A   1      52.771  27.939  25.791  1.00  0.00     0.022 A 
BRANCH  73  77
ATOM     77  S   UNL A   1      52.330  28.375  23.104  1.00  0.00     0.124 S 
ATOM     78  O   UNL A   1      52.141  26.979  22.716  1.00  0.00    -0.237 OA
ATOM     79  O   UNL A   1      51.379  29.319  22.524  1.00  0.00    -0.237 OA
ATOM     80  O   UNL A   1      53.718  28.823  23.150  1.00  0.00    -0.744 OA
ENDBRANCH  73  77
ENDBRANCH  56  70
BRANCH  57  81
ATOM     81  C   UNL A   1      40.467  29.124  29.171  1.00  0.00     0.023 A 
ATOM     82  C   UNL A   1      40.060  29.048  30.516  1.00  0.00     0.031 A 
ATOM     83  C   UNL A   1      39.475  29.130  28.177  1.00  0.00     0.131 A 
ATOM     84  C   UNL A   1      38.703  28.906  30.825  1.00  0.00     0.055 A 
ATOM     85  C   UNL A   1      38.118  29.062  28.496  1.00  0.00     0.041 A 
ATOM     86  F   UNL A   1      39.815  29.183  26.881  1.00  0.00    -0.206 F 
ATOM     87  C   UNL A   1      37.726  28.930  29.825  1.00  0.00     0.022 A 
BRANCH  84  88
ATOM     88  S   UNL A   1      38.171  28.536  32.521  1.00  0.00     0.124 S 
ATOM     89  O   UNL A   1      38.234  27.079  32.548  1.00  0.00    -0.237 OA
ATOM     90  O   UNL A   1      39.189  29.228  33.308  1.00  0.00    -0.237 OA
ATOM     91  O   UNL A   1      36.832  29.112  32.596  1.00  0.00    -0.744 OA
ENDBRANCH  84  88
ENDBRANCH  57  81
BRANCH  69  92
ATOM     92  C   UNL A   1      45.842  33.674  29.213  1.00  0.00     0.023 A 
ATOM     93  C   UNL A   1      45.775  34.714  28.267  1.00  0.00     0.031 A 
ATOM     94  C   UNL A   1      46.206  33.999  30.532  1.00  0.00     0.131 A 
ATOM     95  C   UNL A   1      46.112  36.022  28.640  1.00  0.00     0.055 A 
ATOM     96  C   UNL A   1      46.491  35.313  30.911  1.00  0.00     0.041 A 
ATOM     97  F   UNL A   1      46.293  33.044  31.471  1.00  0.00    -0.206 F 
ATOM     98  C   UNL A   1      46.459  36.327  29.960  1.00  0.00     0.022 A 
BRANCH  95  99
ATOM     99  S   UNL A   1      46.198  37.356  27.413  1.00  0.00     0.124 S 
ATOM    100  O   UNL A   1      46.383  36.610  26.170  1.00  0.00    -0.237 OA
ATOM    101  O   UNL A   1      44.895  37.998  27.566  1.00  0.00    -0.237 OA
ATOM    102  O   UNL A   1      47.345  38.152  27.837  1.00  0.00    -0.744 OA
ENDBRANCH  95  99
ENDBRANCH  69  92
ENDBRANCH  43  44
ENDBRANCH  36  38
ENDBRANCH  35  36
ENDBRANCH  34  35
ENDBRANCH  33  34
ENDBRANCH  32  33
ENDBRANCH  31  32
ENDBRANCH  30  31
ENDBRANCH   1  30
TORSDOF 27
ENDMDL
MODEL 3
REMARK VINA RESULT:      -9.8      5.594      7.977
REMARK SMILES CC(C)CCc1cc2c(cc1Cl)C=C(C(=O)OCCOCCOCCOCCOC(=O)c1ccc(-c3c4nc(c(-c5cc(S(=O)(=O)[O-])ccc5F)c5ccc([nH]5)c(-c5cc(S(=O)(=O)[O-])ccc5F)c5nc(c(-c6cc(S(=O)(=O)[O-])ccc6F)c6ccc3[nH]6)C=C5)C=C4)cc1)[C@@H](C(F)(F)F)O2
REMARK SMILES IDX 23 1 22 2 21 3 20 4 19 5 18 6 17 7 15 8 16 9 14 10 6 11 7 12
REMARK SMILES IDX 11 13 8 14 10 15 12 16 9 17 100 18 13 19 95 20 5 21 4 22
REMARK SMILES IDX 2 23 1 24 3 25 96 26 97 27 98 28 99 29 24 30 25 31 26 32
REMARK SMILES IDX 27 33 28 34 29 35 30 36 31 37 32 38 33 39 94 40 34 41 93 42
REMARK SMILES IDX 35 43 36 44 37 45 87 46 38 47 92 48 86 49 88 50 39 51 91 52
REMARK SMILES IDX 85 53 84 54 40 56 72 57 52 58 71 59 53 60 56 61 70 62 89 63
REMARK SMILES IDX 54 64 55 65 69 67 90 68 57 69 41 70 42 71 50 72 43 73 49 74
REMARK SMILES IDX 51 75 48 76 44 77 45 78 46 79 47 80 73 81 74 82 82 83 75 84
REMARK SMILES IDX 81 85 83 86 80 87 76 88 77 89 78 90 79 91 58 92 59 93 67 94
REMARK SMILES IDX 60 95 66 96 68 97 65 98 61 99 62 100 63 101 64 102
REMARK H PARENT 88 55 56 66
REMARK Flexibility Score: inf
ROOT
ATOM      1  O   UNL A   1      38.003  19.094  24.999  1.00  0.00    -0.377 OA
ENDROOT
BRANCH   1   2
ATOM      2  C   UNL A   1      36.600  19.261  24.921  1.00  0.00     0.188 C 
BRANCH   2   3
ATOM      3  C   UNL A   1      35.847  17.971  24.554  1.00  0.00     0.188 C 
BRANCH   3   4
ATOM      4  O   UNL A   1      34.474  17.978  24.941  1.00  0.00    -0.376 OA
BRANCH   4   5
ATOM      5  C   UNL A   1      33.658  19.012  24.401  1.00  0.00     0.202 C 
BRANCH   5   6
ATOM      6  C   UNL A   1      32.870  19.858  25.413  1.00  0.00     0.261 C 
BRANCH   6   7
ATOM      7  O   UNL A   1      31.862  20.702  24.832  1.00  0.00    -0.460 OA
BRANCH   7   8
ATOM      8  C   UNL A   1      32.263  21.583  23.898  1.00  0.00     0.338 C 
ATOM      9  O   UNL A   1      32.489  21.353  22.721  1.00  0.00    -0.246 OA
BRANCH   8  10
ATOM     10  C   UNL A   1      32.208  22.937  24.486  1.00  0.00     0.087 C 
ATOM     11  C   UNL A   1      31.341  27.825  25.297  1.00  0.00    -0.026 A 
ATOM     12  C   UNL A   1      32.174  26.853  25.893  1.00  0.00     0.052 A 
ATOM     13  C   UNL A   1      30.399  27.387  24.352  1.00  0.00     0.045 A 
ATOM     14  C   UNL A   1      32.122  25.511  25.502  1.00  0.00     0.128 A 
ATOM     15  C   UNL A   1      30.325  26.037  23.989  1.00  0.00     0.032 A 
ATOM     16  Cl  UNL A   1      29.349  28.462  23.502  1.00  0.00    -0.084 Cl
ATOM     17  C   UNL A   1      31.217  25.109  24.527  1.00  0.00     0.019 A 
ATOM     18  O   UNL A   1      33.013  24.668  26.103  1.00  0.00    -0.475 OA
ATOM     19  C   UNL A   1      31.265  23.756  24.005  1.00  0.00     0.027 C 
ATOM     20  C   UNL A   1      33.159  23.307  25.596  1.00  0.00     0.316 C 
BRANCH  11  21
ATOM     21  C   UNL A   1      31.610  29.282  25.617  1.00  0.00     0.037 C 
BRANCH  21  22
ATOM     22  C   UNL A   1      32.270  29.625  26.959  1.00  0.00     0.008 C 
BRANCH  22  23
ATOM     23  C   UNL A   1      33.686  30.216  26.868  1.00  0.00    -0.017 C 
ATOM     24  C   UNL A   1      33.798  31.533  27.637  1.00  0.00     0.007 C 
ATOM     25  C   UNL A   1      34.697  29.206  27.418  1.00  0.00     0.007 C 
ENDBRANCH  22  23
ENDBRANCH  21  22
ENDBRANCH  11  21
BRANCH  20  26
ATOM     26  C   UNL A   1      34.626  23.097  25.191  1.00  0.00     0.430 C 
ATOM     27  F   UNL A   1      35.086  21.895  25.610  1.00  0.00    -0.167 F 
ATOM     28  F   UNL A   1      34.795  23.142  23.851  1.00  0.00    -0.167 F 
ATOM     29  F   UNL A   1      35.428  24.046  25.730  1.00  0.00    -0.167 F 
ENDBRANCH  20  26
ENDBRANCH   8  10
ENDBRANCH   7   8
ENDBRANCH   6   7
ENDBRANCH   5   6
ENDBRANCH   4   5
ENDBRANCH   3   4
ENDBRANCH   2   3
ENDBRANCH   1   2
BRANCH   1  30
ATOM     30  C   UNL A   1      38.803  20.245  25.275  1.00  0.00     0.188 C 
BRANCH  30  31
ATOM     31  C   UNL A   1      40.178  20.144  25.974  1.00  0.00     0.188 C 
BRANCH  31  32
ATOM     32  O   UNL A   1      40.901  18.951  25.676  1.00  0.00    -0.376 OA
BRANCH  32  33
ATOM     33  C   UNL A   1      42.064  18.709  26.458  1.00  0.00     0.202 C 
BRANCH  33  34
ATOM     34  C   UNL A   1      43.330  18.502  25.620  1.00  0.00     0.261 C 
BRANCH  34  35
ATOM     35  O   UNL A   1      43.560  19.495  24.611  1.00  0.00    -0.460 OA
BRANCH  35  36
ATOM     36  C   UNL A   1      44.836  19.885  24.383  1.00  0.00     0.338 C 
ATOM     37  O   UNL A   1      45.695  19.271  23.777  1.00  0.00    -0.246 OA
BRANCH  36  38
ATOM     38  C   UNL A   1      44.935  21.290  24.831  1.00  0.00     0.060 A 
ATOM     39  C   UNL A   1      45.419  21.580  26.110  1.00  0.00     0.016 A 
ATOM     40  C   UNL A   1      44.473  22.313  23.994  1.00  0.00     0.016 A 
ATOM     41  C   UNL A   1      45.450  22.902  26.549  1.00  0.00     0.010 A 
ATOM     42  C   UNL A   1      44.499  23.637  24.440  1.00  0.00     0.010 A 
ATOM     43  C   UNL A   1      45.001  23.940  25.716  1.00  0.00    -0.014 A 
BRANCH  43  44
ATOM     44  C   UNL A   1      45.237  25.345  26.124  1.00  0.00     0.031 A 
ATOM     45  C   UNL A   1      44.151  26.206  26.689  1.00  0.00     0.074 A 
ATOM     46  C   UNL A   1      46.487  25.827  25.988  1.00  0.00     0.049 A 
ATOM     47  N   UNL A   1      44.247  27.407  27.199  1.00  0.00    -0.248 NA
ATOM     48  C   UNL A   1      42.787  25.658  26.682  1.00  0.00     0.031 C 
ATOM     49  C   UNL A   1      47.608  25.072  25.426  1.00  0.00     0.029 A 
ATOM     50  N   UNL A   1      47.029  27.043  26.312  1.00  0.00    -0.354 N 
ATOM     51  C   UNL A   1      42.964  27.755  27.600  1.00  0.00     0.074 A 
ATOM     52  C   UNL A   1      42.098  26.655  27.227  1.00  0.00     0.031 C 
ATOM     53  C   UNL A   1      48.707  25.835  25.461  1.00  0.00     0.029 A 
ATOM     54  C   UNL A   1      48.368  27.140  26.022  1.00  0.00     0.049 A 
ATOM     55  H   UNL A   1      46.508  27.776  26.714  1.00  0.00     0.167 HD
ATOM     56  C   UNL A   1      42.562  28.883  28.236  1.00  0.00     0.034 A 
ATOM     57  C   UNL A   1      49.233  28.161  26.192  1.00  0.00     0.034 A 
ATOM     58  C   UNL A   1      43.445  29.971  28.582  1.00  0.00     0.049 A 
ATOM     59  C   UNL A   1      48.752  29.416  26.868  1.00  0.00     0.074 A 
ATOM     60  C   UNL A   1      43.142  31.127  29.282  1.00  0.00     0.029 A 
ATOM     61  N   UNL A   1      44.790  30.055  28.247  1.00  0.00    -0.354 N 
ATOM     62  N   UNL A   1      47.562  29.684  27.352  1.00  0.00    -0.248 NA
ATOM     63  C   UNL A   1      49.726  30.502  27.039  1.00  0.00     0.031 C 
ATOM     64  C   UNL A   1      44.276  31.939  29.303  1.00  0.00     0.029 A 
ATOM     65  C   UNL A   1      45.316  31.261  28.687  1.00  0.00     0.049 A 
ATOM     66  H   UNL A   1      45.296  29.360  27.768  1.00  0.00     0.167 HD
ATOM     67  C   UNL A   1      47.649  30.960  27.903  1.00  0.00     0.074 A 
ATOM     68  C   UNL A   1      49.017  31.397  27.716  1.00  0.00     0.031 C 
ATOM     69  C   UNL A   1      46.681  31.699  28.502  1.00  0.00     0.034 A 
BRANCH  56  70
ATOM     70  C   UNL A   1      41.113  29.014  28.643  1.00  0.00     0.023 A 
ATOM     71  C   UNL A   1      40.736  28.842  29.989  1.00  0.00     0.031 A 
ATOM     72  C   UNL A   1      40.097  29.142  27.679  1.00  0.00     0.131 A 
ATOM     73  C   UNL A   1      39.379  28.761  30.327  1.00  0.00     0.055 A 
ATOM     74  C   UNL A   1      38.746  29.100  28.027  1.00  0.00     0.041 A 
ATOM     75  F   UNL A   1      40.405  29.299  26.381  1.00  0.00    -0.206 F 
ATOM     76  C   UNL A   1      38.382  28.894  29.354  1.00  0.00     0.022 A 
BRANCH  73  77
ATOM     77  S   UNL A   1      38.853  28.405  32.027  1.00  0.00     0.124 S 
ATOM     78  O   UNL A   1      40.120  28.465  32.751  1.00  0.00    -0.237 OA
ATOM     79  O   UNL A   1      37.928  29.503  32.297  1.00  0.00    -0.237 OA
ATOM     80  O   UNL A   1      38.251  27.080  31.938  1.00  0.00    -0.744 OA
ENDBRANCH  73  77
ENDBRANCH  56  70
BRANCH  57  81
ATOM     81  C   UNL A   1      50.652  27.976  25.770  1.00  0.00     0.023 A 
ATOM     82  C   UNL A   1      51.015  28.059  24.413  1.00  0.00     0.031 A 
ATOM     83  C   UNL A   1      51.633  27.583  26.696  1.00  0.00     0.131 A 
ATOM     84  C   UNL A   1      52.302  27.681  24.013  1.00  0.00     0.055 A 
ATOM     85  C   UNL A   1      52.935  27.279  26.300  1.00  0.00     0.041 A 
ATOM     86  F   UNL A   1      51.328  27.473  27.998  1.00  0.00    -0.206 F 
ATOM     87  C   UNL A   1      53.271  27.309  24.950  1.00  0.00     0.022 A 
BRANCH  84  88
ATOM     88  S   UNL A   1      52.717  27.519  22.254  1.00  0.00     0.124 S 
ATOM     89  O   UNL A   1      53.481  26.277  22.235  1.00  0.00    -0.237 OA
ATOM     90  O   UNL A   1      51.392  27.456  21.641  1.00  0.00    -0.237 OA
ATOM     91  O   UNL A   1      53.475  28.732  21.964  1.00  0.00    -0.744 OA
ENDBRANCH  84  88
ENDBRANCH  57  81
BRANCH  69  92
ATOM     92  C   UNL A   1      47.033  33.080  29.003  1.00  0.00     0.023 A 
ATOM     93  C   UNL A   1      47.410  33.274  30.346  1.00  0.00     0.031 A 
ATOM     94  C   UNL A   1      46.850  34.217  28.195  1.00  0.00     0.131 A 
ATOM     95  C   UNL A   1      47.545  34.572  30.854  1.00  0.00     0.055 A 
ATOM     96  C   UNL A   1      47.037  35.508  28.693  1.00  0.00     0.041 A 
ATOM     97  F   UNL A   1      46.484  34.089  26.910  1.00  0.00    -0.206 F 
ATOM     98  C   UNL A   1      47.370  35.689  30.032  1.00  0.00     0.022 A 
BRANCH  95  99
ATOM     99  S   UNL A   1      47.864  34.862  32.617  1.00  0.00     0.124 S 
ATOM    100  O   UNL A   1      46.662  34.306  33.235  1.00  0.00    -0.237 OA
ATOM    101  O   UNL A   1      49.088  34.096  32.837  1.00  0.00    -0.237 OA
ATOM    102  O   UNL A   1      48.002  36.311  32.717  1.00  0.00    -0.744 OA
ENDBRANCH  95  99
ENDBRANCH  69  92
ENDBRANCH  43  44
ENDBRANCH  36  38
ENDBRANCH  35  36
ENDBRANCH  34  35
ENDBRANCH  33  34
ENDBRANCH  32  33
ENDBRANCH  31  32
ENDBRANCH  30  31
ENDBRANCH   1  30
TORSDOF 27
ENDMDL
