MODEL 1
REMARK VINA RESULT:      -8.5      0.000      0.000
REMARK SMILES C[C@H]([NH2+][C@H](C)c1ccccn1)[C@@H](C)C(=O)OCCOCCOCCOCCOC(=O)c1ccc(-c2c3nc(c(-c4cc(S(=O)(=O)[O-])ccc4F)c4ccc([nH]4)c(-c4cc(S(=O)(=O)[O-])ccc4F)c4nc(c(-c5cc(S(=O)(=O)[O-])ccc5F)c5ccc2[nH]5)C=C4)C=C3)cc1
REMARK SMILES IDX 21 1 20 2 19 3 18 4 17 5 16 6 14 7 15 8 12 9 13 10 2 11 1 12
REMARK SMILES IDX 3 13 4 16 5 17 6 18 7 19 11 20 8 21 10 22 9 23 22 24 23 25
REMARK SMILES IDX 24 26 25 27 26 28 27 29 28 30 29 31 30 32 31 33 32 34 93 35
REMARK SMILES IDX 33 36 92 37 34 38 35 39 36 40 86 41 37 42 91 43 85 44 87 45
REMARK SMILES IDX 38 46 90 47 84 48 83 49 39 51 71 52 51 53 70 54 52 55 55 56
REMARK SMILES IDX 69 57 88 58 53 59 54 60 68 62 89 63 56 64 40 65 41 66 49 67
REMARK SMILES IDX 42 68 48 69 50 70 47 71 43 72 44 73 45 74 46 75 72 76 73 77
REMARK SMILES IDX 81 78 74 79 80 80 82 81 79 82 75 83 76 84 77 85 78 86 57 87
REMARK SMILES IDX 58 88 66 89 59 90 65 91 67 92 64 93 60 94 61 95 62 96 63 97
REMARK H PARENT 3 14 3 15 87 50 55 61
REMARK Flexibility Score: inf
ROOT
ATOM      1  C   UNL A   1      38.753  23.753  26.771  1.00  0.00     0.188 C 
ENDROOT
BRANCH   1   2
ATOM      2  C   UNL A   1      37.424  23.757  26.010  1.00  0.00     0.188 C 
BRANCH   2   3
ATOM      3  O   UNL A   1      37.520  23.154  24.741  1.00  0.00    -0.376 OA
BRANCH   3   4
ATOM      4  C   UNL A   1      36.532  22.230  24.344  1.00  0.00     0.202 C 
BRANCH   4   5
ATOM      5  C   UNL A   1      36.359  20.839  24.988  1.00  0.00     0.261 C 
BRANCH   5   6
ATOM      6  O   UNL A   1      35.052  20.296  25.229  1.00  0.00    -0.463 OA
BRANCH   6   7
ATOM      7  C   UNL A   1      34.173  21.021  25.963  1.00  0.00     0.314 C 
ATOM      8  O   UNL A   1      34.429  21.467  27.078  1.00  0.00    -0.252 OA
BRANCH   7   9
ATOM      9  C   UNL A   1      32.771  21.118  25.335  1.00  0.00     0.154 C 
ATOM     10  C   UNL A   1      32.869  20.325  24.026  1.00  0.00     0.026 C 
BRANCH   9  11
ATOM     11  C   UNL A   1      32.180  22.560  25.146  1.00  0.00     0.193 C 
ATOM     12  C   UNL A   1      30.984  22.801  26.089  1.00  0.00     0.076 C 
BRANCH  11  13
ATOM     13  N   UNL A   1      31.739  22.778  23.756  1.00  0.00    -0.336 N 
ATOM     14  H   UNL A   1      30.719  22.756  23.759  1.00  0.00     0.347 HD
ATOM     15  H   UNL A   1      32.209  22.040  23.231  1.00  0.00     0.347 HD
BRANCH  13  16
ATOM     16  C   UNL A   1      32.146  24.027  23.057  1.00  0.00     0.229 C 
ATOM     17  C   UNL A   1      33.648  23.787  22.791  1.00  0.00     0.082 C 
BRANCH  16  18
ATOM     18  C   UNL A   1      31.897  25.386  23.740  1.00  0.00     0.097 A 
ATOM     19  C   UNL A   1      32.960  26.206  24.135  1.00  0.00     0.030 A 
ATOM     20  N   UNL A   1      30.627  25.844  23.832  1.00  0.00    -0.255 NA
ATOM     21  C   UNL A   1      32.706  27.468  24.676  1.00  0.00     0.004 A 
ATOM     22  C   UNL A   1      30.398  27.074  24.344  1.00  0.00     0.111 A 
ATOM     23  C   UNL A   1      31.398  27.913  24.787  1.00  0.00     0.020 A 
ENDBRANCH  16  18
ENDBRANCH  13  16
ENDBRANCH  11  13
ENDBRANCH   9  11
ENDBRANCH   7   9
ENDBRANCH   6   7
ENDBRANCH   5   6
ENDBRANCH   4   5
ENDBRANCH   3   4
ENDBRANCH   2   3
ENDBRANCH   1   2
BRANCH   1  24
ATOM     24  O   UNL A   1      39.647  22.651  26.731  1.00  0.00    -0.377 OA
BRANCH  24  25
ATOM     25  C   UNL A   1      40.734  22.605  27.636  1.00  0.00     0.188 C 
BRANCH  25  26
ATOM     26  C   UNL A   1      41.949  21.759  27.227  1.00  0.00     0.188 C 
BRANCH  26  27
ATOM     27  O   UNL A   1      41.764  20.357  27.389  1.00  0.00    -0.376 OA
BRANCH  27  28
ATOM     28  C   UNL A   1      41.547  19.597  26.206  1.00  0.00     0.202 C 
BRANCH  28  29
ATOM     29  C   UNL A   1      42.692  18.701  25.705  1.00  0.00     0.261 C 
BRANCH  29  30
ATOM     30  O   UNL A   1      44.005  19.280  25.700  1.00  0.00    -0.460 OA
BRANCH  30  31
ATOM     31  C   UNL A   1      44.428  19.879  24.569  1.00  0.00     0.338 C 
ATOM     32  O   UNL A   1      44.402  19.420  23.435  1.00  0.00    -0.246 OA
BRANCH  31  33
ATOM     33  C   UNL A   1      44.773  21.268  24.914  1.00  0.00     0.060 A 
ATOM     34  C   UNL A   1      45.365  21.534  26.154  1.00  0.00     0.016 A 
ATOM     35  C   UNL A   1      44.537  22.301  24.001  1.00  0.00     0.016 A 
ATOM     36  C   UNL A   1      45.714  22.841  26.491  1.00  0.00     0.010 A 
ATOM     37  C   UNL A   1      44.861  23.614  24.353  1.00  0.00     0.010 A 
ATOM     38  C   UNL A   1      45.429  23.891  25.609  1.00  0.00    -0.014 A 
BRANCH  38  39
ATOM     39  C   UNL A   1      45.551  25.289  26.089  1.00  0.00     0.031 A 
ATOM     40  C   UNL A   1      46.895  25.958  25.997  1.00  0.00     0.074 A 
ATOM     41  C   UNL A   1      44.483  25.963  26.549  1.00  0.00     0.049 A 
ATOM     42  N   UNL A   1      47.248  27.168  26.340  1.00  0.00    -0.248 NA
ATOM     43  C   UNL A   1      47.986  25.142  25.443  1.00  0.00     0.031 C 
ATOM     44  C   UNL A   1      43.124  25.430  26.641  1.00  0.00     0.029 A 
ATOM     45  N   UNL A   1      44.373  27.247  27.023  1.00  0.00    -0.354 N 
ATOM     46  C   UNL A   1      48.603  27.264  26.041  1.00  0.00     0.074 A 
ATOM     47  C   UNL A   1      49.013  25.972  25.530  1.00  0.00     0.031 C 
ATOM     48  C   UNL A   1      42.318  26.380  27.147  1.00  0.00     0.029 A 
ATOM     49  C   UNL A   1      43.107  27.575  27.445  1.00  0.00     0.049 A 
ATOM     50  H   UNL A   1      45.132  27.873  27.057  1.00  0.00     0.167 HD
ATOM     51  C   UNL A   1      49.427  28.334  26.170  1.00  0.00     0.034 A 
ATOM     52  C   UNL A   1      42.645  28.703  28.024  1.00  0.00     0.034 A 
ATOM     53  C   UNL A   1      49.003  29.605  26.705  1.00  0.00     0.049 A 
ATOM     54  C   UNL A   1      43.601  29.852  28.243  1.00  0.00     0.074 A 
ATOM     55  C   UNL A   1      49.746  30.760  26.873  1.00  0.00     0.029 A 
ATOM     56  N   UNL A   1      47.726  29.884  27.177  1.00  0.00    -0.354 N 
ATOM     57  N   UNL A   1      44.876  29.940  27.939  1.00  0.00    -0.248 NA
ATOM     58  C   UNL A   1      43.050  31.059  28.873  1.00  0.00     0.031 C 
ATOM     59  C   UNL A   1      48.945  31.706  27.522  1.00  0.00     0.029 A 
ATOM     60  C   UNL A   1      47.672  31.177  27.676  1.00  0.00     0.049 A 
ATOM     61  H   UNL A   1      46.968  29.255  27.160  1.00  0.00     0.167 HD
ATOM     62  C   UNL A   1      45.272  31.222  28.317  1.00  0.00     0.074 A 
ATOM     63  C   UNL A   1      44.094  31.875  28.851  1.00  0.00     0.031 C 
ATOM     64  C   UNL A   1      46.494  31.808  28.227  1.00  0.00     0.034 A 
BRANCH  51  65
ATOM     65  C   UNL A   1      50.875  28.139  25.786  1.00  0.00     0.023 A 
ATOM     66  C   UNL A   1      51.305  28.207  24.448  1.00  0.00     0.031 A 
ATOM     67  C   UNL A   1      51.832  27.834  26.768  1.00  0.00     0.131 A 
ATOM     68  C   UNL A   1      52.634  27.893  24.123  1.00  0.00     0.055 A 
ATOM     69  C   UNL A   1      53.172  27.608  26.448  1.00  0.00     0.041 A 
ATOM     70  F   UNL A   1      51.477  27.729  28.059  1.00  0.00    -0.206 F 
ATOM     71  C   UNL A   1      53.577  27.620  25.117  1.00  0.00     0.022 A 
BRANCH  68  72
ATOM     72  S   UNL A   1      53.076  27.688  22.375  1.00  0.00     0.124 S 
ATOM     73  O   UNL A   1      54.208  28.603  22.249  1.00  0.00    -0.237 OA
ATOM     74  O   UNL A   1      53.389  26.267  22.294  1.00  0.00    -0.237 OA
ATOM     75  O   UNL A   1      51.868  28.105  21.666  1.00  0.00    -0.744 OA
ENDBRANCH  68  72
ENDBRANCH  51  65
BRANCH  52  76
ATOM     76  C   UNL A   1      41.227  28.794  28.479  1.00  0.00     0.023 A 
ATOM     77  C   UNL A   1      40.883  28.690  29.837  1.00  0.00     0.031 A 
ATOM     78  C   UNL A   1      40.183  28.937  27.546  1.00  0.00     0.131 A 
ATOM     79  C   UNL A   1      39.532  28.689  30.218  1.00  0.00     0.055 A 
ATOM     80  C   UNL A   1      38.845  28.990  27.936  1.00  0.00     0.041 A 
ATOM     81  F   UNL A   1      40.454  29.034  26.234  1.00  0.00    -0.206 F 
ATOM     82  C   UNL A   1      38.511  28.853  29.279  1.00  0.00     0.022 A 
BRANCH  79  83
ATOM     83  S   UNL A   1      39.118  28.390  31.960  1.00  0.00     0.124 S 
ATOM     84  O   UNL A   1      38.293  29.551  32.273  1.00  0.00    -0.237 OA
ATOM     85  O   UNL A   1      38.424  27.109  31.892  1.00  0.00    -0.237 OA
ATOM     86  O   UNL A   1      40.423  28.355  32.619  1.00  0.00    -0.744 OA
ENDBRANCH  79  83
ENDBRANCH  52  76
BRANCH  64  87
ATOM     87  C   UNL A   1      46.603  33.244  28.689  1.00  0.00     0.023 A 
ATOM     88  C   UNL A   1      46.248  34.320  27.855  1.00  0.00     0.031 A 
ATOM     89  C   UNL A   1      47.089  33.542  29.975  1.00  0.00     0.131 A 
ATOM     90  C   UNL A   1      46.451  35.639  28.290  1.00  0.00     0.055 A 
ATOM     91  C   UNL A   1      47.220  34.855  30.429  1.00  0.00     0.041 A 
ATOM     92  F   UNL A   1      47.447  32.557  30.816  1.00  0.00    -0.206 F 
ATOM     93  C   UNL A   1      46.916  35.913  29.578  1.00  0.00     0.022 A 
BRANCH  90  94
ATOM     94  S   UNL A   1      46.209  36.992  27.106  1.00  0.00     0.124 S 
ATOM     95  O   UNL A   1      46.672  38.147  27.868  1.00  0.00    -0.237 OA
ATOM     96  O   UNL A   1      47.056  36.585  25.989  1.00  0.00    -0.237 OA
ATOM     97  O   UNL A   1      44.773  36.961  26.837  1.00  0.00    -0.744 OA
ENDBRANCH  90  94
ENDBRANCH  64  87
ENDBRANCH  38  39
ENDBRANCH  31  33
ENDBRANCH  30  31
ENDBRANCH  29  30
ENDBRANCH  28  29
ENDBRANCH  27  28
ENDBRANCH  26  27
ENDBRANCH  25  26
ENDBRANCH  24  25
ENDBRANCH   1  24
TORSDOF 27
ENDMDL
MODEL 2
REMARK VINA RESULT:      -8.4      1.782      2.327
REMARK SMILES C[C@H]([NH2+][C@H](C)c1ccccn1)[C@@H](C)C(=O)OCCOCCOCCOCCOC(=O)c1ccc(-c2c3nc(c(-c4cc(S(=O)(=O)[O-])ccc4F)c4ccc([nH]4)c(-c4cc(S(=O)(=O)[O-])ccc4F)c4nc(c(-c5cc(S(=O)(=O)[O-])ccc5F)c5ccc2[nH]5)C=C4)C=C3)cc1
REMARK SMILES IDX 21 1 20 2 19 3 18 4 17 5 16 6 14 7 15 8 12 9 13 10 2 11 1 12
REMARK SMILES IDX 3 13 4 16 5 17 6 18 7 19 11 20 8 21 10 22 9 23 22 24 23 25
REMARK SMILES IDX 24 26 25 27 26 28 27 29 28 30 29 31 30 32 31 33 32 34 93 35
REMARK SMILES IDX 33 36 92 37 34 38 35 39 36 40 86 41 37 42 91 43 85 44 87 45
REMARK SMILES IDX 38 46 90 47 84 48 83 49 39 51 71 52 51 53 70 54 52 55 55 56
REMARK SMILES IDX 69 57 88 58 53 59 54 60 68 62 89 63 56 64 40 65 41 66 49 67
REMARK SMILES IDX 42 68 48 69 50 70 47 71 43 72 44 73 45 74 46 75 72 76 73 77
REMARK SMILES IDX 81 78 74 79 80 80 82 81 79 82 75 83 76 84 77 85 78 86 57 87
REMARK SMILES IDX 58 88 66 89 59 90 65 91 67 92 64 93 60 94 61 95 62 96 63 97
REMARK H PARENT 3 14 3 15 87 50 55 61
REMARK Flexibility Score: inf
ROOT
ATOM      1  C   UNL A   1      38.524  22.179  25.597  1.00  0.00     0.188 C 
ENDROOT
BRANCH   1   2
ATOM      2  C   UNL A   1      37.815  23.453  26.067  1.00  0.00     0.188 C 
BRANCH   2   3
ATOM      3  O   UNL A   1      36.489  23.542  25.604  1.00  0.00    -0.376 OA
BRANCH   3   4
ATOM      4  C   UNL A   1      35.983  22.524  24.770  1.00  0.00     0.202 C 
BRANCH   4   5
ATOM      5  C   UNL A   1      34.549  21.968  24.881  1.00  0.00     0.261 C 
BRANCH   5   6
ATOM      6  O   UNL A   1      33.416  22.849  24.913  1.00  0.00    -0.463 OA
BRANCH   6   7
ATOM      7  C   UNL A   1      32.916  23.219  26.117  1.00  0.00     0.314 C 
ATOM      8  O   UNL A   1      33.433  22.913  27.188  1.00  0.00    -0.252 OA
BRANCH   7   9
ATOM      9  C   UNL A   1      31.558  23.940  26.031  1.00  0.00     0.154 C 
ATOM     10  C   UNL A   1      30.523  22.877  26.421  1.00  0.00     0.026 C 
BRANCH   9  11
ATOM     11  C   UNL A   1      31.227  24.663  24.679  1.00  0.00     0.193 C 
ATOM     12  C   UNL A   1      30.773  23.653  23.604  1.00  0.00     0.076 C 
BRANCH  11  13
ATOM     13  N   UNL A   1      32.395  25.403  24.168  1.00  0.00    -0.336 N 
ATOM     14  H   UNL A   1      32.680  24.951  23.299  1.00  0.00     0.347 HD
ATOM     15  H   UNL A   1      33.062  25.369  24.940  1.00  0.00     0.347 HD
BRANCH  13  16
ATOM     16  C   UNL A   1      32.259  26.857  23.880  1.00  0.00     0.229 C 
ATOM     17  C   UNL A   1      33.403  27.108  22.874  1.00  0.00     0.082 C 
BRANCH  16  18
ATOM     18  C   UNL A   1      32.295  27.862  25.049  1.00  0.00     0.097 A 
ATOM     19  C   UNL A   1      32.649  27.459  26.341  1.00  0.00     0.030 A 
ATOM     20  N   UNL A   1      32.111  29.175  24.782  1.00  0.00    -0.255 NA
ATOM     21  C   UNL A   1      32.754  28.404  27.364  1.00  0.00     0.004 A 
ATOM     22  C   UNL A   1      32.230  30.080  25.779  1.00  0.00     0.111 A 
ATOM     23  C   UNL A   1      32.538  29.744  27.080  1.00  0.00     0.020 A 
ENDBRANCH  16  18
ENDBRANCH  13  16
ENDBRANCH  11  13
ENDBRANCH   9  11
ENDBRANCH   7   9
ENDBRANCH   6   7
ENDBRANCH   5   6
ENDBRANCH   4   5
ENDBRANCH   3   4
ENDBRANCH   2   3
ENDBRANCH   1   2
BRANCH   1  24
ATOM     24  O   UNL A   1      39.350  21.410  26.457  1.00  0.00    -0.377 OA
BRANCH  24  25
ATOM     25  C   UNL A   1      40.517  21.993  27.005  1.00  0.00     0.188 C 
BRANCH  25  26
ATOM     26  C   UNL A   1      41.641  21.039  27.436  1.00  0.00     0.188 C 
BRANCH  26  27
ATOM     27  O   UNL A   1      41.378  19.667  27.161  1.00  0.00    -0.376 OA
BRANCH  27  28
ATOM     28  C   UNL A   1      42.507  18.817  26.995  1.00  0.00     0.202 C 
BRANCH  28  29
ATOM     29  C   UNL A   1      43.101  18.677  25.583  1.00  0.00     0.261 C 
BRANCH  29  30
ATOM     30  O   UNL A   1      44.432  19.180  25.393  1.00  0.00    -0.460 OA
BRANCH  30  31
ATOM     31  C   UNL A   1      44.635  20.076  24.408  1.00  0.00     0.338 C 
ATOM     32  O   UNL A   1      44.713  19.851  23.208  1.00  0.00    -0.246 OA
BRANCH  31  33
ATOM     33  C   UNL A   1      44.574  21.415  25.017  1.00  0.00     0.060 A 
ATOM     34  C   UNL A   1      44.037  22.475  24.276  1.00  0.00     0.016 A 
ATOM     35  C   UNL A   1      45.021  21.616  26.326  1.00  0.00     0.016 A 
ATOM     36  C   UNL A   1      43.957  23.746  24.842  1.00  0.00     0.010 A 
ATOM     37  C   UNL A   1      44.965  22.897  26.881  1.00  0.00     0.010 A 
ATOM     38  C   UNL A   1      44.455  23.972  26.131  1.00  0.00    -0.014 A 
BRANCH  38  39
ATOM     39  C   UNL A   1      44.614  25.367  26.609  1.00  0.00     0.031 A 
ATOM     40  C   UNL A   1      45.969  26.008  26.491  1.00  0.00     0.074 A 
ATOM     41  C   UNL A   1      43.569  26.062  27.089  1.00  0.00     0.049 A 
ATOM     42  N   UNL A   1      46.353  27.211  26.828  1.00  0.00    -0.248 NA
ATOM     43  C   UNL A   1      47.033  25.171  25.916  1.00  0.00     0.031 C 
ATOM     44  C   UNL A   1      42.201  25.557  27.208  1.00  0.00     0.029 A 
ATOM     45  N   UNL A   1      43.494  27.348  27.565  1.00  0.00    -0.354 N 
ATOM     46  C   UNL A   1      47.704  27.279  26.502  1.00  0.00     0.074 A 
ATOM     47  C   UNL A   1      48.078  25.980  25.983  1.00  0.00     0.031 C 
ATOM     48  C   UNL A   1      41.425  26.523  27.729  1.00  0.00     0.029 A 
ATOM     49  C   UNL A   1      42.243  27.702  28.012  1.00  0.00     0.049 A 
ATOM     50  H   UNL A   1      44.266  27.959  27.585  1.00  0.00     0.167 HD
ATOM     51  C   UNL A   1      48.551  28.332  26.615  1.00  0.00     0.034 A 
ATOM     52  C   UNL A   1      41.815  28.838  28.600  1.00  0.00     0.034 A 
ATOM     53  C   UNL A   1      48.163  29.611  27.158  1.00  0.00     0.049 A 
ATOM     54  C   UNL A   1      42.798  29.968  28.800  1.00  0.00     0.074 A 
ATOM     55  C   UNL A   1      48.933  30.751  27.312  1.00  0.00     0.029 A 
ATOM     56  N   UNL A   1      46.901  29.916  27.655  1.00  0.00    -0.354 N 
ATOM     57  N   UNL A   1      44.069  30.030  28.471  1.00  0.00    -0.248 NA
ATOM     58  C   UNL A   1      42.284  31.185  29.441  1.00  0.00     0.031 C 
ATOM     59  C   UNL A   1      48.164  31.713  27.976  1.00  0.00     0.029 A 
ATOM     60  C   UNL A   1      46.884  31.210  28.154  1.00  0.00     0.049 A 
ATOM     61  H   UNL A   1      46.131  29.303  27.652  1.00  0.00     0.167 HD
ATOM     62  C   UNL A   1      44.498  31.303  28.842  1.00  0.00     0.074 A 
ATOM     63  C   UNL A   1      43.343  31.980  29.399  1.00  0.00     0.031 C 
ATOM     64  C   UNL A   1      45.730  31.865  28.729  1.00  0.00     0.034 A 
BRANCH  51  65
ATOM     65  C   UNL A   1      49.987  28.109  26.203  1.00  0.00     0.023 A 
ATOM     66  C   UNL A   1      50.399  28.200  24.861  1.00  0.00     0.031 A 
ATOM     67  C   UNL A   1      50.950  27.752  27.162  1.00  0.00     0.131 A 
ATOM     68  C   UNL A   1      51.714  27.859  24.506  1.00  0.00     0.055 A 
ATOM     69  C   UNL A   1      52.279  27.498  26.815  1.00  0.00     0.041 A 
ATOM     70  F   UNL A   1      50.612  27.623  28.455  1.00  0.00    -0.206 F 
ATOM     71  C   UNL A   1      52.664  27.534  25.478  1.00  0.00     0.022 A 
BRANCH  68  72
ATOM     72  S   UNL A   1      52.123  27.688  22.747  1.00  0.00     0.124 S 
ATOM     73  O   UNL A   1      50.802  27.483  22.156  1.00  0.00    -0.237 OA
ATOM     74  O   UNL A   1      52.767  28.962  22.449  1.00  0.00    -0.237 OA
ATOM     75  O   UNL A   1      53.000  26.520  22.711  1.00  0.00    -0.744 OA
ENDBRANCH  68  72
ENDBRANCH  51  65
BRANCH  52  76
ATOM     76  C   UNL A   1      40.408  28.957  29.082  1.00  0.00     0.023 A 
ATOM     77  C   UNL A   1      40.082  28.805  30.439  1.00  0.00     0.031 A 
ATOM     78  C   UNL A   1      39.356  29.177  28.174  1.00  0.00     0.131 A 
ATOM     79  C   UNL A   1      38.737  28.834  30.843  1.00  0.00     0.055 A 
ATOM     80  C   UNL A   1      38.027  29.259  28.588  1.00  0.00     0.041 A 
ATOM     81  F   UNL A   1      39.610  29.324  26.863  1.00  0.00    -0.206 F 
ATOM     82  C   UNL A   1      37.709  29.075  29.929  1.00  0.00     0.022 A 
BRANCH  79  83
ATOM     83  S   UNL A   1      38.340  28.472  32.577  1.00  0.00     0.124 S 
ATOM     84  O   UNL A   1      38.226  27.018  32.558  1.00  0.00    -0.237 OA
ATOM     85  O   UNL A   1      39.501  29.016  33.273  1.00  0.00    -0.237 OA
ATOM     86  O   UNL A   1      37.089  29.195  32.798  1.00  0.00    -0.744 OA
ENDBRANCH  79  83
ENDBRANCH  52  76
BRANCH  64  87
ATOM     87  C   UNL A   1      45.876  33.298  29.188  1.00  0.00     0.023 A 
ATOM     88  C   UNL A   1      46.250  33.620  30.505  1.00  0.00     0.031 A 
ATOM     89  C   UNL A   1      45.616  34.358  28.301  1.00  0.00     0.131 A 
ATOM     90  C   UNL A   1      46.286  34.962  30.915  1.00  0.00     0.055 A 
ATOM     91  C   UNL A   1      45.723  35.693  28.694  1.00  0.00     0.041 A 
ATOM     92  F   UNL A   1      45.252  34.113  27.031  1.00  0.00    -0.206 F 
ATOM     93  C   UNL A   1      46.044  36.001  30.013  1.00  0.00     0.022 A 
BRANCH  90  94
ATOM     94  S   UNL A   1      46.537  35.328  32.674  1.00  0.00     0.124 S 
ATOM     95  O   UNL A   1      47.150  36.651  32.623  1.00  0.00    -0.237 OA
ATOM     96  O   UNL A   1      45.177  35.277  33.200  1.00  0.00    -0.237 OA
ATOM     97  O   UNL A   1      47.417  34.253  33.126  1.00  0.00    -0.744 OA
ENDBRANCH  90  94
ENDBRANCH  64  87
ENDBRANCH  38  39
ENDBRANCH  31  33
ENDBRANCH  30  31
ENDBRANCH  29  30
ENDBRANCH  28  29
ENDBRANCH  27  28
ENDBRANCH  26  27
ENDBRANCH  25  26
ENDBRANCH  24  25
ENDBRANCH   1  24
TORSDOF 27
ENDMDL
MODEL 3
REMARK VINA RESULT:      -8.3      1.195      7.896
REMARK SMILES C[C@H]([NH2+][C@H](C)c1ccccn1)[C@@H](C)C(=O)OCCOCCOCCOCCOC(=O)c1ccc(-c2c3nc(c(-c4cc(S(=O)(=O)[O-])ccc4F)c4ccc([nH]4)c(-c4cc(S(=O)(=O)[O-])ccc4F)c4nc(c(-c5cc(S(=O)(=O)[O-])ccc5F)c5ccc2[nH]5)C=C4)C=C3)cc1
REMARK SMILES IDX 21 1 20 2 19 3 18 4 17 5 16 6 14 7 15 8 12 9 13 10 2 11 1 12
REMARK SMILES IDX 3 13 4 16 5 17 6 18 7 19 11 20 8 21 10 22 9 23 22 24 23 25
REMARK SMILES IDX 24 26 25 27 26 28 27 29 28 30 29 31 30 32 31 33 32 34 93 35
REMARK SMILES IDX 33 36 92 37 34 38 35 39 36 40 86 41 37 42 91 43 85 44 87 45
REMARK SMILES IDX 38 46 90 47 84 48 83 49 39 51 71 52 51 53 70 54 52 55 55 56
REMARK SMILES IDX 69 57 88 58 53 59 54 60 68 62 89 63 56 64 40 65 41 66 49 67
REMARK SMILES IDX 42 68 48 69 50 70 47 71 43 72 44 73 45 74 46 75 72 76 73 77
REMARK SMILES IDX 81 78 74 79 80 80 82 81 79 82 75 83 76 84 77 85 78 86 57 87
REMARK SMILES IDX 58 88 66 89 59 90 65 91 67 92 64 93 60 94 61 95 62 96 63 97
REMARK H PARENT 3 14 3 15 87 50 55 61
REMARK Flexibility Score: inf
ROOT
ATOM      1  C   UNL A   1      36.801  21.273  25.211  1.00  0.00     0.188 C 
ENDROOT
BRANCH   1   2
ATOM      2  C   UNL A   1      35.815  22.056  26.083  1.00  0.00     0.188 C 
BRANCH   2   3
ATOM      3  O   UNL A   1      34.475  21.689  25.855  1.00  0.00    -0.376 OA
BRANCH   3   4
ATOM      4  C   UNL A   1      34.050  21.425  24.537  1.00  0.00     0.202 C 
BRANCH   4   5
ATOM      5  C   UNL A   1      32.868  22.152  23.863  1.00  0.00     0.261 C 
BRANCH   5   6
ATOM      6  O   UNL A   1      32.853  23.582  23.745  1.00  0.00    -0.463 OA
BRANCH   6   7
ATOM      7  C   UNL A   1      33.996  24.215  23.383  1.00  0.00     0.314 C 
ATOM      8  O   UNL A   1      34.806  23.748  22.588  1.00  0.00    -0.252 OA
BRANCH   7   9
ATOM      9  C   UNL A   1      34.262  25.514  24.166  1.00  0.00     0.154 C 
ATOM     10  C   UNL A   1      34.028  25.142  25.636  1.00  0.00     0.026 C 
BRANCH   9  11
ATOM     11  C   UNL A   1      33.465  26.787  23.713  1.00  0.00     0.193 C 
ATOM     12  C   UNL A   1      34.012  27.344  22.383  1.00  0.00     0.076 C 
BRANCH  11  13
ATOM     13  N   UNL A   1      33.530  27.850  24.733  1.00  0.00    -0.336 N 
ATOM     14  H   UNL A   1      34.080  28.612  24.337  1.00  0.00     0.347 HD
ATOM     15  H   UNL A   1      33.922  27.381  25.550  1.00  0.00     0.347 HD
BRANCH  13  16
ATOM     16  C   UNL A   1      32.262  28.445  25.238  1.00  0.00     0.229 C 
ATOM     17  C   UNL A   1      32.419  28.314  26.769  1.00  0.00     0.082 C 
BRANCH  16  18
ATOM     18  C   UNL A   1      30.917  27.872  24.750  1.00  0.00     0.097 A 
ATOM     19  C   UNL A   1      30.205  28.479  23.710  1.00  0.00     0.030 A 
ATOM     20  N   UNL A   1      30.495  26.688  25.250  1.00  0.00    -0.255 NA
ATOM     21  C   UNL A   1      29.031  27.893  23.231  1.00  0.00     0.004 A 
ATOM     22  C   UNL A   1      29.364  26.126  24.768  1.00  0.00     0.111 A 
ATOM     23  C   UNL A   1      28.598  26.692  23.772  1.00  0.00     0.020 A 
ENDBRANCH  16  18
ENDBRANCH  13  16
ENDBRANCH  11  13
ENDBRANCH   9  11
ENDBRANCH   7   9
ENDBRANCH   6   7
ENDBRANCH   5   6
ENDBRANCH   4   5
ENDBRANCH   3   4
ENDBRANCH   2   3
ENDBRANCH   1   2
BRANCH   1  24
ATOM     24  O   UNL A   1      38.147  21.685  25.031  1.00  0.00    -0.377 OA
BRANCH  24  25
ATOM     25  C   UNL A   1      39.160  21.128  25.848  1.00  0.00     0.188 C 
BRANCH  25  26
ATOM     26  C   UNL A   1      39.292  19.598  25.854  1.00  0.00     0.188 C 
BRANCH  26  27
ATOM     27  O   UNL A   1      40.561  19.120  25.420  1.00  0.00    -0.376 OA
BRANCH  27  28
ATOM     28  C   UNL A   1      41.700  19.583  26.136  1.00  0.00     0.202 C 
BRANCH  28  29
ATOM     29  C   UNL A   1      43.081  19.057  25.711  1.00  0.00     0.261 C 
BRANCH  29  30
ATOM     30  O   UNL A   1      43.568  19.492  24.432  1.00  0.00    -0.460 OA
BRANCH  30  31
ATOM     31  C   UNL A   1      44.860  19.859  24.339  1.00  0.00     0.338 C 
ATOM     32  O   UNL A   1      45.770  19.234  23.811  1.00  0.00    -0.246 OA
BRANCH  31  33
ATOM     33  C   UNL A   1      44.959  21.240  24.840  1.00  0.00     0.060 A 
ATOM     34  C   UNL A   1      44.701  22.301  23.963  1.00  0.00     0.016 A 
ATOM     35  C   UNL A   1      45.278  21.484  26.179  1.00  0.00     0.016 A 
ATOM     36  C   UNL A   1      44.774  23.614  24.423  1.00  0.00     0.010 A 
ATOM     37  C   UNL A   1      45.378  22.803  26.630  1.00  0.00     0.010 A 
ATOM     38  C   UNL A   1      45.149  23.873  25.748  1.00  0.00    -0.014 A 
BRANCH  38  39
ATOM     39  C   UNL A   1      45.488  25.262  26.143  1.00  0.00     0.031 A 
ATOM     40  C   UNL A   1      44.383  26.143  26.657  1.00  0.00     0.074 A 
ATOM     41  C   UNL A   1      46.753  25.712  26.093  1.00  0.00     0.049 A 
ATOM     42  N   UNL A   1      44.430  27.382  27.071  1.00  0.00    -0.248 NA
ATOM     43  C   UNL A   1      43.043  25.539  26.707  1.00  0.00     0.031 C 
ATOM     44  C   UNL A   1      47.910  24.932  25.654  1.00  0.00     0.029 A 
ATOM     45  N   UNL A   1      47.279  26.937  26.419  1.00  0.00    -0.354 N 
ATOM     46  C   UNL A   1      43.127  27.707  27.436  1.00  0.00     0.074 A 
ATOM     47  C   UNL A   1      42.309  26.547  27.150  1.00  0.00     0.031 C 
ATOM     48  C   UNL A   1      49.009  25.702  25.733  1.00  0.00     0.029 A 
ATOM     49  C   UNL A   1      48.632  27.037  26.196  1.00  0.00     0.049 A 
ATOM     50  H   UNL A   1      46.736  27.676  26.778  1.00  0.00     0.167 HD
ATOM     51  C   UNL A   1      42.660  28.862  27.969  1.00  0.00     0.034 A 
ATOM     52  C   UNL A   1      49.463  28.091  26.332  1.00  0.00     0.034 A 
ATOM     53  C   UNL A   1      43.489  30.015  28.223  1.00  0.00     0.049 A 
ATOM     54  C   UNL A   1      48.904  29.398  26.842  1.00  0.00     0.074 A 
ATOM     55  C   UNL A   1      43.126  31.235  28.768  1.00  0.00     0.029 A 
ATOM     56  N   UNL A   1      44.845  30.101  27.931  1.00  0.00    -0.354 N 
ATOM     57  N   UNL A   1      47.674  29.690  27.201  1.00  0.00    -0.248 NA
ATOM     58  C   UNL A   1      49.848  30.514  26.974  1.00  0.00     0.031 C 
ATOM     59  C   UNL A   1      44.239  32.081  28.727  1.00  0.00     0.029 A 
ATOM     60  C   UNL A   1      45.323  31.364  28.244  1.00  0.00     0.049 A 
ATOM     61  H   UNL A   1      45.388  29.370  27.556  1.00  0.00     0.167 HD
ATOM     62  C   UNL A   1      47.705  31.016  27.629  1.00  0.00     0.074 A 
ATOM     63  C   UNL A   1      49.080  31.457  27.500  1.00  0.00     0.031 C 
ATOM     64  C   UNL A   1      46.694  31.798  28.089  1.00  0.00     0.034 A 
BRANCH  51  65
ATOM     65  C   UNL A   1      41.177  28.944  28.244  1.00  0.00     0.023 A 
ATOM     66  C   UNL A   1      40.649  28.772  29.537  1.00  0.00     0.031 A 
ATOM     67  C   UNL A   1      40.272  29.149  27.188  1.00  0.00     0.131 A 
ATOM     68  C   UNL A   1      39.259  28.727  29.726  1.00  0.00     0.055 A 
ATOM     69  C   UNL A   1      38.892  29.190  27.396  1.00  0.00     0.041 A 
ATOM     70  F   UNL A   1      40.713  29.293  25.929  1.00  0.00    -0.206 F 
ATOM     71  C   UNL A   1      38.377  28.962  28.668  1.00  0.00     0.022 A 
BRANCH  68  72
ATOM     72  S   UNL A   1      38.619  28.199  31.339  1.00  0.00     0.124 S 
ATOM     73  O   UNL A   1      38.528  26.752  31.161  1.00  0.00    -0.237 OA
ATOM     74  O   UNL A   1      39.650  28.668  32.257  1.00  0.00    -0.237 OA
ATOM     75  O   UNL A   1      37.333  28.887  31.439  1.00  0.00    -0.744 OA
ENDBRANCH  68  72
ENDBRANCH  51  65
BRANCH  52  76
ATOM     76  C   UNL A   1      50.899  27.976  25.941  1.00  0.00     0.023 A 
ATOM     77  C   UNL A   1      51.295  27.977  24.594  1.00  0.00     0.031 A 
ATOM     78  C   UNL A   1      51.896  27.813  26.920  1.00  0.00     0.131 A 
ATOM     79  C   UNL A   1      52.645  27.777  24.262  1.00  0.00     0.055 A 
ATOM     80  C   UNL A   1      53.243  27.669  26.586  1.00  0.00     0.041 A 
ATOM     81  F   UNL A   1      51.573  27.798  28.223  1.00  0.00    -0.206 F 
ATOM     82  C   UNL A   1      53.624  27.638  25.249  1.00  0.00     0.022 A 
BRANCH  79  83
ATOM     83  S   UNL A   1      53.098  27.621  22.511  1.00  0.00     0.124 S 
ATOM     84  O   UNL A   1      53.455  26.210  22.421  1.00  0.00    -0.237 OA
ATOM     85  O   UNL A   1      51.863  28.015  21.842  1.00  0.00    -0.237 OA
ATOM     86  O   UNL A   1      54.210  28.558  22.363  1.00  0.00    -0.744 OA
ENDBRANCH  79  83
ENDBRANCH  52  76
BRANCH  64  87
ATOM     87  C   UNL A   1      47.052  33.202  28.521  1.00  0.00     0.023 A 
ATOM     88  C   UNL A   1      46.939  34.298  27.646  1.00  0.00     0.031 A 
ATOM     89  C   UNL A   1      47.536  33.444  29.819  1.00  0.00     0.131 A 
ATOM     90  C   UNL A   1      47.369  35.569  28.058  1.00  0.00     0.055 A 
ATOM     91  C   UNL A   1      47.894  34.723  30.247  1.00  0.00     0.041 A 
ATOM     92  F   UNL A   1      47.669  32.436  30.698  1.00  0.00    -0.206 F 
ATOM     93  C   UNL A   1      47.827  35.792  29.359  1.00  0.00     0.022 A 
BRANCH  90  94
ATOM     94  S   UNL A   1      47.433  36.905  26.833  1.00  0.00     0.124 S 
ATOM     95  O   UNL A   1      48.225  36.301  25.767  1.00  0.00    -0.237 OA
ATOM     96  O   UNL A   1      46.021  37.122  26.533  1.00  0.00    -0.237 OA
ATOM     97  O   UNL A   1      48.088  37.998  27.550  1.00  0.00    -0.744 OA
ENDBRANCH  90  94
ENDBRANCH  64  87
ENDBRANCH  38  39
ENDBRANCH  31  33
ENDBRANCH  30  31
ENDBRANCH  29  30
ENDBRANCH  28  29
ENDBRANCH  27  28
ENDBRANCH  26  27
ENDBRANCH  25  26
ENDBRANCH  24  25
ENDBRANCH   1  24
TORSDOF 27
ENDMDL
