MODEL 1
REMARK VINA RESULT:      -9.2      0.000      0.000
REMARK SMILES CCN(CC)S(=O)(=O)c1ccc2nc(-c3ccncc3)cc(C(=O)OCCOCCOCCOCCOC(=O)c3ccc(-c4c5nc(c(-c6cc(S(=O)(=O)[O-])ccc6F)c6ccc([nH]6)c(-c6cc(S(=O)(=O)[O-])ccc6F)c6nc(c(-c7cc(S(=O)(=O)[O-])ccc7F)c7ccc4[nH]7)C=C6)C=C5)cc3)c2c1
REMARK SMILES IDX 31 1 30 2 29 3 28 4 27 5 26 6 25 7 23 8 24 9 22 10 9 11
REMARK SMILES IDX 10 12 104 13 11 14 103 15 12 16 13 17 21 18 14 19 6 20 7 21
REMARK SMILES IDX 8 22 3 23 2 24 1 25 4 26 5 27 15 28 16 29 20 30 17 31 19 32
REMARK SMILES IDX 18 33 32 34 33 35 34 36 35 37 36 38 37 39 38 40 39 41 40 42
REMARK SMILES IDX 41 43 102 44 42 45 101 46 43 47 44 48 45 49 95 50 46 51
REMARK SMILES IDX 100 52 94 53 96 54 47 55 99 56 93 57 92 58 48 60 80 61 60 62
REMARK SMILES IDX 79 63 61 64 64 65 78 66 97 67 62 68 63 69 77 71 98 72 65 73
REMARK SMILES IDX 49 74 50 75 58 76 51 77 57 78 59 79 56 80 52 81 53 82 54 83
REMARK SMILES IDX 55 84 81 85 82 86 90 87 83 88 89 89 91 90 88 91 84 92 85 93
REMARK SMILES IDX 86 94 87 95 66 96 67 97 75 98 68 99 74 100 76 101 73 102
REMARK SMILES IDX 69 103 70 104 71 105 72 106
REMARK H PARENT 96 59 64 70
REMARK Flexibility Score: inf
ROOT
ATOM      1  O   UNL A   1      37.522  30.945  30.003  1.00  0.00    -0.377 OA
ENDROOT
BRANCH   1   2
ATOM      2  C   UNL A   1      37.406  29.897  29.057  1.00  0.00     0.188 C 
BRANCH   2   3
ATOM      3  C   UNL A   1      36.117  29.908  28.211  1.00  0.00     0.188 C 
BRANCH   3   4
ATOM      4  O   UNL A   1      35.839  31.167  27.629  1.00  0.00    -0.376 OA
BRANCH   4   5
ATOM      5  C   UNL A   1      34.515  31.677  27.625  1.00  0.00     0.202 C 
BRANCH   5   6
ATOM      6  C   UNL A   1      33.280  30.774  27.480  1.00  0.00     0.261 C 
BRANCH   6   7
ATOM      7  O   UNL A   1      33.143  30.078  26.239  1.00  0.00    -0.460 OA
BRANCH   7   8
ATOM      8  C   UNL A   1      32.836  28.770  26.264  1.00  0.00     0.338 C 
ATOM      9  O   UNL A   1      32.980  28.006  27.203  1.00  0.00    -0.246 OA
BRANCH   8  10
ATOM     10  C   UNL A   1      32.064  28.435  25.039  1.00  0.00     0.071 A 
ATOM     11  C   UNL A   1      33.257  25.101  23.700  1.00  0.00     0.083 A 
ATOM     12  C   UNL A   1      32.323  24.908  22.693  1.00  0.00     0.024 A 
ATOM     13  C   UNL A   1      33.202  26.238  24.512  1.00  0.00     0.033 A 
ATOM     14  C   UNL A   1      31.398  25.916  22.437  1.00  0.00     0.030 A 
ATOM     15  C   UNL A   1      32.239  27.251  24.276  1.00  0.00     0.016 A 
ATOM     16  C   UNL A   1      31.361  27.087  23.181  1.00  0.00     0.072 A 
ATOM     17  N   UNL A   1      30.476  28.018  22.806  1.00  0.00    -0.248 NA
ATOM     18  C   UNL A   1      31.143  29.407  24.638  1.00  0.00     0.045 A 
ATOM     19  C   UNL A   1      30.397  29.171  23.501  1.00  0.00     0.072 A 
BRANCH  11  20
ATOM     20  S   UNL A   1      34.480  23.855  24.026  1.00  0.00     0.243 S 
ATOM     21  O   UNL A   1      35.502  24.454  24.860  1.00  0.00    -0.207 OA
ATOM     22  O   UNL A   1      34.816  23.307  22.731  1.00  0.00    -0.207 OA
BRANCH  20  23
ATOM     23  N   UNL A   1      33.630  22.692  24.950  1.00  0.00    -0.198 NA
BRANCH  23  24
ATOM     24  C   UNL A   1      33.737  21.283  24.464  1.00  0.00     0.099 C 
ATOM     25  C   UNL A   1      32.524  20.824  23.694  1.00  0.00     0.022 C 
ENDBRANCH  23  24
BRANCH  23  26
ATOM     26  C   UNL A   1      33.743  22.750  26.441  1.00  0.00     0.099 C 
ATOM     27  C   UNL A   1      32.410  22.749  27.174  1.00  0.00     0.022 C 
ENDBRANCH  23  26
ENDBRANCH  20  23
ENDBRANCH  11  20
BRANCH  19  28
ATOM     28  C   UNL A   1      29.460  30.151  22.960  1.00  0.00     0.003 A 
ATOM     29  C   UNL A   1      28.986  30.030  21.652  1.00  0.00     0.030 A 
ATOM     30  C   UNL A   1      29.048  31.254  23.717  1.00  0.00     0.030 A 
ATOM     31  C   UNL A   1      28.119  30.992  21.167  1.00  0.00     0.111 A 
ATOM     32  C   UNL A   1      28.180  32.167  23.140  1.00  0.00     0.111 A 
ATOM     33  N   UNL A   1      27.699  32.056  21.884  1.00  0.00    -0.265 NA
ENDBRANCH  19  28
ENDBRANCH   8  10
ENDBRANCH   7   8
ENDBRANCH   6   7
ENDBRANCH   5   6
ENDBRANCH   4   5
ENDBRANCH   3   4
ENDBRANCH   2   3
ENDBRANCH   1   2
BRANCH   1  34
ATOM     34  C   UNL A   1      36.429  31.221  30.881  1.00  0.00     0.188 C 
BRANCH  34  35
ATOM     35  C   UNL A   1      35.893  32.652  31.139  1.00  0.00     0.188 C 
BRANCH  35  36
ATOM     36  O   UNL A   1      36.805  33.529  31.787  1.00  0.00    -0.376 OA
BRANCH  36  37
ATOM     37  C   UNL A   1      36.253  34.532  32.625  1.00  0.00     0.202 C 
BRANCH  37  38
ATOM     38  C   UNL A   1      36.490  34.318  34.125  1.00  0.00     0.261 C 
BRANCH  38  39
ATOM     39  O   UNL A   1      36.501  32.949  34.558  1.00  0.00    -0.460 OA
BRANCH  39  40
ATOM     40  C   UNL A   1      37.401  32.616  35.513  1.00  0.00     0.338 C 
ATOM     41  O   UNL A   1      37.279  32.758  36.715  1.00  0.00    -0.246 OA
BRANCH  40  42
ATOM     42  C   UNL A   1      38.501  31.886  34.854  1.00  0.00     0.060 A 
ATOM     43  C   UNL A   1      39.825  32.294  35.067  1.00  0.00     0.016 A 
ATOM     44  C   UNL A   1      38.217  30.802  34.021  1.00  0.00     0.016 A 
ATOM     45  C   UNL A   1      40.872  31.637  34.414  1.00  0.00     0.010 A 
ATOM     46  C   UNL A   1      39.263  30.157  33.361  1.00  0.00     0.010 A 
ATOM     47  C   UNL A   1      40.594  30.591  33.526  1.00  0.00    -0.014 A 
BRANCH  47  48
ATOM     48  C   UNL A   1      41.629  30.077  32.594  1.00  0.00     0.031 A 
ATOM     49  C   UNL A   1      42.347  28.812  32.968  1.00  0.00     0.074 A 
ATOM     50  C   UNL A   1      41.944  30.699  31.444  1.00  0.00     0.049 A 
ATOM     51  N   UNL A   1      43.411  28.272  32.434  1.00  0.00    -0.248 NA
ATOM     52  C   UNL A   1      41.772  28.048  34.085  1.00  0.00     0.031 C 
ATOM     53  C   UNL A   1      41.230  31.832  30.867  1.00  0.00     0.029 A 
ATOM     54  N   UNL A   1      42.985  30.476  30.572  1.00  0.00    -0.354 N 
ATOM     55  C   UNL A   1      43.616  27.088  33.131  1.00  0.00     0.074 A 
ATOM     56  C   UNL A   1      42.609  27.026  34.169  1.00  0.00     0.031 C 
ATOM     57  C   UNL A   1      41.895  32.246  29.772  1.00  0.00     0.029 A 
ATOM     58  C   UNL A   1      43.121  31.472  29.632  1.00  0.00     0.049 A 
ATOM     59  H   UNL A   1      43.572  29.687  30.616  1.00  0.00     0.167 HD
ATOM     60  C   UNL A   1      44.544  26.126  32.904  1.00  0.00     0.034 A 
ATOM     61  C   UNL A   1      44.147  31.771  28.809  1.00  0.00     0.034 A 
ATOM     62  C   UNL A   1      45.554  26.215  31.880  1.00  0.00     0.049 A 
ATOM     63  C   UNL A   1      45.320  30.831  28.734  1.00  0.00     0.074 A 
ATOM     64  C   UNL A   1      46.539  25.297  31.559  1.00  0.00     0.029 A 
ATOM     65  N   UNL A   1      45.724  27.293  31.021  1.00  0.00    -0.354 N 
ATOM     66  N   UNL A   1      45.528  29.724  29.409  1.00  0.00    -0.248 NA
ATOM     67  C   UNL A   1      46.370  31.151  27.759  1.00  0.00     0.031 C 
ATOM     68  C   UNL A   1      47.352  25.853  30.566  1.00  0.00     0.029 A 
ATOM     69  C   UNL A   1      46.822  27.081  30.201  1.00  0.00     0.049 A 
ATOM     70  H   UNL A   1      45.149  28.091  30.998  1.00  0.00     0.167 HD
ATOM     71  C   UNL A   1      46.689  29.172  28.875  1.00  0.00     0.074 A 
ATOM     72  C   UNL A   1      47.156  30.088  27.855  1.00  0.00     0.031 C 
ATOM     73  C   UNL A   1      47.283  27.989  29.177  1.00  0.00     0.034 A 
BRANCH  60  74
ATOM     74  C   UNL A   1      44.527  24.928  33.817  1.00  0.00     0.023 A 
ATOM     75  C   UNL A   1      44.929  25.019  35.162  1.00  0.00     0.031 A 
ATOM     76  C   UNL A   1      44.143  23.669  33.327  1.00  0.00     0.131 A 
ATOM     77  C   UNL A   1      45.008  23.861  35.948  1.00  0.00     0.055 A 
ATOM     78  C   UNL A   1      44.143  22.533  34.139  1.00  0.00     0.041 A 
ATOM     79  F   UNL A   1      43.779  23.516  32.044  1.00  0.00    -0.206 F 
ATOM     80  C   UNL A   1      44.591  22.622  35.453  1.00  0.00     0.022 A 
BRANCH  77  81
ATOM     81  S   UNL A   1      45.805  23.969  37.573  1.00  0.00     0.124 S 
ATOM     82  O   UNL A   1      45.707  22.589  38.042  1.00  0.00    -0.237 OA
ATOM     83  O   UNL A   1      47.145  24.435  37.237  1.00  0.00    -0.237 OA
ATOM     84  O   UNL A   1      44.974  24.926  38.299  1.00  0.00    -0.744 OA
ENDBRANCH  77  81
ENDBRANCH  60  74
BRANCH  61  85
ATOM     85  C   UNL A   1      44.157  33.050  28.044  1.00  0.00     0.023 A 
ATOM     86  C   UNL A   1      44.391  34.280  28.674  1.00  0.00     0.031 A 
ATOM     87  C   UNL A   1      43.847  33.058  26.670  1.00  0.00     0.131 A 
ATOM     88  C   UNL A   1      44.273  35.472  27.940  1.00  0.00     0.055 A 
ATOM     89  C   UNL A   1      43.782  34.243  25.934  1.00  0.00     0.041 A 
ATOM     90  F   UNL A   1      43.587  31.908  26.027  1.00  0.00    -0.206 F 
ATOM     91  C   UNL A   1      43.984  35.462  26.573  1.00  0.00     0.022 A 
BRANCH  88  92
ATOM     92  S   UNL A   1      44.409  37.048  28.828  1.00  0.00     0.124 S 
ATOM     93  O   UNL A   1      45.225  36.671  29.976  1.00  0.00    -0.237 OA
ATOM     94  O   UNL A   1      45.055  37.899  27.833  1.00  0.00    -0.237 OA
ATOM     95  O   UNL A   1      43.021  37.390  29.132  1.00  0.00    -0.744 OA
ENDBRANCH  88  92
ENDBRANCH  61  85
BRANCH  73  96
ATOM     96  C   UNL A   1      48.445  27.559  28.319  1.00  0.00     0.023 A 
ATOM     97  C   UNL A   1      49.777  27.861  28.647  1.00  0.00     0.031 A 
ATOM     98  C   UNL A   1      48.203  26.822  27.145  1.00  0.00     0.131 A 
ATOM     99  C   UNL A   1      50.813  27.465  27.785  1.00  0.00     0.055 A 
ATOM    100  C   UNL A   1      49.240  26.378  26.325  1.00  0.00     0.041 A 
ATOM    101  F   UNL A   1      46.947  26.512  26.780  1.00  0.00    -0.206 F 
ATOM    102  C   UNL A   1      50.555  26.708  26.639  1.00  0.00     0.022 A 
BRANCH  99 103
ATOM    103  S   UNL A   1      52.502  28.019  28.141  1.00  0.00     0.124 S 
ATOM    104  O   UNL A   1      53.299  27.095  27.339  1.00  0.00    -0.237 OA
ATOM    105  O   UNL A   1      52.480  29.404  27.683  1.00  0.00    -0.237 OA
ATOM    106  O   UNL A   1      52.623  27.848  29.588  1.00  0.00    -0.744 OA
ENDBRANCH  99 103
ENDBRANCH  73  96
ENDBRANCH  47  48
ENDBRANCH  40  42
ENDBRANCH  39  40
ENDBRANCH  38  39
ENDBRANCH  37  38
ENDBRANCH  36  37
ENDBRANCH  35  36
ENDBRANCH  34  35
ENDBRANCH   1  34
TORSDOF 28
ENDMDL
MODEL 2
REMARK VINA RESULT:      -9.0      3.810      5.737
REMARK SMILES CCN(CC)S(=O)(=O)c1ccc2nc(-c3ccncc3)cc(C(=O)OCCOCCOCCOCCOC(=O)c3ccc(-c4c5nc(c(-c6cc(S(=O)(=O)[O-])ccc6F)c6ccc([nH]6)c(-c6cc(S(=O)(=O)[O-])ccc6F)c6nc(c(-c7cc(S(=O)(=O)[O-])ccc7F)c7ccc4[nH]7)C=C6)C=C5)cc3)c2c1
REMARK SMILES IDX 31 1 30 2 29 3 28 4 27 5 26 6 25 7 23 8 24 9 22 10 9 11
REMARK SMILES IDX 10 12 104 13 11 14 103 15 12 16 13 17 21 18 14 19 6 20 7 21
REMARK SMILES IDX 8 22 3 23 2 24 1 25 4 26 5 27 15 28 16 29 20 30 17 31 19 32
REMARK SMILES IDX 18 33 32 34 33 35 34 36 35 37 36 38 37 39 38 40 39 41 40 42
REMARK SMILES IDX 41 43 102 44 42 45 101 46 43 47 44 48 45 49 95 50 46 51
REMARK SMILES IDX 100 52 94 53 96 54 47 55 99 56 93 57 92 58 48 60 80 61 60 62
REMARK SMILES IDX 79 63 61 64 64 65 78 66 97 67 62 68 63 69 77 71 98 72 65 73
REMARK SMILES IDX 49 74 50 75 58 76 51 77 57 78 59 79 56 80 52 81 53 82 54 83
REMARK SMILES IDX 55 84 81 85 82 86 90 87 83 88 89 89 91 90 88 91 84 92 85 93
REMARK SMILES IDX 86 94 87 95 66 96 67 97 75 98 68 99 74 100 76 101 73 102
REMARK SMILES IDX 69 103 70 104 71 105 72 106
REMARK H PARENT 96 59 64 70
REMARK Flexibility Score: inf
ROOT
ATOM      1  O   UNL A   1      38.416  29.382  29.225  1.00  0.00    -0.377 OA
ENDROOT
BRANCH   1   2
ATOM      2  C   UNL A   1      37.865  30.065  28.114  1.00  0.00     0.188 C 
BRANCH   2   3
ATOM      3  C   UNL A   1      36.341  29.911  27.931  1.00  0.00     0.188 C 
BRANCH   3   4
ATOM      4  O   UNL A   1      35.694  31.117  27.572  1.00  0.00    -0.376 OA
BRANCH   4   5
ATOM      5  C   UNL A   1      34.393  31.403  28.057  1.00  0.00     0.202 C 
BRANCH   5   6
ATOM      6  C   UNL A   1      33.119  30.916  27.349  1.00  0.00     0.261 C 
BRANCH   6   7
ATOM      7  O   UNL A   1      33.307  30.165  26.147  1.00  0.00    -0.460 OA
BRANCH   7   8
ATOM      8  C   UNL A   1      33.057  28.844  26.166  1.00  0.00     0.338 C 
ATOM      9  O   UNL A   1      33.290  28.072  27.080  1.00  0.00    -0.246 OA
BRANCH   8  10
ATOM     10  C   UNL A   1      32.226  28.496  24.984  1.00  0.00     0.071 A 
ATOM     11  C   UNL A   1      33.305  25.115  23.666  1.00  0.00     0.083 A 
ATOM     12  C   UNL A   1      32.324  24.917  22.706  1.00  0.00     0.024 A 
ATOM     13  C   UNL A   1      33.304  26.271  24.455  1.00  0.00     0.033 A 
ATOM     14  C   UNL A   1      31.404  25.935  22.470  1.00  0.00     0.030 A 
ATOM     15  C   UNL A   1      32.348  27.294  24.240  1.00  0.00     0.016 A 
ATOM     16  C   UNL A   1      31.419  27.122  23.189  1.00  0.00     0.072 A 
ATOM     17  N   UNL A   1      30.533  28.059  22.834  1.00  0.00    -0.248 NA
ATOM     18  C   UNL A   1      31.303  29.475  24.603  1.00  0.00     0.045 A 
ATOM     19  C   UNL A   1      30.503  29.228  23.506  1.00  0.00     0.072 A 
BRANCH  11  20
ATOM     20  S   UNL A   1      34.521  23.856  23.965  1.00  0.00     0.243 S 
ATOM     21  O   UNL A   1      35.535  24.426  24.830  1.00  0.00    -0.207 OA
ATOM     22  O   UNL A   1      34.870  23.351  22.657  1.00  0.00    -0.207 OA
BRANCH  20  23
ATOM     23  N   UNL A   1      33.658  22.666  24.842  1.00  0.00    -0.198 NA
BRANCH  23  24
ATOM     24  C   UNL A   1      34.162  21.267  24.691  1.00  0.00     0.099 C 
ATOM     25  C   UNL A   1      33.059  20.252  24.523  1.00  0.00     0.022 C 
ENDBRANCH  23  24
BRANCH  23  26
ATOM     26  C   UNL A   1      33.303  22.953  26.266  1.00  0.00     0.099 C 
ATOM     27  C   UNL A   1      31.809  23.017  26.542  1.00  0.00     0.022 C 
ENDBRANCH  23  26
ENDBRANCH  20  23
ENDBRANCH  11  20
BRANCH  19  28
ATOM     28  C   UNL A   1      29.559  30.212  22.986  1.00  0.00     0.003 A 
ATOM     29  C   UNL A   1      29.198  30.201  21.637  1.00  0.00     0.030 A 
ATOM     30  C   UNL A   1      29.027  31.211  23.809  1.00  0.00     0.030 A 
ATOM     31  C   UNL A   1      28.319  31.165  21.176  1.00  0.00     0.111 A 
ATOM     32  C   UNL A   1      28.157  32.135  23.252  1.00  0.00     0.111 A 
ATOM     33  N   UNL A   1      27.785  32.130  21.955  1.00  0.00    -0.265 NA
ENDBRANCH  19  28
ENDBRANCH   8  10
ENDBRANCH   7   8
ENDBRANCH   6   7
ENDBRANCH   5   6
ENDBRANCH   4   5
ENDBRANCH   3   4
ENDBRANCH   2   3
ENDBRANCH   1   2
BRANCH   1  34
ATOM     34  C   UNL A   1      37.543  28.762  30.171  1.00  0.00     0.188 C 
BRANCH  34  35
ATOM     35  C   UNL A   1      37.403  29.246  31.636  1.00  0.00     0.188 C 
BRANCH  35  36
ATOM     36  O   UNL A   1      37.473  30.655  31.814  1.00  0.00    -0.376 OA
BRANCH  36  37
ATOM     37  C   UNL A   1      36.266  31.327  32.140  1.00  0.00     0.202 C 
BRANCH  37  38
ATOM     38  C   UNL A   1      36.407  32.415  33.211  1.00  0.00     0.261 C 
BRANCH  38  39
ATOM     39  O   UNL A   1      37.698  33.036  33.295  1.00  0.00    -0.460 OA
BRANCH  39  40
ATOM     40  C   UNL A   1      37.870  34.187  32.603  1.00  0.00     0.338 C 
ATOM     41  O   UNL A   1      37.171  35.181  32.651  1.00  0.00    -0.246 OA
BRANCH  40  42
ATOM     42  C   UNL A   1      39.163  34.094  31.898  1.00  0.00     0.060 A 
ATOM     43  C   UNL A   1      40.339  34.471  32.561  1.00  0.00     0.016 A 
ATOM     44  C   UNL A   1      39.207  33.638  30.579  1.00  0.00     0.016 A 
ATOM     45  C   UNL A   1      41.564  34.429  31.889  1.00  0.00     0.010 A 
ATOM     46  C   UNL A   1      40.429  33.609  29.908  1.00  0.00     0.010 A 
ATOM     47  C   UNL A   1      41.611  34.036  30.547  1.00  0.00    -0.014 A 
BRANCH  47  48
ATOM     48  C   UNL A   1      42.822  34.265  29.719  1.00  0.00     0.031 A 
ATOM     49  C   UNL A   1      43.831  33.156  29.625  1.00  0.00     0.074 A 
ATOM     50  C   UNL A   1      43.046  35.417  29.063  1.00  0.00     0.049 A 
ATOM     51  N   UNL A   1      45.044  33.175  29.139  1.00  0.00    -0.248 NA
ATOM     52  C   UNL A   1      43.400  31.845  30.136  1.00  0.00     0.031 C 
ATOM     53  C   UNL A   1      42.096  36.514  28.921  1.00  0.00     0.029 A 
ATOM     54  N   UNL A   1      44.177  35.866  28.419  1.00  0.00    -0.354 N 
ATOM     55  C   UNL A   1      45.512  31.872  29.256  1.00  0.00     0.074 A 
ATOM     56  C   UNL A   1      44.479  31.108  29.923  1.00  0.00     0.031 C 
ATOM     57  C   UNL A   1      42.708  37.535  28.293  1.00  0.00     0.029 A 
ATOM     58  C   UNL A   1      44.108  37.197  28.077  1.00  0.00     0.049 A 
ATOM     59  H   UNL A   1      44.955  35.295  28.225  1.00  0.00     0.167 HD
ATOM     60  C   UNL A   1      46.686  31.357  28.818  1.00  0.00     0.034 A 
ATOM     61  C   UNL A   1      45.074  38.061  27.707  1.00  0.00     0.034 A 
ATOM     62  C   UNL A   1      47.714  32.137  28.176  1.00  0.00     0.049 A 
ATOM     63  C   UNL A   1      46.465  37.540  27.462  1.00  0.00     0.074 A 
ATOM     64  C   UNL A   1      48.938  31.715  27.688  1.00  0.00     0.029 A 
ATOM     65  N   UNL A   1      47.647  33.505  27.948  1.00  0.00    -0.354 N 
ATOM     66  N   UNL A   1      46.917  36.314  27.596  1.00  0.00    -0.248 NA
ATOM     67  C   UNL A   1      47.462  38.501  26.975  1.00  0.00     0.031 C 
ATOM     68  C   UNL A   1      49.644  32.838  27.243  1.00  0.00     0.029 A 
ATOM     69  C   UNL A   1      48.826  33.950  27.366  1.00  0.00     0.049 A 
ATOM     70  H   UNL A   1      46.877  34.077  28.167  1.00  0.00     0.167 HD
ATOM     71  C   UNL A   1      48.226  36.343  27.124  1.00  0.00     0.074 A 
ATOM     72  C   UNL A   1      48.503  37.713  26.743  1.00  0.00     0.031 C 
ATOM     73  C   UNL A   1      49.098  35.313  26.979  1.00  0.00     0.034 A 
BRANCH  60  74
ATOM     74  C   UNL A   1      46.928  29.891  29.071  1.00  0.00     0.023 A 
ATOM     75  C   UNL A   1      47.575  29.441  30.236  1.00  0.00     0.031 A 
ATOM     76  C   UNL A   1      46.543  28.934  28.118  1.00  0.00     0.131 A 
ATOM     77  C   UNL A   1      47.883  28.080  30.383  1.00  0.00     0.055 A 
ATOM     78  C   UNL A   1      46.777  27.571  28.309  1.00  0.00     0.041 A 
ATOM     79  F   UNL A   1      45.948  29.309  26.974  1.00  0.00    -0.206 F 
ATOM     80  C   UNL A   1      47.464  27.139  29.439  1.00  0.00     0.022 A 
BRANCH  77  81
ATOM     81  S   UNL A   1      48.971  27.581  31.744  1.00  0.00     0.124 S 
ATOM     82  O   UNL A   1      49.443  28.873  32.235  1.00  0.00    -0.237 OA
ATOM     83  O   UNL A   1      48.063  26.856  32.625  1.00  0.00    -0.237 OA
ATOM     84  O   UNL A   1      49.990  26.764  31.087  1.00  0.00    -0.744 OA
ENDBRANCH  77  81
ENDBRANCH  60  74
BRANCH  61  85
ATOM     85  C   UNL A   1      44.792  39.522  27.617  1.00  0.00     0.023 A 
ATOM     86  C   UNL A   1      44.437  40.127  26.404  1.00  0.00     0.031 A 
ATOM     87  C   UNL A   1      44.955  40.348  28.746  1.00  0.00     0.131 A 
ATOM     88  C   UNL A   1      44.297  41.524  26.337  1.00  0.00     0.055 A 
ATOM     89  C   UNL A   1      44.763  41.730  28.686  1.00  0.00     0.041 A 
ATOM     90  F   UNL A   1      45.321  39.819  29.925  1.00  0.00    -0.206 F 
ATOM     91  C   UNL A   1      44.443  42.327  27.470  1.00  0.00     0.022 A 
BRANCH  88  92
ATOM     92  S   UNL A   1      44.012  42.285  24.715  1.00  0.00     0.124 S 
ATOM     93  O   UNL A   1      45.125  41.751  23.938  1.00  0.00    -0.237 OA
ATOM     94  O   UNL A   1      42.688  41.776  24.373  1.00  0.00    -0.237 OA
ATOM     95  O   UNL A   1      44.075  43.718  24.994  1.00  0.00    -0.744 OA
ENDBRANCH  88  92
ENDBRANCH  61  85
BRANCH  73  96
ATOM     96  C   UNL A   1      50.402  35.604  26.279  1.00  0.00     0.023 A 
ATOM     97  C   UNL A   1      51.619  35.720  26.970  1.00  0.00     0.031 A 
ATOM     98  C   UNL A   1      50.416  35.762  24.880  1.00  0.00     0.131 A 
ATOM     99  C   UNL A   1      52.793  36.030  26.265  1.00  0.00     0.055 A 
ATOM    100  C   UNL A   1      51.596  36.009  24.179  1.00  0.00     0.041 A 
ATOM    101  F   UNL A   1      49.280  35.669  24.170  1.00  0.00    -0.206 F 
ATOM    102  C   UNL A   1      52.792  36.155  24.873  1.00  0.00     0.022 A 
BRANCH  99 103
ATOM    103  S   UNL A   1      54.313  36.347  27.200  1.00  0.00     0.124 S 
ATOM    104  O   UNL A   1      54.649  35.015  27.694  1.00  0.00    -0.237 OA
ATOM    105  O   UNL A   1      55.202  36.889  26.177  1.00  0.00    -0.237 OA
ATOM    106  O   UNL A   1      53.894  37.302  28.224  1.00  0.00    -0.744 OA
ENDBRANCH  99 103
ENDBRANCH  73  96
ENDBRANCH  47  48
ENDBRANCH  40  42
ENDBRANCH  39  40
ENDBRANCH  38  39
ENDBRANCH  37  38
ENDBRANCH  36  37
ENDBRANCH  35  36
ENDBRANCH  34  35
ENDBRANCH   1  34
TORSDOF 28
ENDMDL
MODEL 3
REMARK VINA RESULT:      -8.9      4.702      7.598
REMARK SMILES CCN(CC)S(=O)(=O)c1ccc2nc(-c3ccncc3)cc(C(=O)OCCOCCOCCOCCOC(=O)c3ccc(-c4c5nc(c(-c6cc(S(=O)(=O)[O-])ccc6F)c6ccc([nH]6)c(-c6cc(S(=O)(=O)[O-])ccc6F)c6nc(c(-c7cc(S(=O)(=O)[O-])ccc7F)c7ccc4[nH]7)C=C6)C=C5)cc3)c2c1
REMARK SMILES IDX 31 1 30 2 29 3 28 4 27 5 26 6 25 7 23 8 24 9 22 10 9 11
REMARK SMILES IDX 10 12 104 13 11 14 103 15 12 16 13 17 21 18 14 19 6 20 7 21
REMARK SMILES IDX 8 22 3 23 2 24 1 25 4 26 5 27 15 28 16 29 20 30 17 31 19 32
REMARK SMILES IDX 18 33 32 34 33 35 34 36 35 37 36 38 37 39 38 40 39 41 40 42
REMARK SMILES IDX 41 43 102 44 42 45 101 46 43 47 44 48 45 49 95 50 46 51
REMARK SMILES IDX 100 52 94 53 96 54 47 55 99 56 93 57 92 58 48 60 80 61 60 62
REMARK SMILES IDX 79 63 61 64 64 65 78 66 97 67 62 68 63 69 77 71 98 72 65 73
REMARK SMILES IDX 49 74 50 75 58 76 51 77 57 78 59 79 56 80 52 81 53 82 54 83
REMARK SMILES IDX 55 84 81 85 82 86 90 87 83 88 89 89 91 90 88 91 84 92 85 93
REMARK SMILES IDX 86 94 87 95 66 96 67 97 75 98 68 99 74 100 76 101 73 102
REMARK SMILES IDX 69 103 70 104 71 105 72 106
REMARK H PARENT 96 59 64 70
REMARK Flexibility Score: inf
ROOT
ATOM      1  O   UNL A   1      40.718  30.730  32.960  1.00  0.00    -0.377 OA
ENDROOT
BRANCH   1   2
ATOM      2  C   UNL A   1      41.093  29.378  32.767  1.00  0.00     0.188 C 
BRANCH   2   3
ATOM      3  C   UNL A   1      39.933  28.362  32.779  1.00  0.00     0.188 C 
BRANCH   3   4
ATOM      4  O   UNL A   1      39.503  27.987  31.484  1.00  0.00    -0.376 OA
BRANCH   4   5
ATOM      5  C   UNL A   1      38.288  28.496  30.958  1.00  0.00     0.202 C 
BRANCH   5   6
ATOM      6  C   UNL A   1      38.121  28.876  29.478  1.00  0.00     0.261 C 
BRANCH   6   7
ATOM      7  O   UNL A   1      36.876  29.479  29.114  1.00  0.00    -0.460 OA
BRANCH   7   8
ATOM      8  C   UNL A   1      36.777  30.079  27.915  1.00  0.00     0.338 C 
ATOM      9  O   UNL A   1      37.557  29.978  26.983  1.00  0.00    -0.246 OA
BRANCH   8  10
ATOM     10  C   UNL A   1      35.435  30.707  27.802  1.00  0.00     0.071 A 
ATOM     11  C   UNL A   1      33.017  28.200  26.316  1.00  0.00     0.083 A 
ATOM     12  C   UNL A   1      31.834  28.911  26.453  1.00  0.00     0.024 A 
ATOM     13  C   UNL A   1      34.227  28.742  26.763  1.00  0.00     0.033 A 
ATOM     14  C   UNL A   1      31.888  30.212  26.944  1.00  0.00     0.030 A 
ATOM     15  C   UNL A   1      34.280  30.054  27.295  1.00  0.00     0.016 A 
ATOM     16  C   UNL A   1      33.083  30.803  27.331  1.00  0.00     0.072 A 
ATOM     17  N   UNL A   1      33.029  32.081  27.724  1.00  0.00    -0.248 NA
ATOM     18  C   UNL A   1      35.374  32.044  28.203  1.00  0.00     0.045 A 
ATOM     19  C   UNL A   1      34.162  32.699  28.116  1.00  0.00     0.072 A 
BRANCH  11  20
ATOM     20  S   UNL A   1      32.992  26.553  25.655  1.00  0.00     0.243 S 
ATOM     21  O   UNL A   1      31.782  25.911  26.128  1.00  0.00    -0.207 OA
ATOM     22  O   UNL A   1      34.289  25.999  25.970  1.00  0.00    -0.207 OA
BRANCH  20  23
ATOM     23  N   UNL A   1      32.856  26.801  23.967  1.00  0.00    -0.198 NA
BRANCH  23  24
ATOM     24  C   UNL A   1      33.630  25.849  23.113  1.00  0.00     0.099 C 
ATOM     25  C   UNL A   1      33.037  25.663  21.739  1.00  0.00     0.022 C 
ENDBRANCH  23  24
BRANCH  23  26
ATOM     26  C   UNL A   1      31.496  27.045  23.392  1.00  0.00     0.099 C 
ATOM     27  C   UNL A   1      31.233  28.486  22.987  1.00  0.00     0.022 C 
ENDBRANCH  23  26
ENDBRANCH  20  23
ENDBRANCH  11  20
BRANCH  19  28
ATOM     28  C   UNL A   1      34.009  34.114  28.443  1.00  0.00     0.003 A 
ATOM     29  C   UNL A   1      33.034  34.527  29.352  1.00  0.00     0.030 A 
ATOM     30  C   UNL A   1      34.802  35.089  27.828  1.00  0.00     0.030 A 
ATOM     31  C   UNL A   1      32.903  35.878  29.619  1.00  0.00     0.111 A 
ATOM     32  C   UNL A   1      34.591  36.419  28.158  1.00  0.00     0.111 A 
ATOM     33  N   UNL A   1      33.664  36.835  29.047  1.00  0.00    -0.265 NA
ENDBRANCH  19  28
ENDBRANCH   8  10
ENDBRANCH   7   8
ENDBRANCH   6   7
ENDBRANCH   5   6
ENDBRANCH   4   5
ENDBRANCH   3   4
ENDBRANCH   2   3
ENDBRANCH   1   2
BRANCH   1  34
ATOM     34  C   UNL A   1      40.572  31.235  34.288  1.00  0.00     0.188 C 
BRANCH  34  35
ATOM     35  C   UNL A   1      39.532  30.679  35.293  1.00  0.00     0.188 C 
BRANCH  35  36
ATOM     36  O   UNL A   1      38.175  30.810  34.890  1.00  0.00    -0.376 OA
BRANCH  36  37
ATOM     37  C   UNL A   1      37.852  31.906  34.049  1.00  0.00     0.202 C 
BRANCH  37  38
ATOM     38  C   UNL A   1      37.351  31.519  32.653  1.00  0.00     0.261 C 
BRANCH  38  39
ATOM     39  O   UNL A   1      38.046  32.131  31.556  1.00  0.00    -0.460 OA
BRANCH  39  40
ATOM     40  C   UNL A   1      37.819  33.449  31.346  1.00  0.00     0.338 C 
ATOM     41  O   UNL A   1      36.863  34.098  31.729  1.00  0.00    -0.246 OA
BRANCH  40  42
ATOM     42  C   UNL A   1      39.024  34.013  30.710  1.00  0.00     0.060 A 
ATOM     43  C   UNL A   1      38.971  34.420  29.370  1.00  0.00     0.016 A 
ATOM     44  C   UNL A   1      40.207  34.133  31.441  1.00  0.00     0.016 A 
ATOM     45  C   UNL A   1      40.119  34.916  28.744  1.00  0.00     0.010 A 
ATOM     46  C   UNL A   1      41.354  34.615  30.810  1.00  0.00     0.010 A 
ATOM     47  C   UNL A   1      41.326  34.978  29.448  1.00  0.00    -0.014 A 
BRANCH  47  48
ATOM     48  C   UNL A   1      42.616  35.204  28.748  1.00  0.00     0.031 A 
ATOM     49  C   UNL A   1      43.524  34.024  28.548  1.00  0.00     0.074 A 
ATOM     50  C   UNL A   1      42.995  36.412  28.296  1.00  0.00     0.049 A 
ATOM     51  N   UNL A   1      44.769  33.992  28.150  1.00  0.00    -0.248 NA
ATOM     52  C   UNL A   1      42.938  32.703  28.818  1.00  0.00     0.031 C 
ATOM     53  C   UNL A   1      42.162  37.608  28.266  1.00  0.00     0.029 A 
ATOM     54  N   UNL A   1      44.210  36.835  27.805  1.00  0.00    -0.354 N 
ATOM     55  C   UNL A   1      45.107  32.646  28.092  1.00  0.00     0.074 A 
ATOM     56  C   UNL A   1      43.959  31.900  28.564  1.00  0.00     0.031 C 
ATOM     57  C   UNL A   1      42.912  38.644  27.846  1.00  0.00     0.029 A 
ATOM     58  C   UNL A   1      44.288  38.201  27.671  1.00  0.00     0.049 A 
ATOM     59  H   UNL A   1      44.945  36.223  27.575  1.00  0.00     0.167 HD
ATOM     60  C   UNL A   1      46.261  32.085  27.657  1.00  0.00     0.034 A 
ATOM     61  C   UNL A   1      45.356  39.009  27.505  1.00  0.00     0.034 A 
ATOM     62  C   UNL A   1      47.403  32.844  27.213  1.00  0.00     0.049 A 
ATOM     63  C   UNL A   1      46.708  38.391  27.272  1.00  0.00     0.074 A 
ATOM     64  C   UNL A   1      48.619  32.377  26.746  1.00  0.00     0.029 A 
ATOM     65  N   UNL A   1      47.479  34.230  27.197  1.00  0.00    -0.354 N 
ATOM     66  N   UNL A   1      47.035  37.120  27.242  1.00  0.00    -0.248 NA
ATOM     67  C   UNL A   1      47.824  39.308  27.007  1.00  0.00     0.031 C 
ATOM     68  C   UNL A   1      49.457  33.476  26.528  1.00  0.00     0.029 A 
ATOM     69  C   UNL A   1      48.735  34.635  26.770  1.00  0.00     0.049 A 
ATOM     70  H   UNL A   1      46.748  34.838  27.452  1.00  0.00     0.167 HD
ATOM     71  C   UNL A   1      48.375  37.086  26.867  1.00  0.00     0.074 A 
ATOM     72  C   UNL A   1      48.804  38.462  26.723  1.00  0.00     0.031 C 
ATOM     73  C   UNL A   1      49.160  36.006  26.619  1.00  0.00     0.034 A 
BRANCH  60  74
ATOM     74  C   UNL A   1      46.348  30.581  27.693  1.00  0.00     0.023 A 
ATOM     75  C   UNL A   1      46.009  29.796  26.576  1.00  0.00     0.031 A 
ATOM     76  C   UNL A   1      46.737  29.921  28.870  1.00  0.00     0.131 A 
ATOM     77  C   UNL A   1      45.994  28.397  26.684  1.00  0.00     0.055 A 
ATOM     78  C   UNL A   1      46.801  28.529  28.946  1.00  0.00     0.041 A 
ATOM     79  F   UNL A   1      47.043  30.619  29.976  1.00  0.00    -0.206 F 
ATOM     80  C   UNL A   1      46.415  27.758  27.853  1.00  0.00     0.022 A 
BRANCH  77  81
ATOM     81  S   UNL A   1      45.273  27.432  25.330  1.00  0.00     0.124 S 
ATOM     82  O   UNL A   1      45.275  26.084  25.894  1.00  0.00    -0.237 OA
ATOM     83  O   UNL A   1      43.964  28.052  25.161  1.00  0.00    -0.237 OA
ATOM     84  O   UNL A   1      46.209  27.637  24.226  1.00  0.00    -0.744 OA
ENDBRANCH  77  81
ENDBRANCH  60  74
BRANCH  61  85
ATOM     85  C   UNL A   1      45.214  40.487  27.626  1.00  0.00     0.023 A 
ATOM     86  C   UNL A   1      45.200  41.123  28.875  1.00  0.00     0.031 A 
ATOM     87  C   UNL A   1      45.007  41.278  26.479  1.00  0.00     0.131 A 
ATOM     88  C   UNL A   1      44.944  42.503  28.952  1.00  0.00     0.055 A 
ATOM     89  C   UNL A   1      44.805  42.657  26.557  1.00  0.00     0.041 A 
ATOM     90  F   UNL A   1      44.984  40.712  25.261  1.00  0.00    -0.206 F 
ATOM     91  C   UNL A   1      44.760  43.276  27.803  1.00  0.00     0.022 A 
BRANCH  88  92
ATOM     92  S   UNL A   1      44.759  43.255  30.592  1.00  0.00     0.124 S 
ATOM     93  O   UNL A   1      43.671  42.467  31.159  1.00  0.00    -0.237 OA
ATOM     94  O   UNL A   1      46.080  43.036  31.174  1.00  0.00    -0.237 OA
ATOM     95  O   UNL A   1      44.434  44.648  30.294  1.00  0.00    -0.744 OA
ENDBRANCH  88  92
ENDBRANCH  61  85
BRANCH  73  96
ATOM     96  C   UNL A   1      50.536  36.264  26.060  1.00  0.00     0.023 A 
ATOM     97  C   UNL A   1      51.686  36.283  26.866  1.00  0.00     0.031 A 
ATOM     98  C   UNL A   1      50.691  36.491  24.679  1.00  0.00     0.131 A 
ATOM     99  C   UNL A   1      52.935  36.567  26.290  1.00  0.00     0.055 A 
ATOM    100  C   UNL A   1      51.942  36.711  24.104  1.00  0.00     0.041 A 
ATOM    101  F   UNL A   1      49.623  36.492  23.863  1.00  0.00    -0.206 F 
ATOM    102  C   UNL A   1      53.072  36.761  24.913  1.00  0.00     0.022 A 
BRANCH  99 103
ATOM    103  S   UNL A   1      54.373  36.758  27.378  1.00  0.00     0.124 S 
ATOM    104  O   UNL A   1      55.231  37.641  26.593  1.00  0.00    -0.237 OA
ATOM    105  O   UNL A   1      53.782  37.345  28.576  1.00  0.00    -0.237 OA
ATOM    106  O   UNL A   1      54.868  35.392  27.538  1.00  0.00    -0.744 OA
ENDBRANCH  99 103
ENDBRANCH  73  96
ENDBRANCH  47  48
ENDBRANCH  40  42
ENDBRANCH  39  40
ENDBRANCH  38  39
ENDBRANCH  37  38
ENDBRANCH  36  37
ENDBRANCH  35  36
ENDBRANCH  34  35
ENDBRANCH   1  34
TORSDOF 28
ENDMDL
