MODEL 1
REMARK VINA RESULT:      -9.1      0.000      0.000
REMARK SMILES CC1(C)[C@H](C(=O)Nc2ccccc2C(N)=O)[C@@H]1C(=O)OCCOCCOCCOCCOC(=O)c1ccc(-c2c3nc(c(-c4cc(S(=O)(=O)[O-])ccc4F)c4ccc([nH]4)c(-c4cc(S(=O)(=O)[O-])ccc4F)c4nc(c(-c5cc(S(=O)(=O)[O-])ccc5F)c5ccc2[nH]5)C=C4)C=C3)cc1
REMARK SMILES IDX 26 1 25 2 24 3 23 4 22 5 21 6 20 7 18 8 19 9 17 10 1 11 2 12
REMARK SMILES IDX 3 13 4 14 5 15 6 16 7 17 8 19 9 20 13 21 10 22 12 23 11 24
REMARK SMILES IDX 14 25 15 26 16 27 27 30 28 31 29 32 30 33 31 34 32 35 33 36
REMARK SMILES IDX 34 37 35 38 36 39 97 40 37 41 96 42 38 43 39 44 40 45 90 46
REMARK SMILES IDX 41 47 95 48 89 49 91 50 42 51 94 52 88 53 87 54 43 56 75 57
REMARK SMILES IDX 55 58 74 59 56 60 59 61 73 62 92 63 57 64 58 65 72 67 93 68
REMARK SMILES IDX 60 69 44 70 45 71 53 72 46 73 52 74 54 75 51 76 47 77 48 78
REMARK SMILES IDX 49 79 50 80 76 81 77 82 85 83 78 84 84 85 86 86 83 87 79 88
REMARK SMILES IDX 80 89 81 90 82 91 61 92 62 93 70 94 63 95 69 96 71 97 68 98
REMARK SMILES IDX 64 99 65 100 66 101 67 102
REMARK H PARENT 7 18 15 28 15 29 91 55 59 66
REMARK Flexibility Score: inf
ROOT
ATOM      1  O   UNL A   1      39.322  21.078  25.814  1.00  0.00    -0.377 OA
ENDROOT
BRANCH   1   2
ATOM      2  C   UNL A   1      38.142  21.840  25.663  1.00  0.00     0.188 C 
BRANCH   2   3
ATOM      3  C   UNL A   1      37.258  21.352  24.505  1.00  0.00     0.188 C 
BRANCH   3   4
ATOM      4  O   UNL A   1      35.882  21.242  24.847  1.00  0.00    -0.376 OA
BRANCH   4   5
ATOM      5  C   UNL A   1      34.923  22.056  24.185  1.00  0.00     0.202 C 
BRANCH   5   6
ATOM      6  C   UNL A   1      35.360  23.110  23.145  1.00  0.00     0.261 C 
BRANCH   6   7
ATOM      7  O   UNL A   1      34.393  24.092  22.737  1.00  0.00    -0.463 OA
BRANCH   7   8
ATOM      8  C   UNL A   1      34.160  25.109  23.589  1.00  0.00     0.310 C 
ATOM      9  O   UNL A   1      34.221  25.020  24.807  1.00  0.00    -0.252 OA
BRANCH   8  10
ATOM     10  C   UNL A   1      33.970  26.406  22.864  1.00  0.00     0.118 C 
ATOM     11  C   UNL A   1      33.881  28.971  23.164  1.00  0.00     0.013 C 
ATOM     12  C   UNL A   1      33.355  27.586  23.550  1.00  0.00    -0.009 C 
ATOM     13  C   UNL A   1      33.157  27.534  25.038  1.00  0.00     0.013 C 
ATOM     14  C   UNL A   1      32.580  26.904  22.418  1.00  0.00     0.100 C 
BRANCH  14  15
ATOM     15  C   UNL A   1      31.806  25.764  21.840  1.00  0.00     0.228 C 
ATOM     16  O   UNL A   1      31.886  25.637  20.613  1.00  0.00    -0.274 OA
ATOM     17  N   UNL A   1      31.170  24.751  22.496  1.00  0.00    -0.325 N 
ATOM     18  H   UNL A   1      30.929  23.994  21.915  1.00  0.00     0.169 HD
BRANCH  17  19
ATOM     19  C   UNL A   1      30.794  24.577  23.825  1.00  0.00     0.053 A 
ATOM     20  C   UNL A   1      31.313  23.417  24.425  1.00  0.00     0.027 A 
ATOM     21  C   UNL A   1      30.022  25.468  24.576  1.00  0.00     0.063 A 
ATOM     22  C   UNL A   1      31.252  23.249  25.804  1.00  0.00     0.002 A 
ATOM     23  C   UNL A   1      29.955  25.280  25.968  1.00  0.00     0.016 A 
ATOM     24  C   UNL A   1      30.607  24.204  26.581  1.00  0.00     0.001 A 
BRANCH  21  25
ATOM     25  C   UNL A   1      29.208  26.532  23.911  1.00  0.00     0.250 C 
ATOM     26  N   UNL A   1      27.852  26.359  23.840  1.00  0.00    -0.366 N 
ATOM     27  O   UNL A   1      29.697  27.546  23.431  1.00  0.00    -0.269 OA
ATOM     28  H   UNL A   1      27.438  25.550  24.220  1.00  0.00     0.159 HD
ATOM     29  H   UNL A   1      27.291  27.043  23.408  1.00  0.00     0.159 HD
ENDBRANCH  21  25
ENDBRANCH  17  19
ENDBRANCH  14  15
ENDBRANCH   8  10
ENDBRANCH   7   8
ENDBRANCH   6   7
ENDBRANCH   5   6
ENDBRANCH   4   5
ENDBRANCH   3   4
ENDBRANCH   2   3
ENDBRANCH   1   2
BRANCH   1  30
ATOM     30  C   UNL A   1      40.419  21.681  26.495  1.00  0.00     0.188 C 
BRANCH  30  31
ATOM     31  C   UNL A   1      41.848  21.094  26.399  1.00  0.00     0.188 C 
BRANCH  31  32
ATOM     32  O   UNL A   1      42.692  21.730  25.443  1.00  0.00    -0.376 OA
BRANCH  32  33
ATOM     33  C   UNL A   1      42.582  23.138  25.302  1.00  0.00     0.202 C 
BRANCH  33  34
ATOM     34  C   UNL A   1      43.493  23.979  26.209  1.00  0.00     0.261 C 
BRANCH  34  35
ATOM     35  O   UNL A   1      43.720  25.334  25.790  1.00  0.00    -0.460 OA
BRANCH  35  36
ATOM     36  C   UNL A   1      42.640  26.124  25.598  1.00  0.00     0.338 C 
ATOM     37  O   UNL A   1      41.654  25.860  24.934  1.00  0.00    -0.246 OA
BRANCH  36  38
ATOM     38  C   UNL A   1      42.755  27.272  26.526  1.00  0.00     0.060 A 
ATOM     39  C   UNL A   1      42.064  28.456  26.229  1.00  0.00     0.016 A 
ATOM     40  C   UNL A   1      43.498  27.164  27.705  1.00  0.00     0.016 A 
ATOM     41  C   UNL A   1      42.138  29.545  27.099  1.00  0.00     0.010 A 
ATOM     42  C   UNL A   1      43.597  28.265  28.558  1.00  0.00     0.010 A 
ATOM     43  C   UNL A   1      42.943  29.470  28.243  1.00  0.00    -0.014 A 
BRANCH  43  44
ATOM     44  C   UNL A   1      43.303  30.709  28.974  1.00  0.00     0.031 A 
ATOM     45  C   UNL A   1      42.454  31.094  30.154  1.00  0.00     0.074 A 
ATOM     46  C   UNL A   1      44.348  31.473  28.610  1.00  0.00     0.049 A 
ATOM     47  N   UNL A   1      42.495  32.166  30.899  1.00  0.00    -0.248 NA
ATOM     48  C   UNL A   1      41.408  30.131  30.538  1.00  0.00     0.031 C 
ATOM     49  C   UNL A   1      45.278  31.174  27.523  1.00  0.00     0.029 A 
ATOM     50  N   UNL A   1      44.791  32.671  29.113  1.00  0.00    -0.354 N 
ATOM     51  C   UNL A   1      41.483  32.011  31.838  1.00  0.00     0.074 A 
ATOM     52  C   UNL A   1      40.822  30.756  31.546  1.00  0.00     0.031 C 
ATOM     53  C   UNL A   1      46.173  32.174  27.430  1.00  0.00     0.029 A 
ATOM     54  C   UNL A   1      45.852  33.204  28.419  1.00  0.00     0.049 A 
ATOM     55  H   UNL A   1      44.388  33.108  29.899  1.00  0.00     0.167 HD
ATOM     56  C   UNL A   1      41.136  32.836  32.856  1.00  0.00     0.034 A 
ATOM     57  C   UNL A   1      46.463  34.401  28.546  1.00  0.00     0.034 A 
ATOM     58  C   UNL A   1      41.783  34.097  33.116  1.00  0.00     0.049 A 
ATOM     59  C   UNL A   1      45.978  35.365  29.605  1.00  0.00     0.074 A 
ATOM     60  C   UNL A   1      41.519  35.010  34.121  1.00  0.00     0.029 A 
ATOM     61  N   UNL A   1      42.809  34.636  32.348  1.00  0.00    -0.354 N 
ATOM     62  N   UNL A   1      45.024  35.206  30.496  1.00  0.00    -0.248 NA
ATOM     63  C   UNL A   1      46.649  36.670  29.673  1.00  0.00     0.031 C 
ATOM     64  C   UNL A   1      42.329  36.133  33.914  1.00  0.00     0.029 A 
ATOM     65  C   UNL A   1      43.157  35.887  32.831  1.00  0.00     0.049 A 
ATOM     66  H   UNL A   1      43.228  34.193  31.575  1.00  0.00     0.167 HD
ATOM     67  C   UNL A   1      45.000  36.383  31.242  1.00  0.00     0.074 A 
ATOM     68  C   UNL A   1      46.045  37.232  30.710  1.00  0.00     0.031 C 
ATOM     69  C   UNL A   1      44.190  36.732  32.277  1.00  0.00     0.034 A 
BRANCH  56  70
ATOM     70  C   UNL A   1      39.964  32.420  33.709  1.00  0.00     0.023 A 
ATOM     71  C   UNL A   1      38.676  32.950  33.508  1.00  0.00     0.031 A 
ATOM     72  C   UNL A   1      40.145  31.518  34.772  1.00  0.00     0.131 A 
ATOM     73  C   UNL A   1      37.642  32.634  34.401  1.00  0.00     0.055 A 
ATOM     74  C   UNL A   1      39.092  31.142  35.606  1.00  0.00     0.041 A 
ATOM     75  F   UNL A   1      41.356  31.001  35.030  1.00  0.00    -0.206 F 
ATOM     76  C   UNL A   1      37.834  31.714  35.433  1.00  0.00     0.022 A 
BRANCH  73  77
ATOM     77  S   UNL A   1      36.086  33.559  34.287  1.00  0.00     0.124 S 
ATOM     78  O   UNL A   1      36.546  34.853  33.786  1.00  0.00    -0.237 OA
ATOM     79  O   UNL A   1      35.307  32.754  33.355  1.00  0.00    -0.237 OA
ATOM     80  O   UNL A   1      35.594  33.574  35.663  1.00  0.00    -0.744 OA
ENDBRANCH  73  77
ENDBRANCH  56  70
BRANCH  57  81
ATOM     81  C   UNL A   1      47.559  34.797  27.613  1.00  0.00     0.023 A 
ATOM     82  C   UNL A   1      48.908  34.686  27.986  1.00  0.00     0.031 A 
ATOM     83  C   UNL A   1      47.269  35.360  26.356  1.00  0.00     0.131 A 
ATOM     84  C   UNL A   1      49.914  35.170  27.132  1.00  0.00     0.055 A 
ATOM     85  C   UNL A   1      48.273  35.790  25.488  1.00  0.00     0.041 A 
ATOM     86  F   UNL A   1      45.996  35.500  25.954  1.00  0.00    -0.206 F 
ATOM     87  C   UNL A   1      49.606  35.706  25.880  1.00  0.00     0.022 A 
BRANCH  84  88
ATOM     88  S   UNL A   1      51.630  35.161  27.718  1.00  0.00     0.124 S 
ATOM     89  O   UNL A   1      52.337  35.726  26.574  1.00  0.00    -0.237 OA
ATOM     90  O   UNL A   1      51.550  36.008  28.904  1.00  0.00    -0.237 OA
ATOM     91  O   UNL A   1      51.894  33.748  27.982  1.00  0.00    -0.744 OA
ENDBRANCH  84  88
ENDBRANCH  57  81
BRANCH  69  92
ATOM     92  C   UNL A   1      44.431  38.078  32.919  1.00  0.00     0.023 A 
ATOM     93  C   UNL A   1      43.642  39.198  32.605  1.00  0.00     0.031 A 
ATOM     94  C   UNL A   1      45.462  38.239  33.862  1.00  0.00     0.131 A 
ATOM     95  C   UNL A   1      43.930  40.442  33.191  1.00  0.00     0.055 A 
ATOM     96  C   UNL A   1      45.703  39.463  34.487  1.00  0.00     0.041 A 
ATOM     97  F   UNL A   1      46.249  37.204  34.198  1.00  0.00    -0.206 F 
ATOM     98  C   UNL A   1      44.943  40.577  34.143  1.00  0.00     0.022 A 
BRANCH  95  99
ATOM     99  S   UNL A   1      43.017  41.904  32.627  1.00  0.00     0.124 S 
ATOM    100  O   UNL A   1      42.457  42.412  33.875  1.00  0.00    -0.237 OA
ATOM    101  O   UNL A   1      44.069  42.716  32.023  1.00  0.00    -0.237 OA
ATOM    102  O   UNL A   1      42.040  41.358  31.687  1.00  0.00    -0.744 OA
ENDBRANCH  95  99
ENDBRANCH  69  92
ENDBRANCH  43  44
ENDBRANCH  36  38
ENDBRANCH  35  36
ENDBRANCH  34  35
ENDBRANCH  33  34
ENDBRANCH  32  33
ENDBRANCH  31  32
ENDBRANCH  30  31
ENDBRANCH   1  30
TORSDOF 26
ENDMDL
MODEL 2
REMARK VINA RESULT:      -9.1      4.053     10.082
REMARK SMILES CC1(C)[C@H](C(=O)Nc2ccccc2C(N)=O)[C@@H]1C(=O)OCCOCCOCCOCCOC(=O)c1ccc(-c2c3nc(c(-c4cc(S(=O)(=O)[O-])ccc4F)c4ccc([nH]4)c(-c4cc(S(=O)(=O)[O-])ccc4F)c4nc(c(-c5cc(S(=O)(=O)[O-])ccc5F)c5ccc2[nH]5)C=C4)C=C3)cc1
REMARK SMILES IDX 26 1 25 2 24 3 23 4 22 5 21 6 20 7 18 8 19 9 17 10 1 11 2 12
REMARK SMILES IDX 3 13 4 14 5 15 6 16 7 17 8 19 9 20 13 21 10 22 12 23 11 24
REMARK SMILES IDX 14 25 15 26 16 27 27 30 28 31 29 32 30 33 31 34 32 35 33 36
REMARK SMILES IDX 34 37 35 38 36 39 97 40 37 41 96 42 38 43 39 44 40 45 90 46
REMARK SMILES IDX 41 47 95 48 89 49 91 50 42 51 94 52 88 53 87 54 43 56 75 57
REMARK SMILES IDX 55 58 74 59 56 60 59 61 73 62 92 63 57 64 58 65 72 67 93 68
REMARK SMILES IDX 60 69 44 70 45 71 53 72 46 73 52 74 54 75 51 76 47 77 48 78
REMARK SMILES IDX 49 79 50 80 76 81 77 82 85 83 78 84 84 85 86 86 83 87 79 88
REMARK SMILES IDX 80 89 81 90 82 91 61 92 62 93 70 94 63 95 69 96 71 97 68 98
REMARK SMILES IDX 64 99 65 100 66 101 67 102
REMARK H PARENT 7 18 15 28 15 29 91 55 59 66
REMARK Flexibility Score: inf
ROOT
ATOM      1  O   UNL A   1      34.097  32.711  29.697  1.00  0.00    -0.377 OA
ENDROOT
BRANCH   1   2
ATOM      2  C   UNL A   1      34.981  32.050  28.814  1.00  0.00     0.188 C 
BRANCH   2   3
ATOM      3  C   UNL A   1      34.266  31.437  27.600  1.00  0.00     0.188 C 
BRANCH   3   4
ATOM      4  O   UNL A   1      33.556  30.242  27.901  1.00  0.00    -0.376 OA
BRANCH   4   5
ATOM      5  C   UNL A   1      32.977  29.481  26.850  1.00  0.00     0.202 C 
BRANCH   5   6
ATOM      6  C   UNL A   1      33.543  28.095  26.470  1.00  0.00     0.261 C 
BRANCH   6   7
ATOM      7  O   UNL A   1      33.030  27.462  25.286  1.00  0.00    -0.463 OA
BRANCH   7   8
ATOM      8  C   UNL A   1      33.230  28.100  24.118  1.00  0.00     0.310 C 
ATOM      9  O   UNL A   1      34.283  28.629  23.789  1.00  0.00    -0.252 OA
BRANCH   8  10
ATOM     10  C   UNL A   1      32.057  27.953  23.197  1.00  0.00     0.118 C 
ATOM     11  C   UNL A   1      29.487  27.711  23.114  1.00  0.00     0.013 C 
ATOM     12  C   UNL A   1      30.837  27.199  23.624  1.00  0.00    -0.009 C 
ATOM     13  C   UNL A   1      30.699  26.804  25.067  1.00  0.00     0.013 C 
ATOM     14  C   UNL A   1      31.713  26.615  22.511  1.00  0.00     0.100 C 
BRANCH  14  15
ATOM     15  C   UNL A   1      32.967  25.977  22.007  1.00  0.00     0.228 C 
ATOM     16  O   UNL A   1      33.582  26.621  21.150  1.00  0.00    -0.274 OA
ATOM     17  N   UNL A   1      33.609  24.873  22.487  1.00  0.00    -0.325 N 
ATOM     18  H   UNL A   1      34.530  24.776  22.152  1.00  0.00     0.169 HD
BRANCH  17  19
ATOM     19  C   UNL A   1      33.221  23.859  23.357  1.00  0.00     0.053 A 
ATOM     20  C   UNL A   1      31.873  23.918  23.748  1.00  0.00     0.027 A 
ATOM     21  C   UNL A   1      34.032  22.807  23.795  1.00  0.00     0.063 A 
ATOM     22  C   UNL A   1      31.276  22.835  24.388  1.00  0.00     0.002 A 
ATOM     23  C   UNL A   1      33.420  21.725  24.453  1.00  0.00     0.016 A 
ATOM     24  C   UNL A   1      32.043  21.720  24.702  1.00  0.00     0.001 A 
BRANCH  21  25
ATOM     25  C   UNL A   1      35.520  22.874  23.659  1.00  0.00     0.250 C 
ATOM     26  N   UNL A   1      36.272  22.919  24.801  1.00  0.00    -0.366 N 
ATOM     27  O   UNL A   1      36.092  22.889  22.577  1.00  0.00    -0.269 OA
ATOM     28  H   UNL A   1      35.832  22.907  25.682  1.00  0.00     0.159 HD
ATOM     29  H   UNL A   1      37.254  22.962  24.742  1.00  0.00     0.159 HD
ENDBRANCH  21  25
ENDBRANCH  17  19
ENDBRANCH  14  15
ENDBRANCH   8  10
ENDBRANCH   7   8
ENDBRANCH   6   7
ENDBRANCH   5   6
ENDBRANCH   4   5
ENDBRANCH   3   4
ENDBRANCH   2   3
ENDBRANCH   1   2
BRANCH   1  30
ATOM     30  C   UNL A   1      34.320  34.096  29.944  1.00  0.00     0.188 C 
BRANCH  30  31
ATOM     31  C   UNL A   1      33.844  34.767  31.256  1.00  0.00     0.188 C 
BRANCH  31  32
ATOM     32  O   UNL A   1      34.885  35.325  32.053  1.00  0.00    -0.376 OA
BRANCH  32  33
ATOM     33  C   UNL A   1      35.343  34.568  33.163  1.00  0.00     0.202 C 
BRANCH  33  34
ATOM     34  C   UNL A   1      34.835  33.121  33.247  1.00  0.00     0.261 C 
BRANCH  34  35
ATOM     35  O   UNL A   1      35.727  32.111  32.748  1.00  0.00    -0.460 OA
BRANCH  35  36
ATOM     36  C   UNL A   1      36.875  31.893  33.428  1.00  0.00     0.338 C 
ATOM     37  O   UNL A   1      37.034  31.971  34.633  1.00  0.00    -0.246 OA
BRANCH  36  38
ATOM     38  C   UNL A   1      37.852  31.312  32.479  1.00  0.00     0.060 A 
ATOM     39  C   UNL A   1      38.840  30.445  32.969  1.00  0.00     0.016 A 
ATOM     40  C   UNL A   1      37.764  31.581  31.111  1.00  0.00     0.016 A 
ATOM     41  C   UNL A   1      39.759  29.866  32.092  1.00  0.00     0.010 A 
ATOM     42  C   UNL A   1      38.704  31.027  30.240  1.00  0.00     0.010 A 
ATOM     43  C   UNL A   1      39.724  30.192  30.730  1.00  0.00    -0.014 A 
BRANCH  43  44
ATOM     44  C   UNL A   1      40.884  29.869  29.865  1.00  0.00     0.031 A 
ATOM     45  C   UNL A   1      40.887  28.535  29.172  1.00  0.00     0.074 A 
ATOM     46  C   UNL A   1      41.906  30.727  29.693  1.00  0.00     0.049 A 
ATOM     47  N   UNL A   1      41.814  27.974  28.443  1.00  0.00    -0.248 NA
ATOM     48  C   UNL A   1      39.670  27.720  29.334  1.00  0.00     0.031 C 
ATOM     49  C   UNL A   1      41.989  32.070  30.264  1.00  0.00     0.029 A 
ATOM     50  N   UNL A   1      43.079  30.583  28.995  1.00  0.00    -0.354 N 
ATOM     51  C   UNL A   1      41.297  26.741  28.060  1.00  0.00     0.074 A 
ATOM     52  C   UNL A   1      39.989  26.623  28.668  1.00  0.00     0.031 C 
ATOM     53  C   UNL A   1      43.163  32.621  29.906  1.00  0.00     0.029 A 
ATOM     54  C   UNL A   1      43.932  31.654  29.122  1.00  0.00     0.049 A 
ATOM     55  H   UNL A   1      43.290  29.787  28.455  1.00  0.00     0.167 HD
ATOM     56  C   UNL A   1      41.859  25.795  27.270  1.00  0.00     0.034 A 
ATOM     57  C   UNL A   1      45.199  31.815  28.686  1.00  0.00     0.034 A 
ATOM     58  C   UNL A   1      43.176  25.913  26.697  1.00  0.00     0.049 A 
ATOM     59  C   UNL A   1      45.858  30.693  27.915  1.00  0.00     0.074 A 
ATOM     60  C   UNL A   1      43.843  25.020  25.877  1.00  0.00     0.029 A 
ATOM     61  N   UNL A   1      44.038  26.983  26.903  1.00  0.00    -0.354 N 
ATOM     62  N   UNL A   1      45.359  29.532  27.550  1.00  0.00    -0.248 NA
ATOM     63  C   UNL A   1      47.252  30.902  27.501  1.00  0.00     0.031 C 
ATOM     64  C   UNL A   1      45.134  25.512  25.655  1.00  0.00     0.029 A 
ATOM     65  C   UNL A   1      45.246  26.751  26.264  1.00  0.00     0.049 A 
ATOM     66  H   UNL A   1      43.823  27.789  27.427  1.00  0.00     0.167 HD
ATOM     67  C   UNL A   1      46.373  28.887  26.844  1.00  0.00     0.074 A 
ATOM     68  C   UNL A   1      47.502  29.793  26.819  1.00  0.00     0.031 C 
ATOM     69  C   UNL A   1      46.371  27.657  26.265  1.00  0.00     0.034 A 
BRANCH  56  70
ATOM     70  C   UNL A   1      41.070  24.529  27.046  1.00  0.00     0.023 A 
ATOM     71  C   UNL A   1      41.674  23.259  27.106  1.00  0.00     0.031 A 
ATOM     72  C   UNL A   1      39.704  24.593  26.720  1.00  0.00     0.131 A 
ATOM     73  C   UNL A   1      40.935  22.116  26.769  1.00  0.00     0.055 A 
ATOM     74  C   UNL A   1      38.953  23.444  26.468  1.00  0.00     0.041 A 
ATOM     75  F   UNL A   1      39.080  25.777  26.622  1.00  0.00    -0.206 F 
ATOM     76  C   UNL A   1      39.571  22.197  26.475  1.00  0.00     0.022 A 
BRANCH  73  77
ATOM     77  S   UNL A   1      41.814  20.543  26.569  1.00  0.00     0.124 S 
ATOM     78  O   UNL A   1      42.240  20.266  27.939  1.00  0.00    -0.237 OA
ATOM     79  O   UNL A   1      40.779  19.668  26.034  1.00  0.00    -0.237 OA
ATOM     80  O   UNL A   1      42.897  20.870  25.643  1.00  0.00    -0.744 OA
ENDBRANCH  73  77
ENDBRANCH  56  70
BRANCH  57  81
ATOM     81  C   UNL A   1      45.966  33.052  29.016  1.00  0.00     0.023 A 
ATOM     82  C   UNL A   1      46.658  33.178  30.231  1.00  0.00     0.031 A 
ATOM     83  C   UNL A   1      45.961  34.158  28.146  1.00  0.00     0.131 A 
ATOM     84  C   UNL A   1      47.278  34.395  30.563  1.00  0.00     0.055 A 
ATOM     85  C   UNL A   1      46.623  35.346  28.455  1.00  0.00     0.041 A 
ATOM     86  F   UNL A   1      45.306  34.097  26.975  1.00  0.00    -0.206 F 
ATOM     87  C   UNL A   1      47.278  35.474  29.676  1.00  0.00     0.022 A 
BRANCH  84  88
ATOM     88  S   UNL A   1      48.017  34.574  32.209  1.00  0.00     0.124 S 
ATOM     89  O   UNL A   1      48.369  33.194  32.528  1.00  0.00    -0.237 OA
ATOM     90  O   UNL A   1      49.133  35.476  31.944  1.00  0.00    -0.237 OA
ATOM     91  O   UNL A   1      46.935  35.144  33.009  1.00  0.00    -0.744 OA
ENDBRANCH  84  88
ENDBRANCH  57  81
BRANCH  69  92
ATOM     92  C   UNL A   1      47.622  27.239  25.527  1.00  0.00     0.023 A 
ATOM     93  C   UNL A   1      48.691  26.605  26.184  1.00  0.00     0.031 A 
ATOM     94  C   UNL A   1      47.743  27.477  24.146  1.00  0.00     0.131 A 
ATOM     95  C   UNL A   1      49.854  26.276  25.469  1.00  0.00     0.055 A 
ATOM     96  C   UNL A   1      48.876  27.091  23.429  1.00  0.00     0.041 A 
ATOM     97  F   UNL A   1      46.755  28.082  23.468  1.00  0.00    -0.206 F 
ATOM     98  C   UNL A   1      49.945  26.498  24.093  1.00  0.00     0.022 A 
BRANCH  95  99
ATOM     99  S   UNL A   1      51.284  25.631  26.379  1.00  0.00     0.124 S 
ATOM    100  O   UNL A   1      51.884  26.852  26.907  1.00  0.00    -0.237 OA
ATOM    101  O   UNL A   1      50.659  24.751  27.362  1.00  0.00    -0.237 OA
ATOM    102  O   UNL A   1      52.068  24.951  25.350  1.00  0.00    -0.744 OA
ENDBRANCH  95  99
ENDBRANCH  69  92
ENDBRANCH  43  44
ENDBRANCH  36  38
ENDBRANCH  35  36
ENDBRANCH  34  35
ENDBRANCH  33  34
ENDBRANCH  32  33
ENDBRANCH  31  32
ENDBRANCH  30  31
ENDBRANCH   1  30
TORSDOF 26
ENDMDL
MODEL 3
REMARK VINA RESULT:      -8.4      7.327     14.781
REMARK SMILES CC1(C)[C@H](C(=O)Nc2ccccc2C(N)=O)[C@@H]1C(=O)OCCOCCOCCOCCOC(=O)c1ccc(-c2c3nc(c(-c4cc(S(=O)(=O)[O-])ccc4F)c4ccc([nH]4)c(-c4cc(S(=O)(=O)[O-])ccc4F)c4nc(c(-c5cc(S(=O)(=O)[O-])ccc5F)c5ccc2[nH]5)C=C4)C=C3)cc1
REMARK SMILES IDX 26 1 25 2 24 3 23 4 22 5 21 6 20 7 18 8 19 9 17 10 1 11 2 12
REMARK SMILES IDX 3 13 4 14 5 15 6 16 7 17 8 19 9 20 13 21 10 22 12 23 11 24
REMARK SMILES IDX 14 25 15 26 16 27 27 30 28 31 29 32 30 33 31 34 32 35 33 36
REMARK SMILES IDX 34 37 35 38 36 39 97 40 37 41 96 42 38 43 39 44 40 45 90 46
REMARK SMILES IDX 41 47 95 48 89 49 91 50 42 51 94 52 88 53 87 54 43 56 75 57
REMARK SMILES IDX 55 58 74 59 56 60 59 61 73 62 92 63 57 64 58 65 72 67 93 68
REMARK SMILES IDX 60 69 44 70 45 71 53 72 46 73 52 74 54 75 51 76 47 77 48 78
REMARK SMILES IDX 49 79 50 80 76 81 77 82 85 83 78 84 84 85 86 86 83 87 79 88
REMARK SMILES IDX 80 89 81 90 82 91 61 92 62 93 70 94 63 95 69 96 71 97 68 98
REMARK SMILES IDX 64 99 65 100 66 101 67 102
REMARK H PARENT 7 18 15 28 15 29 91 55 59 66
REMARK Flexibility Score: inf
ROOT
ATOM      1  O   UNL A   1      47.479  42.608  22.635  1.00  0.00    -0.377 OA
ENDROOT
BRANCH   1   2
ATOM      2  C   UNL A   1      47.900  42.071  21.397  1.00  0.00     0.188 C 
BRANCH   2   3
ATOM      3  C   UNL A   1      48.562  43.117  20.486  1.00  0.00     0.188 C 
BRANCH   3   4
ATOM      4  O   UNL A   1      48.577  44.426  21.040  1.00  0.00    -0.376 OA
BRANCH   4   5
ATOM      5  C   UNL A   1      48.879  45.540  20.211  1.00  0.00     0.202 C 
BRANCH   5   6
ATOM      6  C   UNL A   1      48.416  45.581  18.737  1.00  0.00     0.261 C 
BRANCH   6   7
ATOM      7  O   UNL A   1      47.110  46.111  18.459  1.00  0.00    -0.463 OA
BRANCH   7   8
ATOM      8  C   UNL A   1      46.118  45.220  18.271  1.00  0.00     0.310 C 
ATOM      9  O   UNL A   1      46.204  44.025  18.519  1.00  0.00    -0.252 OA
BRANCH   8  10
ATOM     10  C   UNL A   1      44.840  45.889  17.867  1.00  0.00     0.118 C 
ATOM     11  C   UNL A   1      43.547  48.125  17.925  1.00  0.00     0.013 C 
ATOM     12  C   UNL A   1      44.269  47.007  18.682  1.00  0.00    -0.009 C 
ATOM     13  C   UNL A   1      45.112  47.615  19.767  1.00  0.00     0.013 C 
ATOM     14  C   UNL A   1      43.519  45.672  18.633  1.00  0.00     0.100 C 
BRANCH  14  15
ATOM     15  C   UNL A   1      43.369  44.222  18.965  1.00  0.00     0.228 C 
ATOM     16  O   UNL A   1      43.057  43.492  18.018  1.00  0.00    -0.274 OA
ATOM     17  N   UNL A   1      43.697  43.578  20.122  1.00  0.00    -0.325 N 
ATOM     18  H   UNL A   1      43.731  42.598  20.032  1.00  0.00     0.169 HD
BRANCH  17  19
ATOM     19  C   UNL A   1      43.994  44.032  21.403  1.00  0.00     0.053 A 
ATOM     20  C   UNL A   1      45.170  44.795  21.488  1.00  0.00     0.027 A 
ATOM     21  C   UNL A   1      43.204  43.836  22.540  1.00  0.00     0.063 A 
ATOM     22  C   UNL A   1      45.450  45.535  22.632  1.00  0.00     0.002 A 
ATOM     23  C   UNL A   1      43.504  44.579  23.696  1.00  0.00     0.016 A 
ATOM     24  C   UNL A   1      44.592  45.459  23.722  1.00  0.00     0.001 A 
BRANCH  21  25
ATOM     25  C   UNL A   1      42.132  42.793  22.562  1.00  0.00     0.250 C 
ATOM     26  N   UNL A   1      41.012  43.032  23.311  1.00  0.00    -0.366 N 
ATOM     27  O   UNL A   1      42.210  41.741  21.941  1.00  0.00    -0.269 OA
ATOM     28  H   UNL A   1      40.929  43.873  23.818  1.00  0.00     0.159 HD
ATOM     29  H   UNL A   1      40.290  42.364  23.344  1.00  0.00     0.159 HD
ENDBRANCH  21  25
ENDBRANCH  17  19
ENDBRANCH  14  15
ENDBRANCH   8  10
ENDBRANCH   7   8
ENDBRANCH   6   7
ENDBRANCH   5   6
ENDBRANCH   4   5
ENDBRANCH   3   4
ENDBRANCH   2   3
ENDBRANCH   1   2
BRANCH   1  30
ATOM     30  C   UNL A   1      46.458  41.913  23.346  1.00  0.00     0.188 C 
BRANCH  30  31
ATOM     31  C   UNL A   1      46.786  41.057  24.593  1.00  0.00     0.188 C 
BRANCH  31  32
ATOM     32  O   UNL A   1      46.724  41.758  25.832  1.00  0.00    -0.376 OA
BRANCH  32  33
ATOM     33  C   UNL A   1      45.701  42.730  25.989  1.00  0.00     0.202 C 
BRANCH  33  34
ATOM     34  C   UNL A   1      44.593  42.385  26.996  1.00  0.00     0.261 C 
BRANCH  34  35
ATOM     35  O   UNL A   1      44.407  40.989  27.274  1.00  0.00    -0.460 OA
BRANCH  35  36
ATOM     36  C   UNL A   1      43.332  40.375  26.728  1.00  0.00     0.338 C 
ATOM     37  O   UNL A   1      42.706  40.738  25.748  1.00  0.00    -0.246 OA
BRANCH  36  38
ATOM     38  C   UNL A   1      43.187  39.057  27.388  1.00  0.00     0.060 A 
ATOM     39  C   UNL A   1      43.319  38.979  28.781  1.00  0.00     0.016 A 
ATOM     40  C   UNL A   1      42.874  37.918  26.642  1.00  0.00     0.016 A 
ATOM     41  C   UNL A   1      43.164  37.752  29.430  1.00  0.00     0.010 A 
ATOM     42  C   UNL A   1      42.752  36.686  27.288  1.00  0.00     0.010 A 
ATOM     43  C   UNL A   1      42.927  36.593  28.681  1.00  0.00    -0.014 A 
BRANCH  43  44
ATOM     44  C   UNL A   1      43.107  35.260  29.307  1.00  0.00     0.031 A 
ATOM     45  C   UNL A   1      41.869  34.500  29.696  1.00  0.00     0.074 A 
ATOM     46  C   UNL A   1      44.325  34.735  29.525  1.00  0.00     0.049 A 
ATOM     47  N   UNL A   1      41.751  33.369  30.338  1.00  0.00    -0.248 NA
ATOM     48  C   UNL A   1      40.587  35.113  29.309  1.00  0.00     0.031 C 
ATOM     49  C   UNL A   1      45.594  35.348  29.140  1.00  0.00     0.029 A 
ATOM     50  N   UNL A   1      44.690  33.564  30.143  1.00  0.00    -0.354 N 
ATOM     51  C   UNL A   1      40.385  33.132  30.435  1.00  0.00     0.074 A 
ATOM     52  C   UNL A   1      39.715  34.257  29.816  1.00  0.00     0.031 C 
ATOM     53  C   UNL A   1      46.601  34.555  29.546  1.00  0.00     0.029 A 
ATOM     54  C   UNL A   1      46.050  33.402  30.260  1.00  0.00     0.049 A 
ATOM     55  H   UNL A   1      44.038  32.902  30.471  1.00  0.00     0.167 HD
ATOM     56  C   UNL A   1      39.744  32.073  30.985  1.00  0.00     0.034 A 
ATOM     57  C   UNL A   1      46.763  32.453  30.904  1.00  0.00     0.034 A 
ATOM     58  C   UNL A   1      40.424  30.975  31.625  1.00  0.00     0.049 A 
ATOM     59  C   UNL A   1      46.026  31.345  31.625  1.00  0.00     0.074 A 
ATOM     60  C   UNL A   1      39.878  29.847  32.211  1.00  0.00     0.029 A 
ATOM     61  N   UNL A   1      41.801  30.879  31.786  1.00  0.00    -0.354 N 
ATOM     62  N   UNL A   1      44.733  31.124  31.705  1.00  0.00    -0.248 NA
ATOM     63  C   UNL A   1      46.847  30.362  32.345  1.00  0.00     0.031 C 
ATOM     64  C   UNL A   1      40.916  29.111  32.794  1.00  0.00     0.029 A 
ATOM     65  C   UNL A   1      42.118  29.735  32.500  1.00  0.00     0.049 A 
ATOM     66  H   UNL A   1      42.456  31.529  31.442  1.00  0.00     0.167 HD
ATOM     67  C   UNL A   1      44.591  29.964  32.464  1.00  0.00     0.074 A 
ATOM     68  C   UNL A   1      45.928  29.523  32.801  1.00  0.00     0.031 C 
ATOM     69  C   UNL A   1      43.458  29.318  32.846  1.00  0.00     0.034 A 
BRANCH  56  70
ATOM     70  C   UNL A   1      38.236  32.098  30.972  1.00  0.00     0.023 A 
ATOM     71  C   UNL A   1      37.502  31.910  29.787  1.00  0.00     0.031 A 
ATOM     72  C   UNL A   1      37.521  32.362  32.154  1.00  0.00     0.131 A 
ATOM     73  C   UNL A   1      36.108  32.065  29.795  1.00  0.00     0.055 A 
ATOM     74  C   UNL A   1      36.128  32.432  32.171  1.00  0.00     0.041 A 
ATOM     75  F   UNL A   1      38.168  32.577  33.310  1.00  0.00    -0.206 F 
ATOM     76  C   UNL A   1      35.414  32.300  30.984  1.00  0.00     0.022 A 
BRANCH  73  77
ATOM     77  S   UNL A   1      35.233  32.110  28.207  1.00  0.00     0.124 S 
ATOM     78  O   UNL A   1      35.923  33.198  27.519  1.00  0.00    -0.237 OA
ATOM     79  O   UNL A   1      35.467  30.771  27.680  1.00  0.00    -0.237 OA
ATOM     80  O   UNL A   1      33.851  32.400  28.585  1.00  0.00    -0.744 OA
ENDBRANCH  73  77
ENDBRANCH  56  70
BRANCH  57  81
ATOM     81  C   UNL A   1      48.252  32.528  30.962  1.00  0.00     0.023 A 
ATOM     82  C   UNL A   1      49.052  31.871  30.013  1.00  0.00     0.031 A 
ATOM     83  C   UNL A   1      48.900  33.205  32.012  1.00  0.00     0.131 A 
ATOM     84  C   UNL A   1      50.449  31.867  30.156  1.00  0.00     0.055 A 
ATOM     85  C   UNL A   1      50.291  33.244  32.120  1.00  0.00     0.041 A 
ATOM     86  F   UNL A   1      48.184  33.841  32.953  1.00  0.00    -0.206 F 
ATOM     87  C   UNL A   1      51.074  32.561  31.194  1.00  0.00     0.022 A 
BRANCH  84  88
ATOM     88  S   UNL A   1      51.438  30.870  29.008  1.00  0.00     0.124 S 
ATOM     89  O   UNL A   1      50.628  30.922  27.796  1.00  0.00    -0.237 OA
ATOM     90  O   UNL A   1      52.696  31.608  28.971  1.00  0.00    -0.237 OA
ATOM     91  O   UNL A   1      51.505  29.564  29.661  1.00  0.00    -0.744 OA
ENDBRANCH  84  88
ENDBRANCH  57  81
BRANCH  69  92
ATOM     92  C   UNL A   1      43.624  28.046  33.644  1.00  0.00     0.023 A 
ATOM     93  C   UNL A   1      43.684  28.057  35.049  1.00  0.00     0.031 A 
ATOM     94  C   UNL A   1      43.719  26.805  32.989  1.00  0.00     0.131 A 
ATOM     95  C   UNL A   1      43.887  26.857  35.749  1.00  0.00     0.055 A 
ATOM     96  C   UNL A   1      43.857  25.609  33.694  1.00  0.00     0.041 A 
ATOM     97  F   UNL A   1      43.670  26.735  31.649  1.00  0.00    -0.206 F 
ATOM     98  C   UNL A   1      43.955  25.632  35.082  1.00  0.00     0.022 A 
BRANCH  95  99
ATOM     99  S   UNL A   1      44.147  26.927  37.543  1.00  0.00     0.124 S 
ATOM    100  O   UNL A   1      44.177  28.366  37.790  1.00  0.00    -0.237 OA
ATOM    101  O   UNL A   1      42.981  26.216  38.057  1.00  0.00    -0.237 OA
ATOM    102  O   UNL A   1      45.424  26.241  37.732  1.00  0.00    -0.744 OA
ENDBRANCH  95  99
ENDBRANCH  69  92
ENDBRANCH  43  44
ENDBRANCH  36  38
ENDBRANCH  35  36
ENDBRANCH  34  35
ENDBRANCH  33  34
ENDBRANCH  32  33
ENDBRANCH  31  32
ENDBRANCH  30  31
ENDBRANCH   1  30
TORSDOF 26
ENDMDL
