MODEL 1
REMARK VINA RESULT:      -7.9      0.000      0.000
REMARK SMILES CCN(CC)c1ccc(NC(=O)c2ccc(OC)cc2)cc1C(=O)OCCOCCOCCOCCOC(=O)c1ccc(-c2c3nc(c(-c4cc(S(=O)(=O)[O-])ccc4F)c4ccc([nH]4)c(-c4cc(S(=O)(=O)[O-])ccc4F)c4nc(c(-c5cc(S(=O)(=O)[O-])ccc5F)c5ccc2[nH]5)C=C4)C=C3)cc1
REMARK SMILES IDX 31 1 30 2 29 3 28 4 27 5 26 6 25 7 23 8 24 9 22 10 6 11 7 12
REMARK SMILES IDX 8 13 21 14 9 15 3 16 2 17 1 18 4 19 5 20 10 21 11 22 12 24
REMARK SMILES IDX 13 25 14 26 20 27 15 28 19 29 16 30 17 31 18 32 32 33 33 34
REMARK SMILES IDX 34 35 35 36 36 37 37 38 38 39 39 40 40 41 41 42 102 43 42 44
REMARK SMILES IDX 101 45 43 46 44 47 45 48 95 49 46 50 100 51 94 52 96 53
REMARK SMILES IDX 47 54 99 55 93 56 92 57 48 59 80 60 60 61 79 62 61 63 64 64
REMARK SMILES IDX 78 65 97 66 62 67 63 68 77 70 98 71 65 72 49 73 50 74 58 75
REMARK SMILES IDX 51 76 57 77 59 78 56 79 52 80 53 81 54 82 55 83 81 84 82 85
REMARK SMILES IDX 90 86 83 87 89 88 91 89 88 90 84 91 85 92 86 93 87 94 66 95
REMARK SMILES IDX 67 96 75 97 68 98 74 99 76 100 73 101 69 102 70 103 71 104
REMARK SMILES IDX 72 105
REMARK H PARENT 10 23 96 58 64 69
REMARK Flexibility Score: inf
ROOT
ATOM      1  O   UNL A   1      40.073  27.666  27.020  1.00  0.00    -0.377 OA
ENDROOT
BRANCH   1   2
ATOM      2  C   UNL A   1      40.087  26.789  28.131  1.00  0.00     0.188 C 
BRANCH   2   3
ATOM      3  C   UNL A   1      39.290  25.485  27.962  1.00  0.00     0.188 C 
BRANCH   3   4
ATOM      4  O   UNL A   1      39.410  24.735  26.757  1.00  0.00    -0.376 OA
BRANCH   4   5
ATOM      5  C   UNL A   1      38.543  23.636  26.485  1.00  0.00     0.202 C 
BRANCH   5   6
ATOM      6  C   UNL A   1      37.650  23.703  25.246  1.00  0.00     0.261 C 
BRANCH   6   7
ATOM      7  O   UNL A   1      36.274  23.722  25.646  1.00  0.00    -0.460 OA
BRANCH   7   8
ATOM      8  C   UNL A   1      35.358  23.947  24.683  1.00  0.00     0.340 C 
ATOM      9  O   UNL A   1      35.393  23.523  23.539  1.00  0.00    -0.246 OA
BRANCH   8  10
ATOM     10  C   UNL A   1      34.144  24.523  25.310  1.00  0.00     0.085 A 
ATOM     11  C   UNL A   1      32.908  23.851  25.479  1.00  0.00     0.051 A 
ATOM     12  C   UNL A   1      31.850  24.666  25.925  1.00  0.00     0.029 A 
ATOM     13  C   UNL A   1      32.006  26.017  26.256  1.00  0.00     0.028 A 
ATOM     14  C   UNL A   1      34.300  25.894  25.635  1.00  0.00     0.044 A 
ATOM     15  C   UNL A   1      33.248  26.626  26.170  1.00  0.00     0.042 A 
BRANCH  11  16
ATOM     16  N   UNL A   1      32.670  22.501  25.237  1.00  0.00    -0.371 N 
BRANCH  16  17
ATOM     17  C   UNL A   1      32.116  22.043  23.953  1.00  0.00     0.113 C 
ATOM     18  C   UNL A   1      31.367  23.147  23.218  1.00  0.00     0.027 C 
ENDBRANCH  16  17
BRANCH  16  19
ATOM     19  C   UNL A   1      33.187  21.448  26.137  1.00  0.00     0.113 C 
ATOM     20  C   UNL A   1      33.904  20.319  25.399  1.00  0.00     0.027 C 
ENDBRANCH  16  19
ENDBRANCH  11  16
BRANCH  15  21
ATOM     21  N   UNL A   1      33.485  27.949  26.588  1.00  0.00    -0.322 N 
ATOM     22  C   UNL A   1      33.224  29.136  25.925  1.00  0.00     0.255 C 
ATOM     23  H   UNL A   1      33.895  28.044  27.479  1.00  0.00     0.170 HD
ATOM     24  O   UNL A   1      33.717  30.195  26.305  1.00  0.00    -0.269 OA
BRANCH  22  25
ATOM     25  C   UNL A   1      32.263  29.148  24.795  1.00  0.00     0.040 A 
ATOM     26  C   UNL A   1      31.006  29.728  24.970  1.00  0.00     0.017 A 
ATOM     27  C   UNL A   1      32.637  28.644  23.542  1.00  0.00     0.017 A 
ATOM     28  C   UNL A   1      30.173  29.903  23.862  1.00  0.00     0.047 A 
ATOM     29  C   UNL A   1      31.809  28.839  22.436  1.00  0.00     0.047 A 
ATOM     30  C   UNL A   1      30.594  29.508  22.587  1.00  0.00     0.118 A 
BRANCH  30  31
ATOM     31  O   UNL A   1      29.740  29.809  21.561  1.00  0.00    -0.497 OA
ATOM     32  C   UNL A   1      28.354  29.695  21.879  1.00  0.00     0.278 C 
ENDBRANCH  30  31
ENDBRANCH  22  25
ENDBRANCH  15  21
ENDBRANCH   8  10
ENDBRANCH   7   8
ENDBRANCH   6   7
ENDBRANCH   5   6
ENDBRANCH   4   5
ENDBRANCH   3   4
ENDBRANCH   2   3
ENDBRANCH   1   2
BRANCH   1  33
ATOM     33  C   UNL A   1      39.630  28.982  27.309  1.00  0.00     0.188 C 
BRANCH  33  34
ATOM     34  C   UNL A   1      38.971  29.126  28.689  1.00  0.00     0.188 C 
BRANCH  34  35
ATOM     35  O   UNL A   1      37.576  28.912  28.899  1.00  0.00    -0.376 OA
BRANCH  35  36
ATOM     36  C   UNL A   1      36.616  29.627  28.143  1.00  0.00     0.202 C 
BRANCH  36  37
ATOM     37  C   UNL A   1      36.745  31.157  28.175  1.00  0.00     0.261 C 
BRANCH  37  38
ATOM     38  O   UNL A   1      35.627  31.857  28.740  1.00  0.00    -0.460 OA
BRANCH  38  39
ATOM     39  C   UNL A   1      35.752  32.152  30.058  1.00  0.00     0.338 C 
ATOM     40  O   UNL A   1      34.945  31.924  30.942  1.00  0.00    -0.246 OA
BRANCH  39  41
ATOM     41  C   UNL A   1      37.100  32.704  30.319  1.00  0.00     0.060 A 
ATOM     42  C   UNL A   1      38.031  31.885  30.972  1.00  0.00     0.016 A 
ATOM     43  C   UNL A   1      37.427  34.023  29.991  1.00  0.00     0.016 A 
ATOM     44  C   UNL A   1      39.274  32.396  31.342  1.00  0.00     0.010 A 
ATOM     45  C   UNL A   1      38.665  34.543  30.384  1.00  0.00     0.010 A 
ATOM     46  C   UNL A   1      39.575  33.742  31.096  1.00  0.00    -0.014 A 
BRANCH  46  47
ATOM     47  C   UNL A   1      40.733  34.357  31.789  1.00  0.00     0.031 A 
ATOM     48  C   UNL A   1      41.976  34.631  30.988  1.00  0.00     0.074 A 
ATOM     49  C   UNL A   1      40.673  34.691  33.089  1.00  0.00     0.049 A 
ATOM     50  N   UNL A   1      43.118  35.142  31.366  1.00  0.00    -0.248 NA
ATOM     51  C   UNL A   1      41.916  34.270  29.564  1.00  0.00     0.031 C 
ATOM     52  C   UNL A   1      39.511  34.506  33.956  1.00  0.00     0.029 A 
ATOM     53  N   UNL A   1      41.622  35.248  33.909  1.00  0.00    -0.354 N 
ATOM     54  C   UNL A   1      43.914  35.168  30.225  1.00  0.00     0.074 A 
ATOM     55  C   UNL A   1      43.136  34.577  29.157  1.00  0.00     0.031 C 
ATOM     56  C   UNL A   1      39.826  34.918  35.196  1.00  0.00     0.029 A 
ATOM     57  C   UNL A   1      41.216  35.371  35.215  1.00  0.00     0.049 A 
ATOM     58  H   UNL A   1      42.509  35.532  33.591  1.00  0.00     0.167 HD
ATOM     59  C   UNL A   1      45.174  35.650  30.079  1.00  0.00     0.034 A 
ATOM     60  C   UNL A   1      41.900  35.772  36.305  1.00  0.00     0.034 A 
ATOM     61  C   UNL A   1      45.945  36.203  31.165  1.00  0.00     0.049 A 
ATOM     62  C   UNL A   1      43.331  36.224  36.147  1.00  0.00     0.074 A 
ATOM     63  C   UNL A   1      47.224  36.731  31.138  1.00  0.00     0.029 A 
ATOM     64  N   UNL A   1      45.515  36.277  32.486  1.00  0.00    -0.354 N 
ATOM     65  N   UNL A   1      44.068  36.270  35.060  1.00  0.00    -0.248 NA
ATOM     66  C   UNL A   1      44.016  36.690  37.359  1.00  0.00     0.031 C 
ATOM     67  C   UNL A   1      47.593  37.053  32.450  1.00  0.00     0.029 A 
ATOM     68  C   UNL A   1      46.517  36.801  33.287  1.00  0.00     0.049 A 
ATOM     69  H   UNL A   1      44.626  35.996  32.805  1.00  0.00     0.167 HD
ATOM     70  C   UNL A   1      45.300  36.786  35.456  1.00  0.00     0.074 A 
ATOM     71  C   UNL A   1      45.199  37.048  36.879  1.00  0.00     0.031 C 
ATOM     72  C   UNL A   1      46.410  37.030  34.712  1.00  0.00     0.034 A 
BRANCH  59  73
ATOM     73  C   UNL A   1      45.798  35.524  28.708  1.00  0.00     0.023 A 
ATOM     74  C   UNL A   1      46.607  34.425  28.362  1.00  0.00     0.031 A 
ATOM     75  C   UNL A   1      45.655  36.555  27.764  1.00  0.00     0.131 A 
ATOM     76  C   UNL A   1      47.322  34.434  27.154  1.00  0.00     0.055 A 
ATOM     77  C   UNL A   1      46.298  36.515  26.526  1.00  0.00     0.041 A 
ATOM     78  F   UNL A   1      44.915  37.640  28.044  1.00  0.00    -0.206 F 
ATOM     79  C   UNL A   1      47.155  35.461  26.223  1.00  0.00     0.022 A 
BRANCH  76  80
ATOM     80  S   UNL A   1      48.616  33.186  26.907  1.00  0.00     0.124 S 
ATOM     81  O   UNL A   1      49.585  33.921  26.099  1.00  0.00    -0.237 OA
ATOM     82  O   UNL A   1      49.022  32.880  28.274  1.00  0.00    -0.237 OA
ATOM     83  O   UNL A   1      47.922  32.108  26.204  1.00  0.00    -0.744 OA
ENDBRANCH  76  80
ENDBRANCH  59  73
BRANCH  60  84
ATOM     84  C   UNL A   1      41.257  35.709  37.648  1.00  0.00     0.023 A 
ATOM     85  C   UNL A   1      40.688  36.842  38.246  1.00  0.00     0.031 A 
ATOM     86  C   UNL A   1      41.212  34.493  38.354  1.00  0.00     0.131 A 
ATOM     87  C   UNL A   1      40.115  36.741  39.526  1.00  0.00     0.055 A 
ATOM     88  C   UNL A   1      40.608  34.390  39.608  1.00  0.00     0.041 A 
ATOM     89  F   UNL A   1      41.737  33.379  37.821  1.00  0.00    -0.206 F 
ATOM     90  C   UNL A   1      40.062  35.521  40.204  1.00  0.00     0.022 A 
BRANCH  87  91
ATOM     91  S   UNL A   1      39.464  38.241  40.313  1.00  0.00     0.124 S 
ATOM     92  O   UNL A   1      40.532  39.200  40.054  1.00  0.00    -0.237 OA
ATOM     93  O   UNL A   1      38.220  38.451  39.580  1.00  0.00    -0.237 OA
ATOM     94  O   UNL A   1      39.300  37.846  41.711  1.00  0.00    -0.744 OA
ENDBRANCH  87  91
ENDBRANCH  60  84
BRANCH  72  95
ATOM     95  C   UNL A   1      47.595  37.635  35.424  1.00  0.00     0.023 A 
ATOM     96  C   UNL A   1      47.658  39.007  35.726  1.00  0.00     0.031 A 
ATOM     97  C   UNL A   1      48.679  36.824  35.808  1.00  0.00     0.131 A 
ATOM     98  C   UNL A   1      48.802  39.535  36.344  1.00  0.00     0.055 A 
ATOM     99  C   UNL A   1      49.788  37.345  36.475  1.00  0.00     0.041 A 
ATOM    100  F   UNL A   1      48.674  35.508  35.544  1.00  0.00    -0.206 F 
ATOM    101  C   UNL A   1      49.859  38.710  36.736  1.00  0.00     0.022 A 
BRANCH  98 102
ATOM    102  S   UNL A   1      48.928  41.333  36.554  1.00  0.00     0.124 S 
ATOM    103  O   UNL A   1      48.782  41.480  37.999  1.00  0.00    -0.237 OA
ATOM    104  O   UNL A   1      50.253  41.618  36.015  1.00  0.00    -0.237 OA
ATOM    105  O   UNL A   1      47.813  41.849  35.763  1.00  0.00    -0.744 OA
ENDBRANCH  98 102
ENDBRANCH  72  95
ENDBRANCH  46  47
ENDBRANCH  39  41
ENDBRANCH  38  39
ENDBRANCH  37  38
ENDBRANCH  36  37
ENDBRANCH  35  36
ENDBRANCH  34  35
ENDBRANCH  33  34
ENDBRANCH   1  33
TORSDOF 29
ENDMDL
MODEL 2
REMARK VINA RESULT:      -7.6      2.565      3.121
REMARK SMILES CCN(CC)c1ccc(NC(=O)c2ccc(OC)cc2)cc1C(=O)OCCOCCOCCOCCOC(=O)c1ccc(-c2c3nc(c(-c4cc(S(=O)(=O)[O-])ccc4F)c4ccc([nH]4)c(-c4cc(S(=O)(=O)[O-])ccc4F)c4nc(c(-c5cc(S(=O)(=O)[O-])ccc5F)c5ccc2[nH]5)C=C4)C=C3)cc1
REMARK SMILES IDX 31 1 30 2 29 3 28 4 27 5 26 6 25 7 23 8 24 9 22 10 6 11 7 12
REMARK SMILES IDX 8 13 21 14 9 15 3 16 2 17 1 18 4 19 5 20 10 21 11 22 12 24
REMARK SMILES IDX 13 25 14 26 20 27 15 28 19 29 16 30 17 31 18 32 32 33 33 34
REMARK SMILES IDX 34 35 35 36 36 37 37 38 38 39 39 40 40 41 41 42 102 43 42 44
REMARK SMILES IDX 101 45 43 46 44 47 45 48 95 49 46 50 100 51 94 52 96 53
REMARK SMILES IDX 47 54 99 55 93 56 92 57 48 59 80 60 60 61 79 62 61 63 64 64
REMARK SMILES IDX 78 65 97 66 62 67 63 68 77 70 98 71 65 72 49 73 50 74 58 75
REMARK SMILES IDX 51 76 57 77 59 78 56 79 52 80 53 81 54 82 55 83 81 84 82 85
REMARK SMILES IDX 90 86 83 87 89 88 91 89 88 90 84 91 85 92 86 93 87 94 66 95
REMARK SMILES IDX 67 96 75 97 68 98 74 99 76 100 73 101 69 102 70 103 71 104
REMARK SMILES IDX 72 105
REMARK H PARENT 10 23 96 58 64 69
REMARK Flexibility Score: inf
ROOT
ATOM      1  O   UNL A   1      40.210  27.589  27.068  1.00  0.00    -0.377 OA
ENDROOT
BRANCH   1   2
ATOM      2  C   UNL A   1      40.260  26.750  28.207  1.00  0.00     0.188 C 
BRANCH   2   3
ATOM      3  C   UNL A   1      39.439  25.453  28.116  1.00  0.00     0.188 C 
BRANCH   3   4
ATOM      4  O   UNL A   1      39.583  24.603  26.982  1.00  0.00    -0.376 OA
BRANCH   4   5
ATOM      5  C   UNL A   1      38.603  23.615  26.673  1.00  0.00     0.202 C 
BRANCH   5   6
ATOM      6  C   UNL A   1      37.721  23.825  25.443  1.00  0.00     0.261 C 
BRANCH   6   7
ATOM      7  O   UNL A   1      36.348  23.909  25.845  1.00  0.00    -0.460 OA
BRANCH   7   8
ATOM      8  C   UNL A   1      35.435  24.110  24.873  1.00  0.00     0.340 C 
ATOM      9  O   UNL A   1      35.492  23.689  23.729  1.00  0.00    -0.246 OA
BRANCH   8  10
ATOM     10  C   UNL A   1      34.200  24.652  25.490  1.00  0.00     0.085 A 
ATOM     11  C   UNL A   1      32.998  23.930  25.695  1.00  0.00     0.051 A 
ATOM     12  C   UNL A   1      31.906  24.710  26.120  1.00  0.00     0.029 A 
ATOM     13  C   UNL A   1      32.001  26.078  26.398  1.00  0.00     0.028 A 
ATOM     14  C   UNL A   1      34.293  26.040  25.762  1.00  0.00     0.044 A 
ATOM     15  C   UNL A   1      33.211  26.741  26.278  1.00  0.00     0.042 A 
BRANCH  11  16
ATOM     16  N   UNL A   1      32.823  22.562  25.505  1.00  0.00    -0.371 N 
BRANCH  16  17
ATOM     17  C   UNL A   1      32.786  21.633  26.646  1.00  0.00     0.113 C 
ATOM     18  C   UNL A   1      34.157  21.438  27.279  1.00  0.00     0.027 C 
ENDBRANCH  16  17
BRANCH  16  19
ATOM     19  C   UNL A   1      32.416  22.004  24.197  1.00  0.00     0.113 C 
ATOM     20  C   UNL A   1      32.376  20.477  24.176  1.00  0.00     0.027 C 
ENDBRANCH  16  19
ENDBRANCH  11  16
BRANCH  15  21
ATOM     21  N   UNL A   1      33.389  28.089  26.645  1.00  0.00    -0.322 N 
ATOM     22  C   UNL A   1      33.116  29.236  25.919  1.00  0.00     0.255 C 
ATOM     23  H   UNL A   1      33.761  28.237  27.545  1.00  0.00     0.170 HD
ATOM     24  O   UNL A   1      33.559  30.327  26.268  1.00  0.00    -0.269 OA
BRANCH  22  25
ATOM     25  C   UNL A   1      32.201  29.165  24.754  1.00  0.00     0.040 A 
ATOM     26  C   UNL A   1      30.917  29.705  24.856  1.00  0.00     0.017 A 
ATOM     27  C   UNL A   1      32.641  28.623  23.539  1.00  0.00     0.017 A 
ATOM     28  C   UNL A   1      30.123  29.803  23.711  1.00  0.00     0.047 A 
ATOM     29  C   UNL A   1      31.850  28.741  22.395  1.00  0.00     0.047 A 
ATOM     30  C   UNL A   1      30.607  29.371  22.471  1.00  0.00     0.118 A 
BRANCH  30  31
ATOM     31  O   UNL A   1      29.785  29.597  21.402  1.00  0.00    -0.497 OA
ATOM     32  C   UNL A   1      28.713  30.506  21.649  1.00  0.00     0.278 C 
ENDBRANCH  30  31
ENDBRANCH  22  25
ENDBRANCH  15  21
ENDBRANCH   8  10
ENDBRANCH   7   8
ENDBRANCH   6   7
ENDBRANCH   5   6
ENDBRANCH   4   5
ENDBRANCH   3   4
ENDBRANCH   2   3
ENDBRANCH   1   2
BRANCH   1  33
ATOM     33  C   UNL A   1      39.674  28.880  27.306  1.00  0.00     0.188 C 
BRANCH  33  34
ATOM     34  C   UNL A   1      38.887  28.993  28.620  1.00  0.00     0.188 C 
BRANCH  34  35
ATOM     35  O   UNL A   1      37.486  28.734  28.699  1.00  0.00    -0.376 OA
BRANCH  35  36
ATOM     36  C   UNL A   1      36.548  29.705  28.274  1.00  0.00     0.202 C 
BRANCH  36  37
ATOM     37  C   UNL A   1      36.641  31.072  28.969  1.00  0.00     0.261 C 
BRANCH  37  38
ATOM     38  O   UNL A   1      35.856  31.210  30.162  1.00  0.00    -0.460 OA
BRANCH  38  39
ATOM     39  C   UNL A   1      36.442  30.722  31.284  1.00  0.00     0.338 C 
ATOM     40  O   UNL A   1      36.199  29.665  31.840  1.00  0.00    -0.246 OA
BRANCH  39  41
ATOM     41  C   UNL A   1      37.543  31.619  31.701  1.00  0.00     0.060 A 
ATOM     42  C   UNL A   1      38.805  31.053  31.920  1.00  0.00     0.016 A 
ATOM     43  C   UNL A   1      37.327  32.980  31.939  1.00  0.00     0.016 A 
ATOM     44  C   UNL A   1      39.845  31.834  32.423  1.00  0.00     0.010 A 
ATOM     45  C   UNL A   1      38.364  33.758  32.466  1.00  0.00     0.010 A 
ATOM     46  C   UNL A   1      39.613  33.176  32.747  1.00  0.00    -0.014 A 
BRANCH  46  47
ATOM     47  C   UNL A   1      40.601  33.892  33.590  1.00  0.00     0.031 A 
ATOM     48  C   UNL A   1      41.698  34.657  32.902  1.00  0.00     0.074 A 
ATOM     49  C   UNL A   1      40.511  33.887  34.930  1.00  0.00     0.049 A 
ATOM     50  N   UNL A   1      42.685  35.345  33.414  1.00  0.00    -0.248 NA
ATOM     51  C   UNL A   1      41.674  34.635  31.432  1.00  0.00     0.031 C 
ATOM     52  C   UNL A   1      39.472  33.211  35.704  1.00  0.00     0.029 A 
ATOM     53  N   UNL A   1      41.317  34.465  35.878  1.00  0.00    -0.354 N 
ATOM     54  C   UNL A   1      43.400  35.842  32.328  1.00  0.00     0.074 A 
ATOM     55  C   UNL A   1      42.757  35.334  31.135  1.00  0.00     0.031 C 
ATOM     56  C   UNL A   1      39.720  33.391  37.013  1.00  0.00     0.029 A 
ATOM     57  C   UNL A   1      40.947  34.171  37.168  1.00  0.00     0.049 A 
ATOM     58  H   UNL A   1      42.088  35.036  35.655  1.00  0.00     0.167 HD
ATOM     59  C   UNL A   1      44.486  36.654  32.328  1.00  0.00     0.034 A 
ATOM     60  C   UNL A   1      41.548  34.472  38.336  1.00  0.00     0.034 A 
ATOM     61  C   UNL A   1      45.134  37.120  33.529  1.00  0.00     0.049 A 
ATOM     62  C   UNL A   1      42.807  35.304  38.320  1.00  0.00     0.074 A 
ATOM     63  C   UNL A   1      46.231  37.953  33.654  1.00  0.00     0.029 A 
ATOM     64  N   UNL A   1      44.753  36.771  34.821  1.00  0.00    -0.354 N 
ATOM     65  N   UNL A   1      43.463  35.790  37.290  1.00  0.00    -0.248 NA
ATOM     66  C   UNL A   1      43.399  35.637  39.622  1.00  0.00     0.031 C 
ATOM     67  C   UNL A   1      46.558  38.046  35.013  1.00  0.00     0.029 A 
ATOM     68  C   UNL A   1      45.618  37.336  35.744  1.00  0.00     0.049 A 
ATOM     69  H   UNL A   1      43.980  36.203  35.045  1.00  0.00     0.167 HD
ATOM     70  C   UNL A   1      44.536  36.502  37.822  1.00  0.00     0.074 A 
ATOM     71  C   UNL A   1      44.429  36.391  39.264  1.00  0.00     0.031 C 
ATOM     72  C   UNL A   1      45.515  37.191  37.180  1.00  0.00     0.034 A 
BRANCH  59  73
ATOM     73  C   UNL A   1      45.065  37.016  30.979  1.00  0.00     0.023 A 
ATOM     74  C   UNL A   1      44.614  38.137  30.257  1.00  0.00     0.031 A 
ATOM     75  C   UNL A   1      46.015  36.181  30.365  1.00  0.00     0.131 A 
ATOM     76  C   UNL A   1      45.034  38.334  28.932  1.00  0.00     0.055 A 
ATOM     77  C   UNL A   1      46.496  36.433  29.079  1.00  0.00     0.041 A 
ATOM     78  F   UNL A   1      46.466  35.083  30.993  1.00  0.00    -0.206 F 
ATOM     79  C   UNL A   1      45.990  37.501  28.346  1.00  0.00     0.022 A 
BRANCH  76  80
ATOM     80  S   UNL A   1      44.168  39.572  27.926  1.00  0.00     0.124 S 
ATOM     81  O   UNL A   1      43.730  38.773  26.785  1.00  0.00    -0.237 OA
ATOM     82  O   UNL A   1      43.118  40.031  28.828  1.00  0.00    -0.237 OA
ATOM     83  O   UNL A   1      45.207  40.555  27.625  1.00  0.00    -0.744 OA
ENDBRANCH  76  80
ENDBRANCH  59  73
BRANCH  60  84
ATOM     84  C   UNL A   1      40.999  33.934  39.612  1.00  0.00     0.023 A 
ATOM     85  C   UNL A   1      40.022  34.625  40.343  1.00  0.00     0.031 A 
ATOM     86  C   UNL A   1      41.460  32.705  40.119  1.00  0.00     0.131 A 
ATOM     87  C   UNL A   1      39.551  34.091  41.555  1.00  0.00     0.055 A 
ATOM     88  C   UNL A   1      40.962  32.161  41.303  1.00  0.00     0.041 A 
ATOM     89  F   UNL A   1      42.390  32.002  39.453  1.00  0.00    -0.206 F 
ATOM     90  C   UNL A   1      40.007  32.860  42.033  1.00  0.00     0.022 A 
BRANCH  87  91
ATOM     91  S   UNL A   1      38.351  35.048  42.523  1.00  0.00     0.124 S 
ATOM     92  O   UNL A   1      38.934  36.384  42.483  1.00  0.00    -0.237 OA
ATOM     93  O   UNL A   1      37.124  34.858  41.757  1.00  0.00    -0.237 OA
ATOM     94  O   UNL A   1      38.372  34.394  43.831  1.00  0.00    -0.744 OA
ENDBRANCH  87  91
ENDBRANCH  60  84
BRANCH  72  95
ATOM     95  C   UNL A   1      46.532  37.900  38.040  1.00  0.00     0.023 A 
ATOM     96  C   UNL A   1      47.743  37.290  38.413  1.00  0.00     0.031 A 
ATOM     97  C   UNL A   1      46.285  39.209  38.494  1.00  0.00     0.131 A 
ATOM     98  C   UNL A   1      48.637  37.968  39.256  1.00  0.00     0.055 A 
ATOM     99  C   UNL A   1      47.205  39.900  39.284  1.00  0.00     0.041 A 
ATOM    100  F   UNL A   1      45.145  39.840  38.171  1.00  0.00    -0.206 F 
ATOM    101  C   UNL A   1      48.384  39.275  39.679  1.00  0.00     0.022 A 
BRANCH  98 102
ATOM    102  S   UNL A   1      50.101  37.085  39.864  1.00  0.00     0.124 S 
ATOM    103  O   UNL A   1      50.613  38.008  40.873  1.00  0.00    -0.237 OA
ATOM    104  O   UNL A   1      49.529  35.842  40.370  1.00  0.00    -0.237 OA
ATOM    105  O   UNL A   1      50.936  36.944  38.673  1.00  0.00    -0.744 OA
ENDBRANCH  98 102
ENDBRANCH  72  95
ENDBRANCH  46  47
ENDBRANCH  39  41
ENDBRANCH  38  39
ENDBRANCH  37  38
ENDBRANCH  36  37
ENDBRANCH  35  36
ENDBRANCH  34  35
ENDBRANCH  33  34
ENDBRANCH   1  33
TORSDOF 29
ENDMDL
MODEL 3
REMARK VINA RESULT:      -7.0      5.945     13.942
REMARK SMILES CCN(CC)c1ccc(NC(=O)c2ccc(OC)cc2)cc1C(=O)OCCOCCOCCOCCOC(=O)c1ccc(-c2c3nc(c(-c4cc(S(=O)(=O)[O-])ccc4F)c4ccc([nH]4)c(-c4cc(S(=O)(=O)[O-])ccc4F)c4nc(c(-c5cc(S(=O)(=O)[O-])ccc5F)c5ccc2[nH]5)C=C4)C=C3)cc1
REMARK SMILES IDX 31 1 30 2 29 3 28 4 27 5 26 6 25 7 23 8 24 9 22 10 6 11 7 12
REMARK SMILES IDX 8 13 21 14 9 15 3 16 2 17 1 18 4 19 5 20 10 21 11 22 12 24
REMARK SMILES IDX 13 25 14 26 20 27 15 28 19 29 16 30 17 31 18 32 32 33 33 34
REMARK SMILES IDX 34 35 35 36 36 37 37 38 38 39 39 40 40 41 41 42 102 43 42 44
REMARK SMILES IDX 101 45 43 46 44 47 45 48 95 49 46 50 100 51 94 52 96 53
REMARK SMILES IDX 47 54 99 55 93 56 92 57 48 59 80 60 60 61 79 62 61 63 64 64
REMARK SMILES IDX 78 65 97 66 62 67 63 68 77 70 98 71 65 72 49 73 50 74 58 75
REMARK SMILES IDX 51 76 57 77 59 78 56 79 52 80 53 81 54 82 55 83 81 84 82 85
REMARK SMILES IDX 90 86 83 87 89 88 91 89 88 90 84 91 85 92 86 93 87 94 66 95
REMARK SMILES IDX 67 96 75 97 68 98 74 99 76 100 73 101 69 102 70 103 71 104
REMARK SMILES IDX 72 105
REMARK H PARENT 10 23 96 58 64 69
REMARK Flexibility Score: inf
ROOT
ATOM      1  O   UNL A   1      51.083  41.631  30.252  1.00  0.00    -0.377 OA
ENDROOT
BRANCH   1   2
ATOM      2  C   UNL A   1      51.108  41.887  31.643  1.00  0.00     0.188 C 
BRANCH   2   3
ATOM      3  C   UNL A   1      49.974  41.245  32.459  1.00  0.00     0.188 C 
BRANCH   3   4
ATOM      4  O   UNL A   1      48.640  41.718  32.310  1.00  0.00    -0.376 OA
BRANCH   4   5
ATOM      5  C   UNL A   1      47.733  41.092  31.405  1.00  0.00     0.202 C 
BRANCH   5   6
ATOM      6  C   UNL A   1      46.235  41.194  31.687  1.00  0.00     0.261 C 
BRANCH   6   7
ATOM      7  O   UNL A   1      45.766  39.961  32.247  1.00  0.00    -0.460 OA
BRANCH   7   8
ATOM      8  C   UNL A   1      44.525  39.959  32.774  1.00  0.00     0.340 C 
ATOM      9  O   UNL A   1      44.235  39.736  33.939  1.00  0.00    -0.246 OA
BRANCH   8  10
ATOM     10  C   UNL A   1      43.596  40.580  31.799  1.00  0.00     0.085 A 
ATOM     11  C   UNL A   1      42.884  41.789  31.996  1.00  0.00     0.051 A 
ATOM     12  C   UNL A   1      41.921  42.074  31.010  1.00  0.00     0.029 A 
ATOM     13  C   UNL A   1      41.722  41.278  29.877  1.00  0.00     0.028 A 
ATOM     14  C   UNL A   1      43.388  39.768  30.656  1.00  0.00     0.044 A 
ATOM     15  C   UNL A   1      42.497  40.150  29.661  1.00  0.00     0.042 A 
BRANCH  11  16
ATOM     16  N   UNL A   1      43.054  42.676  33.056  1.00  0.00    -0.371 N 
BRANCH  16  17
ATOM     17  C   UNL A   1      42.280  42.535  34.299  1.00  0.00     0.113 C 
ATOM     18  C   UNL A   1      43.124  42.797  35.540  1.00  0.00     0.027 C 
ENDBRANCH  16  17
BRANCH  16  19
ATOM     19  C   UNL A   1      44.180  43.635  33.094  1.00  0.00     0.113 C 
ATOM     20  C   UNL A   1      43.888  44.940  32.355  1.00  0.00     0.027 C 
ENDBRANCH  16  19
ENDBRANCH  11  16
BRANCH  15  21
ATOM     21  N   UNL A   1      42.414  39.373  28.490  1.00  0.00    -0.322 N 
ATOM     22  C   UNL A   1      42.934  39.629  27.233  1.00  0.00     0.255 C 
ATOM     23  H   UNL A   1      41.917  38.528  28.577  1.00  0.00     0.170 HD
ATOM     24  O   UNL A   1      42.565  38.988  26.253  1.00  0.00    -0.269 OA
BRANCH  22  25
ATOM     25  C   UNL A   1      44.017  40.631  27.077  1.00  0.00     0.040 A 
ATOM     26  C   UNL A   1      43.752  41.829  26.411  1.00  0.00     0.017 A 
ATOM     27  C   UNL A   1      45.275  40.410  27.653  1.00  0.00     0.017 A 
ATOM     28  C   UNL A   1      44.711  42.845  26.423  1.00  0.00     0.047 A 
ATOM     29  C   UNL A   1      46.221  41.435  27.677  1.00  0.00     0.047 A 
ATOM     30  C   UNL A   1      45.923  42.670  27.100  1.00  0.00     0.118 A 
BRANCH  30  31
ATOM     31  O   UNL A   1      46.750  43.760  27.126  1.00  0.00    -0.497 OA
ATOM     32  C   UNL A   1      47.019  44.341  25.851  1.00  0.00     0.278 C 
ENDBRANCH  30  31
ENDBRANCH  22  25
ENDBRANCH  15  21
ENDBRANCH   8  10
ENDBRANCH   7   8
ENDBRANCH   6   7
ENDBRANCH   5   6
ENDBRANCH   4   5
ENDBRANCH   3   4
ENDBRANCH   2   3
ENDBRANCH   1   2
BRANCH   1  33
ATOM     33  C   UNL A   1      52.154  40.831  29.776  1.00  0.00     0.188 C 
BRANCH  33  34
ATOM     34  C   UNL A   1      51.747  39.391  29.432  1.00  0.00     0.188 C 
BRANCH  34  35
ATOM     35  O   UNL A   1      50.725  39.088  28.484  1.00  0.00    -0.376 OA
BRANCH  35  36
ATOM     36  C   UNL A   1      50.552  37.765  28.010  1.00  0.00     0.202 C 
BRANCH  36  37
ATOM     37  C   UNL A   1      49.292  37.518  27.166  1.00  0.00     0.261 C 
BRANCH  37  38
ATOM     38  O   UNL A   1      48.624  36.272  27.409  1.00  0.00    -0.460 OA
BRANCH  38  39
ATOM     39  C   UNL A   1      47.390  36.173  26.855  1.00  0.00     0.338 C 
ATOM     40  O   UNL A   1      47.109  36.239  25.672  1.00  0.00    -0.246 OA
BRANCH  39  41
ATOM     41  C   UNL A   1      46.399  35.844  27.903  1.00  0.00     0.060 A 
ATOM     42  C   UNL A   1      45.471  36.830  28.264  1.00  0.00     0.016 A 
ATOM     43  C   UNL A   1      46.420  34.616  28.570  1.00  0.00     0.016 A 
ATOM     44  C   UNL A   1      44.592  36.610  29.324  1.00  0.00     0.010 A 
ATOM     45  C   UNL A   1      45.555  34.404  29.650  1.00  0.00     0.010 A 
ATOM     46  C   UNL A   1      44.666  35.417  30.053  1.00  0.00    -0.014 A 
BRANCH  46  47
ATOM     47  C   UNL A   1      43.984  35.335  31.368  1.00  0.00     0.031 A 
ATOM     48  C   UNL A   1      42.624  34.694  31.422  1.00  0.00     0.074 A 
ATOM     49  C   UNL A   1      44.567  35.793  32.488  1.00  0.00     0.049 A 
ATOM     50  N   UNL A   1      41.823  34.520  32.440  1.00  0.00    -0.248 NA
ATOM     51  C   UNL A   1      42.101  34.185  30.146  1.00  0.00     0.031 C 
ATOM     52  C   UNL A   1      45.894  36.400  32.562  1.00  0.00     0.029 A 
ATOM     53  N   UNL A   1      44.107  35.824  33.781  1.00  0.00    -0.354 N 
ATOM     54  C   UNL A   1      40.700  33.877  31.929  1.00  0.00     0.074 A 
ATOM     55  C   UNL A   1      40.909  33.738  30.503  1.00  0.00     0.031 C 
ATOM     56  C   UNL A   1      46.132  36.770  33.832  1.00  0.00     0.029 A 
ATOM     57  C   UNL A   1      44.965  36.449  34.653  1.00  0.00     0.049 A 
ATOM     58  H   UNL A   1      43.246  35.436  34.056  1.00  0.00     0.167 HD
ATOM     59  C   UNL A   1      39.601  33.435  32.590  1.00  0.00     0.034 A 
ATOM     60  C   UNL A   1      44.811  36.753  35.957  1.00  0.00     0.034 A 
ATOM     61  C   UNL A   1      39.396  33.615  34.006  1.00  0.00     0.049 A 
ATOM     62  C   UNL A   1      43.545  36.334  36.663  1.00  0.00     0.074 A 
ATOM     63  C   UNL A   1      38.331  33.202  34.786  1.00  0.00     0.029 A 
ATOM     64  N   UNL A   1      40.270  34.287  34.853  1.00  0.00    -0.354 N 
ATOM     65  N   UNL A   1      42.498  35.704  36.177  1.00  0.00    -0.248 NA
ATOM     66  C   UNL A   1      43.445  36.654  38.092  1.00  0.00     0.031 C 
ATOM     67  C   UNL A   1      38.525  33.688  36.085  1.00  0.00     0.029 A 
ATOM     68  C   UNL A   1      39.750  34.337  36.137  1.00  0.00     0.049 A 
ATOM     69  H   UNL A   1      41.134  34.673  34.580  1.00  0.00     0.167 HD
ATOM     70  C   UNL A   1      41.622  35.539  37.248  1.00  0.00     0.074 A 
ATOM     71  C   UNL A   1      42.271  36.123  38.406  1.00  0.00     0.031 C 
ATOM     72  C   UNL A   1      40.397  34.950  37.276  1.00  0.00     0.034 A 
BRANCH  59  73
ATOM     73  C   UNL A   1      38.521  32.783  31.755  1.00  0.00     0.023 A 
ATOM     74  C   UNL A   1      37.471  33.531  31.190  1.00  0.00     0.031 A 
ATOM     75  C   UNL A   1      38.490  31.387  31.597  1.00  0.00     0.131 A 
ATOM     76  C   UNL A   1      36.388  32.873  30.586  1.00  0.00     0.055 A 
ATOM     77  C   UNL A   1      37.454  30.745  30.917  1.00  0.00     0.041 A 
ATOM     78  F   UNL A   1      39.451  30.617  32.134  1.00  0.00    -0.206 F 
ATOM     79  C   UNL A   1      36.384  31.486  30.426  1.00  0.00     0.022 A 
BRANCH  76  80
ATOM     80  S   UNL A   1      34.902  33.837  30.192  1.00  0.00     0.124 S 
ATOM     81  O   UNL A   1      35.346  34.608  29.034  1.00  0.00    -0.237 OA
ATOM     82  O   UNL A   1      33.914  32.797  29.930  1.00  0.00    -0.237 OA
ATOM     83  O   UNL A   1      34.674  34.624  31.403  1.00  0.00    -0.744 OA
ENDBRANCH  76  80
ENDBRANCH  59  73
BRANCH  60  84
ATOM     84  C   UNL A   1      45.858  37.544  36.662  1.00  0.00     0.023 A 
ATOM     85  C   UNL A   1      45.928  38.940  36.549  1.00  0.00     0.031 A 
ATOM     86  C   UNL A   1      46.816  36.895  37.464  1.00  0.00     0.131 A 
ATOM     87  C   UNL A   1      46.950  39.642  37.212  1.00  0.00     0.055 A 
ATOM     88  C   UNL A   1      47.805  37.600  38.149  1.00  0.00     0.041 A 
ATOM     89  F   UNL A   1      46.786  35.561  37.608  1.00  0.00    -0.206 F 
ATOM     90  C   UNL A   1      47.880  38.983  38.019  1.00  0.00     0.022 A 
BRANCH  87  91
ATOM     91  S   UNL A   1      47.069  41.438  36.979  1.00  0.00     0.124 S 
ATOM     92  O   UNL A   1      46.637  41.587  35.594  1.00  0.00    -0.237 OA
ATOM     93  O   UNL A   1      46.150  41.936  37.996  1.00  0.00    -0.237 OA
ATOM     94  O   UNL A   1      48.482  41.719  37.228  1.00  0.00    -0.744 OA
ENDBRANCH  87  91
ENDBRANCH  60  84
BRANCH  72  95
ATOM     95  C   UNL A   1      39.695  34.889  38.610  1.00  0.00     0.023 A 
ATOM     96  C   UNL A   1      39.568  33.686  39.327  1.00  0.00     0.031 A 
ATOM     97  C   UNL A   1      39.144  36.054  39.173  1.00  0.00     0.131 A 
ATOM     98  C   UNL A   1      38.863  33.666  40.540  1.00  0.00     0.055 A 
ATOM     99  C   UNL A   1      38.495  36.039  40.408  1.00  0.00     0.041 A 
ATOM    100  F   UNL A   1      39.234  37.231  38.532  1.00  0.00    -0.206 F 
ATOM    101  C   UNL A   1      38.340  34.838  41.093  1.00  0.00     0.022 A 
BRANCH  98 102
ATOM    102  S   UNL A   1      38.560  32.069  41.347  1.00  0.00     0.124 S 
ATOM    103  O   UNL A   1      39.916  31.560  41.528  1.00  0.00    -0.237 OA
ATOM    104  O   UNL A   1      37.860  32.462  42.564  1.00  0.00    -0.237 OA
ATOM    105  O   UNL A   1      37.750  31.341  40.373  1.00  0.00    -0.744 OA
ENDBRANCH  98 102
ENDBRANCH  72  95
ENDBRANCH  46  47
ENDBRANCH  39  41
ENDBRANCH  38  39
ENDBRANCH  37  38
ENDBRANCH  36  37
ENDBRANCH  35  36
ENDBRANCH  34  35
ENDBRANCH  33  34
ENDBRANCH   1  33
TORSDOF 29
ENDMDL
