MODEL 1
REMARK VINA RESULT:     -10.5      0.000      0.000
REMARK SMILES O=C(OCCOCCOCCOCCOC(=O)c1ccc(-c2c3nc(c(-c4cc(S(=O)(=O)[O-])ccc4F)c4ccc([nH]4)c(-c4cc(S(=O)(=O)[O-])ccc4F)c4nc(c(-c5cc(S(=O)(=O)[O-])ccc5F)c5ccc2[nH]5)C=C4)C=C3)cc1)C1=Cc2ccc(Cl)c(Cl)c2O[C@@H]1C(F)(F)F
REMARK SMILES IDX 10 1 9 2 8 3 7 4 6 5 5 6 4 7 3 8 2 9 1 10 81 11 82 12 92 13
REMARK SMILES IDX 83 14 91 15 84 16 90 17 85 18 88 19 86 20 89 21 87 22 93 23
REMARK SMILES IDX 94 24 95 25 96 26 11 27 12 28 13 29 14 30 15 31 16 32 17 33
REMARK SMILES IDX 18 34 19 35 80 36 20 37 79 38 21 39 22 40 23 41 73 42 24 43
REMARK SMILES IDX 78 44 72 45 74 46 25 47 77 48 71 49 70 50 26 52 58 53 38 54
REMARK SMILES IDX 57 55 39 56 42 57 56 58 75 59 40 60 41 61 55 63 76 64 43 65
REMARK SMILES IDX 27 66 28 67 36 68 29 69 35 70 37 71 34 72 30 73 31 74 32 75
REMARK SMILES IDX 33 76 59 77 60 78 68 79 61 80 67 81 69 82 66 83 62 84 63 85
REMARK SMILES IDX 64 86 65 87 44 88 45 89 53 90 46 91 52 92 54 93 51 94 47 95
REMARK SMILES IDX 48 96 49 97 50 98
REMARK H PARENT 74 51 42 62
REMARK Flexibility Score: inf
ROOT
ATOM      1  C   UNL A   1      34.476  35.449  28.362  1.00  0.00     0.188 C 
ENDROOT
BRANCH   1   2
ATOM      2  O   UNL A   1      34.991  34.149  28.182  1.00  0.00    -0.377 OA
BRANCH   2   3
ATOM      3  C   UNL A   1      34.152  33.172  28.746  1.00  0.00     0.188 C 
BRANCH   3   4
ATOM      4  C   UNL A   1      34.827  31.823  29.019  1.00  0.00     0.188 C 
BRANCH   4   5
ATOM      5  O   UNL A   1      34.977  30.742  28.035  1.00  0.00    -0.376 OA
BRANCH   5   6
ATOM      6  C   UNL A   1      33.980  30.100  26.878  1.00  0.00     0.202 C 
BRANCH   6   7
ATOM      7  C   UNL A   1      32.544  28.474  27.129  1.00  0.00     0.261 C 
BRANCH   7   8
ATOM      8  O   UNL A   1      31.679  27.862  26.049  1.00  0.00    -0.460 OA
BRANCH   8   9
ATOM      9  C   UNL A   1      31.740  26.526  26.048  1.00  0.00     0.338 C 
ATOM     10  O   UNL A   1      31.373  25.764  26.909  1.00  0.00    -0.246 OA
BRANCH   9  11
ATOM     11  C   UNL A   1      32.769  26.389  25.029  1.00  0.00     0.087 C 
ATOM     12  C   UNL A   1      34.036  25.834  25.514  1.00  0.00     0.027 C 
ATOM     13  C   UNL A   1      31.582  25.501  23.813  1.00  0.00     0.316 C 
ATOM     14  C   UNL A   1      34.574  24.138  25.238  1.00  0.00     0.019 A 
ATOM     15  O   UNL A   1      32.046  23.616  23.617  1.00  0.00    -0.474 OA
ATOM     16  C   UNL A   1      35.766  23.728  25.771  1.00  0.00     0.013 A 
ATOM     17  C   UNL A   1      33.580  22.973  24.415  1.00  0.00     0.148 A 
ATOM     18  C   UNL A   1      36.074  22.371  25.569  1.00  0.00     0.023 A 
ATOM     19  C   UNL A   1      33.931  21.642  24.343  1.00  0.00     0.102 A 
ATOM     20  C   UNL A   1      35.215  21.386  24.909  1.00  0.00     0.063 A 
ATOM     21  Cl  UNL A   1      32.894  20.403  23.790  1.00  0.00    -0.079 Cl
ATOM     22  Cl  UNL A   1      35.903  19.784  24.853  1.00  0.00    -0.083 Cl
BRANCH  13  23
ATOM     23  C   UNL A   1      31.609  26.797  22.745  1.00  0.00     0.430 C 
ATOM     24  F   UNL A   1      32.785  27.395  22.484  1.00  0.00    -0.167 F 
ATOM     25  F   UNL A   1      31.224  26.298  21.527  1.00  0.00    -0.167 F 
ATOM     26  F   UNL A   1      30.702  27.774  23.000  1.00  0.00    -0.167 F 
ENDBRANCH  13  23
ENDBRANCH   9  11
ENDBRANCH   8   9
ENDBRANCH   7   8
ENDBRANCH   6   7
ENDBRANCH   5   6
ENDBRANCH   4   5
ENDBRANCH   3   4
ENDBRANCH   2   3
ENDBRANCH   1   2
BRANCH   1  27
ATOM     27  C   UNL A   1      33.304  35.589  29.339  1.00  0.00     0.188 C 
BRANCH  27  28
ATOM     28  O   UNL A   1      32.846  36.842  29.816  1.00  0.00    -0.376 OA
BRANCH  28  29
ATOM     29  C   UNL A   1      33.299  37.379  31.043  1.00  0.00     0.202 C 
BRANCH  29  30
ATOM     30  C   UNL A   1      33.235  36.599  32.367  1.00  0.00     0.261 C 
BRANCH  30  31
ATOM     31  O   UNL A   1      34.358  35.772  32.687  1.00  0.00    -0.460 OA
BRANCH  31  32
ATOM     32  C   UNL A   1      34.088  34.449  32.733  1.00  0.00     0.338 C 
ATOM     33  O   UNL A   1      32.995  33.940  32.921  1.00  0.00    -0.246 OA
BRANCH  32  34
ATOM     34  C   UNL A   1      35.278  33.673  32.314  1.00  0.00     0.060 A 
ATOM     35  C   UNL A   1      35.371  32.346  32.760  1.00  0.00     0.016 A 
ATOM     36  C   UNL A   1      36.294  34.224  31.530  1.00  0.00     0.016 A 
ATOM     37  C   UNL A   1      36.503  31.591  32.490  1.00  0.00     0.010 A 
ATOM     38  C   UNL A   1      37.456  33.477  31.296  1.00  0.00     0.010 A 
ATOM     39  C   UNL A   1      37.584  32.181  31.829  1.00  0.00    -0.014 A 
BRANCH  39  40
ATOM     40  C   UNL A   1      38.905  31.521  31.948  1.00  0.00     0.031 A 
ATOM     41  C   UNL A   1      39.762  31.860  33.139  1.00  0.00     0.074 A 
ATOM     42  C   UNL A   1      39.273  30.548  31.096  1.00  0.00     0.049 A 
ATOM     43  N   UNL A   1      40.936  31.396  33.479  1.00  0.00    -0.248 NA
ATOM     44  C   UNL A   1      39.217  32.858  34.076  1.00  0.00     0.031 C 
ATOM     45  C   UNL A   1      38.485  30.087  29.954  1.00  0.00     0.029 A 
ATOM     46  N   UNL A   1      40.398  29.764  31.069  1.00  0.00    -0.354 N 
ATOM     47  C   UNL A   1      41.266  32.039  34.668  1.00  0.00     0.074 A 
ATOM     48  C   UNL A   1      40.196  32.967  34.959  1.00  0.00     0.031 C 
ATOM     49  C   UNL A   1      39.155  29.102  29.333  1.00  0.00     0.029 A 
ATOM     50  C   UNL A   1      40.436  28.894  30.005  1.00  0.00     0.049 A 
ATOM     51  H   UNL A   1      41.110  29.819  31.746  1.00  0.00     0.167 HD
ATOM     52  C   UNL A   1      42.354  31.856  35.455  1.00  0.00     0.034 A 
ATOM     53  C   UNL A   1      41.410  28.051  29.605  1.00  0.00     0.034 A 
ATOM     54  C   UNL A   1      43.419  30.937  35.140  1.00  0.00     0.049 A 
ATOM     55  C   UNL A   1      42.669  27.953  30.436  1.00  0.00     0.074 A 
ATOM     56  C   UNL A   1      44.577  30.685  35.852  1.00  0.00     0.029 A 
ATOM     57  N   UNL A   1      43.460  30.123  34.014  1.00  0.00    -0.354 N 
ATOM     58  N   UNL A   1      42.977  28.576  31.551  1.00  0.00    -0.248 NA
ATOM     59  C   UNL A   1      43.702  27.024  29.962  1.00  0.00     0.031 C 
ATOM     60  C   UNL A   1      45.357  29.788  35.115  1.00  0.00     0.029 A 
ATOM     61  C   UNL A   1      44.640  29.396  33.996  1.00  0.00     0.049 A 
ATOM     62  H   UNL A   1      42.754  30.071  33.329  1.00  0.00     0.167 HD
ATOM     63  C   UNL A   1      44.227  28.085  31.927  1.00  0.00     0.074 A 
ATOM     64  C   UNL A   1      44.596  27.097  30.936  1.00  0.00     0.031 C 
ATOM     65  C   UNL A   1      45.000  28.419  32.994  1.00  0.00     0.034 A 
BRANCH  52  66
ATOM     66  C   UNL A   1      42.461  32.698  36.703  1.00  0.00     0.023 A 
ATOM     67  C   UNL A   1      41.897  32.287  37.924  1.00  0.00     0.031 A 
ATOM     68  C   UNL A   1      43.122  33.939  36.670  1.00  0.00     0.131 A 
ATOM     69  C   UNL A   1      41.949  33.134  39.040  1.00  0.00     0.055 A 
ATOM     70  C   UNL A   1      43.247  34.738  37.808  1.00  0.00     0.041 A 
ATOM     71  F   UNL A   1      43.654  34.401  35.527  1.00  0.00    -0.206 F 
ATOM     72  C   UNL A   1      42.646  34.344  39.000  1.00  0.00     0.022 A 
BRANCH  69  73
ATOM     73  S   UNL A   1      40.962  32.704  40.500  1.00  0.00     0.124 S 
ATOM     74  O   UNL A   1      39.675  32.371  39.897  1.00  0.00    -0.237 OA
ATOM     75  O   UNL A   1      41.709  31.589  41.069  1.00  0.00    -0.237 OA
ATOM     76  O   UNL A   1      40.971  33.932  41.293  1.00  0.00    -0.744 OA
ENDBRANCH  69  73
ENDBRANCH  52  66
BRANCH  53  77
ATOM     77  C   UNL A   1      41.274  27.285  28.331  1.00  0.00     0.023 A 
ATOM     78  C   UNL A   1      40.941  25.921  28.325  1.00  0.00     0.031 A 
ATOM     79  C   UNL A   1      41.562  27.894  27.095  1.00  0.00     0.131 A 
ATOM     80  C   UNL A   1      40.971  25.198  27.121  1.00  0.00     0.055 A 
ATOM     81  C   UNL A   1      41.515  27.189  25.893  1.00  0.00     0.041 A 
ATOM     82  F   UNL A   1      41.901  29.192  27.039  1.00  0.00    -0.206 F 
ATOM     83  C   UNL A   1      41.236  25.827  25.903  1.00  0.00     0.022 A 
BRANCH  80  84
ATOM     84  S   UNL A   1      40.796  23.394  27.185  1.00  0.00     0.124 S 
ATOM     85  O   UNL A   1      39.347  23.240  27.240  1.00  0.00    -0.237 OA
ATOM     86  O   UNL A   1      41.440  22.982  25.941  1.00  0.00    -0.237 OA
ATOM     87  O   UNL A   1      41.511  23.026  28.405  1.00  0.00    -0.744 OA
ENDBRANCH  80  84
ENDBRANCH  53  77
BRANCH  65  88
ATOM     88  C   UNL A   1      46.297  27.662  33.169  1.00  0.00     0.023 A 
ATOM     89  C   UNL A   1      46.351  26.430  33.844  1.00  0.00     0.031 A 
ATOM     90  C   UNL A   1      47.504  28.200  32.686  1.00  0.00     0.131 A 
ATOM     91  C   UNL A   1      47.592  25.828  34.101  1.00  0.00     0.055 A 
ATOM     92  C   UNL A   1      48.725  27.549  32.862  1.00  0.00     0.041 A 
ATOM     93  F   UNL A   1      47.519  29.376  32.037  1.00  0.00    -0.206 F 
ATOM     94  C   UNL A   1      48.776  26.366  33.593  1.00  0.00     0.022 A 
BRANCH  91  95
ATOM     95  S   UNL A   1      47.650  24.421  35.244  1.00  0.00     0.124 S 
ATOM     96  O   UNL A   1      47.038  23.362  34.446  1.00  0.00    -0.237 OA
ATOM     97  O   UNL A   1      49.080  24.283  35.497  1.00  0.00    -0.237 OA
ATOM     98  O   UNL A   1      46.857  24.874  36.386  1.00  0.00    -0.744 OA
ENDBRANCH  91  95
ENDBRANCH  65  88
ENDBRANCH  39  40
ENDBRANCH  32  34
ENDBRANCH  31  32
ENDBRANCH  30  31
ENDBRANCH  29  30
ENDBRANCH  28  29
ENDBRANCH  27  28
ENDBRANCH   1  27
TORSDOF 24
ENDMDL
MODEL 2
REMARK VINA RESULT:      -9.8      2.747      3.029
REMARK SMILES O=C(OCCOCCOCCOCCOC(=O)c1ccc(-c2c3nc(c(-c4cc(S(=O)(=O)[O-])ccc4F)c4ccc([nH]4)c(-c4cc(S(=O)(=O)[O-])ccc4F)c4nc(c(-c5cc(S(=O)(=O)[O-])ccc5F)c5ccc2[nH]5)C=C4)C=C3)cc1)C1=Cc2ccc(Cl)c(Cl)c2O[C@@H]1C(F)(F)F
REMARK SMILES IDX 10 1 9 2 8 3 7 4 6 5 5 6 4 7 3 8 2 9 1 10 81 11 82 12 92 13
REMARK SMILES IDX 83 14 91 15 84 16 90 17 85 18 88 19 86 20 89 21 87 22 93 23
REMARK SMILES IDX 94 24 95 25 96 26 11 27 12 28 13 29 14 30 15 31 16 32 17 33
REMARK SMILES IDX 18 34 19 35 80 36 20 37 79 38 21 39 22 40 23 41 73 42 24 43
REMARK SMILES IDX 78 44 72 45 74 46 25 47 77 48 71 49 70 50 26 52 58 53 38 54
REMARK SMILES IDX 57 55 39 56 42 57 56 58 75 59 40 60 41 61 55 63 76 64 43 65
REMARK SMILES IDX 27 66 28 67 36 68 29 69 35 70 37 71 34 72 30 73 31 74 32 75
REMARK SMILES IDX 33 76 59 77 60 78 68 79 61 80 67 81 69 82 66 83 62 84 63 85
REMARK SMILES IDX 64 86 65 87 44 88 45 89 53 90 46 91 52 92 54 93 51 94 47 95
REMARK SMILES IDX 48 96 49 97 50 98
REMARK H PARENT 74 51 42 62
REMARK Flexibility Score: inf
ROOT
ATOM      1  C   UNL A   1      34.229  35.178  28.077  1.00  0.00     0.188 C 
ENDROOT
BRANCH   1   2
ATOM      2  O   UNL A   1      34.565  33.937  27.501  1.00  0.00    -0.377 OA
BRANCH   2   3
ATOM      3  C   UNL A   1      34.693  32.928  28.471  1.00  0.00     0.188 C 
BRANCH   3   4
ATOM      4  C   UNL A   1      34.348  31.517  27.983  1.00  0.00     0.188 C 
BRANCH   4   5
ATOM      5  O   UNL A   1      33.397  31.207  26.906  1.00  0.00    -0.376 OA
BRANCH   5   6
ATOM      6  C   UNL A   1      31.970  30.368  26.845  1.00  0.00     0.202 C 
BRANCH   6   7
ATOM      7  C   UNL A   1      31.717  28.210  26.627  1.00  0.00     0.261 C 
BRANCH   7   8
ATOM      8  O   UNL A   1      30.983  27.497  25.512  1.00  0.00    -0.460 OA
BRANCH   8   9
ATOM      9  C   UNL A   1      31.096  26.168  25.599  1.00  0.00     0.338 C 
ATOM     10  O   UNL A   1      30.650  25.437  26.450  1.00  0.00    -0.246 OA
BRANCH   9  11
ATOM     11  C   UNL A   1      32.256  26.025  24.732  1.00  0.00     0.087 C 
ATOM     12  C   UNL A   1      33.429  25.428  25.377  1.00  0.00     0.027 C 
ATOM     13  C   UNL A   1      31.233  25.192  23.340  1.00  0.00     0.316 C 
ATOM     14  C   UNL A   1      33.962  23.725  25.141  1.00  0.00     0.019 A 
ATOM     15  O   UNL A   1      31.677  23.300  23.168  1.00  0.00    -0.474 OA
ATOM     16  C   UNL A   1      35.056  23.273  25.826  1.00  0.00     0.013 A 
ATOM     17  C   UNL A   1      33.068  22.603  24.158  1.00  0.00     0.148 A 
ATOM     18  C   UNL A   1      35.359  21.913  25.638  1.00  0.00     0.023 A 
ATOM     19  C   UNL A   1      33.396  21.265  24.105  1.00  0.00     0.102 A 
ATOM     20  C   UNL A   1      34.580  20.964  24.841  1.00  0.00     0.063 A 
ATOM     21  Cl  UNL A   1      32.419  20.064  23.383  1.00  0.00    -0.079 Cl
ATOM     22  Cl  UNL A   1      35.232  19.347  24.844  1.00  0.00    -0.083 Cl
BRANCH  13  23
ATOM     23  C   UNL A   1      31.440  26.508  22.317  1.00  0.00     0.430 C 
ATOM     24  F   UNL A   1      32.610  27.172  22.346  1.00  0.00    -0.167 F 
ATOM     25  F   UNL A   1      31.381  26.014  21.040  1.00  0.00    -0.167 F 
ATOM     26  F   UNL A   1      30.446  27.432  22.357  1.00  0.00    -0.167 F 
ENDBRANCH  13  23
ENDBRANCH   9  11
ENDBRANCH   8   9
ENDBRANCH   7   8
ENDBRANCH   6   7
ENDBRANCH   5   6
ENDBRANCH   4   5
ENDBRANCH   3   4
ENDBRANCH   2   3
ENDBRANCH   1   2
BRANCH   1  27
ATOM     27  C   UNL A   1      33.192  35.149  29.204  1.00  0.00     0.188 C 
BRANCH  27  28
ATOM     28  O   UNL A   1      32.639  36.323  29.772  1.00  0.00    -0.376 OA
BRANCH  28  29
ATOM     29  C   UNL A   1      33.027  36.780  31.053  1.00  0.00     0.202 C 
BRANCH  29  30
ATOM     30  C   UNL A   1      32.822  35.949  32.330  1.00  0.00     0.261 C 
BRANCH  30  31
ATOM     31  O   UNL A   1      33.993  35.387  32.932  1.00  0.00    -0.460 OA
BRANCH  31  32
ATOM     32  C   UNL A   1      34.030  34.036  32.938  1.00  0.00     0.338 C 
ATOM     33  O   UNL A   1      33.115  33.290  33.243  1.00  0.00    -0.246 OA
BRANCH  32  34
ATOM     34  C   UNL A   1      35.288  33.561  32.318  1.00  0.00     0.060 A 
ATOM     35  C   UNL A   1      35.786  32.320  32.743  1.00  0.00     0.016 A 
ATOM     36  C   UNL A   1      35.985  34.309  31.367  1.00  0.00     0.016 A 
ATOM     37  C   UNL A   1      37.009  31.856  32.280  1.00  0.00     0.010 A 
ATOM     38  C   UNL A   1      37.240  33.863  30.933  1.00  0.00     0.010 A 
ATOM     39  C   UNL A   1      37.778  32.665  31.438  1.00  0.00    -0.014 A 
BRANCH  39  40
ATOM     40  C   UNL A   1      39.223  32.358  31.324  1.00  0.00     0.031 A 
ATOM     41  C   UNL A   1      40.178  33.099  32.223  1.00  0.00     0.074 A 
ATOM     42  C   UNL A   1      39.660  31.354  30.543  1.00  0.00     0.049 A 
ATOM     43  N   UNL A   1      41.476  32.987  32.331  1.00  0.00    -0.248 NA
ATOM     44  C   UNL A   1      39.585  34.102  33.125  1.00  0.00     0.031 C 
ATOM     45  C   UNL A   1      38.812  30.522  29.690  1.00  0.00     0.029 A 
ATOM     46  N   UNL A   1      40.923  30.857  30.351  1.00  0.00    -0.354 N 
ATOM     47  C   UNL A   1      41.853  33.897  33.313  1.00  0.00     0.074 A 
ATOM     48  C   UNL A   1      40.654  34.593  33.728  1.00  0.00     0.031 C 
ATOM     49  C   UNL A   1      39.582  29.619  29.061  1.00  0.00     0.029 A 
ATOM     50  C   UNL A   1      40.979  29.838  29.431  1.00  0.00     0.049 A 
ATOM     51  H   UNL A   1      41.715  31.199  30.826  1.00  0.00     0.167 HD
ATOM     52  C   UNL A   1      43.083  34.116  33.837  1.00  0.00     0.034 A 
ATOM     53  C   UNL A   1      42.042  29.180  28.923  1.00  0.00     0.034 A 
ATOM     54  C   UNL A   1      44.269  33.424  33.399  1.00  0.00     0.049 A 
ATOM     55  C   UNL A   1      43.420  29.528  29.436  1.00  0.00     0.074 A 
ATOM     56  C   UNL A   1      45.570  33.579  33.842  1.00  0.00     0.029 A 
ATOM     57  N   UNL A   1      44.300  32.446  32.411  1.00  0.00    -0.354 N 
ATOM     58  N   UNL A   1      43.767  30.401  30.356  1.00  0.00    -0.248 NA
ATOM     59  C   UNL A   1      44.547  28.789  28.855  1.00  0.00     0.031 C 
ATOM     60  C   UNL A   1      46.397  32.764  33.064  1.00  0.00     0.029 A 
ATOM     61  C   UNL A   1      45.603  32.018  32.208  1.00  0.00     0.049 A 
ATOM     62  H   UNL A   1      43.513  32.109  31.927  1.00  0.00     0.167 HD
ATOM     63  C   UNL A   1      45.151  30.287  30.485  1.00  0.00     0.074 A 
ATOM     64  C   UNL A   1      45.564  29.243  29.570  1.00  0.00     0.031 C 
ATOM     65  C   UNL A   1      46.003  30.981  31.285  1.00  0.00     0.034 A 
BRANCH  52  66
ATOM     66  C   UNL A   1      43.209  35.177  34.904  1.00  0.00     0.023 A 
ATOM     67  C   UNL A   1      43.018  34.883  36.265  1.00  0.00     0.031 A 
ATOM     68  C   UNL A   1      43.507  36.506  34.555  1.00  0.00     0.131 A 
ATOM     69  C   UNL A   1      43.063  35.912  37.217  1.00  0.00     0.055 A 
ATOM     70  C   UNL A   1      43.639  37.509  35.516  1.00  0.00     0.041 A 
ATOM     71  F   UNL A   1      43.670  36.856  33.269  1.00  0.00    -0.206 F 
ATOM     72  C   UNL A   1      43.403  37.218  36.856  1.00  0.00     0.022 A 
BRANCH  69  73
ATOM     73  S   UNL A   1      42.523  35.550  38.910  1.00  0.00     0.124 S 
ATOM     74  O   UNL A   1      41.385  34.666  38.673  1.00  0.00    -0.237 OA
ATOM     75  O   UNL A   1      43.706  34.926  39.493  1.00  0.00    -0.237 OA
ATOM     76  O   UNL A   1      42.180  36.864  39.449  1.00  0.00    -0.744 OA
ENDBRANCH  69  73
ENDBRANCH  52  66
BRANCH  53  77
ATOM     77  C   UNL A   1      41.864  28.181  27.829  1.00  0.00     0.023 A 
ATOM     78  C   UNL A   1      41.564  26.837  28.101  1.00  0.00     0.031 A 
ATOM     79  C   UNL A   1      42.080  28.544  26.486  1.00  0.00     0.131 A 
ATOM     80  C   UNL A   1      41.555  25.896  27.058  1.00  0.00     0.055 A 
ATOM     81  C   UNL A   1      41.992  27.620  25.445  1.00  0.00     0.041 A 
ATOM     82  F   UNL A   1      42.384  29.812  26.165  1.00  0.00    -0.206 F 
ATOM     83  C   UNL A   1      41.747  26.282  25.730  1.00  0.00     0.022 A 
BRANCH  80  84
ATOM     84  S   UNL A   1      41.426  24.135  27.477  1.00  0.00     0.124 S 
ATOM     85  O   UNL A   1      42.205  24.067  28.708  1.00  0.00    -0.237 OA
ATOM     86  O   UNL A   1      39.984  23.962  27.619  1.00  0.00    -0.237 OA
ATOM     87  O   UNL A   1      42.020  23.467  26.322  1.00  0.00    -0.744 OA
ENDBRANCH  80  84
ENDBRANCH  53  77
BRANCH  65  88
ATOM     88  C   UNL A   1      47.462  30.586  31.242  1.00  0.00     0.023 A 
ATOM     89  C   UNL A   1      48.355  31.148  30.312  1.00  0.00     0.031 A 
ATOM     90  C   UNL A   1      47.958  29.605  32.119  1.00  0.00     0.131 A 
ATOM     91  C   UNL A   1      49.665  30.657  30.218  1.00  0.00     0.055 A 
ATOM     92  C   UNL A   1      49.289  29.188  32.084  1.00  0.00     0.041 A 
ATOM     93  F   UNL A   1      47.154  29.028  33.027  1.00  0.00    -0.206 F 
ATOM     94  C   UNL A   1      50.146  29.698  31.113  1.00  0.00     0.022 A 
BRANCH  91  95
ATOM     95  S   UNL A   1      50.682  31.171  28.807  1.00  0.00     0.124 S 
ATOM     96  O   UNL A   1      52.015  30.755  29.230  1.00  0.00    -0.237 OA
ATOM     97  O   UNL A   1      50.096  30.413  27.706  1.00  0.00    -0.237 OA
ATOM     98  O   UNL A   1      50.474  32.617  28.744  1.00  0.00    -0.744 OA
ENDBRANCH  91  95
ENDBRANCH  65  88
ENDBRANCH  39  40
ENDBRANCH  32  34
ENDBRANCH  31  32
ENDBRANCH  30  31
ENDBRANCH  29  30
ENDBRANCH  28  29
ENDBRANCH  27  28
ENDBRANCH   1  27
TORSDOF 24
ENDMDL
MODEL 3
REMARK VINA RESULT:      -9.6      6.156      7.134
REMARK SMILES O=C(OCCOCCOCCOCCOC(=O)c1ccc(-c2c3nc(c(-c4cc(S(=O)(=O)[O-])ccc4F)c4ccc([nH]4)c(-c4cc(S(=O)(=O)[O-])ccc4F)c4nc(c(-c5cc(S(=O)(=O)[O-])ccc5F)c5ccc2[nH]5)C=C4)C=C3)cc1)C1=Cc2ccc(Cl)c(Cl)c2O[C@@H]1C(F)(F)F
REMARK SMILES IDX 10 1 9 2 8 3 7 4 6 5 5 6 4 7 3 8 2 9 1 10 81 11 82 12 92 13
REMARK SMILES IDX 83 14 91 15 84 16 90 17 85 18 88 19 86 20 89 21 87 22 93 23
REMARK SMILES IDX 94 24 95 25 96 26 11 27 12 28 13 29 14 30 15 31 16 32 17 33
REMARK SMILES IDX 18 34 19 35 80 36 20 37 79 38 21 39 22 40 23 41 73 42 24 43
REMARK SMILES IDX 78 44 72 45 74 46 25 47 77 48 71 49 70 50 26 52 58 53 38 54
REMARK SMILES IDX 57 55 39 56 42 57 56 58 75 59 40 60 41 61 55 63 76 64 43 65
REMARK SMILES IDX 27 66 28 67 36 68 29 69 35 70 37 71 34 72 30 73 31 74 32 75
REMARK SMILES IDX 33 76 59 77 60 78 68 79 61 80 67 81 69 82 66 83 62 84 63 85
REMARK SMILES IDX 64 86 65 87 44 88 45 89 53 90 46 91 52 92 54 93 51 94 47 95
REMARK SMILES IDX 48 96 49 97 50 98
REMARK H PARENT 74 51 42 62
REMARK Flexibility Score: inf
ROOT
ATOM      1  C   UNL A   1      35.020  34.031  28.643  1.00  0.00     0.188 C 
ENDROOT
BRANCH   1   2
ATOM      2  O   UNL A   1      35.271  33.126  27.593  1.00  0.00    -0.377 OA
BRANCH   2   3
ATOM      3  C   UNL A   1      35.658  31.863  28.073  1.00  0.00     0.188 C 
BRANCH   3   4
ATOM      4  C   UNL A   1      34.846  30.686  27.521  1.00  0.00     0.188 C 
BRANCH   4   5
ATOM      5  O   UNL A   1      33.527  30.798  26.885  1.00  0.00    -0.376 OA
BRANCH   5   6
ATOM      6  C   UNL A   1      32.053  30.098  27.174  1.00  0.00     0.202 C 
BRANCH   6   7
ATOM      7  C   UNL A   1      31.499  28.010  26.853  1.00  0.00     0.261 C 
BRANCH   7   8
ATOM      8  O   UNL A   1      31.168  27.360  25.527  1.00  0.00    -0.460 OA
BRANCH   8   9
ATOM      9  C   UNL A   1      31.222  26.025  25.590  1.00  0.00     0.338 C 
ATOM     10  O   UNL A   1      30.726  25.299  26.416  1.00  0.00    -0.246 OA
BRANCH   9  11
ATOM     11  C   UNL A   1      32.394  25.849  24.745  1.00  0.00     0.087 C 
ATOM     12  C   UNL A   1      33.527  25.194  25.404  1.00  0.00     0.027 C 
ATOM     13  C   UNL A   1      31.367  25.082  23.318  1.00  0.00     0.316 C 
ATOM     14  C   UNL A   1      33.994  23.474  25.149  1.00  0.00     0.019 A 
ATOM     15  O   UNL A   1      31.737  23.176  23.123  1.00  0.00    -0.474 OA
ATOM     16  C   UNL A   1      35.055  22.967  25.849  1.00  0.00     0.013 A 
ATOM     17  C   UNL A   1      33.077  22.406  24.129  1.00  0.00     0.148 A 
ATOM     18  C   UNL A   1      35.305  21.598  25.645  1.00  0.00     0.023 A 
ATOM     19  C   UNL A   1      33.350  21.057  24.060  1.00  0.00     0.102 A 
ATOM     20  C   UNL A   1      34.506  20.695  24.815  1.00  0.00     0.063 A 
ATOM     21  Cl  UNL A   1      32.341  19.909  23.298  1.00  0.00    -0.079 Cl
ATOM     22  Cl  UNL A   1      35.091  19.052  24.805  1.00  0.00    -0.083 Cl
BRANCH  13  23
ATOM     23  C   UNL A   1      31.650  26.405  22.322  1.00  0.00     0.430 C 
ATOM     24  F   UNL A   1      32.866  26.979  22.340  1.00  0.00    -0.167 F 
ATOM     25  F   UNL A   1      31.528  25.949  21.035  1.00  0.00    -0.167 F 
ATOM     26  F   UNL A   1      30.728  27.398  22.407  1.00  0.00    -0.167 F 
ENDBRANCH  13  23
ENDBRANCH   9  11
ENDBRANCH   8   9
ENDBRANCH   7   8
ENDBRANCH   6   7
ENDBRANCH   5   6
ENDBRANCH   4   5
ENDBRANCH   3   4
ENDBRANCH   2   3
ENDBRANCH   1   2
BRANCH   1  27
ATOM     27  C   UNL A   1      34.821  33.424  30.035  1.00  0.00     0.188 C 
BRANCH  27  28
ATOM     28  O   UNL A   1      34.619  34.209  31.196  1.00  0.00    -0.376 OA
BRANCH  28  29
ATOM     29  C   UNL A   1      35.622  34.347  32.183  1.00  0.00     0.202 C 
BRANCH  29  30
ATOM     30  C   UNL A   1      35.907  33.265  33.237  1.00  0.00     0.261 C 
BRANCH  30  31
ATOM     31  O   UNL A   1      37.192  32.635  33.190  1.00  0.00    -0.460 OA
BRANCH  31  32
ATOM     32  C   UNL A   1      37.220  31.462  32.521  1.00  0.00     0.338 C 
ATOM     33  O   UNL A   1      36.283  30.697  32.365  1.00  0.00    -0.246 OA
BRANCH  32  34
ATOM     34  C   UNL A   1      38.509  31.316  31.807  1.00  0.00     0.060 A 
ATOM     35  C   UNL A   1      39.682  31.446  32.566  1.00  0.00     0.016 A 
ATOM     36  C   UNL A   1      38.584  31.083  30.432  1.00  0.00     0.016 A 
ATOM     37  C   UNL A   1      40.925  31.420  31.949  1.00  0.00     0.010 A 
ATOM     38  C   UNL A   1      39.835  31.102  29.803  1.00  0.00     0.010 A 
ATOM     39  C   UNL A   1      41.002  31.331  30.556  1.00  0.00    -0.014 A 
BRANCH  39  40
ATOM     40  C   UNL A   1      42.270  31.746  29.911  1.00  0.00     0.031 A 
ATOM     41  C   UNL A   1      42.493  33.215  29.669  1.00  0.00     0.074 A 
ATOM     42  C   UNL A   1      43.250  30.857  29.671  1.00  0.00     0.049 A 
ATOM     43  N   UNL A   1      43.527  33.825  29.149  1.00  0.00    -0.248 NA
ATOM     44  C   UNL A   1      41.402  34.120  30.070  1.00  0.00     0.031 C 
ATOM     45  C   UNL A   1      43.166  29.422  29.939  1.00  0.00     0.029 A 
ATOM     46  N   UNL A   1      44.510  31.033  29.162  1.00  0.00    -0.354 N 
ATOM     47  C   UNL A   1      43.214  35.181  29.167  1.00  0.00     0.074 A 
ATOM     48  C   UNL A   1      41.872  35.298  29.695  1.00  0.00     0.031 C 
ATOM     49  C   UNL A   1      44.328  28.847  29.585  1.00  0.00     0.029 A 
ATOM     50  C   UNL A   1      45.217  29.862  29.026  1.00  0.00     0.049 A 
ATOM     51  H   UNL A   1      44.873  31.915  28.916  1.00  0.00     0.167 HD
ATOM     52  C   UNL A   1      43.984  36.232  28.798  1.00  0.00     0.034 A 
ATOM     53  C   UNL A   1      46.430  29.636  28.482  1.00  0.00     0.034 A 
ATOM     54  C   UNL A   1      45.313  36.094  28.258  1.00  0.00     0.049 A 
ATOM     55  C   UNL A   1      47.222  30.815  27.964  1.00  0.00     0.074 A 
ATOM     56  C   UNL A   1      46.177  37.086  27.830  1.00  0.00     0.029 A 
ATOM     57  N   UNL A   1      45.972  34.885  28.066  1.00  0.00    -0.354 N 
ATOM     58  N   UNL A   1      46.910  32.092  27.973  1.00  0.00    -0.248 NA
ATOM     59  C   UNL A   1      48.536  30.523  27.379  1.00  0.00     0.031 C 
ATOM     60  C   UNL A   1      47.316  36.476  27.300  1.00  0.00     0.029 A 
ATOM     61  C   UNL A   1      47.215  35.108  27.494  1.00  0.00     0.049 A 
ATOM     62  H   UNL A   1      45.609  34.002  28.302  1.00  0.00     0.167 HD
ATOM     63  C   UNL A   1      48.009  32.755  27.426  1.00  0.00     0.074 A 
ATOM     64  C   UNL A   1      48.995  31.738  27.127  1.00  0.00     0.031 C 
ATOM     65  C   UNL A   1      48.187  34.082  27.191  1.00  0.00     0.034 A 
BRANCH  52  66
ATOM     66  C   UNL A   1      43.386  37.613  28.922  1.00  0.00     0.023 A 
ATOM     67  C   UNL A   1      43.680  38.451  30.013  1.00  0.00     0.031 A 
ATOM     68  C   UNL A   1      42.496  38.094  27.946  1.00  0.00     0.131 A 
ATOM     69  C   UNL A   1      43.042  39.693  30.133  1.00  0.00     0.055 A 
ATOM     70  C   UNL A   1      41.932  39.369  28.026  1.00  0.00     0.041 A 
ATOM     71  F   UNL A   1      42.151  37.330  26.897  1.00  0.00    -0.206 F 
ATOM     72  C   UNL A   1      42.193  40.172  29.133  1.00  0.00     0.022 A 
BRANCH  69  73
ATOM     73  S   UNL A   1      43.217  40.610  31.689  1.00  0.00     0.124 S 
ATOM     74  O   UNL A   1      43.694  39.566  32.592  1.00  0.00    -0.237 OA
ATOM     75  O   UNL A   1      44.185  41.643  31.339  1.00  0.00    -0.237 OA
ATOM     76  O   UNL A   1      41.863  41.088  31.960  1.00  0.00    -0.744 OA
ENDBRANCH  69  73
ENDBRANCH  52  66
BRANCH  53  77
ATOM     77  C   UNL A   1      46.948  28.244  28.332  1.00  0.00     0.023 A 
ATOM     78  C   UNL A   1      46.598  27.442  27.234  1.00  0.00     0.031 A 
ATOM     79  C   UNL A   1      47.738  27.663  29.342  1.00  0.00     0.131 A 
ATOM     80  C   UNL A   1      46.978  26.091  27.205  1.00  0.00     0.055 A 
ATOM     81  C   UNL A   1      48.179  26.341  29.269  1.00  0.00     0.041 A 
ATOM     82  F   UNL A   1      48.092  28.376  30.424  1.00  0.00    -0.206 F 
ATOM     83  C   UNL A   1      47.783  25.541  28.204  1.00  0.00     0.022 A 
BRANCH  80  84
ATOM     84  S   UNL A   1      46.290  25.022  25.910  1.00  0.00     0.124 S 
ATOM     85  O   UNL A   1      44.857  25.221  26.094  1.00  0.00    -0.237 OA
ATOM     86  O   UNL A   1      46.869  25.600  24.701  1.00  0.00    -0.237 OA
ATOM     87  O   UNL A   1      46.790  23.696  26.264  1.00  0.00    -0.744 OA
ENDBRANCH  80  84
ENDBRANCH  53  77
BRANCH  65  88
ATOM     88  C   UNL A   1      49.526  34.509  26.634  1.00  0.00     0.023 A 
ATOM     89  C   UNL A   1      50.685  34.538  27.430  1.00  0.00     0.031 A 
ATOM     90  C   UNL A   1      49.636  34.930  25.297  1.00  0.00     0.131 A 
ATOM     91  C   UNL A   1      51.875  35.068  26.910  1.00  0.00     0.055 A 
ATOM     92  C   UNL A   1      50.847  35.367  24.758  1.00  0.00     0.041 A 
ATOM     93  F   UNL A   1      48.565  34.930  24.487  1.00  0.00    -0.206 F 
ATOM     94  C   UNL A   1      51.971  35.459  25.573  1.00  0.00     0.022 A 
BRANCH  91  95
ATOM     95  S   UNL A   1      53.249  35.387  28.051  1.00  0.00     0.124 S 
ATOM     96  O   UNL A   1      54.315  35.777  27.133  1.00  0.00    -0.237 OA
ATOM     97  O   UNL A   1      52.714  36.450  28.896  1.00  0.00    -0.237 OA
ATOM     98  O   UNL A   1      53.445  34.102  28.719  1.00  0.00    -0.744 OA
ENDBRANCH  91  95
ENDBRANCH  65  88
ENDBRANCH  39  40
ENDBRANCH  32  34
ENDBRANCH  31  32
ENDBRANCH  30  31
ENDBRANCH  29  30
ENDBRANCH  28  29
ENDBRANCH  27  28
ENDBRANCH   1  27
TORSDOF 24
ENDMDL
