MODEL 1
REMARK VINA RESULT:      -8.0      0.000      0.000
REMARK SMILES O=C(OCCOCCOCCOCCOC(=O)c1ccc(Br)c(NC(=S)NC(=O)c2cccs2)c1)c1ccc(-c2c3nc(c(-c4cc(S(=O)(=O)[O-])ccc4F)c4ccc([nH]4)c(-c4cc(S(=O)(=O)[O-])ccc4F)c4nc(c(-c5cc(S(=O)(=O)[O-])ccc5F)c5ccc2[nH]5)C=C4)C=C3)cc1
REMARK SMILES IDX 10 1 9 2 8 3 7 4 6 5 5 6 4 7 3 8 2 9 1 10 36 11 37 12 98 13
REMARK SMILES IDX 38 14 97 15 39 16 40 17 41 18 91 19 42 20 96 21 90 22 92 23
REMARK SMILES IDX 43 24 95 25 89 26 88 27 44 29 76 30 56 31 75 32 57 33 60 34
REMARK SMILES IDX 74 35 93 36 58 37 59 38 73 40 94 41 61 42 45 43 46 44 54 45
REMARK SMILES IDX 47 46 53 47 55 48 52 49 48 50 49 51 50 52 51 53 77 54 78 55
REMARK SMILES IDX 86 56 79 57 85 58 87 59 84 60 80 61 81 62 82 63 83 64 62 65
REMARK SMILES IDX 63 66 71 67 64 68 70 69 72 70 69 71 65 72 66 73 67 74 68 75
REMARK SMILES IDX 11 76 12 77 13 78 14 79 15 80 16 81 17 82 18 83 19 84 35 85
REMARK SMILES IDX 20 86 23 87 21 88 22 89 24 90 25 92 26 93 27 94 28 95 29 97
REMARK SMILES IDX 30 98 31 99 34 100 32 101 33 102
REMARK H PARENT 92 28 60 39 24 91 27 96
REMARK Flexibility Score: inf
ROOT
ATOM      1  C   UNL A   1      38.134  22.692  25.401  1.00  0.00     0.188 C 
ENDROOT
BRANCH   1   2
ATOM      2  O   UNL A   1      38.661  21.506  25.964  1.00  0.00    -0.377 OA
BRANCH   2   3
ATOM      3  C   UNL A   1      40.028  21.584  26.292  1.00  0.00     0.188 C 
BRANCH   3   4
ATOM      4  C   UNL A   1      40.429  22.640  27.324  1.00  0.00     0.188 C 
BRANCH   4   5
ATOM      5  O   UNL A   1      41.126  23.770  26.813  1.00  0.00    -0.376 OA
BRANCH   5   6
ATOM      6  C   UNL A   1      42.381  23.666  26.132  1.00  0.00     0.202 C 
BRANCH   6   7
ATOM      7  C   UNL A   1      43.136  24.949  25.804  1.00  0.00     0.261 C 
BRANCH   7   8
ATOM      8  O   UNL A   1      43.637  25.704  26.917  1.00  0.00    -0.460 OA
BRANCH   8   9
ATOM      9  C   UNL A   1      44.738  25.533  27.686  1.00  0.00     0.338 C 
ATOM     10  O   UNL A   1      45.689  24.925  27.192  1.00  0.00    -0.246 OA
BRANCH   9  11
ATOM     11  C   UNL A   1      44.850  25.949  29.117  1.00  0.00     0.060 A 
ATOM     12  C   UNL A   1      46.019  26.367  29.744  1.00  0.00     0.016 A 
ATOM     13  C   UNL A   1      43.664  26.029  29.859  1.00  0.00     0.016 A 
ATOM     14  C   UNL A   1      46.074  26.774  31.049  1.00  0.00     0.010 A 
ATOM     15  C   UNL A   1      43.686  26.462  31.187  1.00  0.00     0.010 A 
ATOM     16  C   UNL A   1      44.907  26.800  31.777  1.00  0.00    -0.014 A 
BRANCH  16  17
ATOM     17  C   UNL A   1      45.108  26.917  33.215  1.00  0.00     0.031 A 
ATOM     18  C   UNL A   1      44.598  28.168  33.843  1.00  0.00     0.074 A 
ATOM     19  C   UNL A   1      45.486  25.835  33.915  1.00  0.00     0.049 A 
ATOM     20  N   UNL A   1      44.709  28.574  35.071  1.00  0.00    -0.248 NA
ATOM     21  C   UNL A   1      43.845  29.086  32.963  1.00  0.00     0.031 C 
ATOM     22  C   UNL A   1      45.733  24.502  33.351  1.00  0.00     0.029 A 
ATOM     23  N   UNL A   1      45.690  25.675  35.252  1.00  0.00    -0.354 N 
ATOM     24  C   UNL A   1      44.091  29.815  35.099  1.00  0.00     0.074 A 
ATOM     25  C   UNL A   1      43.609  30.104  33.771  1.00  0.00     0.031 C 
ATOM     26  C   UNL A   1      46.080  23.666  34.342  1.00  0.00     0.029 A 
ATOM     27  C   UNL A   1      46.161  24.427  35.581  1.00  0.00     0.049 A 
ATOM     28  H   UNL A   1      45.518  26.381  35.915  1.00  0.00     0.167 HD
ATOM     29  C   UNL A   1      43.968  30.635  36.164  1.00  0.00     0.034 A 
ATOM     30  C   UNL A   1      46.662  23.999  36.752  1.00  0.00     0.034 A 
ATOM     31  C   UNL A   1      44.491  30.279  37.453  1.00  0.00     0.049 A 
ATOM     32  C   UNL A   1      46.682  25.002  37.880  1.00  0.00     0.074 A 
ATOM     33  C   UNL A   1      44.529  31.031  38.607  1.00  0.00     0.029 A 
ATOM     34  N   UNL A   1      45.085  29.053  37.743  1.00  0.00    -0.354 N 
ATOM     35  N   UNL A   1      46.218  26.234  37.896  1.00  0.00    -0.248 NA
ATOM     36  C   UNL A   1      47.293  24.570  39.137  1.00  0.00     0.031 C 
ATOM     37  C   UNL A   1      45.232  30.297  39.566  1.00  0.00     0.029 A 
ATOM     38  C   UNL A   1      45.530  29.041  39.049  1.00  0.00     0.049 A 
ATOM     39  H   UNL A   1      45.175  28.305  37.110  1.00  0.00     0.167 HD
ATOM     40  C   UNL A   1      46.445  26.712  39.181  1.00  0.00     0.074 A 
ATOM     41  C   UNL A   1      47.079  25.627  39.908  1.00  0.00     0.031 C 
ATOM     42  C   UNL A   1      46.156  27.925  39.721  1.00  0.00     0.034 A 
BRANCH  29  43
ATOM     43  C   UNL A   1      43.386  31.996  35.911  1.00  0.00     0.023 A 
ATOM     44  C   UNL A   1      42.005  32.248  35.988  1.00  0.00     0.031 A 
ATOM     45  C   UNL A   1      44.225  33.035  35.472  1.00  0.00     0.131 A 
ATOM     46  C   UNL A   1      41.499  33.484  35.560  1.00  0.00     0.055 A 
ATOM     47  C   UNL A   1      43.725  34.292  35.140  1.00  0.00     0.041 A 
ATOM     48  F   UNL A   1      45.543  32.830  35.320  1.00  0.00    -0.206 F 
ATOM     49  C   UNL A   1      42.352  34.519  35.169  1.00  0.00     0.022 A 
BRANCH  46  50
ATOM     50  S   UNL A   1      39.706  33.659  35.348  1.00  0.00     0.124 S 
ATOM     51  O   UNL A   1      39.517  35.085  35.607  1.00  0.00    -0.237 OA
ATOM     52  O   UNL A   1      39.507  33.231  33.968  1.00  0.00    -0.237 OA
ATOM     53  O   UNL A   1      39.152  32.768  36.365  1.00  0.00    -0.744 OA
ENDBRANCH  46  50
ENDBRANCH  29  43
BRANCH  30  54
ATOM     54  C   UNL A   1      47.259  22.641  36.888  1.00  0.00     0.023 A 
ATOM     55  C   UNL A   1      46.542  21.590  37.477  1.00  0.00     0.031 A 
ATOM     56  C   UNL A   1      48.590  22.388  36.502  1.00  0.00     0.131 A 
ATOM     57  C   UNL A   1      47.175  20.362  37.725  1.00  0.00     0.055 A 
ATOM     58  C   UNL A   1      49.193  21.142  36.683  1.00  0.00     0.041 A 
ATOM     59  F   UNL A   1      49.336  23.357  35.944  1.00  0.00    -0.206 F 
ATOM     60  C   UNL A   1      48.489  20.125  37.316  1.00  0.00     0.022 A 
BRANCH  57  61
ATOM     61  S   UNL A   1      46.297  19.125  38.719  1.00  0.00     0.124 S 
ATOM     62  O   UNL A   1      45.339  18.600  37.753  1.00  0.00    -0.237 OA
ATOM     63  O   UNL A   1      47.377  18.225  39.107  1.00  0.00    -0.237 OA
ATOM     64  O   UNL A   1      45.721  19.913  39.807  1.00  0.00    -0.744 OA
ENDBRANCH  57  61
ENDBRANCH  30  54
BRANCH  42  65
ATOM     65  C   UNL A   1      46.460  28.103  41.183  1.00  0.00     0.023 A 
ATOM     66  C   UNL A   1      47.716  28.537  41.631  1.00  0.00     0.031 A 
ATOM     67  C   UNL A   1      45.459  27.850  42.138  1.00  0.00     0.131 A 
ATOM     68  C   UNL A   1      47.959  28.644  43.006  1.00  0.00     0.055 A 
ATOM     69  C   UNL A   1      45.679  28.048  43.498  1.00  0.00     0.041 A 
ATOM     70  F   UNL A   1      44.242  27.427  41.758  1.00  0.00    -0.206 F 
ATOM     71  C   UNL A   1      46.940  28.432  43.940  1.00  0.00     0.022 A 
BRANCH  68  72
ATOM     72  S   UNL A   1      49.656  28.944  43.560  1.00  0.00     0.124 S 
ATOM     73  O   UNL A   1      49.810  27.945  44.614  1.00  0.00    -0.237 OA
ATOM     74  O   UNL A   1      50.429  28.710  42.344  1.00  0.00    -0.237 OA
ATOM     75  O   UNL A   1      49.626  30.331  44.019  1.00  0.00    -0.744 OA
ENDBRANCH  68  72
ENDBRANCH  42  65
ENDBRANCH  16  17
ENDBRANCH   9  11
ENDBRANCH   8   9
ENDBRANCH   7   8
ENDBRANCH   6   7
ENDBRANCH   5   6
ENDBRANCH   4   5
ENDBRANCH   3   4
ENDBRANCH   2   3
ENDBRANCH   1   2
BRANCH   1  76
ATOM     76  C   UNL A   1      37.039  23.509  26.171  1.00  0.00     0.188 C 
BRANCH  76  77
ATOM     77  O   UNL A   1      35.732  23.020  26.027  1.00  0.00    -0.376 OA
BRANCH  77  78
ATOM     78  C   UNL A   1      35.586  21.612  26.108  1.00  0.00     0.202 C 
BRANCH  78  79
ATOM     79  C   UNL A   1      35.176  20.707  24.899  1.00  0.00     0.261 C 
BRANCH  79  80
ATOM     80  O   UNL A   1      34.119  19.717  25.075  1.00  0.00    -0.460 OA
BRANCH  80  81
ATOM     81  C   UNL A   1      32.813  20.032  24.861  1.00  0.00     0.338 C 
ATOM     82  O   UNL A   1      31.985  19.170  24.605  1.00  0.00    -0.246 OA
BRANCH  81  83
ATOM     83  C   UNL A   1      32.563  21.657  24.727  1.00  0.00     0.062 A 
ATOM     84  C   UNL A   1      31.916  22.025  26.388  1.00  0.00     0.017 A 
ATOM     85  C   UNL A   1      33.209  23.331  23.716  1.00  0.00     0.043 A 
ATOM     86  C   UNL A   1      31.932  23.732  26.901  1.00  0.00     0.019 A 
ATOM     87  C   UNL A   1      33.040  24.883  24.227  1.00  0.00     0.055 A 
ATOM     88  C   UNL A   1      32.462  25.079  25.844  1.00  0.00     0.041 A 
ATOM     89  Br  UNL A   1      32.157  26.843  26.469  1.00  0.00    -0.049 Br
BRANCH  87  90
ATOM     90  N   UNL A   1      32.991  25.717  23.080  1.00  0.00    -0.331 N 
ATOM     91  H   UNL A   1      33.861  26.079  22.797  1.00  0.00     0.169 HD
BRANCH  90  92
ATOM     92  C   UNL A   1      31.909  26.104  22.287  1.00  0.00     0.177 C 
ATOM     93  S   UNL A   1      32.132  25.968  20.623  1.00  0.00    -0.040 S 
BRANCH  92  94
ATOM     94  N   UNL A   1      30.613  26.608  22.690  1.00  0.00    -0.298 N 
ATOM     95  C   UNL A   1      29.637  27.722  23.031  1.00  0.00     0.267 C 
ATOM     96  H   UNL A   1      30.076  25.789  22.806  1.00  0.00     0.172 HD
ATOM     97  O   UNL A   1      28.535  27.411  23.475  1.00  0.00    -0.268 OA
BRANCH  95  98
ATOM     98  C   UNL A   1      30.013  29.145  22.650  1.00  0.00     0.092 A 
ATOM     99  C   UNL A   1      30.547  29.987  24.009  1.00  0.00     0.025 A 
ATOM    100  S   UNL A   1      28.359  30.185  21.420  1.00  0.00    -0.139 S 
ATOM    101  C   UNL A   1      29.470  31.464  24.462  1.00  0.00     0.012 A 
ATOM    102  C   UNL A   1      28.056  31.789  23.114  1.00  0.00     0.065 A 
ENDBRANCH  95  98
ENDBRANCH  92  94
ENDBRANCH  90  92
ENDBRANCH  87  90
ENDBRANCH  81  83
ENDBRANCH  80  81
ENDBRANCH  79  80
ENDBRANCH  78  79
ENDBRANCH  77  78
ENDBRANCH  76  77
ENDBRANCH   1  76
TORSDOF 27
ENDMDL
MODEL 2
REMARK VINA RESULT:      -7.6      8.048     12.696
REMARK SMILES O=C(OCCOCCOCCOCCOC(=O)c1ccc(Br)c(NC(=S)NC(=O)c2cccs2)c1)c1ccc(-c2c3nc(c(-c4cc(S(=O)(=O)[O-])ccc4F)c4ccc([nH]4)c(-c4cc(S(=O)(=O)[O-])ccc4F)c4nc(c(-c5cc(S(=O)(=O)[O-])ccc5F)c5ccc2[nH]5)C=C4)C=C3)cc1
REMARK SMILES IDX 10 1 9 2 8 3 7 4 6 5 5 6 4 7 3 8 2 9 1 10 36 11 37 12 98 13
REMARK SMILES IDX 38 14 97 15 39 16 40 17 41 18 91 19 42 20 96 21 90 22 92 23
REMARK SMILES IDX 43 24 95 25 89 26 88 27 44 29 76 30 56 31 75 32 57 33 60 34
REMARK SMILES IDX 74 35 93 36 58 37 59 38 73 40 94 41 61 42 45 43 46 44 54 45
REMARK SMILES IDX 47 46 53 47 55 48 52 49 48 50 49 51 50 52 51 53 77 54 78 55
REMARK SMILES IDX 86 56 79 57 85 58 87 59 84 60 80 61 81 62 82 63 83 64 62 65
REMARK SMILES IDX 63 66 71 67 64 68 70 69 72 70 69 71 65 72 66 73 67 74 68 75
REMARK SMILES IDX 11 76 12 77 13 78 14 79 15 80 16 81 17 82 18 83 19 84 35 85
REMARK SMILES IDX 20 86 23 87 21 88 22 89 24 90 25 92 26 93 27 94 28 95 29 97
REMARK SMILES IDX 30 98 31 99 34 100 32 101 33 102
REMARK H PARENT 92 28 60 39 24 91 27 96
REMARK Flexibility Score: inf
ROOT
ATOM      1  C   UNL A   1      37.334  23.501  25.729  1.00  0.00     0.188 C 
ENDROOT
BRANCH   1   2
ATOM      2  O   UNL A   1      38.105  22.316  25.720  1.00  0.00    -0.377 OA
BRANCH   2   3
ATOM      3  C   UNL A   1      39.424  22.486  26.184  1.00  0.00     0.188 C 
BRANCH   3   4
ATOM      4  C   UNL A   1      39.635  23.514  27.297  1.00  0.00     0.188 C 
BRANCH   4   5
ATOM      5  O   UNL A   1      40.975  23.954  27.486  1.00  0.00    -0.376 OA
BRANCH   5   6
ATOM      6  C   UNL A   1      41.820  23.446  28.523  1.00  0.00     0.202 C 
BRANCH   6   7
ATOM      7  C   UNL A   1      43.012  22.579  28.127  1.00  0.00     0.261 C 
BRANCH   7   8
ATOM      8  O   UNL A   1      44.270  23.251  27.968  1.00  0.00    -0.460 OA
BRANCH   8   9
ATOM      9  C   UNL A   1      44.940  24.095  28.788  1.00  0.00     0.338 C 
ATOM     10  O   UNL A   1      44.764  23.970  30.001  1.00  0.00    -0.246 OA
BRANCH   9  11
ATOM     11  C   UNL A   1      45.805  25.223  28.326  1.00  0.00     0.060 A 
ATOM     12  C   UNL A   1      46.694  25.933  29.125  1.00  0.00     0.016 A 
ATOM     13  C   UNL A   1      45.801  25.517  26.957  1.00  0.00     0.016 A 
ATOM     14  C   UNL A   1      47.495  26.938  28.657  1.00  0.00     0.010 A 
ATOM     15  C   UNL A   1      46.626  26.523  26.445  1.00  0.00     0.010 A 
ATOM     16  C   UNL A   1      47.444  27.247  27.316  1.00  0.00    -0.014 A 
BRANCH  16  17
ATOM     17  C   UNL A   1      48.062  28.521  26.977  1.00  0.00     0.031 A 
ATOM     18  C   UNL A   1      49.465  28.451  26.481  1.00  0.00     0.074 A 
ATOM     19  C   UNL A   1      47.294  29.619  26.882  1.00  0.00     0.049 A 
ATOM     20  N   UNL A   1      50.281  29.417  26.186  1.00  0.00    -0.248 NA
ATOM     21  C   UNL A   1      50.023  27.098  26.275  1.00  0.00     0.031 C 
ATOM     22  C   UNL A   1      45.843  29.662  27.102  1.00  0.00     0.029 A 
ATOM     23  N   UNL A   1      47.618  30.896  26.539  1.00  0.00    -0.354 N 
ATOM     24  C   UNL A   1      51.462  28.793  25.814  1.00  0.00     0.074 A 
ATOM     25  C   UNL A   1      51.267  27.368  25.922  1.00  0.00     0.031 C 
ATOM     26  C   UNL A   1      45.410  30.918  26.909  1.00  0.00     0.029 A 
ATOM     27  C   UNL A   1      46.561  31.768  26.641  1.00  0.00     0.049 A 
ATOM     28  H   UNL A   1      48.519  31.168  26.248  1.00  0.00     0.167 HD
ATOM     29  C   UNL A   1      52.611  29.392  25.436  1.00  0.00     0.034 A 
ATOM     30  C   UNL A   1      46.570  33.111  26.587  1.00  0.00     0.034 A 
ATOM     31  C   UNL A   1      52.728  30.821  25.369  1.00  0.00     0.049 A 
ATOM     32  C   UNL A   1      47.909  33.764  26.345  1.00  0.00     0.074 A 
ATOM     33  C   UNL A   1      53.842  31.584  25.093  1.00  0.00     0.029 A 
ATOM     34  N   UNL A   1      51.675  31.703  25.602  1.00  0.00    -0.354 N 
ATOM     35  N   UNL A   1      49.075  33.195  26.117  1.00  0.00    -0.248 NA
ATOM     36  C   UNL A   1      47.943  35.227  26.358  1.00  0.00     0.031 C 
ATOM     37  C   UNL A   1      53.485  32.926  25.253  1.00  0.00     0.029 A 
ATOM     38  C   UNL A   1      52.121  33.006  25.514  1.00  0.00     0.049 A 
ATOM     39  H   UNL A   1      50.748  31.437  25.800  1.00  0.00     0.167 HD
ATOM     40  C   UNL A   1      49.975  34.235  25.918  1.00  0.00     0.074 A 
ATOM     41  C   UNL A   1      49.209  35.461  26.045  1.00  0.00     0.031 C 
ATOM     42  C   UNL A   1      51.307  34.192  25.649  1.00  0.00     0.034 A 
BRANCH  29  43
ATOM     43  C   UNL A   1      53.803  28.504  25.222  1.00  0.00     0.023 A 
ATOM     44  C   UNL A   1      54.651  28.121  26.276  1.00  0.00     0.031 A 
ATOM     45  C   UNL A   1      54.158  28.128  23.915  1.00  0.00     0.131 A 
ATOM     46  C   UNL A   1      55.850  27.451  25.994  1.00  0.00     0.055 A 
ATOM     47  C   UNL A   1      55.303  27.378  23.653  1.00  0.00     0.041 A 
ATOM     48  F   UNL A   1      53.418  28.520  22.867  1.00  0.00    -0.206 F 
ATOM     49  C   UNL A   1      56.165  27.047  24.694  1.00  0.00     0.022 A 
BRANCH  46  50
ATOM     50  S   UNL A   1      57.076  27.275  27.319  1.00  0.00     0.124 S 
ATOM     51  O   UNL A   1      56.436  26.284  28.183  1.00  0.00    -0.237 OA
ATOM     52  O   UNL A   1      58.260  26.820  26.598  1.00  0.00    -0.237 OA
ATOM     53  O   UNL A   1      57.166  28.619  27.884  1.00  0.00    -0.744 OA
ENDBRANCH  46  50
ENDBRANCH  29  43
BRANCH  30  54
ATOM     54  C   UNL A   1      45.338  33.903  26.859  1.00  0.00     0.023 A 
ATOM     55  C   UNL A   1      44.969  34.240  28.168  1.00  0.00     0.031 A 
ATOM     56  C   UNL A   1      44.464  34.272  25.817  1.00  0.00     0.131 A 
ATOM     57  C   UNL A   1      43.732  34.859  28.410  1.00  0.00     0.055 A 
ATOM     58  C   UNL A   1      43.270  34.954  26.055  1.00  0.00     0.041 A 
ATOM     59  F   UNL A   1      44.755  33.967  24.541  1.00  0.00    -0.206 F 
ATOM     60  C   UNL A   1      42.889  35.235  27.362  1.00  0.00     0.022 A 
BRANCH  57  61
ATOM     61  S   UNL A   1      43.179  35.038  30.128  1.00  0.00     0.124 S 
ATOM     62  O   UNL A   1      43.191  36.488  30.289  1.00  0.00    -0.237 OA
ATOM     63  O   UNL A   1      41.864  34.408  30.091  1.00  0.00    -0.237 OA
ATOM     64  O   UNL A   1      44.196  34.315  30.888  1.00  0.00    -0.744 OA
ENDBRANCH  57  61
ENDBRANCH  30  54
BRANCH  42  65
ATOM     65  C   UNL A   1      51.989  35.510  25.406  1.00  0.00     0.023 A 
ATOM     66  C   UNL A   1      52.364  36.356  26.459  1.00  0.00     0.031 A 
ATOM     67  C   UNL A   1      52.285  35.908  24.089  1.00  0.00     0.131 A 
ATOM     68  C   UNL A   1      52.957  37.592  26.174  1.00  0.00     0.055 A 
ATOM     69  C   UNL A   1      52.958  37.095  23.818  1.00  0.00     0.041 A 
ATOM     70  F   UNL A   1      51.940  35.133  23.047  1.00  0.00    -0.206 F 
ATOM     71  C   UNL A   1      53.284  37.953  24.863  1.00  0.00     0.022 A 
BRANCH  68  72
ATOM     72  S   UNL A   1      53.182  38.772  27.528  1.00  0.00     0.124 S 
ATOM     73  O   UNL A   1      54.410  39.456  27.131  1.00  0.00    -0.237 OA
ATOM     74  O   UNL A   1      51.960  39.566  27.458  1.00  0.00    -0.237 OA
ATOM     75  O   UNL A   1      53.301  37.919  28.708  1.00  0.00    -0.744 OA
ENDBRANCH  68  72
ENDBRANCH  42  65
ENDBRANCH  16  17
ENDBRANCH   9  11
ENDBRANCH   8   9
ENDBRANCH   7   8
ENDBRANCH   6   7
ENDBRANCH   5   6
ENDBRANCH   4   5
ENDBRANCH   3   4
ENDBRANCH   2   3
ENDBRANCH   1   2
BRANCH   1  76
ATOM     76  C   UNL A   1      36.103  23.631  26.694  1.00  0.00     0.188 C 
BRANCH  76  77
ATOM     77  O   UNL A   1      34.975  22.890  26.309  1.00  0.00    -0.376 OA
BRANCH  77  78
ATOM     78  C   UNL A   1      35.157  21.486  26.225  1.00  0.00     0.202 C 
BRANCH  78  79
ATOM     79  C   UNL A   1      35.134  20.683  24.883  1.00  0.00     0.261 C 
BRANCH  79  80
ATOM     80  O   UNL A   1      34.061  19.724  24.643  1.00  0.00    -0.460 OA
BRANCH  80  81
ATOM     81  C   UNL A   1      32.763  20.036  24.905  1.00  0.00     0.338 C 
ATOM     82  O   UNL A   1      31.922  19.166  25.076  1.00  0.00    -0.246 OA
BRANCH  81  83
ATOM     83  C   UNL A   1      32.439  21.640  24.699  1.00  0.00     0.062 A 
ATOM     84  C   UNL A   1      31.577  22.001  26.261  1.00  0.00     0.017 A 
ATOM     85  C   UNL A   1      33.105  23.330  23.729  1.00  0.00     0.043 A 
ATOM     86  C   UNL A   1      31.434  23.715  26.728  1.00  0.00     0.019 A 
ATOM     87  C   UNL A   1      32.788  24.879  24.175  1.00  0.00     0.055 A 
ATOM     88  C   UNL A   1      32.010  25.072  25.707  1.00  0.00     0.041 A 
ATOM     89  Br  UNL A   1      31.532  26.826  26.244  1.00  0.00    -0.049 Br
BRANCH  87  90
ATOM     90  N   UNL A   1      32.830  25.686  23.009  1.00  0.00    -0.331 N 
ATOM     91  H   UNL A   1      33.732  25.974  22.740  1.00  0.00     0.169 HD
BRANCH  90  92
ATOM     92  C   UNL A   1      31.800  26.136  22.181  1.00  0.00     0.177 C 
ATOM     93  S   UNL A   1      32.063  25.971  20.526  1.00  0.00    -0.040 S 
BRANCH  92  94
ATOM     94  N   UNL A   1      30.529  26.727  22.542  1.00  0.00    -0.298 N 
ATOM     95  C   UNL A   1      29.634  27.899  22.911  1.00  0.00     0.267 C 
ATOM     96  H   UNL A   1      29.914  25.957  22.554  1.00  0.00     0.172 HD
ATOM     97  O   UNL A   1      28.479  27.660  23.257  1.00  0.00    -0.268 OA
BRANCH  95  98
ATOM     98  C   UNL A   1      30.161  29.305  22.676  1.00  0.00     0.092 A 
ATOM     99  C   UNL A   1      30.653  29.992  24.134  1.00  0.00     0.025 A 
ATOM    100  S   UNL A   1      28.709  30.581  21.413  1.00  0.00    -0.139 S 
ATOM    101  C   UNL A   1      29.674  31.525  24.624  1.00  0.00     0.012 A 
ATOM    102  C   UNL A   1      28.408  32.077  23.204  1.00  0.00     0.065 A 
ENDBRANCH  95  98
ENDBRANCH  92  94
ENDBRANCH  90  92
ENDBRANCH  87  90
ENDBRANCH  81  83
ENDBRANCH  80  81
ENDBRANCH  79  80
ENDBRANCH  78  79
ENDBRANCH  77  78
ENDBRANCH  76  77
ENDBRANCH   1  76
TORSDOF 27
ENDMDL
MODEL 3
REMARK VINA RESULT:      -7.6      5.067     10.857
REMARK SMILES O=C(OCCOCCOCCOCCOC(=O)c1ccc(Br)c(NC(=S)NC(=O)c2cccs2)c1)c1ccc(-c2c3nc(c(-c4cc(S(=O)(=O)[O-])ccc4F)c4ccc([nH]4)c(-c4cc(S(=O)(=O)[O-])ccc4F)c4nc(c(-c5cc(S(=O)(=O)[O-])ccc5F)c5ccc2[nH]5)C=C4)C=C3)cc1
REMARK SMILES IDX 10 1 9 2 8 3 7 4 6 5 5 6 4 7 3 8 2 9 1 10 36 11 37 12 98 13
REMARK SMILES IDX 38 14 97 15 39 16 40 17 41 18 91 19 42 20 96 21 90 22 92 23
REMARK SMILES IDX 43 24 95 25 89 26 88 27 44 29 76 30 56 31 75 32 57 33 60 34
REMARK SMILES IDX 74 35 93 36 58 37 59 38 73 40 94 41 61 42 45 43 46 44 54 45
REMARK SMILES IDX 47 46 53 47 55 48 52 49 48 50 49 51 50 52 51 53 77 54 78 55
REMARK SMILES IDX 86 56 79 57 85 58 87 59 84 60 80 61 81 62 82 63 83 64 62 65
REMARK SMILES IDX 63 66 71 67 64 68 70 69 72 70 69 71 65 72 66 73 67 74 68 75
REMARK SMILES IDX 11 76 12 77 13 78 14 79 15 80 16 81 17 82 18 83 19 84 35 85
REMARK SMILES IDX 20 86 23 87 21 88 22 89 24 90 25 92 26 93 27 94 28 95 29 97
REMARK SMILES IDX 30 98 31 99 34 100 32 101 33 102
REMARK H PARENT 92 28 60 39 24 91 27 96
REMARK Flexibility Score: inf
ROOT
ATOM      1  C   UNL A   1      38.323  34.259  29.683  1.00  0.00     0.188 C 
ENDROOT
BRANCH   1   2
ATOM      2  O   UNL A   1      39.490  33.549  30.049  1.00  0.00    -0.377 OA
BRANCH   2   3
ATOM      3  C   UNL A   1      39.319  32.692  31.154  1.00  0.00     0.188 C 
BRANCH   3   4
ATOM      4  C   UNL A   1      38.441  31.457  30.937  1.00  0.00     0.188 C 
BRANCH   4   5
ATOM      5  O   UNL A   1      38.024  30.781  32.118  1.00  0.00    -0.376 OA
BRANCH   5   6
ATOM      6  C   UNL A   1      36.670  30.795  32.582  1.00  0.00     0.202 C 
BRANCH   6   7
ATOM      7  C   UNL A   1      35.678  31.731  31.898  1.00  0.00     0.261 C 
BRANCH   7   8
ATOM      8  O   UNL A   1      35.782  33.125  32.223  1.00  0.00    -0.460 OA
BRANCH   8   9
ATOM      9  C   UNL A   1      35.712  33.771  33.410  1.00  0.00     0.338 C 
ATOM     10  O   UNL A   1      34.663  34.359  33.678  1.00  0.00    -0.246 OA
BRANCH   9  11
ATOM     11  C   UNL A   1      36.844  33.899  34.378  1.00  0.00     0.060 A 
ATOM     12  C   UNL A   1      38.079  34.473  34.099  1.00  0.00     0.016 A 
ATOM     13  C   UNL A   1      36.606  33.507  35.702  1.00  0.00     0.016 A 
ATOM     14  C   UNL A   1      39.080  34.602  35.023  1.00  0.00     0.010 A 
ATOM     15  C   UNL A   1      37.600  33.648  36.673  1.00  0.00     0.010 A 
ATOM     16  C   UNL A   1      38.845  34.168  36.308  1.00  0.00    -0.014 A 
BRANCH  16  17
ATOM     17  C   UNL A   1      40.049  34.036  37.118  1.00  0.00     0.031 A 
ATOM     18  C   UNL A   1      40.912  32.861  36.811  1.00  0.00     0.074 A 
ATOM     19  C   UNL A   1      40.441  35.066  37.884  1.00  0.00     0.049 A 
ATOM     20  N   UNL A   1      41.985  32.451  37.415  1.00  0.00    -0.248 NA
ATOM     21  C   UNL A   1      40.515  32.039  35.649  1.00  0.00     0.031 C 
ATOM     22  C   UNL A   1      39.746  36.355  37.996  1.00  0.00     0.029 A 
ATOM     23  N   UNL A   1      41.535  35.207  38.682  1.00  0.00    -0.354 N 
ATOM     24  C   UNL A   1      42.361  31.297  36.745  1.00  0.00     0.074 A 
ATOM     25  C   UNL A   1      41.404  31.063  35.691  1.00  0.00     0.031 C 
ATOM     26  C   UNL A   1      40.427  37.146  38.839  1.00  0.00     0.029 A 
ATOM     27  C   UNL A   1      41.545  36.389  39.383  1.00  0.00     0.049 A 
ATOM     28  H   UNL A   1      42.248  34.531  38.750  1.00  0.00     0.167 HD
ATOM     29  C   UNL A   1      43.416  30.504  37.023  1.00  0.00     0.034 A 
ATOM     30  C   UNL A   1      42.344  36.757  40.399  1.00  0.00     0.034 A 
ATOM     31  C   UNL A   1      44.315  30.800  38.104  1.00  0.00     0.049 A 
ATOM     32  C   UNL A   1      43.404  35.767  40.813  1.00  0.00     0.074 A 
ATOM     33  C   UNL A   1      45.375  30.055  38.573  1.00  0.00     0.029 A 
ATOM     34  N   UNL A   1      44.236  31.944  38.894  1.00  0.00    -0.354 N 
ATOM     35  N   UNL A   1      43.699  34.601  40.275  1.00  0.00    -0.248 NA
ATOM     36  C   UNL A   1      44.231  36.126  41.966  1.00  0.00     0.031 C 
ATOM     37  C   UNL A   1      45.876  30.702  39.706  1.00  0.00     0.029 A 
ATOM     38  C   UNL A   1      45.206  31.908  39.875  1.00  0.00     0.049 A 
ATOM     39  H   UNL A   1      43.585  32.672  38.772  1.00  0.00     0.167 HD
ATOM     40  C   UNL A   1      44.776  34.106  41.000  1.00  0.00     0.074 A 
ATOM     41  C   UNL A   1      45.079  35.108  42.005  1.00  0.00     0.031 C 
ATOM     42  C   UNL A   1      45.461  32.942  40.853  1.00  0.00     0.034 A 
BRANCH  29  43
ATOM     43  C   UNL A   1      43.531  29.225  36.246  1.00  0.00     0.023 A 
ATOM     44  C   UNL A   1      42.620  28.166  36.405  1.00  0.00     0.031 A 
ATOM     45  C   UNL A   1      44.644  29.022  35.411  1.00  0.00     0.131 A 
ATOM     46  C   UNL A   1      42.881  26.929  35.798  1.00  0.00     0.055 A 
ATOM     47  C   UNL A   1      44.845  27.820  34.735  1.00  0.00     0.041 A 
ATOM     48  F   UNL A   1      45.577  29.977  35.274  1.00  0.00    -0.206 F 
ATOM     49  C   UNL A   1      43.968  26.759  34.937  1.00  0.00     0.022 A 
BRANCH  46  50
ATOM     50  S   UNL A   1      41.884  25.496  36.292  1.00  0.00     0.124 S 
ATOM     51  O   UNL A   1      41.704  25.740  37.722  1.00  0.00    -0.237 OA
ATOM     52  O   UNL A   1      40.689  25.641  35.467  1.00  0.00    -0.237 OA
ATOM     53  O   UNL A   1      42.736  24.356  35.963  1.00  0.00    -0.744 OA
ENDBRANCH  46  50
ENDBRANCH  29  43
BRANCH  30  54
ATOM     54  C   UNL A   1      42.117  38.032  41.137  1.00  0.00     0.023 A 
ATOM     55  C   UNL A   1      41.383  38.055  42.331  1.00  0.00     0.031 A 
ATOM     56  C   UNL A   1      42.565  39.263  40.620  1.00  0.00     0.131 A 
ATOM     57  C   UNL A   1      41.060  39.284  42.930  1.00  0.00     0.055 A 
ATOM     58  C   UNL A   1      42.304  40.476  41.258  1.00  0.00     0.041 A 
ATOM     59  F   UNL A   1      43.263  39.309  39.472  1.00  0.00    -0.206 F 
ATOM     60  C   UNL A   1      41.530  40.492  42.412  1.00  0.00     0.022 A 
BRANCH  57  61
ATOM     61  S   UNL A   1      39.893  39.284  44.318  1.00  0.00     0.124 S 
ATOM     62  O   UNL A   1      38.878  40.220  43.848  1.00  0.00    -0.237 OA
ATOM     63  O   UNL A   1      39.495  37.883  44.381  1.00  0.00    -0.237 OA
ATOM     64  O   UNL A   1      40.704  39.753  45.441  1.00  0.00    -0.744 OA
ENDBRANCH  57  61
ENDBRANCH  30  54
BRANCH  42  65
ATOM     65  C   UNL A   1      46.644  32.736  41.759  1.00  0.00     0.023 A 
ATOM     66  C   UNL A   1      46.531  32.063  42.984  1.00  0.00     0.031 A 
ATOM     67  C   UNL A   1      47.911  33.207  41.368  1.00  0.00     0.131 A 
ATOM     68  C   UNL A   1      47.655  31.937  43.809  1.00  0.00     0.055 A 
ATOM     69  C   UNL A   1      49.042  32.996  42.150  1.00  0.00     0.041 A 
ATOM     70  F   UNL A   1      48.068  33.862  40.205  1.00  0.00    -0.206 F 
ATOM     71  C   UNL A   1      48.915  32.372  43.386  1.00  0.00     0.022 A 
BRANCH  68  72
ATOM     72  S   UNL A   1      47.424  31.310  45.491  1.00  0.00     0.124 S 
ATOM     73  O   UNL A   1      48.634  30.516  45.686  1.00  0.00    -0.237 OA
ATOM     74  O   UNL A   1      47.336  32.537  46.274  1.00  0.00    -0.237 OA
ATOM     75  O   UNL A   1      46.185  30.540  45.401  1.00  0.00    -0.744 OA
ENDBRANCH  68  72
ENDBRANCH  42  65
ENDBRANCH  16  17
ENDBRANCH   9  11
ENDBRANCH   8   9
ENDBRANCH   7   8
ENDBRANCH   6   7
ENDBRANCH   5   6
ENDBRANCH   4   5
ENDBRANCH   3   4
ENDBRANCH   2   3
ENDBRANCH   1   2
BRANCH   1  76
ATOM     76  C   UNL A   1      37.286  33.615  28.698  1.00  0.00     0.188 C 
BRANCH  76  77
ATOM     77  O   UNL A   1      35.947  33.945  28.957  1.00  0.00    -0.376 OA
BRANCH  77  78
ATOM     78  C   UNL A   1      34.997  33.445  28.030  1.00  0.00     0.202 C 
BRANCH  78  79
ATOM     79  C   UNL A   1      34.078  32.209  28.305  1.00  0.00     0.261 C 
BRANCH  79  80
ATOM     80  O   UNL A   1      33.961  31.167  27.291  1.00  0.00    -0.460 OA
BRANCH  80  81
ATOM     81  C   UNL A   1      32.755  30.839  26.751  1.00  0.00     0.338 C 
ATOM     82  O   UNL A   1      31.769  31.539  26.926  1.00  0.00    -0.246 OA
BRANCH  81  83
ATOM     83  C   UNL A   1      32.739  29.323  26.101  1.00  0.00     0.062 A 
ATOM     84  C   UNL A   1      31.308  29.464  24.984  1.00  0.00     0.017 A 
ATOM     85  C   UNL A   1      33.954  27.718  25.668  1.00  0.00     0.043 A 
ATOM     86  C   UNL A   1      31.160  28.232  23.704  1.00  0.00     0.019 A 
ATOM     87  C   UNL A   1      33.642  26.553  24.552  1.00  0.00     0.055 A 
ATOM     88  C   UNL A   1      32.282  26.845  23.527  1.00  0.00     0.041 A 
ATOM     89  Br  UNL A   1      31.809  25.501  22.277  1.00  0.00    -0.049 Br
BRANCH  87  90
ATOM     90  N   UNL A   1      34.297  25.366  24.968  1.00  0.00    -0.331 N 
ATOM     91  H   UNL A   1      35.277  25.381  24.874  1.00  0.00     0.169 HD
BRANCH  90  92
ATOM     92  C   UNL A   1      33.777  24.179  25.489  1.00  0.00     0.177 C 
ATOM     93  S   UNL A   1      32.298  24.312  26.282  1.00  0.00    -0.040 S 
BRANCH  92  94
ATOM     94  N   UNL A   1      34.329  22.842  25.445  1.00  0.00    -0.298 N 
ATOM     95  C   UNL A   1      34.213  21.327  25.396  1.00  0.00     0.267 C 
ATOM     96  H   UNL A   1      35.303  22.996  25.448  1.00  0.00     0.172 HD
ATOM     97  O   UNL A   1      35.240  20.662  25.505  1.00  0.00    -0.268 OA
BRANCH  95  98
ATOM     98  C   UNL A   1      32.861  20.723  25.050  1.00  0.00     0.092 A 
ATOM     99  C   UNL A   1      32.825  19.095  25.483  1.00  0.00     0.025 A 
ATOM    100  S   UNL A   1      32.225  21.190  22.880  1.00  0.00    -0.139 S 
ATOM    101  C   UNL A   1      32.593  17.923  24.027  1.00  0.00     0.012 A 
ATOM    102  C   UNL A   1      32.260  18.901  22.338  1.00  0.00     0.065 A 
ENDBRANCH  95  98
ENDBRANCH  92  94
ENDBRANCH  90  92
ENDBRANCH  87  90
ENDBRANCH  81  83
ENDBRANCH  80  81
ENDBRANCH  79  80
ENDBRANCH  78  79
ENDBRANCH  77  78
ENDBRANCH  76  77
ENDBRANCH   1  76
TORSDOF 27
ENDMDL
