MODEL 1
REMARK VINA RESULT:      -6.5      0.000      0.000
REMARK SMILES CCCN1C(=O)/C(=C\c2ccc(C(=O)OCCOCCOCCOCCOC(=O)c3ccc(-c4c5nc(c(-c6cc(S(=O)(=O)[O-])ccc6F)c6ccc([nH]6)c(-c6cc(S(=O)(=O)[O-])ccc6F)c6nc(c(-c7cc(S(=O)(=O)[O-])ccc7F)c7ccc4[nH]7)C=C6)C=C5)cc3)cc2)S/C1=[NH+]\c1nnc(C)s1
REMARK SMILES IDX 21 1 20 2 19 3 18 4 17 5 16 6 15 7 13 8 14 9 12 10 9 11
REMARK SMILES IDX 10 12 94 13 11 14 93 15 8 16 4 17 5 18 96 19 6 20 7 21 95 22
REMARK SMILES IDX 97 23 3 25 2 26 1 27 98 28 99 29 103 30 100 31 101 32 102 33
REMARK SMILES IDX 22 34 23 35 24 36 25 37 26 38 27 39 28 40 29 41 30 42 31 43
REMARK SMILES IDX 92 44 32 45 91 46 33 47 34 48 35 49 85 50 36 51 90 52 84 53
REMARK SMILES IDX 86 54 37 55 89 56 83 57 82 58 38 60 70 61 50 62 69 63 51 64
REMARK SMILES IDX 54 65 68 66 87 67 52 68 53 69 67 71 88 72 55 73 39 74 40 75
REMARK SMILES IDX 48 76 41 77 47 78 49 79 46 80 42 81 43 82 44 83 45 84 71 85
REMARK SMILES IDX 72 86 80 87 73 88 79 89 81 90 78 91 74 92 75 93 76 94 77 95
REMARK SMILES IDX 56 96 57 97 65 98 58 99 64 100 66 101 63 102 59 103 60 104
REMARK SMILES IDX 61 105 62 106
REMARK H PARENT 97 24 86 59 54 70
REMARK Flexibility Score: inf
ROOT
ATOM      1  O   UNL A   1      36.393  33.163  35.035  1.00  0.00    -0.377 OA
ENDROOT
BRANCH   1   2
ATOM      2  C   UNL A   1      37.419  32.228  34.749  1.00  0.00     0.188 C 
BRANCH   2   3
ATOM      3  C   UNL A   1      38.286  31.756  35.934  1.00  0.00     0.188 C 
BRANCH   3   4
ATOM      4  O   UNL A   1      38.913  30.504  35.719  1.00  0.00    -0.376 OA
BRANCH   4   5
ATOM      5  C   UNL A   1      40.312  30.421  35.525  1.00  0.00     0.202 C 
BRANCH   5   6
ATOM      6  C   UNL A   1      40.925  29.862  34.230  1.00  0.00     0.261 C 
BRANCH   6   7
ATOM      7  O   UNL A   1      42.057  29.007  34.379  1.00  0.00    -0.460 OA
BRANCH   7   8
ATOM      8  C   UNL A   1      41.830  27.681  34.325  1.00  0.00     0.338 C 
ATOM      9  O   UNL A   1      40.775  27.128  34.063  1.00  0.00    -0.246 OA
BRANCH   8  10
ATOM     10  C   UNL A   1      43.139  26.992  34.412  1.00  0.00     0.060 A 
ATOM     11  C   UNL A   1      45.491  25.524  34.588  1.00  0.00    -0.024 A 
ATOM     12  C   UNL A   1      44.631  25.321  33.505  1.00  0.00     0.009 A 
ATOM     13  C   UNL A   1      45.254  26.566  35.498  1.00  0.00     0.009 A 
ATOM     14  C   UNL A   1      43.448  26.050  33.423  1.00  0.00     0.016 A 
ATOM     15  C   UNL A   1      44.068  27.294  35.416  1.00  0.00     0.016 A 
BRANCH  11  16
ATOM     16  C   UNL A   1      46.456  24.477  34.911  1.00  0.00     0.031 C 
ATOM     17  N   UNL A   1      49.311  24.871  32.662  1.00  0.00    -0.219 N 
ATOM     18  C   UNL A   1      48.156  25.368  33.240  1.00  0.00     0.321 C 
ATOM     19  C   UNL A   1      49.855  23.767  33.267  1.00  0.00     0.271 C 
ATOM     20  O   UNL A   1      47.631  26.423  32.914  1.00  0.00    -0.250 OA
ATOM     21  C   UNL A   1      47.655  24.444  34.304  1.00  0.00     0.100 C 
ATOM     22  S   UNL A   1      48.844  23.249  34.616  1.00  0.00    -0.012 SA
ATOM     23  N   UNL A   1      50.935  23.199  32.849  1.00  0.00    -0.226 N 
ATOM     24  H   UNL A   1      51.490  23.616  32.150  1.00  0.00     0.268 HD
BRANCH  17  25
ATOM     25  C   UNL A   1      49.773  25.575  31.460  1.00  0.00     0.206 C 
BRANCH  25  26
ATOM     26  C   UNL A   1      51.108  26.311  31.464  1.00  0.00     0.035 C 
ATOM     27  C   UNL A   1      51.160  27.476  32.444  1.00  0.00     0.007 C 
ENDBRANCH  25  26
ENDBRANCH  17  25
BRANCH  23  28
ATOM     28  C   UNL A   1      51.281  22.013  33.398  1.00  0.00     0.345 A 
ATOM     29  N   UNL A   1      50.736  20.831  33.198  1.00  0.00     0.023 NA
ATOM     30  S   UNL A   1      52.550  21.982  34.580  1.00  0.00    -0.044 S 
ATOM     31  N   UNL A   1      51.383  19.821  33.889  1.00  0.00    -0.067 NA
ATOM     32  C   UNL A   1      52.386  20.281  34.604  1.00  0.00     0.135 A 
ATOM     33  C   UNL A   1      53.332  19.447  35.382  1.00  0.00     0.083 C 
ENDBRANCH  23  28
ENDBRANCH  11  16
ENDBRANCH   8  10
ENDBRANCH   7   8
ENDBRANCH   6   7
ENDBRANCH   5   6
ENDBRANCH   4   5
ENDBRANCH   3   4
ENDBRANCH   2   3
ENDBRANCH   1   2
BRANCH   1  34
ATOM     34  C   UNL A   1      36.178  34.269  34.158  1.00  0.00     0.188 C 
BRANCH  34  35
ATOM     35  C   UNL A   1      34.767  34.718  33.699  1.00  0.00     0.188 C 
BRANCH  35  36
ATOM     36  O   UNL A   1      34.451  34.423  32.347  1.00  0.00    -0.376 OA
BRANCH  36  37
ATOM     37  C   UNL A   1      33.737  35.396  31.608  1.00  0.00     0.202 C 
BRANCH  37  38
ATOM     38  C   UNL A   1      33.156  34.942  30.261  1.00  0.00     0.261 C 
BRANCH  38  39
ATOM     39  O   UNL A   1      34.095  34.804  29.185  1.00  0.00    -0.460 OA
BRANCH  39  40
ATOM     40  C   UNL A   1      34.557  33.561  28.927  1.00  0.00     0.338 C 
ATOM     41  O   UNL A   1      34.106  32.767  28.118  1.00  0.00    -0.246 OA
BRANCH  40  42
ATOM     42  C   UNL A   1      35.827  33.395  29.663  1.00  0.00     0.060 A 
ATOM     43  C   UNL A   1      36.909  34.234  29.361  1.00  0.00     0.016 A 
ATOM     44  C   UNL A   1      35.939  32.425  30.662  1.00  0.00     0.016 A 
ATOM     45  C   UNL A   1      38.119  34.080  30.039  1.00  0.00     0.010 A 
ATOM     46  C   UNL A   1      37.158  32.259  31.323  1.00  0.00     0.010 A 
ATOM     47  C   UNL A   1      38.264  33.064  30.992  1.00  0.00    -0.014 A 
BRANCH  47  48
ATOM     48  C   UNL A   1      39.614  32.708  31.496  1.00  0.00     0.031 A 
ATOM     49  C   UNL A   1      40.319  31.536  30.869  1.00  0.00     0.074 A 
ATOM     50  C   UNL A   1      40.209  33.414  32.475  1.00  0.00     0.049 A 
ATOM     51  N   UNL A   1      41.461  30.986  31.182  1.00  0.00    -0.248 NA
ATOM     52  C   UNL A   1      39.631  30.895  29.737  1.00  0.00     0.031 C 
ATOM     53  C   UNL A   1      39.648  34.598  33.123  1.00  0.00     0.029 A 
ATOM     54  N   UNL A   1      41.417  33.228  33.101  1.00  0.00    -0.354 N 
ATOM     55  C   UNL A   1      41.627  29.928  30.294  1.00  0.00     0.074 A 
ATOM     56  C   UNL A   1      40.450  29.894  29.453  1.00  0.00     0.031 C 
ATOM     57  C   UNL A   1      40.507  35.025  34.065  1.00  0.00     0.029 A 
ATOM     58  C   UNL A   1      41.655  34.120  34.120  1.00  0.00     0.049 A 
ATOM     59  H   UNL A   1      42.053  32.521  32.844  1.00  0.00     0.167 HD
ATOM     60  C   UNL A   1      42.670  29.069  30.186  1.00  0.00     0.034 A 
ATOM     61  C   UNL A   1      42.664  34.178  35.015  1.00  0.00     0.034 A 
ATOM     62  C   UNL A   1      43.831  29.111  31.040  1.00  0.00     0.049 A 
ATOM     63  C   UNL A   1      43.773  33.153  34.934  1.00  0.00     0.074 A 
ATOM     64  C   UNL A   1      44.951  28.299  31.007  1.00  0.00     0.029 A 
ATOM     65  N   UNL A   1      44.017  30.001  32.091  1.00  0.00    -0.354 N 
ATOM     66  N   UNL A   1      43.923  32.160  34.088  1.00  0.00    -0.248 NA
ATOM     67  C   UNL A   1      44.851  33.260  35.927  1.00  0.00     0.031 C 
ATOM     68  C   UNL A   1      45.770  28.640  32.089  1.00  0.00     0.029 A 
ATOM     69  C   UNL A   1      45.212  29.730  32.738  1.00  0.00     0.049 A 
ATOM     70  H   UNL A   1      43.390  30.719  32.340  1.00  0.00     0.167 HD
ATOM     71  C   UNL A   1      45.130  31.548  34.425  1.00  0.00     0.074 A 
ATOM     72  C   UNL A   1      45.671  32.293  35.544  1.00  0.00     0.031 C 
ATOM     73  C   UNL A   1      45.739  30.475  33.860  1.00  0.00     0.034 A 
BRANCH  60  74
ATOM     74  C   UNL A   1      42.569  27.977  29.150  1.00  0.00     0.023 A 
ATOM     75  C   UNL A   1      43.246  28.051  27.920  1.00  0.00     0.031 A 
ATOM     76  C   UNL A   1      41.765  26.848  29.390  1.00  0.00     0.131 A 
ATOM     77  C   UNL A   1      43.057  27.049  26.955  1.00  0.00     0.055 A 
ATOM     78  C   UNL A   1      41.647  25.814  28.460  1.00  0.00     0.041 A 
ATOM     79  F   UNL A   1      41.071  26.734  30.534  1.00  0.00    -0.206 F 
ATOM     80  C   UNL A   1      42.285  25.917  27.228  1.00  0.00     0.022 A 
BRANCH  77  81
ATOM     81  S   UNL A   1      43.720  27.314  25.287  1.00  0.00     0.124 S 
ATOM     82  O   UNL A   1      43.997  25.945  24.859  1.00  0.00    -0.237 OA
ATOM     83  O   UNL A   1      42.617  27.985  24.611  1.00  0.00    -0.237 OA
ATOM     84  O   UNL A   1      44.906  28.138  25.518  1.00  0.00    -0.744 OA
ENDBRANCH  77  81
ENDBRANCH  60  74
BRANCH  61  85
ATOM     85  C   UNL A   1      42.660  35.206  36.098  1.00  0.00     0.023 A 
ATOM     86  C   UNL A   1      43.554  36.289  36.083  1.00  0.00     0.031 A 
ATOM     87  C   UNL A   1      41.795  35.083  37.201  1.00  0.00     0.131 A 
ATOM     88  C   UNL A   1      43.595  37.177  37.171  1.00  0.00     0.055 A 
ATOM     89  C   UNL A   1      41.798  36.003  38.251  1.00  0.00     0.041 A 
ATOM     90  F   UNL A   1      40.926  34.062  37.273  1.00  0.00    -0.206 F 
ATOM     91  C   UNL A   1      42.712  37.051  38.246  1.00  0.00     0.022 A 
BRANCH  88  92
ATOM     92  S   UNL A   1      44.890  38.448  37.208  1.00  0.00     0.124 S 
ATOM     93  O   UNL A   1      45.729  37.983  38.305  1.00  0.00    -0.237 OA
ATOM     94  O   UNL A   1      45.461  38.336  35.870  1.00  0.00    -0.237 OA
ATOM     95  O   UNL A   1      44.149  39.681  37.465  1.00  0.00    -0.744 OA
ENDBRANCH  88  92
ENDBRANCH  61  85
BRANCH  73  96
ATOM     96  C   UNL A   1      47.090  30.072  34.405  1.00  0.00     0.023 A 
ATOM     97  C   UNL A   1      47.223  29.276  35.555  1.00  0.00     0.031 A 
ATOM     98  C   UNL A   1      48.266  30.496  33.758  1.00  0.00     0.131 A 
ATOM     99  C   UNL A   1      48.500  28.976  36.056  1.00  0.00     0.055 A 
ATOM    100  C   UNL A   1      49.533  30.135  34.220  1.00  0.00     0.041 A 
ATOM    101  F   UNL A   1      48.203  31.263  32.658  1.00  0.00    -0.206 F 
ATOM    102  C   UNL A   1      49.655  29.382  35.384  1.00  0.00     0.022 A 
BRANCH  99 103
ATOM    103  S   UNL A   1      48.633  28.134  37.657  1.00  0.00     0.124 S 
ATOM    104  O   UNL A   1      49.503  27.007  37.336  1.00  0.00    -0.237 OA
ATOM    105  O   UNL A   1      49.215  29.167  38.507  1.00  0.00    -0.237 OA
ATOM    106  O   UNL A   1      47.250  27.779  37.974  1.00  0.00    -0.744 OA
ENDBRANCH  99 103
ENDBRANCH  73  96
ENDBRANCH  47  48
ENDBRANCH  40  42
ENDBRANCH  39  40
ENDBRANCH  38  39
ENDBRANCH  37  38
ENDBRANCH  36  37
ENDBRANCH  35  36
ENDBRANCH  34  35
ENDBRANCH   1  34
TORSDOF 27
ENDMDL
MODEL 2
REMARK VINA RESULT:      -6.4      2.373      3.002
REMARK SMILES CCCN1C(=O)/C(=C\c2ccc(C(=O)OCCOCCOCCOCCOC(=O)c3ccc(-c4c5nc(c(-c6cc(S(=O)(=O)[O-])ccc6F)c6ccc([nH]6)c(-c6cc(S(=O)(=O)[O-])ccc6F)c6nc(c(-c7cc(S(=O)(=O)[O-])ccc7F)c7ccc4[nH]7)C=C6)C=C5)cc3)cc2)S/C1=[NH+]\c1nnc(C)s1
REMARK SMILES IDX 21 1 20 2 19 3 18 4 17 5 16 6 15 7 13 8 14 9 12 10 9 11
REMARK SMILES IDX 10 12 94 13 11 14 93 15 8 16 4 17 5 18 96 19 6 20 7 21 95 22
REMARK SMILES IDX 97 23 3 25 2 26 1 27 98 28 99 29 103 30 100 31 101 32 102 33
REMARK SMILES IDX 22 34 23 35 24 36 25 37 26 38 27 39 28 40 29 41 30 42 31 43
REMARK SMILES IDX 92 44 32 45 91 46 33 47 34 48 35 49 85 50 36 51 90 52 84 53
REMARK SMILES IDX 86 54 37 55 89 56 83 57 82 58 38 60 70 61 50 62 69 63 51 64
REMARK SMILES IDX 54 65 68 66 87 67 52 68 53 69 67 71 88 72 55 73 39 74 40 75
REMARK SMILES IDX 48 76 41 77 47 78 49 79 46 80 42 81 43 82 44 83 45 84 71 85
REMARK SMILES IDX 72 86 80 87 73 88 79 89 81 90 78 91 74 92 75 93 76 94 77 95
REMARK SMILES IDX 56 96 57 97 65 98 58 99 64 100 66 101 63 102 59 103 60 104
REMARK SMILES IDX 61 105 62 106
REMARK H PARENT 97 24 86 59 54 70
REMARK Flexibility Score: inf
ROOT
ATOM      1  O   UNL A   1      36.445  33.069  35.137  1.00  0.00    -0.377 OA
ENDROOT
BRANCH   1   2
ATOM      2  C   UNL A   1      37.486  32.111  35.060  1.00  0.00     0.188 C 
BRANCH   2   3
ATOM      3  C   UNL A   1      38.192  31.735  36.378  1.00  0.00     0.188 C 
BRANCH   3   4
ATOM      4  O   UNL A   1      38.752  30.434  36.375  1.00  0.00    -0.376 OA
BRANCH   4   5
ATOM      5  C   UNL A   1      40.141  30.246  36.183  1.00  0.00     0.202 C 
BRANCH   5   6
ATOM      6  C   UNL A   1      40.721  29.763  34.843  1.00  0.00     0.261 C 
BRANCH   6   7
ATOM      7  O   UNL A   1      41.785  28.815  34.915  1.00  0.00    -0.460 OA
BRANCH   7   8
ATOM      8  C   UNL A   1      41.590  27.632  34.301  1.00  0.00     0.338 C 
ATOM      9  O   UNL A   1      40.619  27.301  33.641  1.00  0.00    -0.246 OA
BRANCH   8  10
ATOM     10  C   UNL A   1      42.860  26.872  34.365  1.00  0.00     0.060 A 
ATOM     11  C   UNL A   1      45.320  25.603  34.595  1.00  0.00    -0.024 A 
ATOM     12  C   UNL A   1      44.570  25.867  35.745  1.00  0.00     0.009 A 
ATOM     13  C   UNL A   1      44.774  25.832  33.323  1.00  0.00     0.009 A 
ATOM     14  C   UNL A   1      43.343  26.512  35.629  1.00  0.00     0.016 A 
ATOM     15  C   UNL A   1      43.545  26.479  33.208  1.00  0.00     0.016 A 
BRANCH  11  16
ATOM     16  C   UNL A   1      46.752  25.361  34.743  1.00  0.00     0.031 C 
ATOM     17  N   UNL A   1      47.288  21.748  34.601  1.00  0.00    -0.219 N 
ATOM     18  C   UNL A   1      46.485  22.855  34.392  1.00  0.00     0.321 C 
ATOM     19  C   UNL A   1      48.621  22.005  34.799  1.00  0.00     0.271 C 
ATOM     20  O   UNL A   1      45.310  22.791  34.058  1.00  0.00    -0.250 OA
ATOM     21  C   UNL A   1      47.251  24.119  34.626  1.00  0.00     0.100 C 
ATOM     22  S   UNL A   1      48.916  23.744  34.792  1.00  0.00    -0.012 SA
ATOM     23  N   UNL A   1      49.492  21.075  34.995  1.00  0.00    -0.226 N 
ATOM     24  H   UNL A   1      49.256  20.126  34.882  1.00  0.00     0.268 HD
BRANCH  17  25
ATOM     25  C   UNL A   1      46.595  20.455  34.617  1.00  0.00     0.206 C 
BRANCH  25  26
ATOM     26  C   UNL A   1      45.479  20.193  35.623  1.00  0.00     0.035 C 
ATOM     27  C   UNL A   1      45.660  18.901  36.410  1.00  0.00     0.007 C 
ENDBRANCH  25  26
ENDBRANCH  17  25
BRANCH  23  28
ATOM     28  C   UNL A   1      50.740  21.443  35.365  1.00  0.00     0.345 A 
ATOM     29  N   UNL A   1      51.200  21.666  36.579  1.00  0.00     0.023 NA
ATOM     30  S   UNL A   1      51.918  21.747  34.128  1.00  0.00    -0.044 S 
ATOM     31  N   UNL A   1      52.549  21.976  36.590  1.00  0.00    -0.067 NA
ATOM     32  C   UNL A   1      53.058  21.994  35.377  1.00  0.00     0.135 A 
ATOM     33  C   UNL A   1      54.490  22.200  35.057  1.00  0.00     0.083 C 
ENDBRANCH  23  28
ENDBRANCH  11  16
ENDBRANCH   8  10
ENDBRANCH   7   8
ENDBRANCH   6   7
ENDBRANCH   5   6
ENDBRANCH   4   5
ENDBRANCH   3   4
ENDBRANCH   2   3
ENDBRANCH   1   2
BRANCH   1  34
ATOM     34  C   UNL A   1      36.328  34.070  34.126  1.00  0.00     0.188 C 
BRANCH  34  35
ATOM     35  C   UNL A   1      34.996  34.378  33.397  1.00  0.00     0.188 C 
BRANCH  35  36
ATOM     36  O   UNL A   1      34.998  34.118  32.001  1.00  0.00    -0.376 OA
BRANCH  36  37
ATOM     37  C   UNL A   1      34.193  34.937  31.174  1.00  0.00     0.202 C 
BRANCH  37  38
ATOM     38  C   UNL A   1      34.067  34.513  29.704  1.00  0.00     0.261 C 
BRANCH  38  39
ATOM     39  O   UNL A   1      35.246  34.668  28.901  1.00  0.00    -0.460 OA
BRANCH  39  40
ATOM     40  C   UNL A   1      35.885  33.540  28.521  1.00  0.00     0.338 C 
ATOM     41  O   UNL A   1      35.682  32.891  27.508  1.00  0.00    -0.246 OA
BRANCH  40  42
ATOM     42  C   UNL A   1      37.010  33.327  29.455  1.00  0.00     0.060 A 
ATOM     43  C   UNL A   1      38.116  34.187  29.403  1.00  0.00     0.016 A 
ATOM     44  C   UNL A   1      36.960  32.293  30.391  1.00  0.00     0.016 A 
ATOM     45  C   UNL A   1      39.191  33.991  30.270  1.00  0.00     0.010 A 
ATOM     46  C   UNL A   1      38.047  32.085  31.243  1.00  0.00     0.010 A 
ATOM     47  C   UNL A   1      39.182  32.913  31.164  1.00  0.00    -0.014 A 
BRANCH  47  48
ATOM     48  C   UNL A   1      40.429  32.527  31.872  1.00  0.00     0.031 A 
ATOM     49  C   UNL A   1      41.371  31.578  31.181  1.00  0.00     0.074 A 
ATOM     50  C   UNL A   1      40.728  33.015  33.089  1.00  0.00     0.049 A 
ATOM     51  N   UNL A   1      42.477  31.037  31.618  1.00  0.00    -0.248 NA
ATOM     52  C   UNL A   1      41.007  31.184  29.811  1.00  0.00     0.031 C 
ATOM     53  C   UNL A   1      39.920  33.978  33.835  1.00  0.00     0.029 A 
ATOM     54  N   UNL A   1      41.793  32.756  33.918  1.00  0.00    -0.354 N 
ATOM     55  C   UNL A   1      42.937  30.230  30.583  1.00  0.00     0.074 A 
ATOM     56  C   UNL A   1      41.971  30.327  29.511  1.00  0.00     0.031 C 
ATOM     57  C   UNL A   1      40.512  34.220  35.017  1.00  0.00     0.029 A 
ATOM     58  C   UNL A   1      41.715  33.396  35.133  1.00  0.00     0.049 A 
ATOM     59  H   UNL A   1      42.541  32.168  33.664  1.00  0.00     0.167 HD
ATOM     60  C   UNL A   1      44.066  29.482  30.531  1.00  0.00     0.034 A 
ATOM     61  C   UNL A   1      42.505  33.299  36.223  1.00  0.00     0.034 A 
ATOM     62  C   UNL A   1      45.013  29.388  31.613  1.00  0.00     0.049 A 
ATOM     63  C   UNL A   1      43.711  32.388  36.176  1.00  0.00     0.074 A 
ATOM     64  C   UNL A   1      46.197  28.674  31.660  1.00  0.00     0.029 A 
ATOM     65  N   UNL A   1      44.880  30.015  32.847  1.00  0.00    -0.354 N 
ATOM     66  N   UNL A   1      44.140  31.633  35.190  1.00  0.00    -0.248 NA
ATOM     67  C   UNL A   1      44.541  32.320  37.386  1.00  0.00     0.031 C 
ATOM     68  C   UNL A   1      46.732  28.796  32.947  1.00  0.00     0.029 A 
ATOM     69  C   UNL A   1      45.937  29.668  33.674  1.00  0.00     0.049 A 
ATOM     70  H   UNL A   1      44.141  30.616  33.097  1.00  0.00     0.167 HD
ATOM     71  C   UNL A   1      45.309  31.030  35.652  1.00  0.00     0.074 A 
ATOM     72  C   UNL A   1      45.523  31.519  36.998  1.00  0.00     0.031 C 
ATOM     73  C   UNL A   1      46.135  30.157  35.020  1.00  0.00     0.034 A 
BRANCH  60  74
ATOM     74  C   UNL A   1      44.301  28.661  29.286  1.00  0.00     0.023 A 
ATOM     75  C   UNL A   1      45.205  29.064  28.287  1.00  0.00     0.031 A 
ATOM     76  C   UNL A   1      43.595  27.461  29.089  1.00  0.00     0.131 A 
ATOM     77  C   UNL A   1      45.330  28.309  27.110  1.00  0.00     0.055 A 
ATOM     78  C   UNL A   1      43.785  26.671  27.954  1.00  0.00     0.041 A 
ATOM     79  F   UNL A   1      42.697  27.040  29.993  1.00  0.00    -0.206 F 
ATOM     80  C   UNL A   1      44.647  27.100  26.950  1.00  0.00     0.022 A 
BRANCH  77  81
ATOM     81  S   UNL A   1      46.289  28.998  25.733  1.00  0.00     0.124 S 
ATOM     82  O   UNL A   1      45.856  28.155  24.622  1.00  0.00    -0.237 OA
ATOM     83  O   UNL A   1      45.838  30.385  25.698  1.00  0.00    -0.237 OA
ATOM     84  O   UNL A   1      47.675  28.802  26.151  1.00  0.00    -0.744 OA
ENDBRANCH  77  81
ENDBRANCH  60  74
BRANCH  61  85
ATOM     85  C   UNL A   1      42.165  34.041  37.474  1.00  0.00     0.023 A 
ATOM     86  C   UNL A   1      41.290  33.501  38.431  1.00  0.00     0.031 A 
ATOM     87  C   UNL A   1      42.667  35.336  37.700  1.00  0.00     0.131 A 
ATOM     88  C   UNL A   1      40.909  34.270  39.543  1.00  0.00     0.055 A 
ATOM     89  C   UNL A   1      42.332  36.072  38.838  1.00  0.00     0.041 A 
ATOM     90  F   UNL A   1      43.499  35.906  36.814  1.00  0.00    -0.206 F 
ATOM     91  C   UNL A   1      41.437  35.544  39.762  1.00  0.00     0.022 A 
BRANCH  88  92
ATOM     92  S   UNL A   1      39.632  33.617  40.655  1.00  0.00     0.124 S 
ATOM     93  O   UNL A   1      38.609  33.185  39.710  1.00  0.00    -0.237 OA
ATOM     94  O   UNL A   1      40.351  32.557  41.352  1.00  0.00    -0.237 OA
ATOM     95  O   UNL A   1      39.276  34.771  41.478  1.00  0.00    -0.744 OA
ENDBRANCH  88  92
ENDBRANCH  61  85
BRANCH  73  96
ATOM     96  C   UNL A   1      47.380  29.716  35.756  1.00  0.00     0.023 A 
ATOM     97  C   UNL A   1      47.388  28.590  36.598  1.00  0.00     0.031 A 
ATOM     98  C   UNL A   1      48.578  30.439  35.611  1.00  0.00     0.131 A 
ATOM     99  C   UNL A   1      48.554  28.254  37.306  1.00  0.00     0.055 A 
ATOM    100  C   UNL A   1      49.753  30.058  36.262  1.00  0.00     0.041 A 
ATOM    101  F   UNL A   1      48.630  31.526  34.824  1.00  0.00    -0.206 F 
ATOM    102  C   UNL A   1      49.741  28.968  37.126  1.00  0.00     0.022 A 
BRANCH  99 103
ATOM    103  S   UNL A   1      48.470  26.933  38.545  1.00  0.00     0.124 S 
ATOM    104  O   UNL A   1      48.748  27.658  39.781  1.00  0.00    -0.237 OA
ATOM    105  O   UNL A   1      47.105  26.441  38.387  1.00  0.00    -0.237 OA
ATOM    106  O   UNL A   1      49.516  26.001  38.125  1.00  0.00    -0.744 OA
ENDBRANCH  99 103
ENDBRANCH  73  96
ENDBRANCH  47  48
ENDBRANCH  40  42
ENDBRANCH  39  40
ENDBRANCH  38  39
ENDBRANCH  37  38
ENDBRANCH  36  37
ENDBRANCH  35  36
ENDBRANCH  34  35
ENDBRANCH   1  34
TORSDOF 27
ENDMDL
MODEL 3
REMARK VINA RESULT:      -6.0      2.550      3.178
REMARK SMILES CCCN1C(=O)/C(=C\c2ccc(C(=O)OCCOCCOCCOCCOC(=O)c3ccc(-c4c5nc(c(-c6cc(S(=O)(=O)[O-])ccc6F)c6ccc([nH]6)c(-c6cc(S(=O)(=O)[O-])ccc6F)c6nc(c(-c7cc(S(=O)(=O)[O-])ccc7F)c7ccc4[nH]7)C=C6)C=C5)cc3)cc2)S/C1=[NH+]\c1nnc(C)s1
REMARK SMILES IDX 21 1 20 2 19 3 18 4 17 5 16 6 15 7 13 8 14 9 12 10 9 11
REMARK SMILES IDX 10 12 94 13 11 14 93 15 8 16 4 17 5 18 96 19 6 20 7 21 95 22
REMARK SMILES IDX 97 23 3 25 2 26 1 27 98 28 99 29 103 30 100 31 101 32 102 33
REMARK SMILES IDX 22 34 23 35 24 36 25 37 26 38 27 39 28 40 29 41 30 42 31 43
REMARK SMILES IDX 92 44 32 45 91 46 33 47 34 48 35 49 85 50 36 51 90 52 84 53
REMARK SMILES IDX 86 54 37 55 89 56 83 57 82 58 38 60 70 61 50 62 69 63 51 64
REMARK SMILES IDX 54 65 68 66 87 67 52 68 53 69 67 71 88 72 55 73 39 74 40 75
REMARK SMILES IDX 48 76 41 77 47 78 49 79 46 80 42 81 43 82 44 83 45 84 71 85
REMARK SMILES IDX 72 86 80 87 73 88 79 89 81 90 78 91 74 92 75 93 76 94 77 95
REMARK SMILES IDX 56 96 57 97 65 98 58 99 64 100 66 101 63 102 59 103 60 104
REMARK SMILES IDX 61 105 62 106
REMARK H PARENT 97 24 86 59 54 70
REMARK Flexibility Score: inf
ROOT
ATOM      1  O   UNL A   1      36.320  33.348  35.343  1.00  0.00    -0.377 OA
ENDROOT
BRANCH   1   2
ATOM      2  C   UNL A   1      37.472  32.525  35.281  1.00  0.00     0.188 C 
BRANCH   2   3
ATOM      3  C   UNL A   1      38.345  32.444  36.549  1.00  0.00     0.188 C 
BRANCH   3   4
ATOM      4  O   UNL A   1      39.030  31.213  36.693  1.00  0.00    -0.376 OA
BRANCH   4   5
ATOM      5  C   UNL A   1      40.277  31.002  36.059  1.00  0.00     0.202 C 
BRANCH   5   6
ATOM      6  C   UNL A   1      40.394  30.261  34.717  1.00  0.00     0.261 C 
BRANCH   6   7
ATOM      7  O   UNL A   1      41.488  29.355  34.584  1.00  0.00    -0.460 OA
BRANCH   7   8
ATOM      8  C   UNL A   1      41.234  28.175  33.986  1.00  0.00     0.338 C 
ATOM      9  O   UNL A   1      40.251  27.886  33.324  1.00  0.00    -0.246 OA
BRANCH   8  10
ATOM     10  C   UNL A   1      42.460  27.348  34.073  1.00  0.00     0.060 A 
ATOM     11  C   UNL A   1      44.860  25.967  34.293  1.00  0.00    -0.024 A 
ATOM     12  C   UNL A   1      44.298  26.558  35.428  1.00  0.00     0.009 A 
ATOM     13  C   UNL A   1      44.150  25.934  33.084  1.00  0.00     0.009 A 
ATOM     14  C   UNL A   1      43.101  27.257  35.315  1.00  0.00     0.016 A 
ATOM     15  C   UNL A   1      42.951  26.637  32.971  1.00  0.00     0.016 A 
BRANCH  11  16
ATOM     16  C   UNL A   1      46.285  25.648  34.312  1.00  0.00     0.031 C 
ATOM     17  N   UNL A   1      46.639  22.228  35.553  1.00  0.00    -0.219 N 
ATOM     18  C   UNL A   1      45.857  23.247  35.039  1.00  0.00     0.321 C 
ATOM     19  C   UNL A   1      47.995  22.396  35.432  1.00  0.00     0.271 C 
ATOM     20  O   UNL A   1      44.640  23.187  34.936  1.00  0.00    -0.250 OA
ATOM     21  C   UNL A   1      46.704  24.412  34.631  1.00  0.00     0.100 C 
ATOM     22  S   UNL A   1      48.355  23.952  34.686  1.00  0.00    -0.012 SA
ATOM     23  N   UNL A   1      48.849  21.526  35.854  1.00  0.00    -0.226 N 
ATOM     24  H   UNL A   1      48.558  20.639  36.167  1.00  0.00     0.268 HD
BRANCH  17  25
ATOM     25  C   UNL A   1      45.908  21.126  36.188  1.00  0.00     0.206 C 
BRANCH  25  26
ATOM     26  C   UNL A   1      46.514  20.381  37.373  1.00  0.00     0.035 C 
ATOM     27  C   UNL A   1      46.304  21.085  38.707  1.00  0.00     0.007 C 
ENDBRANCH  25  26
ENDBRANCH  17  25
BRANCH  23  28
ATOM     28  C   UNL A   1      50.157  21.871  35.856  1.00  0.00     0.345 A 
ATOM     29  N   UNL A   1      51.015  21.823  34.858  1.00  0.00     0.023 NA
ATOM     30  S   UNL A   1      50.880  22.382  37.347  1.00  0.00    -0.044 S 
ATOM     31  N   UNL A   1      52.265  22.304  35.206  1.00  0.00    -0.067 NA
ATOM     32  C   UNL A   1      52.312  22.685  36.464  1.00  0.00     0.135 A 
ATOM     33  C   UNL A   1      53.475  23.330  37.118  1.00  0.00     0.083 C 
ENDBRANCH  23  28
ENDBRANCH  11  16
ENDBRANCH   8  10
ENDBRANCH   7   8
ENDBRANCH   6   7
ENDBRANCH   5   6
ENDBRANCH   4   5
ENDBRANCH   3   4
ENDBRANCH   2   3
ENDBRANCH   1   2
BRANCH   1  34
ATOM     34  C   UNL A   1      36.074  34.301  34.309  1.00  0.00     0.188 C 
BRANCH  34  35
ATOM     35  C   UNL A   1      34.692  34.466  33.628  1.00  0.00     0.188 C 
BRANCH  35  36
ATOM     36  O   UNL A   1      34.676  34.228  32.229  1.00  0.00    -0.376 OA
BRANCH  36  37
ATOM     37  C   UNL A   1      33.813  35.018  31.433  1.00  0.00     0.202 C 
BRANCH  37  38
ATOM     38  C   UNL A   1      33.655  34.594  29.966  1.00  0.00     0.261 C 
BRANCH  38  39
ATOM     39  O   UNL A   1      34.831  34.699  29.151  1.00  0.00    -0.460 OA
BRANCH  39  40
ATOM     40  C   UNL A   1      35.424  33.544  28.774  1.00  0.00     0.338 C 
ATOM     41  O   UNL A   1      35.117  32.841  27.826  1.00  0.00    -0.246 OA
BRANCH  40  42
ATOM     42  C   UNL A   1      36.636  33.375  29.601  1.00  0.00     0.060 A 
ATOM     43  C   UNL A   1      37.746  34.199  29.367  1.00  0.00     0.016 A 
ATOM     44  C   UNL A   1      36.667  32.415  30.615  1.00  0.00     0.016 A 
ATOM     45  C   UNL A   1      38.903  34.041  30.131  1.00  0.00     0.010 A 
ATOM     46  C   UNL A   1      37.834  32.245  31.364  1.00  0.00     0.010 A 
ATOM     47  C   UNL A   1      38.969  33.035  31.104  1.00  0.00    -0.014 A 
BRANCH  47  48
ATOM     48  C   UNL A   1      40.276  32.672  31.707  1.00  0.00     0.031 A 
ATOM     49  C   UNL A   1      41.091  31.597  31.039  1.00  0.00     0.074 A 
ATOM     50  C   UNL A   1      40.738  33.288  32.810  1.00  0.00     0.049 A 
ATOM     51  N   UNL A   1      42.219  31.055  31.411  1.00  0.00    -0.248 NA
ATOM     52  C   UNL A   1      40.548  31.059  29.781  1.00  0.00     0.031 C 
ATOM     53  C   UNL A   1      40.064  34.376  33.515  1.00  0.00     0.029 A 
ATOM     54  N   UNL A   1      41.884  33.075  33.537  1.00  0.00    -0.354 N 
ATOM     55  C   UNL A   1      42.519  30.105  30.441  1.00  0.00     0.074 A 
ATOM     56  C   UNL A   1      41.435  30.122  29.483  1.00  0.00     0.031 C 
ATOM     57  C   UNL A   1      40.803  34.728  34.580  1.00  0.00     0.029 A 
ATOM     58  C   UNL A   1      41.979  33.861  34.662  1.00  0.00     0.049 A 
ATOM     59  H   UNL A   1      42.573  32.422  33.276  1.00  0.00     0.167 HD
ATOM     60  C   UNL A   1      43.604  29.297  30.355  1.00  0.00     0.034 A 
ATOM     61  C   UNL A   1      42.889  33.856  35.658  1.00  0.00     0.034 A 
ATOM     62  C   UNL A   1      44.671  29.285  31.325  1.00  0.00     0.049 A 
ATOM     63  C   UNL A   1      44.045  32.882  35.588  1.00  0.00     0.074 A 
ATOM     64  C   UNL A   1      45.823  28.519  31.326  1.00  0.00     0.029 A 
ATOM     65  N   UNL A   1      44.711  30.063  32.476  1.00  0.00    -0.354 N 
ATOM     66  N   UNL A   1      44.322  31.991  34.664  1.00  0.00    -0.248 NA
ATOM     67  C   UNL A   1      45.011  32.918  36.694  1.00  0.00     0.031 C 
ATOM     68  C   UNL A   1      46.514  28.768  32.516  1.00  0.00     0.029 A 
ATOM     69  C   UNL A   1      45.846  29.763  33.213  1.00  0.00     0.049 A 
ATOM     70  H   UNL A   1      44.032  30.729  32.731  1.00  0.00     0.167 HD
ATOM     71  C   UNL A   1      45.514  31.387  35.061  1.00  0.00     0.074 A 
ATOM     72  C   UNL A   1      45.908  32.024  36.300  1.00  0.00     0.031 C 
ATOM     73  C   UNL A   1      46.224  30.401  34.454  1.00  0.00     0.034 A 
BRANCH  60  74
ATOM     74  C   UNL A   1      43.656  28.319  29.206  1.00  0.00     0.023 A 
ATOM     75  C   UNL A   1      43.136  27.017  29.310  1.00  0.00     0.031 A 
ATOM     76  C   UNL A   1      44.251  28.694  27.987  1.00  0.00     0.131 A 
ATOM     77  C   UNL A   1      43.280  26.118  28.242  1.00  0.00     0.055 A 
ATOM     78  C   UNL A   1      44.316  27.821  26.900  1.00  0.00     0.041 A 
ATOM     79  F   UNL A   1      44.790  29.913  27.837  1.00  0.00    -0.206 F 
ATOM     80  C   UNL A   1      43.841  26.520  27.028  1.00  0.00     0.022 A 
BRANCH  77  81
ATOM     81  S   UNL A   1      42.851  24.376  28.510  1.00  0.00     0.124 S 
ATOM     82  O   UNL A   1      43.366  24.149  29.858  1.00  0.00    -0.237 OA
ATOM     83  O   UNL A   1      41.400  24.382  28.372  1.00  0.00    -0.237 OA
ATOM     84  O   UNL A   1      43.577  23.678  27.450  1.00  0.00    -0.744 OA
ENDBRANCH  77  81
ENDBRANCH  60  74
BRANCH  61  85
ATOM     85  C   UNL A   1      42.732  34.761  36.835  1.00  0.00     0.023 A 
ATOM     86  C   UNL A   1      41.953  34.392  37.943  1.00  0.00     0.031 A 
ATOM     87  C   UNL A   1      43.313  36.042  36.838  1.00  0.00     0.131 A 
ATOM     88  C   UNL A   1      41.739  35.310  38.985  1.00  0.00     0.055 A 
ATOM     89  C   UNL A   1      43.148  36.929  37.904  1.00  0.00     0.041 A 
ATOM     90  F   UNL A   1      44.060  36.452  35.800  1.00  0.00    -0.206 F 
ATOM     91  C   UNL A   1      42.344  36.569  38.981  1.00  0.00     0.022 A 
BRANCH  88  92
ATOM     92  S   UNL A   1      40.574  34.871  40.305  1.00  0.00     0.124 S 
ATOM     93  O   UNL A   1      40.716  33.421  40.356  1.00  0.00    -0.237 OA
ATOM     94  O   UNL A   1      41.112  35.610  41.442  1.00  0.00    -0.237 OA
ATOM     95  O   UNL A   1      39.290  35.357  39.800  1.00  0.00    -0.744 OA
ENDBRANCH  88  92
ENDBRANCH  61  85
BRANCH  73  96
ATOM     96  C   UNL A   1      47.530  29.987  35.093  1.00  0.00     0.023 A 
ATOM     97  C   UNL A   1      48.765  30.506  34.669  1.00  0.00     0.031 A 
ATOM     98  C   UNL A   1      47.535  29.053  36.146  1.00  0.00     0.131 A 
ATOM     99  C   UNL A   1      49.956  30.048  35.255  1.00  0.00     0.055 A 
ATOM    100  C   UNL A   1      48.717  28.655  36.773  1.00  0.00     0.041 A 
ATOM    101  F   UNL A   1      46.387  28.519  36.592  1.00  0.00    -0.206 F 
ATOM    102  C   UNL A   1      49.938  29.142  36.319  1.00  0.00     0.022 A 
BRANCH  99 103
ATOM    103  S   UNL A   1      51.538  30.572  34.539  1.00  0.00     0.124 S 
ATOM    104  O   UNL A   1      51.666  29.674  33.396  1.00  0.00    -0.237 OA
ATOM    105  O   UNL A   1      51.290  31.975  34.224  1.00  0.00    -0.237 OA
ATOM    106  O   UNL A   1      52.497  30.341  35.620  1.00  0.00    -0.744 OA
ENDBRANCH  99 103
ENDBRANCH  73  96
ENDBRANCH  47  48
ENDBRANCH  40  42
ENDBRANCH  39  40
ENDBRANCH  38  39
ENDBRANCH  37  38
ENDBRANCH  36  37
ENDBRANCH  35  36
ENDBRANCH  34  35
ENDBRANCH   1  34
TORSDOF 27
ENDMDL
