MODEL 1
REMARK VINA RESULT:      -9.1      0.000      0.000
REMARK SMILES [NH3+]Cc1c(-c2ccccc2)c(C(=O)OCCOCCOCCOCCOC(=O)c2ccc(-c3c4nc(c(-c5cc(S(=O)(=O)[O-])ccc5F)c5ccc([nH]5)c(-c5cc(S(=O)(=O)[O-])ccc5F)c5nc(c(-c6cc(S(=O)(=O)[O-])ccc6F)c6ccc3[nH]6)C=C5)C=C4)cc2)c2ccccn12
REMARK SMILES IDX 21 1 20 2 19 3 18 4 17 5 16 6 15 7 14 8 12 9 13 10 11 11
REMARK SMILES IDX 3 12 4 13 97 14 92 15 96 16 93 17 95 18 94 19 2 20 1 21 5 25
REMARK SMILES IDX 6 26 10 27 7 28 9 29 8 30 22 31 23 32 24 33 25 34 26 35
REMARK SMILES IDX 27 36 28 37 29 38 30 39 91 40 31 41 90 42 32 43 33 44 34 45
REMARK SMILES IDX 84 46 35 47 89 48 83 49 85 50 36 51 88 52 82 53 81 54 37 56
REMARK SMILES IDX 69 57 49 58 68 59 50 60 53 61 67 62 86 63 51 64 52 65 66 67
REMARK SMILES IDX 87 68 54 69 38 70 39 71 47 72 40 73 46 74 48 75 45 76 41 77
REMARK SMILES IDX 42 78 43 79 44 80 70 81 71 82 79 83 72 84 78 85 80 86 77 87
REMARK SMILES IDX 73 88 74 89 75 90 76 91 55 92 56 93 64 94 57 95 63 96 65 97
REMARK SMILES IDX 62 98 58 99 59 100 60 101 61 102
REMARK H PARENT 1 22 1 23 1 24 85 55 53 66
REMARK Flexibility Score: inf
ROOT
ATOM      1  C   UNL A   1      33.041  35.600  29.409  1.00  0.00     0.188 C 
ENDROOT
BRANCH   1   2
ATOM      2  O   UNL A   1      33.082  34.199  29.213  1.00  0.00    -0.377 OA
BRANCH   2   3
ATOM      3  C   UNL A   1      34.031  33.651  28.309  1.00  0.00     0.188 C 
BRANCH   3   4
ATOM      4  C   UNL A   1      34.244  32.133  28.166  1.00  0.00     0.188 C 
BRANCH   4   5
ATOM      5  O   UNL A   1      33.221  31.460  27.438  1.00  0.00    -0.376 OA
BRANCH   5   6
ATOM      6  C   UNL A   1      33.548  30.152  26.986  1.00  0.00     0.202 C 
BRANCH   6   7
ATOM      7  C   UNL A   1      32.352  29.202  27.081  1.00  0.00     0.261 C 
BRANCH   7   8
ATOM      8  O   UNL A   1      32.710  27.813  27.004  1.00  0.00    -0.460 OA
BRANCH   8   9
ATOM      9  C   UNL A   1      31.771  26.951  26.533  1.00  0.00     0.341 C 
ATOM     10  O   UNL A   1      30.682  26.761  27.065  1.00  0.00    -0.246 OA
BRANCH   9  11
ATOM     11  C   UNL A   1      32.166  26.337  25.269  1.00  0.00     0.093 A 
ATOM     12  C   UNL A   1      32.192  25.712  23.065  1.00  0.00     0.086 A 
ATOM     13  C   UNL A   1      31.552  26.527  23.992  1.00  0.00     0.024 A 
ATOM     14  N   UNL A   1      33.269  25.118  23.712  1.00  0.00    -0.314 N 
ATOM     15  C   UNL A   1      33.268  25.524  25.047  1.00  0.00     0.061 A 
ATOM     16  C   UNL A   1      34.254  24.268  23.191  1.00  0.00     0.092 A 
ATOM     17  C   UNL A   1      34.343  25.063  25.873  1.00  0.00     0.027 A 
ATOM     18  C   UNL A   1      35.249  23.829  23.978  1.00  0.00     0.018 A 
ATOM     19  C   UNL A   1      35.292  24.260  25.360  1.00  0.00     0.004 A 
BRANCH  12  20
ATOM     20  C   UNL A   1      31.858  25.455  21.634  1.00  0.00     0.315 C 
BRANCH  20  21
ATOM     21  N   UNL A   1      32.640  26.310  20.753  1.00  0.00    -0.353 N 
ATOM     22  H   UNL A   1      32.161  27.204  20.634  1.00  0.00     0.344 HD
ATOM     23  H   UNL A   1      32.745  25.859  19.845  1.00  0.00     0.344 HD
ATOM     24  H   UNL A   1      33.561  26.470  21.162  1.00  0.00     0.344 HD
ENDBRANCH  20  21
ENDBRANCH  12  20
BRANCH  13  25
ATOM     25  C   UNL A   1      30.525  27.488  23.625  1.00  0.00    -0.015 A 
ATOM     26  C   UNL A   1      30.897  28.815  23.358  1.00  0.00     0.009 A 
ATOM     27  C   UNL A   1      29.181  27.124  23.564  1.00  0.00     0.009 A 
ATOM     28  C   UNL A   1      29.933  29.773  23.046  1.00  0.00     0.001 A 
ATOM     29  C   UNL A   1      28.217  28.083  23.241  1.00  0.00     0.001 A 
ATOM     30  C   UNL A   1      28.591  29.404  22.988  1.00  0.00     0.000 A 
ENDBRANCH  13  25
ENDBRANCH   9  11
ENDBRANCH   8   9
ENDBRANCH   7   8
ENDBRANCH   6   7
ENDBRANCH   5   6
ENDBRANCH   4   5
ENDBRANCH   3   4
ENDBRANCH   2   3
ENDBRANCH   1   2
BRANCH   1  31
ATOM     31  C   UNL A   1      32.246  36.090  30.628  1.00  0.00     0.188 C 
BRANCH  31  32
ATOM     32  O   UNL A   1      32.998  36.939  31.498  1.00  0.00    -0.376 OA
BRANCH  32  33
ATOM     33  C   UNL A   1      33.105  36.488  32.845  1.00  0.00     0.202 C 
BRANCH  33  34
ATOM     34  C   UNL A   1      34.456  35.852  33.190  1.00  0.00     0.261 C 
BRANCH  34  35
ATOM     35  O   UNL A   1      35.086  35.141  32.113  1.00  0.00    -0.460 OA
BRANCH  35  36
ATOM     36  C   UNL A   1      35.051  33.791  32.148  1.00  0.00     0.338 C 
ATOM     37  O   UNL A   1      34.077  33.080  32.311  1.00  0.00    -0.246 OA
BRANCH  36  38
ATOM     38  C   UNL A   1      36.394  33.316  31.764  1.00  0.00     0.060 A 
ATOM     39  C   UNL A   1      37.072  32.431  32.614  1.00  0.00     0.016 A 
ATOM     40  C   UNL A   1      36.954  33.706  30.545  1.00  0.00     0.016 A 
ATOM     41  C   UNL A   1      38.325  31.942  32.244  1.00  0.00     0.010 A 
ATOM     42  C   UNL A   1      38.217  33.234  30.190  1.00  0.00     0.010 A 
ATOM     43  C   UNL A   1      38.916  32.368  31.047  1.00  0.00    -0.014 A 
BRANCH  43  44
ATOM     44  C   UNL A   1      40.342  32.080  30.770  1.00  0.00     0.031 A 
ATOM     45  C   UNL A   1      41.364  33.063  31.267  1.00  0.00     0.074 A 
ATOM     46  C   UNL A   1      40.716  31.000  30.064  1.00  0.00     0.049 A 
ATOM     47  N   UNL A   1      42.656  33.090  31.074  1.00  0.00    -0.248 NA
ATOM     48  C   UNL A   1      40.849  34.170  32.088  1.00  0.00     0.031 C 
ATOM     49  C   UNL A   1      39.816  29.963  29.562  1.00  0.00     0.029 A 
ATOM     50  N   UNL A   1      41.958  30.609  29.631  1.00  0.00    -0.354 N 
ATOM     51  C   UNL A   1      43.113  34.211  31.759  1.00  0.00     0.074 A 
ATOM     52  C   UNL A   1      41.953  34.856  32.336  1.00  0.00     0.031 C 
ATOM     53  C   UNL A   1      40.536  29.061  28.871  1.00  0.00     0.029 A 
ATOM     54  C   UNL A   1      41.938  29.478  28.849  1.00  0.00     0.049 A 
ATOM     55  H   UNL A   1      42.785  31.092  29.857  1.00  0.00     0.167 HD
ATOM     56  C   UNL A   1      44.385  34.657  31.898  1.00  0.00     0.034 A 
ATOM     57  C   UNL A   1      42.934  28.873  28.171  1.00  0.00     0.034 A 
ATOM     58  C   UNL A   1      45.523  34.032  31.274  1.00  0.00     0.049 A 
ATOM     59  C   UNL A   1      44.326  29.458  28.236  1.00  0.00     0.074 A 
ATOM     60  C   UNL A   1      46.855  34.400  31.341  1.00  0.00     0.029 A 
ATOM     61  N   UNL A   1      45.458  32.918  30.446  1.00  0.00    -0.354 N 
ATOM     62  N   UNL A   1      44.751  30.512  28.895  1.00  0.00    -0.248 NA
ATOM     63  C   UNL A   1      45.370  28.775  27.460  1.00  0.00     0.031 C 
ATOM     64  C   UNL A   1      47.585  33.549  30.502  1.00  0.00     0.029 A 
ATOM     65  C   UNL A   1      46.720  32.608  29.966  1.00  0.00     0.049 A 
ATOM     66  H   UNL A   1      44.635  32.422  30.232  1.00  0.00     0.167 HD
ATOM     67  C   UNL A   1      46.116  30.599  28.635  1.00  0.00     0.074 A 
ATOM     68  C   UNL A   1      46.444  29.490  27.763  1.00  0.00     0.031 C 
ATOM     69  C   UNL A   1      47.022  31.507  29.082  1.00  0.00     0.034 A 
BRANCH  56  70
ATOM     70  C   UNL A   1      44.578  35.913  32.709  1.00  0.00     0.023 A 
ATOM     71  C   UNL A   1      44.411  37.187  32.137  1.00  0.00     0.031 A 
ATOM     72  C   UNL A   1      45.002  35.839  34.046  1.00  0.00     0.131 A 
ATOM     73  C   UNL A   1      44.742  38.333  32.875  1.00  0.00     0.055 A 
ATOM     74  C   UNL A   1      45.256  36.985  34.799  1.00  0.00     0.041 A 
ATOM     75  F   UNL A   1      45.203  34.649  34.634  1.00  0.00    -0.206 F 
ATOM     76  C   UNL A   1      45.144  38.241  34.210  1.00  0.00     0.022 A 
BRANCH  73  77
ATOM     77  S   UNL A   1      44.792  39.931  32.018  1.00  0.00     0.124 S 
ATOM     78  O   UNL A   1      46.163  39.955  31.516  1.00  0.00    -0.237 OA
ATOM     79  O   UNL A   1      43.745  39.782  31.013  1.00  0.00    -0.237 OA
ATOM     80  O   UNL A   1      44.507  40.897  33.077  1.00  0.00    -0.744 OA
ENDBRANCH  73  77
ENDBRANCH  56  70
BRANCH  57  81
ATOM     81  C   UNL A   1      42.659  27.677  27.326  1.00  0.00     0.023 A 
ATOM     82  C   UNL A   1      42.875  26.378  27.814  1.00  0.00     0.031 A 
ATOM     83  C   UNL A   1      42.231  27.819  25.994  1.00  0.00     0.131 A 
ATOM     84  C   UNL A   1      42.699  25.275  26.964  1.00  0.00     0.055 A 
ATOM     85  C   UNL A   1      42.016  26.716  25.166  1.00  0.00     0.041 A 
ATOM     86  F   UNL A   1      42.012  29.039  25.478  1.00  0.00    -0.206 F 
ATOM     87  C   UNL A   1      42.261  25.434  25.648  1.00  0.00     0.022 A 
BRANCH  84  88
ATOM     88  S   UNL A   1      43.120  23.623  27.586  1.00  0.00     0.124 S 
ATOM     89  O   UNL A   1      44.454  23.841  28.133  1.00  0.00    -0.237 OA
ATOM     90  O   UNL A   1      42.058  23.385  28.557  1.00  0.00    -0.237 OA
ATOM     91  O   UNL A   1      43.065  22.784  26.390  1.00  0.00    -0.744 OA
ENDBRANCH  84  88
ENDBRANCH  57  81
BRANCH  69  92
ATOM     92  C   UNL A   1      48.457  31.307  28.666  1.00  0.00     0.023 A 
ATOM     93  C   UNL A   1      49.046  32.075  27.646  1.00  0.00     0.031 A 
ATOM     94  C   UNL A   1      49.248  30.336  29.307  1.00  0.00     0.131 A 
ATOM     95  C   UNL A   1      50.376  31.830  27.269  1.00  0.00     0.055 A 
ATOM     96  C   UNL A   1      50.583  30.132  28.962  1.00  0.00     0.041 A 
ATOM     97  F   UNL A   1      48.733  29.578  30.288  1.00  0.00    -0.206 F 
ATOM     98  C   UNL A   1      51.151  30.874  27.931  1.00  0.00     0.022 A 
BRANCH  95  99
ATOM     99  S   UNL A   1      51.063  32.734  25.855  1.00  0.00     0.124 S 
ATOM    100  O   UNL A   1      51.599  31.654  25.033  1.00  0.00    -0.237 OA
ATOM    101  O   UNL A   1      49.890  33.420  25.321  1.00  0.00    -0.237 OA
ATOM    102  O   UNL A   1      52.067  33.607  26.461  1.00  0.00    -0.744 OA
ENDBRANCH  95  99
ENDBRANCH  69  92
ENDBRANCH  43  44
ENDBRANCH  36  38
ENDBRANCH  35  36
ENDBRANCH  34  35
ENDBRANCH  33  34
ENDBRANCH  32  33
ENDBRANCH  31  32
ENDBRANCH   1  31
TORSDOF 26
ENDMDL
MODEL 2
REMARK VINA RESULT:      -9.0      3.052      3.423
REMARK SMILES [NH3+]Cc1c(-c2ccccc2)c(C(=O)OCCOCCOCCOCCOC(=O)c2ccc(-c3c4nc(c(-c5cc(S(=O)(=O)[O-])ccc5F)c5ccc([nH]5)c(-c5cc(S(=O)(=O)[O-])ccc5F)c5nc(c(-c6cc(S(=O)(=O)[O-])ccc6F)c6ccc3[nH]6)C=C5)C=C4)cc2)c2ccccn12
REMARK SMILES IDX 21 1 20 2 19 3 18 4 17 5 16 6 15 7 14 8 12 9 13 10 11 11
REMARK SMILES IDX 3 12 4 13 97 14 92 15 96 16 93 17 95 18 94 19 2 20 1 21 5 25
REMARK SMILES IDX 6 26 10 27 7 28 9 29 8 30 22 31 23 32 24 33 25 34 26 35
REMARK SMILES IDX 27 36 28 37 29 38 30 39 91 40 31 41 90 42 32 43 33 44 34 45
REMARK SMILES IDX 84 46 35 47 89 48 83 49 85 50 36 51 88 52 82 53 81 54 37 56
REMARK SMILES IDX 69 57 49 58 68 59 50 60 53 61 67 62 86 63 51 64 52 65 66 67
REMARK SMILES IDX 87 68 54 69 38 70 39 71 47 72 40 73 46 74 48 75 45 76 41 77
REMARK SMILES IDX 42 78 43 79 44 80 70 81 71 82 79 83 72 84 78 85 80 86 77 87
REMARK SMILES IDX 73 88 74 89 75 90 76 91 55 92 56 93 64 94 57 95 63 96 65 97
REMARK SMILES IDX 62 98 58 99 59 100 60 101 61 102
REMARK H PARENT 1 22 1 23 1 24 85 55 53 66
REMARK Flexibility Score: inf
ROOT
ATOM      1  C   UNL A   1      33.816  35.304  29.066  1.00  0.00     0.188 C 
ENDROOT
BRANCH   1   2
ATOM      2  O   UNL A   1      33.791  33.896  28.917  1.00  0.00    -0.377 OA
BRANCH   2   3
ATOM      3  C   UNL A   1      34.754  33.268  28.083  1.00  0.00     0.188 C 
BRANCH   3   4
ATOM      4  C   UNL A   1      34.895  31.737  28.003  1.00  0.00     0.188 C 
BRANCH   4   5
ATOM      5  O   UNL A   1      33.804  31.076  27.367  1.00  0.00    -0.376 OA
BRANCH   5   6
ATOM      6  C   UNL A   1      33.993  29.691  27.107  1.00  0.00     0.202 C 
BRANCH   6   7
ATOM      7  C   UNL A   1      32.663  28.940  27.031  1.00  0.00     0.261 C 
BRANCH   7   8
ATOM      8  O   UNL A   1      32.801  27.512  27.082  1.00  0.00    -0.460 OA
BRANCH   8   9
ATOM      9  C   UNL A   1      31.807  26.767  26.531  1.00  0.00     0.341 C 
ATOM     10  O   UNL A   1      30.685  26.653  27.012  1.00  0.00    -0.246 OA
BRANCH   9  11
ATOM     11  C   UNL A   1      32.196  26.186  25.249  1.00  0.00     0.093 A 
ATOM     12  C   UNL A   1      32.216  25.630  23.027  1.00  0.00     0.086 A 
ATOM     13  C   UNL A   1      31.586  26.425  23.978  1.00  0.00     0.024 A 
ATOM     14  N   UNL A   1      33.283  25.000  23.657  1.00  0.00    -0.314 N 
ATOM     15  C   UNL A   1      33.286  25.364  25.004  1.00  0.00     0.061 A 
ATOM     16  C   UNL A   1      34.256  24.151  23.112  1.00  0.00     0.092 A 
ATOM     17  C   UNL A   1      34.352  24.862  25.817  1.00  0.00     0.027 A 
ATOM     18  C   UNL A   1      35.243  23.673  23.886  1.00  0.00     0.018 A 
ATOM     19  C   UNL A   1      35.290  24.061  25.281  1.00  0.00     0.004 A 
BRANCH  12  20
ATOM     20  C   UNL A   1      31.882  25.421  21.588  1.00  0.00     0.315 C 
BRANCH  20  21
ATOM     21  N   UNL A   1      32.705  26.264  20.733  1.00  0.00    -0.353 N 
ATOM     22  H   UNL A   1      33.624  25.835  20.616  1.00  0.00     0.344 HD
ATOM     23  H   UNL A   1      32.811  27.182  21.161  1.00  0.00     0.344 HD
ATOM     24  H   UNL A   1      32.258  26.363  19.821  1.00  0.00     0.344 HD
ENDBRANCH  20  21
ENDBRANCH  12  20
BRANCH  13  25
ATOM     25  C   UNL A   1      30.575  27.412  23.638  1.00  0.00    -0.015 A 
ATOM     26  C   UNL A   1      29.228  27.023  23.596  1.00  0.00     0.009 A 
ATOM     27  C   UNL A   1      30.923  28.725  23.325  1.00  0.00     0.009 A 
ATOM     28  C   UNL A   1      28.237  27.934  23.230  1.00  0.00     0.001 A 
ATOM     29  C   UNL A   1      29.928  29.640  22.969  1.00  0.00     0.001 A 
ATOM     30  C   UNL A   1      28.590  29.244  22.917  1.00  0.00     0.000 A 
ENDBRANCH  13  25
ENDBRANCH   9  11
ENDBRANCH   8   9
ENDBRANCH   7   8
ENDBRANCH   6   7
ENDBRANCH   5   6
ENDBRANCH   4   5
ENDBRANCH   3   4
ENDBRANCH   2   3
ENDBRANCH   1   2
BRANCH   1  31
ATOM     31  C   UNL A   1      32.836  35.894  30.090  1.00  0.00     0.188 C 
BRANCH  31  32
ATOM     32  O   UNL A   1      33.447  36.799  31.012  1.00  0.00    -0.376 OA
BRANCH  32  33
ATOM     33  C   UNL A   1      33.267  36.480  32.389  1.00  0.00     0.202 C 
BRANCH  33  34
ATOM     34  C   UNL A   1      34.510  35.890  33.065  1.00  0.00     0.261 C 
BRANCH  34  35
ATOM     35  O   UNL A   1      35.239  34.938  32.275  1.00  0.00    -0.460 OA
BRANCH  35  36
ATOM     36  C   UNL A   1      34.839  33.648  32.321  1.00  0.00     0.338 C 
ATOM     37  O   UNL A   1      33.698  33.227  32.327  1.00  0.00    -0.246 OA
BRANCH  36  38
ATOM     38  C   UNL A   1      36.050  32.818  32.175  1.00  0.00     0.060 A 
ATOM     39  C   UNL A   1      36.171  31.650  32.939  1.00  0.00     0.016 A 
ATOM     40  C   UNL A   1      37.034  33.170  31.248  1.00  0.00     0.016 A 
ATOM     41  C   UNL A   1      37.291  30.833  32.781  1.00  0.00     0.010 A 
ATOM     42  C   UNL A   1      38.164  32.365  31.109  1.00  0.00     0.010 A 
ATOM     43  C   UNL A   1      38.306  31.206  31.890  1.00  0.00    -0.014 A 
BRANCH  43  44
ATOM     44  C   UNL A   1      39.613  30.509  31.907  1.00  0.00     0.031 A 
ATOM     45  C   UNL A   1      40.628  30.947  32.924  1.00  0.00     0.074 A 
ATOM     46  C   UNL A   1      39.904  29.542  31.020  1.00  0.00     0.049 A 
ATOM     47  N   UNL A   1      41.867  30.565  33.082  1.00  0.00    -0.248 NA
ATOM     48  C   UNL A   1      40.177  31.962  33.890  1.00  0.00     0.031 C 
ATOM     49  C   UNL A   1      38.986  29.013  30.012  1.00  0.00     0.029 A 
ATOM     50  N   UNL A   1      41.069  28.847  30.815  1.00  0.00    -0.354 N 
ATOM     51  C   UNL A   1      42.345  31.285  34.171  1.00  0.00     0.074 A 
ATOM     52  C   UNL A   1      41.272  32.154  34.607  1.00  0.00     0.031 C 
ATOM     53  C   UNL A   1      39.632  28.087  29.281  1.00  0.00     0.029 A 
ATOM     54  C   UNL A   1      41.017  27.987  29.744  1.00  0.00     0.049 A 
ATOM     55  H   UNL A   1      41.867  28.954  31.381  1.00  0.00     0.167 HD
ATOM     56  C   UNL A   1      43.565  31.223  34.758  1.00  0.00     0.034 A 
ATOM     57  C   UNL A   1      41.986  27.234  29.187  1.00  0.00     0.034 A 
ATOM     58  C   UNL A   1      44.639  30.391  34.280  1.00  0.00     0.049 A 
ATOM     59  C   UNL A   1      43.376  27.273  29.777  1.00  0.00     0.074 A 
ATOM     60  C   UNL A   1      45.917  30.251  34.790  1.00  0.00     0.029 A 
ATOM     61  N   UNL A   1      44.566  29.572  33.159  1.00  0.00    -0.354 N 
ATOM     62  N   UNL A   1      43.815  27.948  30.815  1.00  0.00    -0.248 NA
ATOM     63  C   UNL A   1      44.401  26.452  29.118  1.00  0.00     0.031 C 
ATOM     64  C   UNL A   1      46.635  29.400  33.942  1.00  0.00     0.029 A 
ATOM     65  C   UNL A   1      45.787  28.953  32.942  1.00  0.00     0.049 A 
ATOM     66  H   UNL A   1      43.763  29.449  32.602  1.00  0.00     0.167 HD
ATOM     67  C   UNL A   1      45.160  27.610  30.948  1.00  0.00     0.074 A 
ATOM     68  C   UNL A   1      45.458  26.669  29.888  1.00  0.00     0.031 C 
ATOM     69  C   UNL A   1      46.067  28.031  31.867  1.00  0.00     0.034 A 
BRANCH  56  70
ATOM     70  C   UNL A   1      43.796  32.131  35.938  1.00  0.00     0.023 A 
ATOM     71  C   UNL A   1      44.257  33.449  35.769  1.00  0.00     0.031 A 
ATOM     72  C   UNL A   1      43.624  31.654  37.248  1.00  0.00     0.131 A 
ATOM     73  C   UNL A   1      44.605  34.217  36.891  1.00  0.00     0.055 A 
ATOM     74  C   UNL A   1      43.899  32.449  38.361  1.00  0.00     0.041 A 
ATOM     75  F   UNL A   1      43.213  30.395  37.468  1.00  0.00    -0.206 F 
ATOM     76  C   UNL A   1      44.409  33.733  38.186  1.00  0.00     0.022 A 
BRANCH  73  77
ATOM     77  S   UNL A   1      45.463  35.794  36.629  1.00  0.00     0.124 S 
ATOM     78  O   UNL A   1      46.839  35.443  36.971  1.00  0.00    -0.237 OA
ATOM     79  O   UNL A   1      45.203  36.062  35.219  1.00  0.00    -0.237 OA
ATOM     80  O   UNL A   1      44.807  36.701  37.568  1.00  0.00    -0.744 OA
ENDBRANCH  73  77
ENDBRANCH  56  70
BRANCH  57  81
ATOM     81  C   UNL A   1      41.707  26.416  27.972  1.00  0.00     0.023 A 
ATOM     82  C   UNL A   1      41.404  25.049  28.072  1.00  0.00     0.031 A 
ATOM     83  C   UNL A   1      41.798  26.981  26.687  1.00  0.00     0.131 A 
ATOM     84  C   UNL A   1      41.241  24.283  26.907  1.00  0.00     0.055 A 
ATOM     85  C   UNL A   1      41.592  26.224  25.532  1.00  0.00     0.041 A 
ATOM     86  F   UNL A   1      42.087  28.283  26.537  1.00  0.00    -0.206 F 
ATOM     87  C   UNL A   1      41.322  24.863  25.639  1.00  0.00     0.022 A 
BRANCH  84  88
ATOM     88  S   UNL A   1      40.988  22.493  27.071  1.00  0.00     0.124 S 
ATOM     89  O   UNL A   1      41.468  22.248  28.425  1.00  0.00    -0.237 OA
ATOM     90  O   UNL A   1      39.549  22.371  26.866  1.00  0.00    -0.237 OA
ATOM     91  O   UNL A   1      41.815  21.933  26.003  1.00  0.00    -0.744 OA
ENDBRANCH  84  88
ENDBRANCH  57  81
BRANCH  69  92
ATOM     92  C   UNL A   1      47.451  27.440  31.786  1.00  0.00     0.023 A 
ATOM     93  C   UNL A   1      48.471  28.044  31.030  1.00  0.00     0.031 A 
ATOM     94  C   UNL A   1      47.754  26.256  32.482  1.00  0.00     0.131 A 
ATOM     95  C   UNL A   1      49.736  27.439  30.956  1.00  0.00     0.055 A 
ATOM     96  C   UNL A   1      49.026  25.687  32.445  1.00  0.00     0.041 A 
ATOM     97  F   UNL A   1      46.815  25.640  33.219  1.00  0.00    -0.206 F 
ATOM     98  C   UNL A   1      50.023  26.273  31.671  1.00  0.00     0.022 A 
BRANCH  95  99
ATOM     99  S   UNL A   1      50.987  28.162  29.860  1.00  0.00     0.124 S 
ATOM    100  O   UNL A   1      52.182  27.405  30.219  1.00  0.00    -0.237 OA
ATOM    101  O   UNL A   1      50.436  27.893  28.535  1.00  0.00    -0.237 OA
ATOM    102  O   UNL A   1      51.007  29.572  30.245  1.00  0.00    -0.744 OA
ENDBRANCH  95  99
ENDBRANCH  69  92
ENDBRANCH  43  44
ENDBRANCH  36  38
ENDBRANCH  35  36
ENDBRANCH  34  35
ENDBRANCH  33  34
ENDBRANCH  32  33
ENDBRANCH  31  32
ENDBRANCH   1  31
TORSDOF 26
ENDMDL
MODEL 3
REMARK VINA RESULT:      -8.9      2.566      3.514
REMARK SMILES [NH3+]Cc1c(-c2ccccc2)c(C(=O)OCCOCCOCCOCCOC(=O)c2ccc(-c3c4nc(c(-c5cc(S(=O)(=O)[O-])ccc5F)c5ccc([nH]5)c(-c5cc(S(=O)(=O)[O-])ccc5F)c5nc(c(-c6cc(S(=O)(=O)[O-])ccc6F)c6ccc3[nH]6)C=C5)C=C4)cc2)c2ccccn12
REMARK SMILES IDX 21 1 20 2 19 3 18 4 17 5 16 6 15 7 14 8 12 9 13 10 11 11
REMARK SMILES IDX 3 12 4 13 97 14 92 15 96 16 93 17 95 18 94 19 2 20 1 21 5 25
REMARK SMILES IDX 6 26 10 27 7 28 9 29 8 30 22 31 23 32 24 33 25 34 26 35
REMARK SMILES IDX 27 36 28 37 29 38 30 39 91 40 31 41 90 42 32 43 33 44 34 45
REMARK SMILES IDX 84 46 35 47 89 48 83 49 85 50 36 51 88 52 82 53 81 54 37 56
REMARK SMILES IDX 69 57 49 58 68 59 50 60 53 61 67 62 86 63 51 64 52 65 66 67
REMARK SMILES IDX 87 68 54 69 38 70 39 71 47 72 40 73 46 74 48 75 45 76 41 77
REMARK SMILES IDX 42 78 43 79 44 80 70 81 71 82 79 83 72 84 78 85 80 86 77 87
REMARK SMILES IDX 73 88 74 89 75 90 76 91 55 92 56 93 64 94 57 95 63 96 65 97
REMARK SMILES IDX 62 98 58 99 59 100 60 101 61 102
REMARK H PARENT 1 22 1 23 1 24 85 55 53 66
REMARK Flexibility Score: inf
ROOT
ATOM      1  C   UNL A   1      34.476  33.669  28.219  1.00  0.00     0.188 C 
ENDROOT
BRANCH   1   2
ATOM      2  O   UNL A   1      34.116  32.499  27.506  1.00  0.00    -0.377 OA
BRANCH   2   3
ATOM      3  C   UNL A   1      34.959  31.358  27.571  1.00  0.00     0.188 C 
BRANCH   3   4
ATOM      4  C   UNL A   1      34.472  29.955  27.165  1.00  0.00     0.188 C 
BRANCH   4   5
ATOM      5  O   UNL A   1      33.190  29.605  27.679  1.00  0.00    -0.376 OA
BRANCH   5   6
ATOM      6  C   UNL A   1      32.851  28.226  27.594  1.00  0.00     0.202 C 
BRANCH   6   7
ATOM      7  C   UNL A   1      31.337  28.017  27.514  1.00  0.00     0.261 C 
BRANCH   7   8
ATOM      8  O   UNL A   1      30.890  27.500  26.251  1.00  0.00    -0.460 OA
BRANCH   8   9
ATOM      9  C   UNL A   1      30.995  26.160  26.052  1.00  0.00     0.341 C 
ATOM     10  O   UNL A   1      30.618  25.313  26.855  1.00  0.00    -0.246 OA
BRANCH   9  11
ATOM     11  C   UNL A   1      31.526  25.836  24.732  1.00  0.00     0.093 A 
ATOM     12  C   UNL A   1      31.796  25.726  22.460  1.00  0.00     0.086 A 
ATOM     13  C   UNL A   1      31.060  26.329  23.473  1.00  0.00     0.024 A 
ATOM     14  N   UNL A   1      32.790  24.967  23.066  1.00  0.00    -0.314 N 
ATOM     15  C   UNL A   1      32.641  25.060  24.451  1.00  0.00     0.061 A 
ATOM     16  C   UNL A   1      33.822  24.226  22.475  1.00  0.00     0.092 A 
ATOM     17  C   UNL A   1      33.614  24.391  25.260  1.00  0.00     0.027 A 
ATOM     18  C   UNL A   1      34.719  23.590  23.243  1.00  0.00     0.018 A 
ATOM     19  C   UNL A   1      34.610  23.696  24.683  1.00  0.00     0.004 A 
BRANCH  12  20
ATOM     20  C   UNL A   1      31.624  25.809  20.980  1.00  0.00     0.315 C 
BRANCH  20  21
ATOM     21  N   UNL A   1      32.898  26.052  20.318  1.00  0.00    -0.353 N 
ATOM     22  H   UNL A   1      33.567  26.424  20.994  1.00  0.00     0.344 HD
ATOM     23  H   UNL A   1      32.767  26.726  19.565  1.00  0.00     0.344 HD
ATOM     24  H   UNL A   1      33.254  25.177  19.933  1.00  0.00     0.344 HD
ENDBRANCH  20  21
ENDBRANCH  12  20
BRANCH  13  25
ATOM     25  C   UNL A   1      30.087  27.380  23.226  1.00  0.00    -0.015 A 
ATOM     26  C   UNL A   1      30.535  28.635  22.786  1.00  0.00     0.009 A 
ATOM     27  C   UNL A   1      28.727  27.174  23.448  1.00  0.00     0.009 A 
ATOM     28  C   UNL A   1      29.633  29.679  22.582  1.00  0.00     0.001 A 
ATOM     29  C   UNL A   1      27.823  28.218  23.233  1.00  0.00     0.001 A 
ATOM     30  C   UNL A   1      28.275  29.468  22.806  1.00  0.00     0.000 A 
ENDBRANCH  13  25
ENDBRANCH   9  11
ENDBRANCH   8   9
ENDBRANCH   7   8
ENDBRANCH   6   7
ENDBRANCH   5   6
ENDBRANCH   4   5
ENDBRANCH   3   4
ENDBRANCH   2   3
ENDBRANCH   1   2
BRANCH   1  31
ATOM     31  C   UNL A   1      33.318  34.484  28.813  1.00  0.00     0.188 C 
BRANCH  31  32
ATOM     32  O   UNL A   1      33.737  35.459  29.771  1.00  0.00    -0.376 OA
BRANCH  32  33
ATOM     33  C   UNL A   1      33.200  35.295  31.080  1.00  0.00     0.202 C 
BRANCH  33  34
ATOM     34  C   UNL A   1      34.232  34.882  32.136  1.00  0.00     0.261 C 
BRANCH  34  35
ATOM     35  O   UNL A   1      35.349  34.134  31.635  1.00  0.00    -0.460 OA
BRANCH  35  36
ATOM     36  C   UNL A   1      35.357  32.799  31.847  1.00  0.00     0.338 C 
ATOM     37  O   UNL A   1      34.430  32.104  32.217  1.00  0.00    -0.246 OA
BRANCH  36  38
ATOM     38  C   UNL A   1      36.659  32.296  31.370  1.00  0.00     0.060 A 
ATOM     39  C   UNL A   1      37.137  32.719  30.123  1.00  0.00     0.016 A 
ATOM     40  C   UNL A   1      37.422  31.451  32.179  1.00  0.00     0.016 A 
ATOM     41  C   UNL A   1      38.385  32.283  29.677  1.00  0.00     0.010 A 
ATOM     42  C   UNL A   1      38.659  30.998  31.721  1.00  0.00     0.010 A 
ATOM     43  C   UNL A   1      39.135  31.395  30.460  1.00  0.00    -0.014 A 
BRANCH  43  44
ATOM     44  C   UNL A   1      40.321  30.713  29.893  1.00  0.00     0.031 A 
ATOM     45  C   UNL A   1      41.595  31.502  29.777  1.00  0.00     0.074 A 
ATOM     46  C   UNL A   1      40.259  29.443  29.458  1.00  0.00     0.049 A 
ATOM     47  N   UNL A   1      42.734  31.168  29.233  1.00  0.00    -0.248 NA
ATOM     48  C   UNL A   1      41.569  32.857  30.350  1.00  0.00     0.031 C 
ATOM     49  C   UNL A   1      39.088  28.572  29.551  1.00  0.00     0.029 A 
ATOM     50  N   UNL A   1      41.205  28.672  28.830  1.00  0.00    -0.354 N 
ATOM     51  C   UNL A   1      43.568  32.267  29.406  1.00  0.00     0.074 A 
ATOM     52  C   UNL A   1      42.786  33.290  30.069  1.00  0.00     0.031 C 
ATOM     53  C   UNL A   1      39.381  27.389  28.981  1.00  0.00     0.029 A 
ATOM     54  C   UNL A   1      40.744  27.434  28.450  1.00  0.00     0.049 A 
ATOM     55  H   UNL A   1      42.126  28.977  28.666  1.00  0.00     0.167 HD
ATOM     56  C   UNL A   1      44.867  32.409  29.050  1.00  0.00     0.034 A 
ATOM     57  C   UNL A   1      41.346  26.467  27.728  1.00  0.00     0.034 A 
ATOM     58  C   UNL A   1      45.616  31.400  28.344  1.00  0.00     0.049 A 
ATOM     59  C   UNL A   1      42.753  26.693  27.229  1.00  0.00     0.074 A 
ATOM     60  C   UNL A   1      46.935  31.436  27.928  1.00  0.00     0.029 A 
ATOM     61  N   UNL A   1      45.100  30.178  27.929  1.00  0.00    -0.354 N 
ATOM     62  N   UNL A   1      43.538  27.732  27.408  1.00  0.00    -0.248 NA
ATOM     63  C   UNL A   1      43.354  25.619  26.428  1.00  0.00     0.031 C 
ATOM     64  C   UNL A   1      47.195  30.266  27.204  1.00  0.00     0.029 A 
ATOM     65  C   UNL A   1      46.062  29.468  27.229  1.00  0.00     0.049 A 
ATOM     66  H   UNL A   1      44.184  29.864  28.107  1.00  0.00     0.167 HD
ATOM     67  C   UNL A   1      44.733  27.421  26.764  1.00  0.00     0.074 A 
ATOM     68  C   UNL A   1      44.568  26.098  26.198  1.00  0.00     0.031 C 
ATOM     69  C   UNL A   1      45.870  28.157  26.657  1.00  0.00     0.034 A 
BRANCH  56  70
ATOM     70  C   UNL A   1      45.519  33.729  29.372  1.00  0.00     0.023 A 
ATOM     71  C   UNL A   1      45.516  34.791  28.452  1.00  0.00     0.031 A 
ATOM     72  C   UNL A   1      46.212  33.904  30.582  1.00  0.00     0.131 A 
ATOM     73  C   UNL A   1      46.258  35.951  28.721  1.00  0.00     0.055 A 
ATOM     74  C   UNL A   1      46.885  35.090  30.877  1.00  0.00     0.041 A 
ATOM     75  F   UNL A   1      46.271  32.913  31.486  1.00  0.00    -0.206 F 
ATOM     76  C   UNL A   1      46.925  36.116  29.937  1.00  0.00     0.022 A 
BRANCH  73  77
ATOM     77  S   UNL A   1      46.467  37.173  27.396  1.00  0.00     0.124 S 
ATOM     78  O   UNL A   1      47.850  37.597  27.599  1.00  0.00    -0.237 OA
ATOM     79  O   UNL A   1      46.210  36.383  26.197  1.00  0.00    -0.237 OA
ATOM     80  O   UNL A   1      45.461  38.187  27.702  1.00  0.00    -0.744 OA
ENDBRANCH  73  77
ENDBRANCH  56  70
BRANCH  57  81
ATOM     81  C   UNL A   1      40.615  25.216  27.380  1.00  0.00     0.023 A 
ATOM     82  C   UNL A   1      41.270  23.974  27.363  1.00  0.00     0.031 A 
ATOM     83  C   UNL A   1      39.261  25.254  27.001  1.00  0.00     0.131 A 
ATOM     84  C   UNL A   1      40.581  22.827  26.938  1.00  0.00     0.055 A 
ATOM     85  C   UNL A   1      38.569  24.103  26.620  1.00  0.00     0.041 A 
ATOM     86  F   UNL A   1      38.590  26.416  26.998  1.00  0.00    -0.206 F 
ATOM     87  C   UNL A   1      39.233  22.881  26.577  1.00  0.00     0.022 A 
BRANCH  84  88
ATOM     88  S   UNL A   1      41.496  21.266  26.797  1.00  0.00     0.124 S 
ATOM     89  O   UNL A   1      42.318  21.509  25.617  1.00  0.00    -0.237 OA
ATOM     90  O   UNL A   1      42.202  21.212  28.073  1.00  0.00    -0.237 OA
ATOM     91  O   UNL A   1      40.442  20.268  26.629  1.00  0.00    -0.744 OA
ENDBRANCH  84  88
ENDBRANCH  57  81
BRANCH  69  92
ATOM     92  C   UNL A   1      47.032  27.523  25.935  1.00  0.00     0.023 A 
ATOM     93  C   UNL A   1      47.309  27.807  24.586  1.00  0.00     0.031 A 
ATOM     94  C   UNL A   1      47.878  26.627  26.612  1.00  0.00     0.131 A 
ATOM     95  C   UNL A   1      48.382  27.167  23.946  1.00  0.00     0.055 A 
ATOM     96  C   UNL A   1      48.972  26.033  25.984  1.00  0.00     0.041 A 
ATOM     97  F   UNL A   1      47.657  26.323  27.902  1.00  0.00    -0.206 F 
ATOM     98  C   UNL A   1      49.223  26.293  24.641  1.00  0.00     0.022 A 
BRANCH  95  99
ATOM     99  S   UNL A   1      48.628  27.441  22.169  1.00  0.00     0.124 S 
ATOM    100  O   UNL A   1      49.859  28.223  22.149  1.00  0.00    -0.237 OA
ATOM    101  O   UNL A   1      48.728  26.080  21.653  1.00  0.00    -0.237 OA
ATOM    102  O   UNL A   1      47.425  28.168  21.765  1.00  0.00    -0.744 OA
ENDBRANCH  95  99
ENDBRANCH  69  92
ENDBRANCH  43  44
ENDBRANCH  36  38
ENDBRANCH  35  36
ENDBRANCH  34  35
ENDBRANCH  33  34
ENDBRANCH  32  33
ENDBRANCH  31  32
ENDBRANCH   1  31
TORSDOF 26
ENDMDL
