MODEL 1
REMARK VINA RESULT:      -9.3      0.000      0.000
REMARK SMILES COc1ccc(NC(=O)NCc2ccc(C(=O)OCCOCCOCCOCCOC(=O)c3ccc(-c4c5nc(c(-c6cc(S(=O)(=O)[O-])ccc6F)c6ccc([nH]6)c(-c6cc(S(=O)(=O)[O-])ccc6F)c6nc(c(-c7cc(S(=O)(=O)[O-])ccc7F)c7ccc4[nH]7)C=C6)C=C5)cc3)cc2)c(OC)c1
REMARK SMILES IDX 23 1 22 2 21 3 20 4 19 5 18 6 16 7 17 8 15 9 12 10 13 11
REMARK SMILES IDX 97 12 14 13 96 14 11 15 10 16 7 17 8 18 9 20 6 22 3 23 4 24
REMARK SMILES IDX 101 25 5 26 98 27 2 28 1 29 99 30 100 31 24 32 25 33 26 34
REMARK SMILES IDX 27 35 28 36 29 37 30 38 31 39 32 40 33 41 34 42 95 43 35 44
REMARK SMILES IDX 94 45 36 46 37 47 38 48 88 49 39 50 93 51 87 52 89 53 40 54
REMARK SMILES IDX 92 55 86 56 85 57 41 59 73 60 53 61 72 62 54 63 57 64 71 65
REMARK SMILES IDX 90 66 55 67 56 68 70 70 91 71 58 72 42 73 43 74 51 75 44 76
REMARK SMILES IDX 50 77 52 78 49 79 45 80 46 81 47 82 48 83 74 84 75 85 83 86
REMARK SMILES IDX 76 87 82 88 84 89 81 90 77 91 78 92 79 93 80 94 59 95 60 96
REMARK SMILES IDX 68 97 61 98 67 99 69 100 66 101 62 102 63 103 64 104 65 105
REMARK H PARENT 7 19 10 21 89 58 57 69
REMARK Flexibility Score: inf
ROOT
ATOM      1  C   UNL A   1      38.230  22.131  25.489  1.00  0.00     0.188 C 
ENDROOT
BRANCH   1   2
ATOM      2  C   UNL A   1      36.771  21.776  25.838  1.00  0.00     0.188 C 
BRANCH   2   3
ATOM      3  O   UNL A   1      36.138  20.943  24.884  1.00  0.00    -0.376 OA
BRANCH   3   4
ATOM      4  C   UNL A   1      34.913  20.306  25.199  1.00  0.00     0.202 C 
BRANCH   4   5
ATOM      5  C   UNL A   1      33.609  20.755  24.521  1.00  0.00     0.261 C 
BRANCH   5   6
ATOM      6  O   UNL A   1      33.703  21.893  23.661  1.00  0.00    -0.460 OA
BRANCH   6   7
ATOM      7  C   UNL A   1      32.630  22.148  22.884  1.00  0.00     0.338 C 
ATOM      8  O   UNL A   1      32.176  21.432  22.008  1.00  0.00    -0.246 OA
BRANCH   7   9
ATOM      9  C   UNL A   1      31.947  23.350  23.410  1.00  0.00     0.060 A 
ATOM     10  C   UNL A   1      30.780  25.690  24.398  1.00  0.00    -0.029 A 
ATOM     11  C   UNL A   1      32.112  25.377  24.708  1.00  0.00     0.006 A 
ATOM     12  C   UNL A   1      30.038  24.830  23.577  1.00  0.00     0.006 A 
ATOM     13  C   UNL A   1      32.693  24.213  24.218  1.00  0.00     0.016 A 
ATOM     14  C   UNL A   1      30.623  23.665  23.074  1.00  0.00     0.016 A 
BRANCH  10  15
ATOM     15  C   UNL A   1      30.234  27.016  24.843  1.00  0.00     0.153 C 
BRANCH  15  16
ATOM     16  N   UNL A   1      29.824  27.883  23.762  1.00  0.00    -0.334 N 
ATOM     17  N   UNL A   1      30.841  30.014  24.143  1.00  0.00    -0.305 N 
ATOM     18  C   UNL A   1      30.064  29.165  23.440  1.00  0.00     0.319 C 
ATOM     19  H   UNL A   1      30.742  30.949  23.848  1.00  0.00     0.172 HD
ATOM     20  O   UNL A   1      29.443  29.625  22.475  1.00  0.00    -0.248 OA
ATOM     21  H   UNL A   1      29.235  27.432  23.114  1.00  0.00     0.165 HD
BRANCH  17  22
ATOM     22  C   UNL A   1      31.756  29.877  25.197  1.00  0.00     0.085 A 
ATOM     23  C   UNL A   1      33.892  30.147  26.970  1.00  0.00     0.122 A 
ATOM     24  C   UNL A   1      32.608  30.532  27.353  1.00  0.00     0.049 A 
ATOM     25  C   UNL A   1      34.062  29.434  25.785  1.00  0.00     0.095 A 
ATOM     26  C   UNL A   1      31.531  30.363  26.480  1.00  0.00     0.034 A 
ATOM     27  C   UNL A   1      32.977  29.245  24.925  1.00  0.00     0.146 A 
BRANCH  23  28
ATOM     28  O   UNL A   1      34.896  30.492  27.831  1.00  0.00    -0.497 OA
ATOM     29  C   UNL A   1      35.330  31.849  27.760  1.00  0.00     0.278 C 
ENDBRANCH  23  28
BRANCH  27  30
ATOM     30  O   UNL A   1      33.088  28.528  23.757  1.00  0.00    -0.494 OA
ATOM     31  C   UNL A   1      34.438  28.460  23.287  1.00  0.00     0.278 C 
ENDBRANCH  27  30
ENDBRANCH  17  22
ENDBRANCH  15  16
ENDBRANCH  10  15
ENDBRANCH   7   9
ENDBRANCH   6   7
ENDBRANCH   5   6
ENDBRANCH   4   5
ENDBRANCH   3   4
ENDBRANCH   2   3
ENDBRANCH   1   2
BRANCH   1  32
ATOM     32  O   UNL A   1      39.237  21.215  25.886  1.00  0.00    -0.377 OA
BRANCH  32  33
ATOM     33  C   UNL A   1      40.247  21.618  26.812  1.00  0.00     0.188 C 
BRANCH  33  34
ATOM     34  C   UNL A   1      41.219  20.619  27.488  1.00  0.00     0.188 C 
BRANCH  34  35
ATOM     35  O   UNL A   1      42.280  20.171  26.658  1.00  0.00    -0.376 OA
BRANCH  35  36
ATOM     36  C   UNL A   1      42.423  18.773  26.489  1.00  0.00     0.202 C 
BRANCH  36  37
ATOM     37  C   UNL A   1      43.410  18.329  25.401  1.00  0.00     0.261 C 
BRANCH  37  38
ATOM     38  O   UNL A   1      44.661  19.034  25.360  1.00  0.00    -0.460 OA
BRANCH  38  39
ATOM     39  C   UNL A   1      44.846  19.904  24.342  1.00  0.00     0.338 C 
ATOM     40  O   UNL A   1      44.921  19.633  23.155  1.00  0.00    -0.246 OA
BRANCH  39  41
ATOM     41  C   UNL A   1      44.745  21.268  24.900  1.00  0.00     0.060 A 
ATOM     42  C   UNL A   1      44.117  22.274  24.151  1.00  0.00     0.016 A 
ATOM     43  C   UNL A   1      45.250  21.544  26.172  1.00  0.00     0.016 A 
ATOM     44  C   UNL A   1      44.022  23.569  24.664  1.00  0.00     0.010 A 
ATOM     45  C   UNL A   1      45.172  22.845  26.675  1.00  0.00     0.010 A 
ATOM     46  C   UNL A   1      44.586  23.870  25.911  1.00  0.00    -0.014 A 
BRANCH  46  47
ATOM     47  C   UNL A   1      44.754  25.286  26.327  1.00  0.00     0.031 A 
ATOM     48  C   UNL A   1      46.130  25.889  26.245  1.00  0.00     0.074 A 
ATOM     49  C   UNL A   1      43.716  26.023  26.755  1.00  0.00     0.049 A 
ATOM     50  N   UNL A   1      46.545  27.074  26.609  1.00  0.00    -0.248 NA
ATOM     51  C   UNL A   1      47.180  25.027  25.682  1.00  0.00     0.031 C 
ATOM     52  C   UNL A   1      42.329  25.567  26.828  1.00  0.00     0.029 A 
ATOM     53  N   UNL A   1      43.671  27.315  27.216  1.00  0.00    -0.354 N 
ATOM     54  C   UNL A   1      47.908  27.099  26.327  1.00  0.00     0.074 A 
ATOM     55  C   UNL A   1      48.251  25.793  25.806  1.00  0.00     0.031 C 
ATOM     56  C   UNL A   1      41.569  26.566  27.312  1.00  0.00     0.029 A 
ATOM     57  C   UNL A   1      42.420  27.713  27.625  1.00  0.00     0.049 A 
ATOM     58  H   UNL A   1      44.461  27.902  27.251  1.00  0.00     0.167 HD
ATOM     59  C   UNL A   1      48.788  28.119  26.481  1.00  0.00     0.034 A 
ATOM     60  C   UNL A   1      42.016  28.860  28.210  1.00  0.00     0.034 A 
ATOM     61  C   UNL A   1      48.429  29.407  27.024  1.00  0.00     0.049 A 
ATOM     62  C   UNL A   1      43.033  29.947  28.475  1.00  0.00     0.074 A 
ATOM     63  C   UNL A   1      49.234  30.516  27.213  1.00  0.00     0.029 A 
ATOM     64  N   UNL A   1      47.164  29.752  27.486  1.00  0.00    -0.354 N 
ATOM     65  N   UNL A   1      44.318  29.965  28.199  1.00  0.00    -0.248 NA
ATOM     66  C   UNL A   1      42.544  31.167  29.128  1.00  0.00     0.031 C 
ATOM     67  C   UNL A   1      48.482  31.496  27.869  1.00  0.00     0.029 A 
ATOM     68  C   UNL A   1      47.180  31.040  28.000  1.00  0.00     0.049 A 
ATOM     69  H   UNL A   1      46.373  29.168  27.453  1.00  0.00     0.167 HD
ATOM     70  C   UNL A   1      44.779  31.214  28.613  1.00  0.00     0.074 A 
ATOM     71  C   UNL A   1      43.633  31.921  29.148  1.00  0.00     0.031 C 
ATOM     72  C   UNL A   1      46.034  31.733  28.546  1.00  0.00     0.034 A 
BRANCH  59  73
ATOM     73  C   UNL A   1      50.229  27.846  26.119  1.00  0.00     0.023 A 
ATOM     74  C   UNL A   1      51.199  27.559  27.097  1.00  0.00     0.031 A 
ATOM     75  C   UNL A   1      50.654  27.933  24.781  1.00  0.00     0.131 A 
ATOM     76  C   UNL A   1      52.551  27.465  26.736  1.00  0.00     0.055 A 
ATOM     77  C   UNL A   1      51.988  27.741  24.416  1.00  0.00     0.041 A 
ATOM     78  F   UNL A   1      49.783  28.230  23.805  1.00  0.00    -0.206 F 
ATOM     79  C   UNL A   1      52.950  27.526  25.399  1.00  0.00     0.022 A 
BRANCH  76  80
ATOM     80  S   UNL A   1      53.799  27.450  28.054  1.00  0.00     0.124 S 
ATOM     81  O   UNL A   1      54.827  26.586  27.476  1.00  0.00    -0.237 OA
ATOM     82  O   UNL A   1      54.145  28.861  28.176  1.00  0.00    -0.237 OA
ATOM     83  O   UNL A   1      53.087  26.879  29.194  1.00  0.00    -0.744 OA
ENDBRANCH  76  80
ENDBRANCH  59  73
BRANCH  60  84
ATOM     84  C   UNL A   1      40.593  29.038  28.618  1.00  0.00     0.023 A 
ATOM     85  C   UNL A   1      40.202  28.923  29.961  1.00  0.00     0.031 A 
ATOM     86  C   UNL A   1      39.591  29.284  27.660  1.00  0.00     0.131 A 
ATOM     87  C   UNL A   1      38.843  29.015  30.306  1.00  0.00     0.055 A 
ATOM     88  C   UNL A   1      38.249  29.431  28.014  1.00  0.00     0.041 A 
ATOM     89  F   UNL A   1      39.908  29.395  26.360  1.00  0.00    -0.206 F 
ATOM     90  C   UNL A   1      37.867  29.286  29.344  1.00  0.00     0.022 A 
BRANCH  87  91
ATOM     91  S   UNL A   1      38.360  28.702  32.026  1.00  0.00     0.124 S 
ATOM     92  O   UNL A   1      39.324  29.515  32.758  1.00  0.00    -0.237 OA
ATOM     93  O   UNL A   1      36.979  29.171  32.044  1.00  0.00    -0.237 OA
ATOM     94  O   UNL A   1      38.526  27.257  32.168  1.00  0.00    -0.744 OA
ENDBRANCH  87  91
ENDBRANCH  60  84
BRANCH  72  95
ATOM     95  C   UNL A   1      46.222  33.156  29.021  1.00  0.00     0.023 A 
ATOM     96  C   UNL A   1      46.257  34.243  28.131  1.00  0.00     0.031 A 
ATOM     97  C   UNL A   1      46.372  33.427  30.395  1.00  0.00     0.131 A 
ATOM     98  C   UNL A   1      46.494  35.539  28.617  1.00  0.00     0.055 A 
ATOM     99  C   UNL A   1      46.537  34.725  30.878  1.00  0.00     0.041 A 
ATOM    100  F   UNL A   1      46.353  32.429  31.295  1.00  0.00    -0.206 F 
ATOM    101  C   UNL A   1      46.613  35.789  29.986  1.00  0.00     0.022 A 
BRANCH  98 102
ATOM    102  S   UNL A   1      46.752  36.883  27.425  1.00  0.00     0.124 S 
ATOM    103  O   UNL A   1      48.188  37.119  27.542  1.00  0.00    -0.237 OA
ATOM    104  O   UNL A   1      46.305  36.282  26.174  1.00  0.00    -0.237 OA
ATOM    105  O   UNL A   1      45.904  37.960  27.934  1.00  0.00    -0.744 OA
ENDBRANCH  98 102
ENDBRANCH  72  95
ENDBRANCH  46  47
ENDBRANCH  39  41
ENDBRANCH  38  39
ENDBRANCH  37  38
ENDBRANCH  36  37
ENDBRANCH  35  36
ENDBRANCH  34  35
ENDBRANCH  33  34
ENDBRANCH  32  33
ENDBRANCH   1  32
TORSDOF 28
ENDMDL
MODEL 2
REMARK VINA RESULT:      -9.2      3.032      8.142
REMARK SMILES COc1ccc(NC(=O)NCc2ccc(C(=O)OCCOCCOCCOCCOC(=O)c3ccc(-c4c5nc(c(-c6cc(S(=O)(=O)[O-])ccc6F)c6ccc([nH]6)c(-c6cc(S(=O)(=O)[O-])ccc6F)c6nc(c(-c7cc(S(=O)(=O)[O-])ccc7F)c7ccc4[nH]7)C=C6)C=C5)cc3)cc2)c(OC)c1
REMARK SMILES IDX 23 1 22 2 21 3 20 4 19 5 18 6 16 7 17 8 15 9 12 10 13 11
REMARK SMILES IDX 97 12 14 13 96 14 11 15 10 16 7 17 8 18 9 20 6 22 3 23 4 24
REMARK SMILES IDX 101 25 5 26 98 27 2 28 1 29 99 30 100 31 24 32 25 33 26 34
REMARK SMILES IDX 27 35 28 36 29 37 30 38 31 39 32 40 33 41 34 42 95 43 35 44
REMARK SMILES IDX 94 45 36 46 37 47 38 48 88 49 39 50 93 51 87 52 89 53 40 54
REMARK SMILES IDX 92 55 86 56 85 57 41 59 73 60 53 61 72 62 54 63 57 64 71 65
REMARK SMILES IDX 90 66 55 67 56 68 70 70 91 71 58 72 42 73 43 74 51 75 44 76
REMARK SMILES IDX 50 77 52 78 49 79 45 80 46 81 47 82 48 83 74 84 75 85 83 86
REMARK SMILES IDX 76 87 82 88 84 89 81 90 77 91 78 92 79 93 80 94 59 95 60 96
REMARK SMILES IDX 68 97 61 98 67 99 69 100 66 101 62 102 63 103 64 104 65 105
REMARK H PARENT 7 19 10 21 89 58 57 69
REMARK Flexibility Score: inf
ROOT
ATOM      1  C   UNL A   1      37.700  21.927  25.086  1.00  0.00     0.188 C 
ENDROOT
BRANCH   1   2
ATOM      2  C   UNL A   1      36.351  21.472  25.678  1.00  0.00     0.188 C 
BRANCH   2   3
ATOM      3  O   UNL A   1      35.446  20.958  24.718  1.00  0.00    -0.376 OA
BRANCH   3   4
ATOM      4  C   UNL A   1      34.817  19.708  24.935  1.00  0.00     0.202 C 
BRANCH   4   5
ATOM      5  C   UNL A   1      33.315  19.538  24.654  1.00  0.00     0.261 C 
BRANCH   5   6
ATOM      6  O   UNL A   1      32.594  20.729  24.330  1.00  0.00    -0.460 OA
BRANCH   6   7
ATOM      7  C   UNL A   1      32.283  20.906  23.029  1.00  0.00     0.338 C 
ATOM      8  O   UNL A   1      32.026  20.038  22.214  1.00  0.00    -0.246 OA
BRANCH   7   9
ATOM      9  C   UNL A   1      32.085  22.354  22.789  1.00  0.00     0.060 A 
ATOM     10  C   UNL A   1      31.653  25.096  22.466  1.00  0.00    -0.029 A 
ATOM     11  C   UNL A   1      30.752  24.319  23.210  1.00  0.00     0.006 A 
ATOM     12  C   UNL A   1      32.782  24.492  21.896  1.00  0.00     0.006 A 
ATOM     13  C   UNL A   1      30.965  22.955  23.371  1.00  0.00     0.016 A 
ATOM     14  C   UNL A   1      33.005  23.124  22.065  1.00  0.00     0.016 A 
BRANCH  10  15
ATOM     15  C   UNL A   1      31.451  26.583  22.425  1.00  0.00     0.153 C 
BRANCH  15  16
ATOM     16  N   UNL A   1      32.589  27.323  21.930  1.00  0.00    -0.334 N 
ATOM     17  N   UNL A   1      34.069  27.661  23.778  1.00  0.00    -0.305 N 
ATOM     18  C   UNL A   1      33.717  27.799  22.484  1.00  0.00     0.319 C 
ATOM     19  H   UNL A   1      34.832  28.233  24.026  1.00  0.00     0.172 HD
ATOM     20  O   UNL A   1      34.439  28.502  21.768  1.00  0.00    -0.248 OA
ATOM     21  H   UNL A   1      32.524  27.525  20.968  1.00  0.00     0.165 HD
BRANCH  17  22
ATOM     22  C   UNL A   1      33.601  26.894  24.856  1.00  0.00     0.085 A 
ATOM     23  C   UNL A   1      32.110  25.283  26.576  1.00  0.00     0.122 A 
ATOM     24  C   UNL A   1      33.242  24.773  25.940  1.00  0.00     0.049 A 
ATOM     25  C   UNL A   1      31.855  26.651  26.514  1.00  0.00     0.095 A 
ATOM     26  C   UNL A   1      34.011  25.590  25.108  1.00  0.00     0.034 A 
ATOM     27  C   UNL A   1      32.641  27.469  25.700  1.00  0.00     0.146 A 
BRANCH  23  28
ATOM     28  O   UNL A   1      31.345  24.368  27.244  1.00  0.00    -0.497 OA
ATOM     29  C   UNL A   1      30.092  24.052  26.638  1.00  0.00     0.278 C 
ENDBRANCH  23  28
BRANCH  27  30
ATOM     30  O   UNL A   1      32.445  28.828  25.624  1.00  0.00    -0.494 OA
ATOM     31  C   UNL A   1      31.230  29.165  24.947  1.00  0.00     0.278 C 
ENDBRANCH  27  30
ENDBRANCH  17  22
ENDBRANCH  15  16
ENDBRANCH  10  15
ENDBRANCH   7   9
ENDBRANCH   6   7
ENDBRANCH   5   6
ENDBRANCH   4   5
ENDBRANCH   3   4
ENDBRANCH   2   3
ENDBRANCH   1   2
BRANCH   1  32
ATOM     32  O   UNL A   1      38.863  21.711  25.868  1.00  0.00    -0.377 OA
BRANCH  32  33
ATOM     33  C   UNL A   1      39.491  22.806  26.535  1.00  0.00     0.188 C 
BRANCH  33  34
ATOM     34  C   UNL A   1      40.419  22.627  27.762  1.00  0.00     0.188 C 
BRANCH  34  35
ATOM     35  O   UNL A   1      41.802  22.799  27.490  1.00  0.00    -0.376 OA
BRANCH  35  36
ATOM     36  C   UNL A   1      42.507  21.680  26.985  1.00  0.00     0.202 C 
BRANCH  36  37
ATOM     37  C   UNL A   1      43.624  21.992  25.981  1.00  0.00     0.261 C 
BRANCH  37  38
ATOM     38  O   UNL A   1      44.521  23.053  26.345  1.00  0.00    -0.460 OA
BRANCH  38  39
ATOM     39  C   UNL A   1      45.022  23.809  25.343  1.00  0.00     0.338 C 
ATOM     40  O   UNL A   1      45.163  23.476  24.177  1.00  0.00    -0.246 OA
BRANCH  39  41
ATOM     41  C   UNL A   1      45.187  25.182  25.862  1.00  0.00     0.060 A 
ATOM     42  C   UNL A   1      45.638  25.372  27.176  1.00  0.00     0.016 A 
ATOM     43  C   UNL A   1      44.918  26.279  25.041  1.00  0.00     0.016 A 
ATOM     44  C   UNL A   1      45.790  26.665  27.681  1.00  0.00     0.010 A 
ATOM     45  C   UNL A   1      45.052  27.571  25.554  1.00  0.00     0.010 A 
ATOM     46  C   UNL A   1      45.458  27.770  26.886  1.00  0.00    -0.014 A 
BRANCH  46  47
ATOM     47  C   UNL A   1      45.331  29.115  27.501  1.00  0.00     0.031 A 
ATOM     48  C   UNL A   1      44.053  29.446  28.223  1.00  0.00     0.074 A 
ATOM     49  C   UNL A   1      46.323  30.019  27.434  1.00  0.00     0.049 A 
ATOM     50  N   UNL A   1      43.675  30.566  28.781  1.00  0.00    -0.248 NA
ATOM     51  C   UNL A   1      43.065  28.361  28.315  1.00  0.00     0.031 C 
ATOM     52  C   UNL A   1      47.626  29.797  26.808  1.00  0.00     0.029 A 
ATOM     53  N   UNL A   1      46.385  31.311  27.893  1.00  0.00    -0.354 N 
ATOM     54  C   UNL A   1      42.400  30.324  29.286  1.00  0.00     0.074 A 
ATOM     55  C   UNL A   1      42.058  28.966  28.923  1.00  0.00     0.031 C 
ATOM     56  C   UNL A   1      48.357  30.920  26.921  1.00  0.00     0.029 A 
ATOM     57  C   UNL A   1      47.561  31.953  27.583  1.00  0.00     0.049 A 
ATOM     58  H   UNL A   1      45.655  31.738  28.398  1.00  0.00     0.167 HD
ATOM     59  C   UNL A   1      41.596  31.156  29.993  1.00  0.00     0.034 A 
ATOM     60  C   UNL A   1      47.936  33.232  27.786  1.00  0.00     0.034 A 
ATOM     61  C   UNL A   1      41.947  32.515  30.325  1.00  0.00     0.049 A 
ATOM     62  C   UNL A   1      46.982  34.177  28.479  1.00  0.00     0.074 A 
ATOM     63  C   UNL A   1      41.216  33.442  31.046  1.00  0.00     0.029 A 
ATOM     64  N   UNL A   1      43.122  33.150  29.939  1.00  0.00    -0.354 N 
ATOM     65  N   UNL A   1      45.781  33.939  28.959  1.00  0.00    -0.248 NA
ATOM     66  C   UNL A   1      47.434  35.562  28.660  1.00  0.00     0.031 C 
ATOM     67  C   UNL A   1      41.905  34.659  31.019  1.00  0.00     0.029 A 
ATOM     68  C   UNL A   1      43.114  34.469  30.369  1.00  0.00     0.049 A 
ATOM     69  H   UNL A   1      43.853  32.727  29.434  1.00  0.00     0.167 HD
ATOM     70  C   UNL A   1      45.354  35.136  29.530  1.00  0.00     0.074 A 
ATOM     71  C   UNL A   1      46.428  36.090  29.342  1.00  0.00     0.031 C 
ATOM     72  C   UNL A   1      44.184  35.419  30.163  1.00  0.00     0.034 A 
BRANCH  59  73
ATOM     73  C   UNL A   1      40.235  30.628  30.385  1.00  0.00     0.023 A 
ATOM     74  C   UNL A   1      39.081  30.920  29.636  1.00  0.00     0.031 A 
ATOM     75  C   UNL A   1      40.079  29.872  31.561  1.00  0.00     0.131 A 
ATOM     76  C   UNL A   1      37.818  30.542  30.118  1.00  0.00     0.055 A 
ATOM     77  C   UNL A   1      38.829  29.415  31.984  1.00  0.00     0.041 A 
ATOM     78  F   UNL A   1      41.137  29.583  32.334  1.00  0.00    -0.206 F 
ATOM     79  C   UNL A   1      37.686  29.768  31.272  1.00  0.00     0.022 A 
BRANCH  76  80
ATOM     80  S   UNL A   1      36.344  31.237  29.318  1.00  0.00     0.124 S 
ATOM     81  O   UNL A   1      36.921  32.326  28.534  1.00  0.00    -0.237 OA
ATOM     82  O   UNL A   1      35.835  30.101  28.558  1.00  0.00    -0.237 OA
ATOM     83  O   UNL A   1      35.513  31.662  30.442  1.00  0.00    -0.744 OA
ENDBRANCH  76  80
ENDBRANCH  59  73
BRANCH  60  84
ATOM     84  C   UNL A   1      49.263  33.714  27.302  1.00  0.00     0.023 A 
ATOM     85  C   UNL A   1      50.404  33.638  28.116  1.00  0.00     0.031 A 
ATOM     86  C   UNL A   1      49.400  34.299  26.030  1.00  0.00     0.131 A 
ATOM     87  C   UNL A   1      51.623  34.172  27.665  1.00  0.00     0.055 A 
ATOM     88  C   UNL A   1      50.625  34.778  25.564  1.00  0.00     0.041 A 
ATOM     89  F   UNL A   1      48.339  34.404  25.213  1.00  0.00    -0.206 F 
ATOM     90  C   UNL A   1      51.745  34.725  26.388  1.00  0.00     0.022 A 
BRANCH  87  91
ATOM     91  S   UNL A   1      53.034  34.201  28.804  1.00  0.00     0.124 S 
ATOM     92  O   UNL A   1      54.159  34.079  27.885  1.00  0.00    -0.237 OA
ATOM     93  O   UNL A   1      52.873  35.496  29.456  1.00  0.00    -0.237 OA
ATOM     94  O   UNL A   1      52.801  33.041  29.664  1.00  0.00    -0.744 OA
ENDBRANCH  87  91
ENDBRANCH  60  84
BRANCH  72  95
ATOM     95  C   UNL A   1      44.027  36.807  30.742  1.00  0.00     0.023 A 
ATOM     96  C   UNL A   1      43.627  37.903  29.959  1.00  0.00     0.031 A 
ATOM     97  C   UNL A   1      44.286  37.034  32.108  1.00  0.00     0.131 A 
ATOM     98  C   UNL A   1      43.554  39.183  30.532  1.00  0.00     0.055 A 
ATOM     99  C   UNL A   1      44.143  38.295  32.686  1.00  0.00     0.041 A 
ATOM    100  F   UNL A   1      44.677  36.026  32.906  1.00  0.00    -0.206 F 
ATOM    101  C   UNL A   1      43.789  39.382  31.895  1.00  0.00     0.022 A 
BRANCH  98 102
ATOM    102  S   UNL A   1      43.252  40.607  29.448  1.00  0.00     0.124 S 
ATOM    103  O   UNL A   1      43.420  40.020  28.123  1.00  0.00    -0.237 OA
ATOM    104  O   UNL A   1      41.891  40.991  29.808  1.00  0.00    -0.237 OA
ATOM    105  O   UNL A   1      44.288  41.561  29.839  1.00  0.00    -0.744 OA
ENDBRANCH  98 102
ENDBRANCH  72  95
ENDBRANCH  46  47
ENDBRANCH  39  41
ENDBRANCH  38  39
ENDBRANCH  37  38
ENDBRANCH  36  37
ENDBRANCH  35  36
ENDBRANCH  34  35
ENDBRANCH  33  34
ENDBRANCH  32  33
ENDBRANCH   1  32
TORSDOF 28
ENDMDL
MODEL 3
REMARK VINA RESULT:      -8.7      5.362      7.551
REMARK SMILES COc1ccc(NC(=O)NCc2ccc(C(=O)OCCOCCOCCOCCOC(=O)c3ccc(-c4c5nc(c(-c6cc(S(=O)(=O)[O-])ccc6F)c6ccc([nH]6)c(-c6cc(S(=O)(=O)[O-])ccc6F)c6nc(c(-c7cc(S(=O)(=O)[O-])ccc7F)c7ccc4[nH]7)C=C6)C=C5)cc3)cc2)c(OC)c1
REMARK SMILES IDX 23 1 22 2 21 3 20 4 19 5 18 6 16 7 17 8 15 9 12 10 13 11
REMARK SMILES IDX 97 12 14 13 96 14 11 15 10 16 7 17 8 18 9 20 6 22 3 23 4 24
REMARK SMILES IDX 101 25 5 26 98 27 2 28 1 29 99 30 100 31 24 32 25 33 26 34
REMARK SMILES IDX 27 35 28 36 29 37 30 38 31 39 32 40 33 41 34 42 95 43 35 44
REMARK SMILES IDX 94 45 36 46 37 47 38 48 88 49 39 50 93 51 87 52 89 53 40 54
REMARK SMILES IDX 92 55 86 56 85 57 41 59 73 60 53 61 72 62 54 63 57 64 71 65
REMARK SMILES IDX 90 66 55 67 56 68 70 70 91 71 58 72 42 73 43 74 51 75 44 76
REMARK SMILES IDX 50 77 52 78 49 79 45 80 46 81 47 82 48 83 74 84 75 85 83 86
REMARK SMILES IDX 76 87 82 88 84 89 81 90 77 91 78 92 79 93 80 94 59 95 60 96
REMARK SMILES IDX 68 97 61 98 67 99 69 100 66 101 62 102 63 103 64 104 65 105
REMARK H PARENT 7 19 10 21 89 58 57 69
REMARK Flexibility Score: inf
ROOT
ATOM      1  C   UNL A   1      34.020  24.061  23.070  1.00  0.00     0.188 C 
ENDROOT
BRANCH   1   2
ATOM      2  C   UNL A   1      32.674  23.310  23.090  1.00  0.00     0.188 C 
BRANCH   2   3
ATOM      3  O   UNL A   1      32.140  23.122  24.388  1.00  0.00    -0.376 OA
BRANCH   3   4
ATOM      4  C   UNL A   1      31.003  23.857  24.801  1.00  0.00     0.202 C 
BRANCH   4   5
ATOM      5  C   UNL A   1      31.154  25.032  25.780  1.00  0.00     0.261 C 
BRANCH   5   6
ATOM      6  O   UNL A   1      32.220  25.946  25.511  1.00  0.00    -0.460 OA
BRANCH   6   7
ATOM      7  C   UNL A   1      31.879  27.107  24.916  1.00  0.00     0.338 C 
ATOM      8  O   UNL A   1      31.124  27.249  23.970  1.00  0.00    -0.246 OA
BRANCH   7   9
ATOM      9  C   UNL A   1      32.400  28.224  25.735  1.00  0.00     0.060 A 
ATOM     10  C   UNL A   1      33.517  30.287  27.254  1.00  0.00    -0.029 A 
ATOM     11  C   UNL A   1      34.151  29.037  27.182  1.00  0.00     0.006 A 
ATOM     12  C   UNL A   1      32.326  30.502  26.548  1.00  0.00     0.006 A 
ATOM     13  C   UNL A   1      33.596  28.010  26.428  1.00  0.00     0.016 A 
ATOM     14  C   UNL A   1      31.772  29.476  25.780  1.00  0.00     0.016 A 
BRANCH  10  15
ATOM     15  C   UNL A   1      34.216  31.403  27.976  1.00  0.00     0.153 C 
BRANCH  15  16
ATOM     16  N   UNL A   1      33.535  32.676  27.902  1.00  0.00    -0.334 N 
ATOM     17  N   UNL A   1      34.313  33.999  29.736  1.00  0.00    -0.305 N 
ATOM     18  C   UNL A   1      33.554  33.799  28.640  1.00  0.00     0.319 C 
ATOM     19  H   UNL A   1      34.050  34.806  30.236  1.00  0.00     0.172 HD
ATOM     20  O   UNL A   1      32.738  34.678  28.341  1.00  0.00    -0.248 OA
ATOM     21  H   UNL A   1      32.918  32.734  27.137  1.00  0.00     0.165 HD
BRANCH  17  22
ATOM     22  C   UNL A   1      35.389  33.325  30.333  1.00  0.00     0.085 A 
ATOM     23  C   UNL A   1      37.249  31.430  31.185  1.00  0.00     0.122 A 
ATOM     24  C   UNL A   1      37.609  32.393  30.242  1.00  0.00     0.049 A 
ATOM     25  C   UNL A   1      36.032  31.553  31.850  1.00  0.00     0.095 A 
ATOM     26  C   UNL A   1      36.690  33.366  29.842  1.00  0.00     0.034 A 
ATOM     27  C   UNL A   1      35.125  32.543  31.464  1.00  0.00     0.146 A 
BRANCH  23  28
ATOM     28  O   UNL A   1      38.165  30.437  31.395  1.00  0.00    -0.497 OA
ATOM     29  C   UNL A   1      38.026  29.720  32.620  1.00  0.00     0.278 C 
ENDBRANCH  23  28
BRANCH  27  30
ATOM     30  O   UNL A   1      33.921  32.720  32.106  1.00  0.00    -0.494 OA
ATOM     31  C   UNL A   1      34.068  33.388  33.362  1.00  0.00     0.278 C 
ENDBRANCH  27  30
ENDBRANCH  17  22
ENDBRANCH  15  16
ENDBRANCH  10  15
ENDBRANCH   7   9
ENDBRANCH   6   7
ENDBRANCH   5   6
ENDBRANCH   4   5
ENDBRANCH   3   4
ENDBRANCH   2   3
ENDBRANCH   1   2
BRANCH   1  32
ATOM     32  O   UNL A   1      35.202  23.281  23.016  1.00  0.00    -0.377 OA
BRANCH  32  33
ATOM     33  C   UNL A   1      35.631  22.549  24.164  1.00  0.00     0.188 C 
BRANCH  33  34
ATOM     34  C   UNL A   1      37.016  21.861  24.259  1.00  0.00     0.188 C 
BRANCH  34  35
ATOM     35  O   UNL A   1      37.808  22.272  25.363  1.00  0.00    -0.376 OA
BRANCH  35  36
ATOM     36  C   UNL A   1      38.979  21.524  25.633  1.00  0.00     0.202 C 
BRANCH  36  37
ATOM     37  C   UNL A   1      39.842  22.033  26.795  1.00  0.00     0.261 C 
BRANCH  37  38
ATOM     38  O   UNL A   1      41.217  21.619  26.788  1.00  0.00    -0.460 OA
BRANCH  38  39
ATOM     39  C   UNL A   1      42.102  22.425  26.159  1.00  0.00     0.338 C 
ATOM     40  O   UNL A   1      42.462  22.346  24.996  1.00  0.00    -0.246 OA
BRANCH  39  41
ATOM     41  C   UNL A   1      42.412  23.543  27.073  1.00  0.00     0.060 A 
ATOM     42  C   UNL A   1      43.673  24.153  27.013  1.00  0.00     0.016 A 
ATOM     43  C   UNL A   1      41.445  24.003  27.970  1.00  0.00     0.016 A 
ATOM     44  C   UNL A   1      43.979  25.206  27.877  1.00  0.00     0.010 A 
ATOM     45  C   UNL A   1      41.761  25.043  28.847  1.00  0.00     0.010 A 
ATOM     46  C   UNL A   1      43.040  25.629  28.826  1.00  0.00    -0.014 A 
BRANCH  46  47
ATOM     47  C   UNL A   1      43.454  26.530  29.931  1.00  0.00     0.031 A 
ATOM     48  C   UNL A   1      44.100  25.914  31.143  1.00  0.00     0.074 A 
ATOM     49  C   UNL A   1      43.277  27.860  29.862  1.00  0.00     0.049 A 
ATOM     50  N   UNL A   1      44.486  26.474  32.258  1.00  0.00    -0.248 NA
ATOM     51  C   UNL A   1      44.328  24.462  31.084  1.00  0.00     0.031 C 
ATOM     52  C   UNL A   1      42.712  28.578  28.720  1.00  0.00     0.029 A 
ATOM     53  N   UNL A   1      43.548  28.844  30.779  1.00  0.00    -0.354 N 
ATOM     54  C   UNL A   1      44.997  25.442  33.041  1.00  0.00     0.074 A 
ATOM     55  C   UNL A   1      44.826  24.220  32.285  1.00  0.00     0.031 C 
ATOM     56  C   UNL A   1      42.676  29.891  29.009  1.00  0.00     0.029 A 
ATOM     57  C   UNL A   1      43.170  30.101  30.369  1.00  0.00     0.049 A 
ATOM     58  H   UNL A   1      43.974  28.667  31.649  1.00  0.00     0.167 HD
ATOM     59  C   UNL A   1      45.564  25.511  34.271  1.00  0.00     0.034 A 
ATOM     60  C   UNL A   1      43.195  31.278  31.028  1.00  0.00     0.034 A 
ATOM     61  C   UNL A   1      45.706  26.738  35.017  1.00  0.00     0.049 A 
ATOM     62  C   UNL A   1      43.730  31.318  32.441  1.00  0.00     0.074 A 
ATOM     63  C   UNL A   1      46.274  26.926  36.264  1.00  0.00     0.029 A 
ATOM     64  N   UNL A   1      45.253  27.983  34.596  1.00  0.00    -0.354 N 
ATOM     65  N   UNL A   1      44.218  30.339  33.171  1.00  0.00    -0.248 NA
ATOM     66  C   UNL A   1      43.719  32.621  33.118  1.00  0.00     0.031 C 
ATOM     67  C   UNL A   1      46.086  28.262  36.633  1.00  0.00     0.029 A 
ATOM     68  C   UNL A   1      45.491  28.933  35.577  1.00  0.00     0.049 A 
ATOM     69  H   UNL A   1      44.827  28.164  33.727  1.00  0.00     0.167 HD
ATOM     70  C   UNL A   1      44.605  30.920  34.378  1.00  0.00     0.074 A 
ATOM     71  C   UNL A   1      44.301  32.333  34.273  1.00  0.00     0.031 C 
ATOM     72  C   UNL A   1      45.170  30.339  35.469  1.00  0.00     0.034 A 
BRANCH  59  73
ATOM     73  C   UNL A   1      46.004  24.209  34.900  1.00  0.00     0.023 A 
ATOM     74  C   UNL A   1      47.303  23.700  34.720  1.00  0.00     0.031 A 
ATOM     75  C   UNL A   1      45.093  23.435  35.641  1.00  0.00     0.131 A 
ATOM     76  C   UNL A   1      47.623  22.417  35.190  1.00  0.00     0.055 A 
ATOM     77  C   UNL A   1      45.449  22.202  36.190  1.00  0.00     0.041 A 
ATOM     78  F   UNL A   1      43.832  23.854  35.825  1.00  0.00    -0.206 F 
ATOM     79  C   UNL A   1      46.715  21.676  35.948  1.00  0.00     0.022 A 
BRANCH  76  80
ATOM     80  S   UNL A   1      49.175  21.655  34.637  1.00  0.00     0.124 S 
ATOM     81  O   UNL A   1      48.688  20.461  33.950  1.00  0.00    -0.237 OA
ATOM     82  O   UNL A   1      49.749  22.692  33.787  1.00  0.00    -0.237 OA
ATOM     83  O   UNL A   1      49.894  21.398  35.883  1.00  0.00    -0.744 OA
ENDBRANCH  76  80
ENDBRANCH  59  73
BRANCH  60  84
ATOM     84  C   UNL A   1      42.671  32.516  30.381  1.00  0.00     0.023 A 
ATOM     85  C   UNL A   1      43.447  33.239  29.462  1.00  0.00     0.031 A 
ATOM     86  C   UNL A   1      41.398  33.018  30.705  1.00  0.00     0.131 A 
ATOM     87  C   UNL A   1      42.960  34.444  28.928  1.00  0.00     0.055 A 
ATOM     88  C   UNL A   1      40.895  34.186  30.130  1.00  0.00     0.041 A 
ATOM     89  F   UNL A   1      40.616  32.370  31.585  1.00  0.00    -0.206 F 
ATOM     90  C   UNL A   1      41.682  34.912  29.243  1.00  0.00     0.022 A 
BRANCH  87  91
ATOM     91  S   UNL A   1      44.053  35.432  27.870  1.00  0.00     0.124 S 
ATOM     92  O   UNL A   1      45.350  35.218  28.503  1.00  0.00    -0.237 OA
ATOM     93  O   UNL A   1      43.864  34.804  26.567  1.00  0.00    -0.237 OA
ATOM     94  O   UNL A   1      43.514  36.784  27.992  1.00  0.00    -0.744 OA
ENDBRANCH  87  91
ENDBRANCH  60  84
BRANCH  72  95
ATOM     95  C   UNL A   1      45.543  31.245  36.622  1.00  0.00     0.023 A 
ATOM     96  C   UNL A   1      46.851  31.727  36.801  1.00  0.00     0.031 A 
ATOM     97  C   UNL A   1      44.567  31.631  37.560  1.00  0.00     0.131 A 
ATOM     98  C   UNL A   1      47.160  32.516  37.920  1.00  0.00     0.055 A 
ATOM     99  C   UNL A   1      44.865  32.473  38.632  1.00  0.00     0.041 A 
ATOM    100  F   UNL A   1      43.300  31.198  37.445  1.00  0.00    -0.206 F 
ATOM    101  C   UNL A   1      46.170  32.909  38.825  1.00  0.00     0.022 A 
BRANCH  98 102
ATOM    102  S   UNL A   1      48.897  32.936  38.240  1.00  0.00     0.124 S 
ATOM    103  O   UNL A   1      49.113  34.049  37.322  1.00  0.00    -0.237 OA
ATOM    104  O   UNL A   1      48.881  33.273  39.659  1.00  0.00    -0.237 OA
ATOM    105  O   UNL A   1      49.613  31.707  37.902  1.00  0.00    -0.744 OA
ENDBRANCH  98 102
ENDBRANCH  72  95
ENDBRANCH  46  47
ENDBRANCH  39  41
ENDBRANCH  38  39
ENDBRANCH  37  38
ENDBRANCH  36  37
ENDBRANCH  35  36
ENDBRANCH  34  35
ENDBRANCH  33  34
ENDBRANCH  32  33
ENDBRANCH   1  32
TORSDOF 28
ENDMDL
