MODEL 1
REMARK VINA RESULT:      -9.9      0.000      0.000
REMARK SMILES C[C@@H](C(=O)OCCOCCOCCOCCOC(=O)c1ccc(-c2c3nc(c(-c4cc(S(=O)(=O)[O-])ccc4F)c4ccc([nH]4)c(-c4cc(S(=O)(=O)[O-])ccc4F)c4nc(c(-c5cc(S(=O)(=O)[O-])ccc5F)c5ccc2[nH]5)C=C4)C=C3)cc1)c1cc(/C=C/S(C)(=O)=O)cc(C(=O)c2ccccc2)c1
REMARK SMILES IDX 11 1 10 2 9 3 8 4 7 5 6 6 5 7 3 8 4 9 2 10 1 11 83 12 84 13
REMARK SMILES IDX 102 14 85 15 93 16 92 17 86 18 87 19 88 20 89 21 90 22 91 23
REMARK SMILES IDX 94 24 95 25 96 26 97 27 101 28 98 29 100 30 99 31 12 32
REMARK SMILES IDX 13 33 14 34 15 35 16 36 17 37 18 38 19 39 20 40 21 41 82 42
REMARK SMILES IDX 22 43 81 44 23 45 24 46 25 47 75 48 26 49 80 50 74 51 76 52
REMARK SMILES IDX 27 53 79 54 73 55 72 56 28 58 60 59 40 60 59 61 41 62 44 63
REMARK SMILES IDX 58 64 77 65 42 66 43 67 57 69 78 70 45 71 29 72 30 73 38 74
REMARK SMILES IDX 31 75 37 76 39 77 36 78 32 79 33 80 34 81 35 82 61 83 62 84
REMARK SMILES IDX 70 85 63 86 69 87 71 88 68 89 64 90 65 91 66 92 67 93 46 94
REMARK SMILES IDX 47 95 55 96 48 97 54 98 56 99 53 100 49 101 50 102 51 103
REMARK SMILES IDX 52 104
REMARK H PARENT 76 57 44 68
REMARK Flexibility Score: inf
ROOT
ATOM      1  O   UNL A   1      31.664  25.765  24.474  1.00  0.00    -0.377 OA
ENDROOT
BRANCH   1   2
ATOM      2  C   UNL A   1      30.815  25.072  25.360  1.00  0.00     0.188 C 
BRANCH   2   3
ATOM      3  C   UNL A   1      31.073  23.568  25.332  1.00  0.00     0.188 C 
BRANCH   3   4
ATOM      4  O   UNL A   1      32.323  23.189  24.790  1.00  0.00    -0.376 OA
BRANCH   4   5
ATOM      5  C   UNL A   1      33.024  22.080  25.332  1.00  0.00     0.202 C 
BRANCH   5   6
ATOM      6  C   UNL A   1      33.859  22.167  26.624  1.00  0.00     0.261 C 
BRANCH   6   7
ATOM      7  O   UNL A   1      35.084  21.422  26.640  1.00  0.00    -0.463 OA
BRANCH   7   8
ATOM      8  C   UNL A   1      35.756  21.220  25.483  1.00  0.00     0.313 C 
ATOM      9  O   UNL A   1      35.664  20.206  24.803  1.00  0.00    -0.252 OA
BRANCH   8  10
ATOM     10  C   UNL A   1      36.578  22.453  25.076  1.00  0.00     0.126 C 
ATOM     11  C   UNL A   1      36.768  22.624  23.544  1.00  0.00     0.025 C 
BRANCH  10  12
ATOM     12  C   UNL A   1      37.914  22.635  25.824  1.00  0.00    -0.033 A 
ATOM     13  C   UNL A   1      38.256  23.938  26.233  1.00  0.00     0.012 A 
ATOM     14  C   UNL A   1      38.817  21.599  26.141  1.00  0.00     0.016 A 
ATOM     15  C   UNL A   1      39.461  24.234  26.885  1.00  0.00    -0.024 A 
ATOM     16  C   UNL A   1      40.055  21.872  26.748  1.00  0.00     0.023 A 
ATOM     17  C   UNL A   1      40.358  23.187  27.128  1.00  0.00     0.020 A 
BRANCH  15  18
ATOM     18  C   UNL A   1      39.791  25.592  27.360  1.00  0.00     0.020 C 
ATOM     19  C   UNL A   1      40.512  26.487  26.667  1.00  0.00     0.106 C 
BRANCH  19  20
ATOM     20  S   UNL A   1      40.793  28.076  27.304  1.00  0.00     0.168 S 
ATOM     21  C   UNL A   1      40.007  27.956  28.891  1.00  0.00     0.163 C 
ATOM     22  O   UNL A   1      42.216  28.221  27.543  1.00  0.00    -0.225 OA
ATOM     23  O   UNL A   1      40.067  29.071  26.537  1.00  0.00    -0.225 OA
ENDBRANCH  19  20
ENDBRANCH  15  18
BRANCH  16  24
ATOM     24  C   UNL A   1      41.058  20.808  27.060  1.00  0.00     0.193 C 
ATOM     25  O   UNL A   1      40.886  20.061  28.020  1.00  0.00    -0.289 OA
BRANCH  24  26
ATOM     26  C   UNL A   1      42.287  20.634  26.258  1.00  0.00     0.022 A 
ATOM     27  C   UNL A   1      43.081  21.746  25.970  1.00  0.00     0.012 A 
ATOM     28  C   UNL A   1      42.616  19.382  25.733  1.00  0.00     0.012 A 
ATOM     29  C   UNL A   1      44.251  21.588  25.221  1.00  0.00     0.001 A 
ATOM     30  C   UNL A   1      43.796  19.226  24.996  1.00  0.00     0.001 A 
ATOM     31  C   UNL A   1      44.617  20.326  24.752  1.00  0.00     0.000 A 
ENDBRANCH  24  26
ENDBRANCH  16  24
ENDBRANCH  10  12
ENDBRANCH   8  10
ENDBRANCH   7   8
ENDBRANCH   6   7
ENDBRANCH   5   6
ENDBRANCH   4   5
ENDBRANCH   3   4
ENDBRANCH   2   3
ENDBRANCH   1   2
BRANCH   1  32
ATOM     32  C   UNL A   1      32.386  26.864  25.029  1.00  0.00     0.188 C 
BRANCH  32  33
ATOM     33  C   UNL A   1      31.696  28.205  25.417  1.00  0.00     0.188 C 
BRANCH  33  34
ATOM     34  O   UNL A   1      32.488  29.380  25.250  1.00  0.00    -0.376 OA
BRANCH  34  35
ATOM     35  C   UNL A   1      32.184  30.516  26.044  1.00  0.00     0.202 C 
BRANCH  35  36
ATOM     36  C   UNL A   1      32.907  30.590  27.396  1.00  0.00     0.261 C 
BRANCH  36  37
ATOM     37  O   UNL A   1      33.934  31.586  27.489  1.00  0.00    -0.460 OA
BRANCH  37  38
ATOM     38  C   UNL A   1      33.624  32.722  28.155  1.00  0.00     0.338 C 
ATOM     39  O   UNL A   1      32.578  33.346  28.081  1.00  0.00    -0.246 OA
BRANCH  38  40
ATOM     40  C   UNL A   1      34.678  32.952  29.164  1.00  0.00     0.060 A 
ATOM     41  C   UNL A   1      34.780  34.217  29.760  1.00  0.00     0.016 A 
ATOM     42  C   UNL A   1      35.519  31.910  29.565  1.00  0.00     0.016 A 
ATOM     43  C   UNL A   1      35.746  34.453  30.736  1.00  0.00     0.010 A 
ATOM     44  C   UNL A   1      36.506  32.157  30.521  1.00  0.00     0.010 A 
ATOM     45  C   UNL A   1      36.645  33.438  31.084  1.00  0.00    -0.014 A 
BRANCH  45  46
ATOM     46  C   UNL A   1      37.873  33.782  31.841  1.00  0.00     0.031 A 
ATOM     47  C   UNL A   1      39.103  34.135  31.048  1.00  0.00     0.074 A 
ATOM     48  C   UNL A   1      37.894  33.809  33.185  1.00  0.00     0.049 A 
ATOM     49  N   UNL A   1      40.308  34.419  31.463  1.00  0.00    -0.248 NA
ATOM     50  C   UNL A   1      38.943  34.165  29.585  1.00  0.00     0.031 C 
ATOM     51  C   UNL A   1      36.749  33.546  34.055  1.00  0.00     0.029 A 
ATOM     52  N   UNL A   1      38.924  34.072  34.052  1.00  0.00    -0.354 N 
ATOM     53  C   UNL A   1      41.054  34.654  30.312  1.00  0.00     0.074 A 
ATOM     54  C   UNL A   1      40.173  34.441  29.185  1.00  0.00     0.031 C 
ATOM     55  C   UNL A   1      37.145  33.653  35.335  1.00  0.00     0.029 A 
ATOM     56  C   UNL A   1      38.577  33.948  35.377  1.00  0.00     0.049 A 
ATOM     57  H   UNL A   1      39.828  34.323  33.754  1.00  0.00     0.167 HD
ATOM     58  C   UNL A   1      42.355  35.020  30.208  1.00  0.00     0.034 A 
ATOM     59  C   UNL A   1      39.337  34.037  36.488  1.00  0.00     0.034 A 
ATOM     60  C   UNL A   1      43.221  35.211  31.343  1.00  0.00     0.049 A 
ATOM     61  C   UNL A   1      40.812  34.342  36.343  1.00  0.00     0.074 A 
ATOM     62  C   UNL A   1      44.552  35.592  31.355  1.00  0.00     0.029 A 
ATOM     63  N   UNL A   1      42.851  35.018  32.668  1.00  0.00    -0.354 N 
ATOM     64  N   UNL A   1      41.508  34.568  35.252  1.00  0.00    -0.248 NA
ATOM     65  C   UNL A   1      41.601  34.408  37.581  1.00  0.00     0.031 C 
ATOM     66  C   UNL A   1      45.006  35.544  32.677  1.00  0.00     0.029 A 
ATOM     67  C   UNL A   1      43.938  35.230  33.502  1.00  0.00     0.049 A 
ATOM     68  H   UNL A   1      41.948  34.767  32.970  1.00  0.00     0.167 HD
ATOM     69  C   UNL A   1      42.807  34.841  35.679  1.00  0.00     0.074 A 
ATOM     70  C   UNL A   1      42.793  34.760  37.124  1.00  0.00     0.031 C 
ATOM     71  C   UNL A   1      43.910  35.139  34.943  1.00  0.00     0.034 A 
BRANCH  58  72
ATOM     72  C   UNL A   1      42.923  35.167  28.817  1.00  0.00     0.023 A 
ATOM     73  C   UNL A   1      43.581  34.108  28.166  1.00  0.00     0.031 A 
ATOM     74  C   UNL A   1      42.840  36.400  28.146  1.00  0.00     0.131 A 
ATOM     75  C   UNL A   1      44.192  34.324  26.922  1.00  0.00     0.055 A 
ATOM     76  C   UNL A   1      43.374  36.583  26.871  1.00  0.00     0.041 A 
ATOM     77  F   UNL A   1      42.252  37.456  28.730  1.00  0.00    -0.206 F 
ATOM     78  C   UNL A   1      44.069  35.546  26.256  1.00  0.00     0.022 A 
BRANCH  75  79
ATOM     79  S   UNL A   1      45.285  33.036  26.258  1.00  0.00     0.124 S 
ATOM     80  O   UNL A   1      44.348  32.225  25.483  1.00  0.00    -0.237 OA
ATOM     81  O   UNL A   1      46.250  33.810  25.486  1.00  0.00    -0.237 OA
ATOM     82  O   UNL A   1      45.816  32.387  27.454  1.00  0.00    -0.744 OA
ENDBRANCH  75  79
ENDBRANCH  58  72
BRANCH  59  83
ATOM     83  C   UNL A   1      38.744  33.797  37.838  1.00  0.00     0.023 A 
ATOM     84  C   UNL A   1      38.222  32.541  38.189  1.00  0.00     0.031 A 
ATOM     85  C   UNL A   1      38.628  34.841  38.772  1.00  0.00     0.131 A 
ATOM     86  C   UNL A   1      37.566  32.375  39.419  1.00  0.00     0.055 A 
ATOM     87  C   UNL A   1      38.028  34.656  40.019  1.00  0.00     0.041 A 
ATOM     88  F   UNL A   1      39.102  36.065  38.487  1.00  0.00    -0.206 F 
ATOM     89  C   UNL A   1      37.480  33.419  40.343  1.00  0.00     0.022 A 
BRANCH  86  90
ATOM     90  S   UNL A   1      36.740  30.795  39.757  1.00  0.00     0.124 S 
ATOM     91  O   UNL A   1      37.582  30.242  40.811  1.00  0.00    -0.237 OA
ATOM     92  O   UNL A   1      35.408  31.231  40.160  1.00  0.00    -0.237 OA
ATOM     93  O   UNL A   1      36.804  30.097  38.475  1.00  0.00    -0.744 OA
ENDBRANCH  86  90
ENDBRANCH  59  83
BRANCH  71  94
ATOM     94  C   UNL A   1      45.182  35.457  35.697  1.00  0.00     0.023 A 
ATOM     95  C   UNL A   1      45.496  36.762  36.112  1.00  0.00     0.031 A 
ATOM     96  C   UNL A   1      46.093  34.430  36.006  1.00  0.00     0.131 A 
ATOM     97  C   UNL A   1      46.716  37.016  36.759  1.00  0.00     0.055 A 
ATOM     98  C   UNL A   1      47.271  34.677  36.712  1.00  0.00     0.041 A 
ATOM     99  F   UNL A   1      45.847  33.163  35.634  1.00  0.00    -0.206 F 
ATOM    100  C   UNL A   1      47.595  35.979  37.080  1.00  0.00     0.022 A 
BRANCH  97 101
ATOM    101  S   UNL A   1      47.188  38.736  37.085  1.00  0.00     0.124 S 
ATOM    102  O   UNL A   1      45.899  39.420  37.032  1.00  0.00    -0.237 OA
ATOM    103  O   UNL A   1      47.807  38.646  38.404  1.00  0.00    -0.237 OA
ATOM    104  O   UNL A   1      48.104  39.055  35.992  1.00  0.00    -0.744 OA
ENDBRANCH  97 101
ENDBRANCH  71  94
ENDBRANCH  45  46
ENDBRANCH  38  40
ENDBRANCH  37  38
ENDBRANCH  36  37
ENDBRANCH  35  36
ENDBRANCH  34  35
ENDBRANCH  33  34
ENDBRANCH  32  33
ENDBRANCH   1  32
TORSDOF 28
ENDMDL
MODEL 2
REMARK VINA RESULT:      -9.8      1.778      2.044
REMARK SMILES C[C@@H](C(=O)OCCOCCOCCOCCOC(=O)c1ccc(-c2c3nc(c(-c4cc(S(=O)(=O)[O-])ccc4F)c4ccc([nH]4)c(-c4cc(S(=O)(=O)[O-])ccc4F)c4nc(c(-c5cc(S(=O)(=O)[O-])ccc5F)c5ccc2[nH]5)C=C4)C=C3)cc1)c1cc(/C=C/S(C)(=O)=O)cc(C(=O)c2ccccc2)c1
REMARK SMILES IDX 11 1 10 2 9 3 8 4 7 5 6 6 5 7 3 8 4 9 2 10 1 11 83 12 84 13
REMARK SMILES IDX 102 14 85 15 93 16 92 17 86 18 87 19 88 20 89 21 90 22 91 23
REMARK SMILES IDX 94 24 95 25 96 26 97 27 101 28 98 29 100 30 99 31 12 32
REMARK SMILES IDX 13 33 14 34 15 35 16 36 17 37 18 38 19 39 20 40 21 41 82 42
REMARK SMILES IDX 22 43 81 44 23 45 24 46 25 47 75 48 26 49 80 50 74 51 76 52
REMARK SMILES IDX 27 53 79 54 73 55 72 56 28 58 60 59 40 60 59 61 41 62 44 63
REMARK SMILES IDX 58 64 77 65 42 66 43 67 57 69 78 70 45 71 29 72 30 73 38 74
REMARK SMILES IDX 31 75 37 76 39 77 36 78 32 79 33 80 34 81 35 82 61 83 62 84
REMARK SMILES IDX 70 85 63 86 69 87 71 88 68 89 64 90 65 91 66 92 67 93 46 94
REMARK SMILES IDX 47 95 55 96 48 97 54 98 56 99 53 100 49 101 50 102 51 103
REMARK SMILES IDX 52 104
REMARK H PARENT 76 57 44 68
REMARK Flexibility Score: inf
ROOT
ATOM      1  O   UNL A   1      31.078  25.585  24.644  1.00  0.00    -0.377 OA
ENDROOT
BRANCH   1   2
ATOM      2  C   UNL A   1      30.529  25.004  25.804  1.00  0.00     0.188 C 
BRANCH   2   3
ATOM      3  C   UNL A   1      30.909  23.531  25.933  1.00  0.00     0.188 C 
BRANCH   3   4
ATOM      4  O   UNL A   1      31.449  22.951  24.761  1.00  0.00    -0.376 OA
BRANCH   4   5
ATOM      5  C   UNL A   1      32.845  22.710  24.669  1.00  0.00     0.202 C 
BRANCH   5   6
ATOM      6  C   UNL A   1      33.810  22.905  25.855  1.00  0.00     0.261 C 
BRANCH   6   7
ATOM      7  O   UNL A   1      34.635  21.783  26.194  1.00  0.00    -0.463 OA
BRANCH   7   8
ATOM      8  C   UNL A   1      35.650  21.430  25.373  1.00  0.00     0.313 C 
ATOM      9  O   UNL A   1      35.817  20.300  24.931  1.00  0.00    -0.252 OA
BRANCH   8  10
ATOM     10  C   UNL A   1      36.519  22.637  24.987  1.00  0.00     0.126 C 
ATOM     11  C   UNL A   1      36.747  22.805  23.459  1.00  0.00     0.025 C 
BRANCH  10  12
ATOM     12  C   UNL A   1      37.844  22.776  25.763  1.00  0.00    -0.033 A 
ATOM     13  C   UNL A   1      38.149  24.040  26.303  1.00  0.00     0.012 A 
ATOM     14  C   UNL A   1      38.770  21.736  25.986  1.00  0.00     0.016 A 
ATOM     15  C   UNL A   1      39.341  24.299  26.994  1.00  0.00    -0.024 A 
ATOM     16  C   UNL A   1      39.995  21.977  26.630  1.00  0.00     0.023 A 
ATOM     17  C   UNL A   1      40.263  23.255  27.142  1.00  0.00     0.020 A 
BRANCH  15  18
ATOM     18  C   UNL A   1      39.634  25.610  27.604  1.00  0.00     0.020 C 
ATOM     19  C   UNL A   1      40.230  26.631  26.970  1.00  0.00     0.106 C 
BRANCH  19  20
ATOM     20  S   UNL A   1      40.476  28.148  27.773  1.00  0.00     0.168 S 
ATOM     21  C   UNL A   1      40.694  27.617  29.453  1.00  0.00     0.163 C 
ATOM     22  O   UNL A   1      41.744  28.694  27.329  1.00  0.00    -0.225 OA
ATOM     23  O   UNL A   1      39.269  28.952  27.729  1.00  0.00    -0.225 OA
ENDBRANCH  19  20
ENDBRANCH  15  18
BRANCH  16  24
ATOM     24  C   UNL A   1      41.022  20.912  26.847  1.00  0.00     0.193 C 
ATOM     25  O   UNL A   1      40.820  20.018  27.665  1.00  0.00    -0.289 OA
BRANCH  24  26
ATOM     26  C   UNL A   1      42.308  20.907  26.119  1.00  0.00     0.022 A 
ATOM     27  C   UNL A   1      42.849  22.116  25.675  1.00  0.00     0.012 A 
ATOM     28  C   UNL A   1      42.943  19.701  25.814  1.00  0.00     0.012 A 
ATOM     29  C   UNL A   1      44.070  22.121  24.995  1.00  0.00     0.001 A 
ATOM     30  C   UNL A   1      44.173  19.712  25.146  1.00  0.00     0.001 A 
ATOM     31  C   UNL A   1      44.740  20.922  24.749  1.00  0.00     0.000 A 
ENDBRANCH  24  26
ENDBRANCH  16  24
ENDBRANCH  10  12
ENDBRANCH   8  10
ENDBRANCH   7   8
ENDBRANCH   6   7
ENDBRANCH   5   6
ENDBRANCH   4   5
ENDBRANCH   3   4
ENDBRANCH   2   3
ENDBRANCH   1   2
BRANCH   1  32
ATOM     32  C   UNL A   1      31.914  26.724  24.849  1.00  0.00     0.188 C 
BRANCH  32  33
ATOM     33  C   UNL A   1      31.345  28.110  25.271  1.00  0.00     0.188 C 
BRANCH  33  34
ATOM     34  O   UNL A   1      32.276  29.193  25.255  1.00  0.00    -0.376 OA
BRANCH  34  35
ATOM     35  C   UNL A   1      31.859  30.448  25.769  1.00  0.00     0.202 C 
BRANCH  35  36
ATOM     36  C   UNL A   1      32.293  30.748  27.211  1.00  0.00     0.261 C 
BRANCH  36  37
ATOM     37  O   UNL A   1      33.441  31.598  27.342  1.00  0.00    -0.460 OA
BRANCH  37  38
ATOM     38  C   UNL A   1      33.244  32.803  27.925  1.00  0.00     0.338 C 
ATOM     39  O   UNL A   1      32.276  33.531  27.783  1.00  0.00    -0.246 OA
BRANCH  38  40
ATOM     40  C   UNL A   1      34.297  32.983  28.946  1.00  0.00     0.060 A 
ATOM     41  C   UNL A   1      34.429  34.232  29.568  1.00  0.00     0.016 A 
ATOM     42  C   UNL A   1      35.106  31.910  29.331  1.00  0.00     0.016 A 
ATOM     43  C   UNL A   1      35.394  34.422  30.555  1.00  0.00     0.010 A 
ATOM     44  C   UNL A   1      36.092  32.110  30.299  1.00  0.00     0.010 A 
ATOM     45  C   UNL A   1      36.262  33.375  30.889  1.00  0.00    -0.014 A 
BRANCH  45  46
ATOM     46  C   UNL A   1      37.493  33.670  31.661  1.00  0.00     0.031 A 
ATOM     47  C   UNL A   1      38.723  34.062  30.887  1.00  0.00     0.074 A 
ATOM     48  C   UNL A   1      37.518  33.620  33.005  1.00  0.00     0.049 A 
ATOM     49  N   UNL A   1      39.931  34.317  31.314  1.00  0.00    -0.248 NA
ATOM     50  C   UNL A   1      38.560  34.177  29.429  1.00  0.00     0.031 C 
ATOM     51  C   UNL A   1      36.374  33.312  33.861  1.00  0.00     0.029 A 
ATOM     52  N   UNL A   1      38.551  33.827  33.882  1.00  0.00    -0.354 N 
ATOM     53  C   UNL A   1      40.675  34.614  30.177  1.00  0.00     0.074 A 
ATOM     54  C   UNL A   1      39.791  34.470  29.041  1.00  0.00     0.031 C 
ATOM     55  C   UNL A   1      36.773  33.344  35.144  1.00  0.00     0.029 A 
ATOM     56  C   UNL A   1      38.207  33.629  35.199  1.00  0.00     0.049 A 
ATOM     57  H   UNL A   1      39.456  34.092  33.597  1.00  0.00     0.167 HD
ATOM     58  C   UNL A   1      41.977  34.980  30.090  1.00  0.00     0.034 A 
ATOM     59  C   UNL A   1      38.970  33.651  36.312  1.00  0.00     0.034 A 
ATOM     60  C   UNL A   1      42.847  35.101  31.232  1.00  0.00     0.049 A 
ATOM     61  C   UNL A   1      40.446  33.957  36.180  1.00  0.00     0.074 A 
ATOM     62  C   UNL A   1      44.179  35.475  31.263  1.00  0.00     0.029 A 
ATOM     63  N   UNL A   1      42.479  34.834  32.545  1.00  0.00    -0.354 N 
ATOM     64  N   UNL A   1      41.141  34.242  35.102  1.00  0.00    -0.248 NA
ATOM     65  C   UNL A   1      41.238  33.948  37.417  1.00  0.00     0.031 C 
ATOM     66  C   UNL A   1      44.637  35.349  32.578  1.00  0.00     0.029 A 
ATOM     67  C   UNL A   1      43.569  34.993  33.386  1.00  0.00     0.049 A 
ATOM     68  H   UNL A   1      41.576  34.571  32.834  1.00  0.00     0.167 HD
ATOM     69  C   UNL A   1      42.442  34.485  35.540  1.00  0.00     0.074 A 
ATOM     70  C   UNL A   1      42.431  34.321  36.978  1.00  0.00     0.031 C 
ATOM     71  C   UNL A   1      43.545  34.819  34.820  1.00  0.00     0.034 A 
BRANCH  58  72
ATOM     72  C   UNL A   1      42.543  35.204  28.708  1.00  0.00     0.023 A 
ATOM     73  C   UNL A   1      43.272  34.210  28.032  1.00  0.00     0.031 A 
ATOM     74  C   UNL A   1      42.384  36.448  28.073  1.00  0.00     0.131 A 
ATOM     75  C   UNL A   1      43.875  34.501  26.799  1.00  0.00     0.055 A 
ATOM     76  C   UNL A   1      42.912  36.703  26.807  1.00  0.00     0.041 A 
ATOM     77  F   UNL A   1      41.725  37.447  28.682  1.00  0.00    -0.206 F 
ATOM     78  C   UNL A   1      43.677  35.731  26.168  1.00  0.00     0.022 A 
BRANCH  75  79
ATOM     79  S   UNL A   1      45.053  33.307  26.107  1.00  0.00     0.124 S 
ATOM     80  O   UNL A   1      45.659  32.755  27.316  1.00  0.00    -0.237 OA
ATOM     81  O   UNL A   1      44.184  32.405  25.359  1.00  0.00    -0.237 OA
ATOM     82  O   UNL A   1      45.942  34.134  25.295  1.00  0.00    -0.744 OA
ENDBRANCH  75  79
ENDBRANCH  58  72
BRANCH  59  83
ATOM     83  C   UNL A   1      38.379  33.336  37.646  1.00  0.00     0.023 A 
ATOM     84  C   UNL A   1      38.417  34.268  38.696  1.00  0.00     0.031 A 
ATOM     85  C   UNL A   1      37.828  32.070  37.912  1.00  0.00     0.131 A 
ATOM     86  C   UNL A   1      37.959  33.904  39.972  1.00  0.00     0.055 A 
ATOM     87  C   UNL A   1      37.318  31.732  39.168  1.00  0.00     0.041 A 
ATOM     88  F   UNL A   1      37.773  31.136  36.948  1.00  0.00    -0.206 F 
ATOM     89  C   UNL A   1      37.395  32.649  40.211  1.00  0.00     0.022 A 
BRANCH  86  90
ATOM     90  S   UNL A   1      38.198  35.066  41.346  1.00  0.00     0.124 S 
ATOM     91  O   UNL A   1      39.417  34.551  41.958  1.00  0.00    -0.237 OA
ATOM     92  O   UNL A   1      38.319  36.340  40.646  1.00  0.00    -0.237 OA
ATOM     93  O   UNL A   1      36.983  34.907  42.141  1.00  0.00    -0.744 OA
ENDBRANCH  86  90
ENDBRANCH  59  83
BRANCH  71  94
ATOM     94  C   UNL A   1      44.819  35.088  35.588  1.00  0.00     0.023 A 
ATOM     95  C   UNL A   1      45.675  34.050  35.997  1.00  0.00     0.031 A 
ATOM     96  C   UNL A   1      45.181  36.408  35.913  1.00  0.00     0.131 A 
ATOM     97  C   UNL A   1      46.818  34.346  36.758  1.00  0.00     0.055 A 
ATOM     98  C   UNL A   1      46.355  36.701  36.608  1.00  0.00     0.041 A 
ATOM     99  F   UNL A   1      44.401  37.439  35.550  1.00  0.00    -0.206 F 
ATOM    100  C   UNL A   1      47.174  35.665  37.048  1.00  0.00     0.022 A 
BRANCH  97 101
ATOM    101  S   UNL A   1      47.780  32.975  37.453  1.00  0.00     0.124 S 
ATOM    102  O   UNL A   1      46.825  31.873  37.394  1.00  0.00    -0.237 OA
ATOM    103  O   UNL A   1      48.911  32.889  36.534  1.00  0.00    -0.237 OA
ATOM    104  O   UNL A   1      48.111  33.436  38.800  1.00  0.00    -0.744 OA
ENDBRANCH  97 101
ENDBRANCH  71  94
ENDBRANCH  45  46
ENDBRANCH  38  40
ENDBRANCH  37  38
ENDBRANCH  36  37
ENDBRANCH  35  36
ENDBRANCH  34  35
ENDBRANCH  33  34
ENDBRANCH  32  33
ENDBRANCH   1  32
TORSDOF 28
ENDMDL
MODEL 3
REMARK VINA RESULT:      -9.7      3.722      5.226
REMARK SMILES C[C@@H](C(=O)OCCOCCOCCOCCOC(=O)c1ccc(-c2c3nc(c(-c4cc(S(=O)(=O)[O-])ccc4F)c4ccc([nH]4)c(-c4cc(S(=O)(=O)[O-])ccc4F)c4nc(c(-c5cc(S(=O)(=O)[O-])ccc5F)c5ccc2[nH]5)C=C4)C=C3)cc1)c1cc(/C=C/S(C)(=O)=O)cc(C(=O)c2ccccc2)c1
REMARK SMILES IDX 11 1 10 2 9 3 8 4 7 5 6 6 5 7 3 8 4 9 2 10 1 11 83 12 84 13
REMARK SMILES IDX 102 14 85 15 93 16 92 17 86 18 87 19 88 20 89 21 90 22 91 23
REMARK SMILES IDX 94 24 95 25 96 26 97 27 101 28 98 29 100 30 99 31 12 32
REMARK SMILES IDX 13 33 14 34 15 35 16 36 17 37 18 38 19 39 20 40 21 41 82 42
REMARK SMILES IDX 22 43 81 44 23 45 24 46 25 47 75 48 26 49 80 50 74 51 76 52
REMARK SMILES IDX 27 53 79 54 73 55 72 56 28 58 60 59 40 60 59 61 41 62 44 63
REMARK SMILES IDX 58 64 77 65 42 66 43 67 57 69 78 70 45 71 29 72 30 73 38 74
REMARK SMILES IDX 31 75 37 76 39 77 36 78 32 79 33 80 34 81 35 82 61 83 62 84
REMARK SMILES IDX 70 85 63 86 69 87 71 88 68 89 64 90 65 91 66 92 67 93 46 94
REMARK SMILES IDX 47 95 55 96 48 97 54 98 56 99 53 100 49 101 50 102 51 103
REMARK SMILES IDX 52 104
REMARK H PARENT 76 57 44 68
REMARK Flexibility Score: inf
ROOT
ATOM      1  O   UNL A   1      31.554  25.429  26.597  1.00  0.00    -0.377 OA
ENDROOT
BRANCH   1   2
ATOM      2  C   UNL A   1      30.927  24.337  25.964  1.00  0.00     0.188 C 
BRANCH   2   3
ATOM      3  C   UNL A   1      31.939  23.284  25.518  1.00  0.00     0.188 C 
BRANCH   3   4
ATOM      4  O   UNL A   1      32.208  23.268  24.130  1.00  0.00    -0.376 OA
BRANCH   4   5
ATOM      5  C   UNL A   1      33.548  23.347  23.667  1.00  0.00     0.202 C 
BRANCH   5   6
ATOM      6  C   UNL A   1      34.616  24.232  24.338  1.00  0.00     0.261 C 
BRANCH   6   7
ATOM      7  O   UNL A   1      34.997  23.868  25.671  1.00  0.00    -0.463 OA
BRANCH   7   8
ATOM      8  C   UNL A   1      35.330  22.586  25.943  1.00  0.00     0.313 C 
ATOM      9  O   UNL A   1      34.655  21.830  26.630  1.00  0.00    -0.252 OA
BRANCH   8  10
ATOM     10  C   UNL A   1      36.613  22.162  25.211  1.00  0.00     0.126 C 
ATOM     11  C   UNL A   1      36.653  20.665  24.795  1.00  0.00     0.025 C 
BRANCH  10  12
ATOM     12  C   UNL A   1      37.933  22.584  25.886  1.00  0.00    -0.033 A 
ATOM     13  C   UNL A   1      38.893  21.580  26.118  1.00  0.00     0.012 A 
ATOM     14  C   UNL A   1      38.262  23.898  26.281  1.00  0.00     0.016 A 
ATOM     15  C   UNL A   1      40.113  21.835  26.759  1.00  0.00    -0.024 A 
ATOM     16  C   UNL A   1      39.454  24.174  26.971  1.00  0.00     0.023 A 
ATOM     17  C   UNL A   1      40.377  23.141  27.190  1.00  0.00     0.020 A 
BRANCH  15  18
ATOM     18  C   UNL A   1      41.138  20.791  26.952  1.00  0.00     0.020 C 
ATOM     19  C   UNL A   1      41.378  19.789  26.093  1.00  0.00     0.106 C 
BRANCH  19  20
ATOM     20  S   UNL A   1      42.648  18.647  26.400  1.00  0.00     0.168 S 
ATOM     21  C   UNL A   1      44.032  19.461  25.642  1.00  0.00     0.163 C 
ATOM     22  O   UNL A   1      42.897  18.622  27.828  1.00  0.00    -0.225 OA
ATOM     23  O   UNL A   1      42.417  17.416  25.667  1.00  0.00    -0.225 OA
ENDBRANCH  19  20
ENDBRANCH  15  18
BRANCH  16  24
ATOM     24  C   UNL A   1      39.820  25.545  27.444  1.00  0.00     0.193 C 
ATOM     25  O   UNL A   1      39.351  25.980  28.493  1.00  0.00    -0.289 OA
BRANCH  24  26
ATOM     26  C   UNL A   1      40.721  26.424  26.671  1.00  0.00     0.022 A 
ATOM     27  C   UNL A   1      41.722  25.854  25.880  1.00  0.00     0.012 A 
ATOM     28  C   UNL A   1      40.621  27.812  26.782  1.00  0.00     0.012 A 
ATOM     29  C   UNL A   1      42.572  26.678  25.137  1.00  0.00     0.001 A 
ATOM     30  C   UNL A   1      41.464  28.633  26.024  1.00  0.00     0.001 A 
ATOM     31  C   UNL A   1      42.429  28.065  25.194  1.00  0.00     0.000 A 
ENDBRANCH  24  26
ENDBRANCH  16  24
ENDBRANCH  10  12
ENDBRANCH   8  10
ENDBRANCH   7   8
ENDBRANCH   6   7
ENDBRANCH   5   6
ENDBRANCH   4   5
ENDBRANCH   3   4
ENDBRANCH   2   3
ENDBRANCH   1   2
BRANCH   1  32
ATOM     32  C   UNL A   1      31.174  26.725  26.133  1.00  0.00     0.188 C 
BRANCH  32  33
ATOM     33  C   UNL A   1      32.204  27.875  25.939  1.00  0.00     0.188 C 
BRANCH  33  34
ATOM     34  O   UNL A   1      32.246  28.852  26.979  1.00  0.00    -0.376 OA
BRANCH  34  35
ATOM     35  C   UNL A   1      32.801  30.125  26.688  1.00  0.00     0.202 C 
BRANCH  35  36
ATOM     36  C   UNL A   1      34.142  30.432  27.368  1.00  0.00     0.261 C 
BRANCH  36  37
ATOM     37  O   UNL A   1      34.638  31.764  27.173  1.00  0.00    -0.460 OA
BRANCH  37  38
ATOM     38  C   UNL A   1      34.696  32.559  28.266  1.00  0.00     0.338 C 
ATOM     39  O   UNL A   1      33.793  33.245  28.715  1.00  0.00    -0.246 OA
BRANCH  38  40
ATOM     40  C   UNL A   1      35.970  32.276  28.959  1.00  0.00     0.060 A 
ATOM     41  C   UNL A   1      36.110  31.064  29.649  1.00  0.00     0.016 A 
ATOM     42  C   UNL A   1      37.039  33.173  28.876  1.00  0.00     0.016 A 
ATOM     43  C   UNL A   1      37.311  30.759  30.286  1.00  0.00     0.010 A 
ATOM     44  C   UNL A   1      38.231  32.879  29.541  1.00  0.00     0.010 A 
ATOM     45  C   UNL A   1      38.359  31.687  30.277  1.00  0.00    -0.014 A 
BRANCH  45  46
ATOM     46  C   UNL A   1      39.481  31.527  31.232  1.00  0.00     0.031 A 
ATOM     47  C   UNL A   1      40.737  30.869  30.727  1.00  0.00     0.074 A 
ATOM     48  C   UNL A   1      39.405  31.974  32.498  1.00  0.00     0.049 A 
ATOM     49  N   UNL A   1      41.834  30.564  31.367  1.00  0.00    -0.248 NA
ATOM     50  C   UNL A   1      40.748  30.504  29.301  1.00  0.00     0.031 C 
ATOM     51  C   UNL A   1      38.265  32.681  33.078  1.00  0.00     0.029 A 
ATOM     52  N   UNL A   1      40.312  31.896  33.524  1.00  0.00    -0.354 N 
ATOM     53  C   UNL A   1      42.663  29.963  30.425  1.00  0.00     0.074 A 
ATOM     54  C   UNL A   1      41.926  29.913  29.182  1.00  0.00     0.031 C 
ATOM     55  C   UNL A   1      38.540  32.963  34.364  1.00  0.00     0.029 A 
ATOM     56  C   UNL A   1      39.853  32.422  34.709  1.00  0.00     0.049 A 
ATOM     57  H   UNL A   1      41.208  31.499  33.423  1.00  0.00     0.167 HD
ATOM     58  C   UNL A   1      43.927  29.500  30.584  1.00  0.00     0.034 A 
ATOM     59  C   UNL A   1      40.422  32.436  35.933  1.00  0.00     0.034 A 
ATOM     60  C   UNL A   1      44.639  29.543  31.836  1.00  0.00     0.049 A 
ATOM     61  C   UNL A   1      41.791  31.817  36.111  1.00  0.00     0.074 A 
ATOM     62  C   UNL A   1      45.926  29.114  32.109  1.00  0.00     0.029 A 
ATOM     63  N   UNL A   1      44.120  30.028  33.030  1.00  0.00    -0.354 N 
ATOM     64  N   UNL A   1      42.570  31.256  35.214  1.00  0.00    -0.248 NA
ATOM     65  C   UNL A   1      42.358  31.840  37.466  1.00  0.00     0.031 C 
ATOM     66  C   UNL A   1      46.151  29.258  33.481  1.00  0.00     0.029 A 
ATOM     67  C   UNL A   1      45.045  29.869  34.050  1.00  0.00     0.049 A 
ATOM     68  H   UNL A   1      43.226  30.427  33.136  1.00  0.00     0.167 HD
ATOM     69  C   UNL A   1      43.734  30.895  35.893  1.00  0.00     0.074 A 
ATOM     70  C   UNL A   1      43.556  31.311  37.267  1.00  0.00     0.031 C 
ATOM     71  C   UNL A   1      44.851  30.283  35.420  1.00  0.00     0.034 A 
BRANCH  58  72
ATOM     72  C   UNL A   1      44.581  28.850  29.389  1.00  0.00     0.023 A 
ATOM     73  C   UNL A   1      45.378  29.579  28.488  1.00  0.00     0.031 A 
ATOM     74  C   UNL A   1      44.369  27.486  29.123  1.00  0.00     0.131 A 
ATOM     75  C   UNL A   1      45.871  28.958  27.331  1.00  0.00     0.055 A 
ATOM     76  C   UNL A   1      44.935  26.853  28.016  1.00  0.00     0.041 A 
ATOM     77  F   UNL A   1      43.592  26.746  29.929  1.00  0.00    -0.206 F 
ATOM     78  C   UNL A   1      45.680  27.594  27.102  1.00  0.00     0.022 A 
BRANCH  75  79
ATOM     79  S   UNL A   1      46.630  29.994  26.048  1.00  0.00     0.124 S 
ATOM     80  O   UNL A   1      47.972  30.196  26.588  1.00  0.00    -0.237 OA
ATOM     81  O   UNL A   1      46.539  29.147  24.864  1.00  0.00    -0.237 OA
ATOM     82  O   UNL A   1      45.789  31.188  26.030  1.00  0.00    -0.744 OA
ENDBRANCH  75  79
ENDBRANCH  58  72
BRANCH  59  83
ATOM     83  C   UNL A   1      39.695  33.014  37.103  1.00  0.00     0.023 A 
ATOM     84  C   UNL A   1      38.739  32.265  37.807  1.00  0.00     0.031 A 
ATOM     85  C   UNL A   1      39.898  34.351  37.490  1.00  0.00     0.131 A 
ATOM     86  C   UNL A   1      37.988  32.870  38.827  1.00  0.00     0.055 A 
ATOM     87  C   UNL A   1      39.191  34.931  38.545  1.00  0.00     0.041 A 
ATOM     88  F   UNL A   1      40.794  35.117  36.847  1.00  0.00    -0.206 F 
ATOM     89  C   UNL A   1      38.219  34.192  39.212  1.00  0.00     0.022 A 
BRANCH  86  90
ATOM     90  S   UNL A   1      36.633  31.929  39.585  1.00  0.00     0.124 S 
ATOM     91  O   UNL A   1      36.949  32.048  41.003  1.00  0.00    -0.237 OA
ATOM     92  O   UNL A   1      35.461  32.663  39.123  1.00  0.00    -0.237 OA
ATOM     93  O   UNL A   1      36.792  30.591  39.019  1.00  0.00    -0.744 OA
ENDBRANCH  86  90
ENDBRANCH  59  83
BRANCH  71  94
ATOM     94  C   UNL A   1      45.992  30.078  36.391  1.00  0.00     0.023 A 
ATOM     95  C   UNL A   1      46.052  28.965  37.247  1.00  0.00     0.031 A 
ATOM     96  C   UNL A   1      47.038  31.017  36.456  1.00  0.00     0.131 A 
ATOM     97  C   UNL A   1      47.104  28.849  38.170  1.00  0.00     0.055 A 
ATOM     98  C   UNL A   1      48.118  30.859  37.326  1.00  0.00     0.041 A 
ATOM     99  F   UNL A   1      47.034  32.101  35.663  1.00  0.00    -0.206 F 
ATOM    100  C   UNL A   1      48.147  29.778  38.201  1.00  0.00     0.022 A 
BRANCH  97 101
ATOM    101  S   UNL A   1      47.038  27.522  39.404  1.00  0.00     0.124 S 
ATOM    102  O   UNL A   1      47.785  26.456  38.743  1.00  0.00    -0.237 OA
ATOM    103  O   UNL A   1      47.688  28.135  40.558  1.00  0.00    -0.237 OA
ATOM    104  O   UNL A   1      45.607  27.270  39.562  1.00  0.00    -0.744 OA
ENDBRANCH  97 101
ENDBRANCH  71  94
ENDBRANCH  45  46
ENDBRANCH  38  40
ENDBRANCH  37  38
ENDBRANCH  36  37
ENDBRANCH  35  36
ENDBRANCH  34  35
ENDBRANCH  33  34
ENDBRANCH  32  33
ENDBRANCH   1  32
TORSDOF 28
ENDMDL
