MODEL 1
REMARK VINA RESULT:     -10.1      0.000      0.000
REMARK SMILES Cc1oc(CNC(=O)c2ccnn2C)cc1C(=O)OCCOCCOCCOCCOC(=O)c1ccc(-c2c3nc(c(-c4cc(S(=O)(=O)[O-])ccc4F)c4ccc([nH]4)c(-c4cc(S(=O)(=O)[O-])ccc4F)c4nc(c(-c5cc(S(=O)(=O)[O-])ccc5F)c5ccc2[nH]5)C=C4)C=C3)cc1
REMARK SMILES IDX 25 1 24 2 23 3 22 4 21 5 20 6 19 7 17 8 18 9 16 10 1 11 2 12
REMARK SMILES IDX 3 13 4 14 15 15 5 16 6 17 7 18 8 20 9 21 10 22 13 23 11 24
REMARK SMILES IDX 12 25 14 26 26 27 27 28 28 29 29 30 30 31 31 32 32 33 33 34
REMARK SMILES IDX 34 35 35 36 96 37 36 38 95 39 37 40 38 41 39 42 89 43 40 44
REMARK SMILES IDX 94 45 88 46 90 47 41 48 93 49 87 50 86 51 42 53 74 54 54 55
REMARK SMILES IDX 73 56 55 57 58 58 72 59 91 60 56 61 57 62 71 64 92 65 59 66
REMARK SMILES IDX 43 67 44 68 52 69 45 70 51 71 53 72 50 73 46 74 47 75 48 76
REMARK SMILES IDX 49 77 75 78 76 79 84 80 77 81 83 82 85 83 82 84 78 85 79 86
REMARK SMILES IDX 80 87 81 88 60 89 61 90 69 91 62 92 68 93 70 94 67 95 63 96
REMARK SMILES IDX 64 97 65 98 66 99
REMARK H PARENT 6 19 90 52 58 63
REMARK Flexibility Score: inf
ROOT
ATOM      1  O   UNL A   1      41.715  19.758  25.687  1.00  0.00    -0.377 OA
ENDROOT
BRANCH   1   2
ATOM      2  C   UNL A   1      41.065  20.424  26.756  1.00  0.00     0.188 C 
BRANCH   2   3
ATOM      3  C   UNL A   1      40.170  21.571  26.259  1.00  0.00     0.188 C 
BRANCH   3   4
ATOM      4  O   UNL A   1      38.779  21.252  26.282  1.00  0.00    -0.376 OA
BRANCH   4   5
ATOM      5  C   UNL A   1      37.921  22.044  25.463  1.00  0.00     0.202 C 
BRANCH   5   6
ATOM      6  C   UNL A   1      36.729  21.335  24.793  1.00  0.00     0.261 C 
BRANCH   6   7
ATOM      7  O   UNL A   1      35.462  21.516  25.446  1.00  0.00    -0.460 OA
BRANCH   7   8
ATOM      8  C   UNL A   1      34.353  21.088  24.801  1.00  0.00     0.341 C 
ATOM      9  O   UNL A   1      34.122  19.921  24.506  1.00  0.00    -0.246 OA
BRANCH   8  10
ATOM     10  C   UNL A   1      33.355  22.137  24.683  1.00  0.00     0.101 A 
ATOM     11  C   UNL A   1      32.600  22.679  27.159  1.00  0.00     0.088 C 
ATOM     12  C   UNL A   1      32.619  22.759  25.681  1.00  0.00     0.115 A 
ATOM     13  O   UNL A   1      31.732  23.642  25.130  1.00  0.00    -0.464 OA
ATOM     14  C   UNL A   1      31.887  23.583  23.780  1.00  0.00     0.124 A 
ATOM     15  C   UNL A   1      32.875  22.682  23.460  1.00  0.00     0.063 A 
BRANCH  14  16
ATOM     16  C   UNL A   1      31.110  24.510  22.930  1.00  0.00     0.191 C 
BRANCH  16  17
ATOM     17  N   UNL A   1      29.825  24.858  23.487  1.00  0.00    -0.343 N 
ATOM     18  C   UNL A   1      29.340  26.101  23.799  1.00  0.00     0.269 C 
ATOM     19  H   UNL A   1      29.218  24.104  23.667  1.00  0.00     0.164 HD
ATOM     20  O   UNL A   1      28.209  26.188  24.272  1.00  0.00    -0.268 OA
BRANCH  18  21
ATOM     21  C   UNL A   1      30.190  27.248  23.613  1.00  0.00     0.125 A 
ATOM     22  C   UNL A   1      30.282  28.040  22.482  1.00  0.00     0.055 A 
ATOM     23  N   UNL A   1      31.121  27.765  24.479  1.00  0.00    -0.263 N 
ATOM     24  C   UNL A   1      31.188  29.058  22.812  1.00  0.00     0.136 A 
ATOM     25  N   UNL A   1      31.692  28.906  24.038  1.00  0.00    -0.181 NA
ATOM     26  C   UNL A   1      31.529  27.258  25.769  1.00  0.00     0.174 C 
ENDBRANCH  18  21
ENDBRANCH  16  17
ENDBRANCH  14  16
ENDBRANCH   8  10
ENDBRANCH   7   8
ENDBRANCH   6   7
ENDBRANCH   5   6
ENDBRANCH   4   5
ENDBRANCH   3   4
ENDBRANCH   2   3
ENDBRANCH   1   2
BRANCH   1  27
ATOM     27  C   UNL A   1      42.644  18.738  26.048  1.00  0.00     0.188 C 
BRANCH  27  28
ATOM     28  C   UNL A   1      44.152  18.981  25.828  1.00  0.00     0.188 C 
BRANCH  28  29
ATOM     29  O   UNL A   1      44.448  19.591  24.567  1.00  0.00    -0.376 OA
BRANCH  29  30
ATOM     30  C   UNL A   1      45.194  20.805  24.623  1.00  0.00     0.202 C 
BRANCH  30  31
ATOM     31  C   UNL A   1      44.913  21.644  25.878  1.00  0.00     0.261 C 
BRANCH  31  32
ATOM     32  O   UNL A   1      43.820  22.568  25.755  1.00  0.00    -0.460 OA
BRANCH  32  33
ATOM     33  C   UNL A   1      44.115  23.806  25.296  1.00  0.00     0.338 C 
ATOM     34  O   UNL A   1      44.716  24.081  24.275  1.00  0.00    -0.246 OA
BRANCH  33  35
ATOM     35  C   UNL A   1      43.407  24.787  26.144  1.00  0.00     0.060 A 
ATOM     36  C   UNL A   1      43.862  26.111  26.160  1.00  0.00     0.016 A 
ATOM     37  C   UNL A   1      42.312  24.402  26.923  1.00  0.00     0.016 A 
ATOM     38  C   UNL A   1      43.251  27.046  26.996  1.00  0.00     0.010 A 
ATOM     39  C   UNL A   1      41.712  25.334  27.771  1.00  0.00     0.010 A 
ATOM     40  C   UNL A   1      42.203  26.650  27.838  1.00  0.00    -0.014 A 
BRANCH  40  41
ATOM     41  C   UNL A   1      41.764  27.541  28.939  1.00  0.00     0.031 A 
ATOM     42  C   UNL A   1      42.512  27.474  30.242  1.00  0.00     0.074 A 
ATOM     43  C   UNL A   1      40.729  28.385  28.788  1.00  0.00     0.049 A 
ATOM     44  N   UNL A   1      42.292  28.110  31.362  1.00  0.00    -0.248 NA
ATOM     45  C   UNL A   1      43.659  26.554  30.285  1.00  0.00     0.031 C 
ATOM     46  C   UNL A   1      39.950  28.558  27.563  1.00  0.00     0.029 A 
ATOM     47  N   UNL A   1      40.148  29.247  29.683  1.00  0.00    -0.354 N 
ATOM     48  C   UNL A   1      43.279  27.675  32.242  1.00  0.00     0.074 A 
ATOM     49  C   UNL A   1      44.068  26.690  31.536  1.00  0.00     0.031 C 
ATOM     50  C   UNL A   1      38.978  29.460  27.791  1.00  0.00     0.029 A 
ATOM     51  C   UNL A   1      39.050  29.905  29.182  1.00  0.00     0.049 A 
ATOM     52  H   UNL A   1      40.486  29.382  30.597  1.00  0.00     0.167 HD
ATOM     53  C   UNL A   1      43.510  28.068  33.518  1.00  0.00     0.034 A 
ATOM     54  C   UNL A   1      38.190  30.748  29.788  1.00  0.00     0.034 A 
ATOM     55  C   UNL A   1      42.694  29.025  34.221  1.00  0.00     0.049 A 
ATOM     56  C   UNL A   1      38.411  31.104  31.241  1.00  0.00     0.074 A 
ATOM     57  C   UNL A   1      42.836  29.496  35.514  1.00  0.00     0.029 A 
ATOM     58  N   UNL A   1      41.570  29.646  33.693  1.00  0.00    -0.354 N 
ATOM     59  N   UNL A   1      39.358  30.701  32.056  1.00  0.00    -0.248 NA
ATOM     60  C   UNL A   1      37.450  32.034  31.849  1.00  0.00     0.031 C 
ATOM     61  C   UNL A   1      41.762  30.352  35.788  1.00  0.00     0.029 A 
ATOM     62  C   UNL A   1      40.989  30.471  34.644  1.00  0.00     0.049 A 
ATOM     63  H   UNL A   1      41.233  29.518  32.776  1.00  0.00     0.167 HD
ATOM     64  C   UNL A   1      39.122  31.352  33.265  1.00  0.00     0.074 A 
ATOM     65  C   UNL A   1      37.950  32.181  33.068  1.00  0.00     0.031 C 
ATOM     66  C   UNL A   1      39.814  31.282  34.432  1.00  0.00     0.034 A 
BRANCH  53  67
ATOM     67  C   UNL A   1      44.661  27.411  34.237  1.00  0.00     0.023 A 
ATOM     68  C   UNL A   1      44.512  26.169  34.881  1.00  0.00     0.031 A 
ATOM     69  C   UNL A   1      45.905  28.057  34.328  1.00  0.00     0.131 A 
ATOM     70  C   UNL A   1      45.566  25.649  35.648  1.00  0.00     0.055 A 
ATOM     71  C   UNL A   1      46.974  27.497  35.030  1.00  0.00     0.041 A 
ATOM     72  F   UNL A   1      46.096  29.255  33.755  1.00  0.00    -0.206 F 
ATOM     73  C   UNL A   1      46.803  26.293  35.708  1.00  0.00     0.022 A 
BRANCH  70  74
ATOM     74  S   UNL A   1      45.248  24.192  36.682  1.00  0.00     0.124 S 
ATOM     75  O   UNL A   1      44.355  24.741  37.699  1.00  0.00    -0.237 OA
ATOM     76  O   UNL A   1      44.643  23.260  35.737  1.00  0.00    -0.237 OA
ATOM     77  O   UNL A   1      46.575  23.819  37.164  1.00  0.00    -0.744 OA
ENDBRANCH  70  74
ENDBRANCH  53  67
BRANCH  54  78
ATOM     78  C   UNL A   1      37.012  31.289  29.051  1.00  0.00     0.023 A 
ATOM     79  C   UNL A   1      35.978  30.446  28.613  1.00  0.00     0.031 A 
ATOM     80  C   UNL A   1      36.937  32.654  28.720  1.00  0.00     0.131 A 
ATOM     81  C   UNL A   1      34.936  30.968  27.830  1.00  0.00     0.055 A 
ATOM     82  C   UNL A   1      35.874  33.177  27.981  1.00  0.00     0.041 A 
ATOM     83  F   UNL A   1      37.900  33.502  29.114  1.00  0.00    -0.206 F 
ATOM     84  C   UNL A   1      34.872  32.329  27.521  1.00  0.00     0.022 A 
BRANCH  81  85
ATOM     85  S   UNL A   1      33.700  29.825  27.154  1.00  0.00     0.124 S 
ATOM     86  O   UNL A   1      34.338  29.398  25.914  1.00  0.00    -0.237 OA
ATOM     87  O   UNL A   1      33.609  28.820  28.209  1.00  0.00    -0.237 OA
ATOM     88  O   UNL A   1      32.515  30.663  26.992  1.00  0.00    -0.744 OA
ENDBRANCH  81  85
ENDBRANCH  54  78
BRANCH  66  89
ATOM     89  C   UNL A   1      39.343  32.160  35.564  1.00  0.00     0.023 A 
ATOM     90  C   UNL A   1      39.750  33.500  35.681  1.00  0.00     0.031 A 
ATOM     91  C   UNL A   1      38.473  31.643  36.540  1.00  0.00     0.131 A 
ATOM     92  C   UNL A   1      39.326  34.265  36.779  1.00  0.00     0.055 A 
ATOM     93  C   UNL A   1      38.012  32.424  37.601  1.00  0.00     0.041 A 
ATOM     94  F   UNL A   1      38.052  30.370  36.476  1.00  0.00    -0.206 F 
ATOM     95  C   UNL A   1      38.448  33.740  37.731  1.00  0.00     0.022 A 
BRANCH  92  96
ATOM     96  S   UNL A   1      39.999  35.936  36.991  1.00  0.00     0.124 S 
ATOM     97  O   UNL A   1      41.414  35.666  37.228  1.00  0.00    -0.237 OA
ATOM     98  O   UNL A   1      39.676  36.567  35.715  1.00  0.00    -0.237 OA
ATOM     99  O   UNL A   1      39.266  36.458  38.142  1.00  0.00    -0.744 OA
ENDBRANCH  92  96
ENDBRANCH  66  89
ENDBRANCH  40  41
ENDBRANCH  33  35
ENDBRANCH  32  33
ENDBRANCH  31  32
ENDBRANCH  30  31
ENDBRANCH  29  30
ENDBRANCH  28  29
ENDBRANCH  27  28
ENDBRANCH   1  27
TORSDOF 26
ENDMDL
MODEL 2
REMARK VINA RESULT:      -9.2      4.632      5.854
REMARK SMILES Cc1oc(CNC(=O)c2ccnn2C)cc1C(=O)OCCOCCOCCOCCOC(=O)c1ccc(-c2c3nc(c(-c4cc(S(=O)(=O)[O-])ccc4F)c4ccc([nH]4)c(-c4cc(S(=O)(=O)[O-])ccc4F)c4nc(c(-c5cc(S(=O)(=O)[O-])ccc5F)c5ccc2[nH]5)C=C4)C=C3)cc1
REMARK SMILES IDX 25 1 24 2 23 3 22 4 21 5 20 6 19 7 17 8 18 9 16 10 1 11 2 12
REMARK SMILES IDX 3 13 4 14 15 15 5 16 6 17 7 18 8 20 9 21 10 22 13 23 11 24
REMARK SMILES IDX 12 25 14 26 26 27 27 28 28 29 29 30 30 31 31 32 32 33 33 34
REMARK SMILES IDX 34 35 35 36 96 37 36 38 95 39 37 40 38 41 39 42 89 43 40 44
REMARK SMILES IDX 94 45 88 46 90 47 41 48 93 49 87 50 86 51 42 53 74 54 54 55
REMARK SMILES IDX 73 56 55 57 58 58 72 59 91 60 56 61 57 62 71 64 92 65 59 66
REMARK SMILES IDX 43 67 44 68 52 69 45 70 51 71 53 72 50 73 46 74 47 75 48 76
REMARK SMILES IDX 49 77 75 78 76 79 84 80 77 81 83 82 85 83 82 84 78 85 79 86
REMARK SMILES IDX 80 87 81 88 60 89 61 90 69 91 62 92 68 93 70 94 67 95 63 96
REMARK SMILES IDX 64 97 65 98 66 99
REMARK H PARENT 6 19 90 52 58 63
REMARK Flexibility Score: inf
ROOT
ATOM      1  O   UNL A   1      41.755  20.094  25.783  1.00  0.00    -0.377 OA
ENDROOT
BRANCH   1   2
ATOM      2  C   UNL A   1      40.935  20.563  26.839  1.00  0.00     0.188 C 
BRANCH   2   3
ATOM      3  C   UNL A   1      40.085  21.771  26.414  1.00  0.00     0.188 C 
BRANCH   3   4
ATOM      4  O   UNL A   1      40.176  22.872  27.317  1.00  0.00    -0.376 OA
BRANCH   4   5
ATOM      5  C   UNL A   1      39.093  23.800  27.317  1.00  0.00     0.202 C 
BRANCH   5   6
ATOM      6  C   UNL A   1      38.363  24.036  25.981  1.00  0.00     0.261 C 
BRANCH   6   7
ATOM      7  O   UNL A   1      36.961  23.726  25.986  1.00  0.00    -0.460 OA
BRANCH   7   8
ATOM      8  C   UNL A   1      36.403  23.308  24.827  1.00  0.00     0.341 C 
ATOM      9  O   UNL A   1      36.988  23.249  23.751  1.00  0.00    -0.246 OA
BRANCH   8  10
ATOM     10  C   UNL A   1      35.089  22.726  25.034  1.00  0.00     0.101 A 
ATOM     11  C   UNL A   1      33.601  24.673  26.030  1.00  0.00     0.088 C 
ATOM     12  C   UNL A   1      33.949  23.311  25.565  1.00  0.00     0.115 A 
ATOM     13  O   UNL A   1      32.944  22.388  25.654  1.00  0.00    -0.464 OA
ATOM     14  C   UNL A   1      33.437  21.208  25.191  1.00  0.00     0.124 A 
ATOM     15  C   UNL A   1      34.742  21.368  24.792  1.00  0.00     0.063 A 
BRANCH  14  16
ATOM     16  C   UNL A   1      32.528  20.046  25.084  1.00  0.00     0.191 C 
BRANCH  16  17
ATOM     17  N   UNL A   1      32.407  19.534  23.740  1.00  0.00    -0.343 N 
ATOM     18  C   UNL A   1      32.594  18.251  23.297  1.00  0.00     0.269 C 
ATOM     19  H   UNL A   1      32.159  20.193  23.052  1.00  0.00     0.164 HD
ATOM     20  O   UNL A   1      32.445  18.017  22.100  1.00  0.00    -0.268 OA
BRANCH  18  21
ATOM     21  C   UNL A   1      33.010  17.243  24.236  1.00  0.00     0.125 A 
ATOM     22  C   UNL A   1      32.202  16.320  24.877  1.00  0.00     0.055 A 
ATOM     23  N   UNL A   1      34.267  17.016  24.739  1.00  0.00    -0.263 N 
ATOM     24  C   UNL A   1      33.074  15.522  25.631  1.00  0.00     0.136 A 
ATOM     25  N   UNL A   1      34.340  15.931  25.538  1.00  0.00    -0.181 NA
ATOM     26  C   UNL A   1      35.479  17.766  24.502  1.00  0.00     0.174 C 
ENDBRANCH  18  21
ENDBRANCH  16  17
ENDBRANCH  14  16
ENDBRANCH   8  10
ENDBRANCH   7   8
ENDBRANCH   6   7
ENDBRANCH   5   6
ENDBRANCH   4   5
ENDBRANCH   3   4
ENDBRANCH   2   3
ENDBRANCH   1   2
BRANCH   1  27
ATOM     27  C   UNL A   1      42.601  18.985  26.083  1.00  0.00     0.188 C 
BRANCH  27  28
ATOM     28  C   UNL A   1      43.913  18.804  25.291  1.00  0.00     0.188 C 
BRANCH  28  29
ATOM     29  O   UNL A   1      44.346  19.999  24.632  1.00  0.00    -0.376 OA
BRANCH  29  30
ATOM     30  C   UNL A   1      45.599  20.528  25.063  1.00  0.00     0.202 C 
BRANCH  30  31
ATOM     31  C   UNL A   1      45.503  21.946  25.644  1.00  0.00     0.261 C 
BRANCH  31  32
ATOM     32  O   UNL A   1      44.190  22.334  26.079  1.00  0.00    -0.460 OA
BRANCH  32  33
ATOM     33  C   UNL A   1      43.485  23.139  25.252  1.00  0.00     0.338 C 
ATOM     34  O   UNL A   1      43.026  22.844  24.164  1.00  0.00    -0.246 OA
BRANCH  33  35
ATOM     35  C   UNL A   1      43.186  24.390  25.979  1.00  0.00     0.060 A 
ATOM     36  C   UNL A   1      42.935  25.551  25.238  1.00  0.00     0.016 A 
ATOM     37  C   UNL A   1      43.164  24.419  27.376  1.00  0.00     0.016 A 
ATOM     38  C   UNL A   1      42.709  26.760  25.896  1.00  0.00     0.010 A 
ATOM     39  C   UNL A   1      42.953  25.632  28.034  1.00  0.00     0.010 A 
ATOM     40  C   UNL A   1      42.762  26.813  27.296  1.00  0.00    -0.014 A 
BRANCH  40  41
ATOM     41  C   UNL A   1      42.836  28.125  27.982  1.00  0.00     0.031 A 
ATOM     42  C   UNL A   1      44.196  28.731  28.203  1.00  0.00     0.074 A 
ATOM     43  C   UNL A   1      41.729  28.762  28.401  1.00  0.00     0.049 A 
ATOM     44  N   UNL A   1      44.525  29.836  28.817  1.00  0.00    -0.248 NA
ATOM     45  C   UNL A   1      45.337  27.976  27.662  1.00  0.00     0.031 C 
ATOM     46  C   UNL A   1      40.359  28.287  28.215  1.00  0.00     0.029 A 
ATOM     47  N   UNL A   1      41.588  29.944  29.083  1.00  0.00    -0.354 N 
ATOM     48  C   UNL A   1      45.912  29.916  28.729  1.00  0.00     0.074 A 
ATOM     49  C   UNL A   1      46.360  28.725  28.041  1.00  0.00     0.031 C 
ATOM     50  C   UNL A   1      39.515  29.164  28.789  1.00  0.00     0.029 A 
ATOM     51  C   UNL A   1      40.286  30.244  29.403  1.00  0.00     0.049 A 
ATOM     52  H   UNL A   1      42.348  30.523  29.319  1.00  0.00     0.167 HD
ATOM     53  C   UNL A   1      46.735  30.896  29.174  1.00  0.00     0.034 A 
ATOM     54  C   UNL A   1      39.782  31.261  30.131  1.00  0.00     0.034 A 
ATOM     55  C   UNL A   1      46.278  32.061  29.890  1.00  0.00     0.049 A 
ATOM     56  C   UNL A   1      40.724  32.297  30.698  1.00  0.00     0.074 A 
ATOM     57  C   UNL A   1      47.022  33.116  30.388  1.00  0.00     0.029 A 
ATOM     58  N   UNL A   1      44.955  32.314  30.227  1.00  0.00    -0.354 N 
ATOM     59  N   UNL A   1      42.031  32.371  30.593  1.00  0.00    -0.248 NA
ATOM     60  C   UNL A   1      40.121  33.387  31.476  1.00  0.00     0.031 C 
ATOM     61  C   UNL A   1      46.157  33.974  31.078  1.00  0.00     0.029 A 
ATOM     62  C   UNL A   1      44.864  33.492  30.952  1.00  0.00     0.049 A 
ATOM     63  H   UNL A   1      44.192  31.740  29.986  1.00  0.00     0.167 HD
ATOM     64  C   UNL A   1      42.401  33.533  31.266  1.00  0.00     0.074 A 
ATOM     65  C   UNL A   1      41.179  34.131  31.765  1.00  0.00     0.031 C 
ATOM     66  C   UNL A   1      43.637  34.066  31.451  1.00  0.00     0.034 A 
BRANCH  53  67
ATOM     67  C   UNL A   1      48.212  30.707  28.941  1.00  0.00     0.023 A 
ATOM     68  C   UNL A   1      49.032  30.076  29.895  1.00  0.00     0.031 A 
ATOM     69  C   UNL A   1      48.819  31.210  27.778  1.00  0.00     0.131 A 
ATOM     70  C   UNL A   1      50.421  30.032  29.702  1.00  0.00     0.055 A 
ATOM     71  C   UNL A   1      50.193  31.096  27.558  1.00  0.00     0.041 A 
ATOM     72  F   UNL A   1      48.090  31.844  26.847  1.00  0.00    -0.206 F 
ATOM     73  C   UNL A   1      51.005  30.517  28.530  1.00  0.00     0.022 A 
BRANCH  70  74
ATOM     74  S   UNL A   1      51.467  29.462  31.070  1.00  0.00     0.124 S 
ATOM     75  O   UNL A   1      50.656  29.817  32.231  1.00  0.00    -0.237 OA
ATOM     76  O   UNL A   1      51.599  28.036  30.794  1.00  0.00    -0.237 OA
ATOM     77  O   UNL A   1      52.692  30.243  30.913  1.00  0.00    -0.744 OA
ENDBRANCH  70  74
ENDBRANCH  53  67
BRANCH  54  78
ATOM     78  C   UNL A   1      38.319  31.339  30.411  1.00  0.00     0.023 A 
ATOM     79  C   UNL A   1      37.439  31.969  29.517  1.00  0.00     0.031 A 
ATOM     80  C   UNL A   1      37.791  30.836  31.614  1.00  0.00     0.131 A 
ATOM     81  C   UNL A   1      36.085  32.119  29.858  1.00  0.00     0.055 A 
ATOM     82  C   UNL A   1      36.435  30.946  31.928  1.00  0.00     0.041 A 
ATOM     83  F   UNL A   1      38.590  30.226  32.504  1.00  0.00    -0.206 F 
ATOM     84  C   UNL A   1      35.576  31.602  31.052  1.00  0.00     0.022 A 
BRANCH  81  85
ATOM     85  S   UNL A   1      35.009  33.069  28.750  1.00  0.00     0.124 S 
ATOM     86  O   UNL A   1      35.901  33.334  27.625  1.00  0.00    -0.237 OA
ATOM     87  O   UNL A   1      33.923  32.126  28.500  1.00  0.00    -0.237 OA
ATOM     88  O   UNL A   1      34.646  34.237  29.547  1.00  0.00    -0.744 OA
ENDBRANCH  81  85
ENDBRANCH  54  78
BRANCH  66  89
ATOM     89  C   UNL A   1      43.715  35.383  32.182  1.00  0.00     0.023 A 
ATOM     90  C   UNL A   1      43.672  36.613  31.503  1.00  0.00     0.031 A 
ATOM     91  C   UNL A   1      43.836  35.402  33.584  1.00  0.00     0.131 A 
ATOM     92  C   UNL A   1      43.798  37.812  32.222  1.00  0.00     0.055 A 
ATOM     93  C   UNL A   1      43.907  36.599  34.298  1.00  0.00     0.041 A 
ATOM     94  F   UNL A   1      43.881  34.257  34.282  1.00  0.00    -0.206 F 
ATOM     95  C   UNL A   1      43.900  37.812  33.616  1.00  0.00     0.022 A 
BRANCH  92  96
ATOM     96  S   UNL A   1      43.905  39.373  31.305  1.00  0.00     0.124 S 
ATOM     97  O   UNL A   1      45.221  39.866  31.696  1.00  0.00    -0.237 OA
ATOM     98  O   UNL A   1      43.776  38.930  29.920  1.00  0.00    -0.237 OA
ATOM     99  O   UNL A   1      42.775  40.148  31.813  1.00  0.00    -0.744 OA
ENDBRANCH  92  96
ENDBRANCH  66  89
ENDBRANCH  40  41
ENDBRANCH  33  35
ENDBRANCH  32  33
ENDBRANCH  31  32
ENDBRANCH  30  31
ENDBRANCH  29  30
ENDBRANCH  28  29
ENDBRANCH  27  28
ENDBRANCH   1  27
TORSDOF 26
ENDMDL
MODEL 3
REMARK VINA RESULT:      -9.2      3.123     10.009
REMARK SMILES Cc1oc(CNC(=O)c2ccnn2C)cc1C(=O)OCCOCCOCCOCCOC(=O)c1ccc(-c2c3nc(c(-c4cc(S(=O)(=O)[O-])ccc4F)c4ccc([nH]4)c(-c4cc(S(=O)(=O)[O-])ccc4F)c4nc(c(-c5cc(S(=O)(=O)[O-])ccc5F)c5ccc2[nH]5)C=C4)C=C3)cc1
REMARK SMILES IDX 25 1 24 2 23 3 22 4 21 5 20 6 19 7 17 8 18 9 16 10 1 11 2 12
REMARK SMILES IDX 3 13 4 14 15 15 5 16 6 17 7 18 8 20 9 21 10 22 13 23 11 24
REMARK SMILES IDX 12 25 14 26 26 27 27 28 28 29 29 30 30 31 31 32 32 33 33 34
REMARK SMILES IDX 34 35 35 36 96 37 36 38 95 39 37 40 38 41 39 42 89 43 40 44
REMARK SMILES IDX 94 45 88 46 90 47 41 48 93 49 87 50 86 51 42 53 74 54 54 55
REMARK SMILES IDX 73 56 55 57 58 58 72 59 91 60 56 61 57 62 71 64 92 65 59 66
REMARK SMILES IDX 43 67 44 68 52 69 45 70 51 71 53 72 50 73 46 74 47 75 48 76
REMARK SMILES IDX 49 77 75 78 76 79 84 80 77 81 83 82 85 83 82 84 78 85 79 86
REMARK SMILES IDX 80 87 81 88 60 89 61 90 69 91 62 92 68 93 70 94 67 95 63 96
REMARK SMILES IDX 64 97 65 98 66 99
REMARK H PARENT 6 19 90 52 58 63
REMARK Flexibility Score: inf
ROOT
ATOM      1  O   UNL A   1      33.571  27.256  24.158  1.00  0.00    -0.377 OA
ENDROOT
BRANCH   1   2
ATOM      2  C   UNL A   1      32.826  26.496  23.222  1.00  0.00     0.188 C 
BRANCH   2   3
ATOM      3  C   UNL A   1      31.477  26.036  23.799  1.00  0.00     0.188 C 
BRANCH   3   4
ATOM      4  O   UNL A   1      31.202  24.656  23.562  1.00  0.00    -0.376 OA
BRANCH   4   5
ATOM      5  C   UNL A   1      32.007  23.708  24.260  1.00  0.00     0.202 C 
BRANCH   5   6
ATOM      6  C   UNL A   1      32.218  22.334  23.596  1.00  0.00     0.261 C 
BRANCH   6   7
ATOM      7  O   UNL A   1      33.568  21.841  23.623  1.00  0.00    -0.460 OA
BRANCH   7   8
ATOM      8  C   UNL A   1      33.996  21.239  24.755  1.00  0.00     0.341 C 
ATOM      9  O   UNL A   1      33.440  20.289  25.295  1.00  0.00    -0.246 OA
BRANCH   8  10
ATOM     10  C   UNL A   1      35.315  21.701  25.151  1.00  0.00     0.101 A 
ATOM     11  C   UNL A   1      34.986  24.207  25.931  1.00  0.00     0.088 C 
ATOM     12  C   UNL A   1      35.703  22.951  25.608  1.00  0.00     0.115 A 
ATOM     13  O   UNL A   1      37.057  22.985  25.797  1.00  0.00    -0.464 OA
ATOM     14  C   UNL A   1      37.544  21.762  25.454  1.00  0.00     0.124 A 
ATOM     15  C   UNL A   1      36.514  20.941  25.060  1.00  0.00     0.063 A 
BRANCH  14  16
ATOM     16  C   UNL A   1      38.982  21.484  25.651  1.00  0.00     0.191 C 
BRANCH  16  17
ATOM     17  N   UNL A   1      39.500  22.000  26.896  1.00  0.00    -0.343 N 
ATOM     18  C   UNL A   1      40.737  21.802  27.452  1.00  0.00     0.269 C 
ATOM     19  H   UNL A   1      38.885  22.569  27.413  1.00  0.00     0.164 HD
ATOM     20  O   UNL A   1      40.986  22.331  28.533  1.00  0.00    -0.268 OA
BRANCH  18  21
ATOM     21  C   UNL A   1      41.673  20.939  26.780  1.00  0.00     0.125 A 
ATOM     22  C   UNL A   1      41.915  19.604  27.050  1.00  0.00     0.055 A 
ATOM     23  N   UNL A   1      42.557  21.259  25.779  1.00  0.00    -0.263 N 
ATOM     24  C   UNL A   1      42.852  19.193  26.092  1.00  0.00     0.136 A 
ATOM     25  N   UNL A   1      43.236  20.196  25.300  1.00  0.00    -0.181 NA
ATOM     26  C   UNL A   1      42.817  22.552  25.189  1.00  0.00     0.174 C 
ENDBRANCH  18  21
ENDBRANCH  16  17
ENDBRANCH  14  16
ENDBRANCH   8  10
ENDBRANCH   7   8
ENDBRANCH   6   7
ENDBRANCH   5   6
ENDBRANCH   4   5
ENDBRANCH   3   4
ENDBRANCH   2   3
ENDBRANCH   1   2
BRANCH   1  27
ATOM     27  C   UNL A   1      32.821  27.923  25.171  1.00  0.00     0.188 C 
BRANCH  27  28
ATOM     28  C   UNL A   1      32.517  29.428  25.014  1.00  0.00     0.188 C 
BRANCH  28  29
ATOM     29  O   UNL A   1      31.567  29.916  25.968  1.00  0.00    -0.376 OA
BRANCH  29  30
ATOM     30  C   UNL A   1      31.734  31.272  26.374  1.00  0.00     0.202 C 
BRANCH  30  31
ATOM     31  C   UNL A   1      33.140  31.590  26.902  1.00  0.00     0.261 C 
BRANCH  31  32
ATOM     32  O   UNL A   1      33.172  32.295  28.153  1.00  0.00    -0.460 OA
BRANCH  32  33
ATOM     33  C   UNL A   1      33.977  33.380  28.224  1.00  0.00     0.338 C 
ATOM     34  O   UNL A   1      33.775  34.472  27.727  1.00  0.00    -0.246 OA
BRANCH  33  35
ATOM     35  C   UNL A   1      35.062  33.080  29.181  1.00  0.00     0.060 A 
ATOM     36  C   UNL A   1      36.311  33.683  28.987  1.00  0.00     0.016 A 
ATOM     37  C   UNL A   1      34.852  32.206  30.251  1.00  0.00     0.016 A 
ATOM     38  C   UNL A   1      37.371  33.373  29.840  1.00  0.00     0.010 A 
ATOM     39  C   UNL A   1      35.917  31.885  31.094  1.00  0.00     0.010 A 
ATOM     40  C   UNL A   1      37.190  32.439  30.869  1.00  0.00    -0.014 A 
BRANCH  40  41
ATOM     41  C   UNL A   1      38.368  31.875  31.570  1.00  0.00     0.031 A 
ATOM     42  C   UNL A   1      39.136  30.776  30.888  1.00  0.00     0.074 A 
ATOM     43  C   UNL A   1      38.746  32.323  32.779  1.00  0.00     0.049 A 
ATOM     44  N   UNL A   1      40.165  30.092  31.313  1.00  0.00    -0.248 NA
ATOM     45  C   UNL A   1      38.669  30.395  29.546  1.00  0.00     0.031 C 
ATOM     46  C   UNL A   1      38.097  33.403  33.522  1.00  0.00     0.029 A 
ATOM     47  N   UNL A   1      39.764  31.912  33.601  1.00  0.00    -0.354 N 
ATOM     48  C   UNL A   1      40.476  29.204  30.287  1.00  0.00     0.074 A 
ATOM     49  C   UNL A   1      39.498  29.410  29.241  1.00  0.00     0.031 C 
ATOM     50  C   UNL A   1      38.725  33.555  34.702  1.00  0.00     0.029 A 
ATOM     51  C   UNL A   1      39.799  32.569  34.808  1.00  0.00     0.049 A 
ATOM     52  H   UNL A   1      40.410  31.213  33.350  1.00  0.00     0.167 HD
ATOM     53  C   UNL A   1      41.488  28.306  30.221  1.00  0.00     0.034 A 
ATOM     54  C   UNL A   1      40.592  32.374  35.881  1.00  0.00     0.034 A 
ATOM     55  C   UNL A   1      42.435  28.086  31.285  1.00  0.00     0.049 A 
ATOM     56  C   UNL A   1      41.658  31.304  35.823  1.00  0.00     0.074 A 
ATOM     57  C   UNL A   1      43.499  27.203  31.326  1.00  0.00     0.029 A 
ATOM     58  N   UNL A   1      42.418  28.746  32.507  1.00  0.00    -0.354 N 
ATOM     59  N   UNL A   1      41.953  30.484  34.842  1.00  0.00    -0.248 NA
ATOM     60  C   UNL A   1      42.499  31.141  37.017  1.00  0.00     0.031 C 
ATOM     61  C   UNL A   1      44.086  27.285  32.595  1.00  0.00     0.029 A 
ATOM     62  C   UNL A   1      43.434  28.269  33.321  1.00  0.00     0.049 A 
ATOM     63  H   UNL A   1      41.778  29.451  32.759  1.00  0.00     0.167 HD
ATOM     64  C   UNL A   1      43.035  29.728  35.290  1.00  0.00     0.074 A 
ATOM     65  C   UNL A   1      43.343  30.197  36.625  1.00  0.00     0.031 C 
ATOM     66  C   UNL A   1      43.719  28.741  34.655  1.00  0.00     0.034 A 
BRANCH  53  67
ATOM     67  C   UNL A   1      41.574  27.465  28.973  1.00  0.00     0.023 A 
ATOM     68  C   UNL A   1      42.570  27.686  28.004  1.00  0.00     0.031 A 
ATOM     69  C   UNL A   1      40.619  26.466  28.720  1.00  0.00     0.131 A 
ATOM     70  C   UNL A   1      42.543  26.971  26.797  1.00  0.00     0.055 A 
ATOM     71  C   UNL A   1      40.643  25.705  27.550  1.00  0.00     0.041 A 
ATOM     72  F   UNL A   1      39.631  26.229  29.597  1.00  0.00    -0.206 F 
ATOM     73  C   UNL A   1      41.600  25.966  26.573  1.00  0.00     0.022 A 
BRANCH  70  74
ATOM     74  S   UNL A   1      43.670  27.473  25.467  1.00  0.00     0.124 S 
ATOM     75  O   UNL A   1      44.233  28.708  26.007  1.00  0.00    -0.237 OA
ATOM     76  O   UNL A   1      44.582  26.338  25.381  1.00  0.00    -0.237 OA
ATOM     77  O   UNL A   1      42.785  27.651  24.318  1.00  0.00    -0.744 OA
ENDBRANCH  70  74
ENDBRANCH  53  67
BRANCH  54  78
ATOM     78  C   UNL A   1      40.392  33.172  37.125  1.00  0.00     0.023 A 
ATOM     79  C   UNL A   1      39.536  32.729  38.145  1.00  0.00     0.031 A 
ATOM     80  C   UNL A   1      41.012  34.426  37.280  1.00  0.00     0.131 A 
ATOM     81  C   UNL A   1      39.288  33.551  39.255  1.00  0.00     0.055 A 
ATOM     82  C   UNL A   1      40.798  35.219  38.409  1.00  0.00     0.041 A 
ATOM     83  F   UNL A   1      41.840  34.896  36.333  1.00  0.00    -0.206 F 
ATOM     84  C   UNL A   1      39.921  34.789  39.399  1.00  0.00     0.022 A 
BRANCH  81  85
ATOM     85  S   UNL A   1      38.061  33.014  40.479  1.00  0.00     0.124 S 
ATOM     86  O   UNL A   1      36.853  32.918  39.665  1.00  0.00    -0.237 OA
ATOM     87  O   UNL A   1      38.627  31.750  40.940  1.00  0.00    -0.237 OA
ATOM     88  O   UNL A   1      38.067  34.093  41.463  1.00  0.00    -0.744 OA
ENDBRANCH  81  85
ENDBRANCH  54  78
BRANCH  66  89
ATOM     89  C   UNL A   1      44.895  28.141  35.384  1.00  0.00     0.023 A 
ATOM     90  C   UNL A   1      44.802  26.908  36.053  1.00  0.00     0.031 A 
ATOM     91  C   UNL A   1      46.127  28.819  35.409  1.00  0.00     0.131 A 
ATOM     92  C   UNL A   1      45.909  26.414  36.761  1.00  0.00     0.055 A 
ATOM     93  C   UNL A   1      47.240  28.296  36.069  1.00  0.00     0.041 A 
ATOM     94  F   UNL A   1      46.270  29.999  34.786  1.00  0.00    -0.206 F 
ATOM     95  C   UNL A   1      47.131  27.092  36.760  1.00  0.00     0.022 A 
BRANCH  92  96
ATOM     96  S   UNL A   1      45.710  24.906  37.749  1.00  0.00     0.124 S 
ATOM     97  O   UNL A   1      46.023  23.863  36.778  1.00  0.00    -0.237 OA
ATOM     98  O   UNL A   1      46.689  25.100  38.814  1.00  0.00    -0.237 OA
ATOM     99  O   UNL A   1      44.314  24.956  38.176  1.00  0.00    -0.744 OA
ENDBRANCH  92  96
ENDBRANCH  66  89
ENDBRANCH  40  41
ENDBRANCH  33  35
ENDBRANCH  32  33
ENDBRANCH  31  32
ENDBRANCH  30  31
ENDBRANCH  29  30
ENDBRANCH  28  29
ENDBRANCH  27  28
ENDBRANCH   1  27
TORSDOF 26
ENDMDL
