MODEL 1
REMARK VINA RESULT:      -8.2      0.000      0.000
REMARK SMILES O=C(CSc1nnc(-c2ccncc2)s1)Nc1cccc(C(=O)OCCOCCOCCOCCOC(=O)c2ccc(-c3c4nc(c(-c5cc(S(=O)(=O)[O-])ccc5F)c5ccc([nH]5)c(-c5cc(S(=O)(=O)[O-])ccc5F)c5nc(c(-c6cc(S(=O)(=O)[O-])ccc6F)c6ccc3[nH]6)C=C5)C=C4)cc2)c1
REMARK SMILES IDX 29 1 28 2 27 3 26 4 25 5 24 6 22 7 23 8 21 9 17 10 18 11
REMARK SMILES IDX 102 12 19 13 20 14 16 15 1 16 2 17 3 19 4 20 5 21 6 22 15 23
REMARK SMILES IDX 7 24 8 25 9 26 10 27 14 28 11 29 13 30 12 31 30 32 31 33
REMARK SMILES IDX 32 34 33 35 34 36 35 37 36 38 37 39 38 40 39 41 40 42 101 43
REMARK SMILES IDX 41 44 100 45 42 46 43 47 44 48 94 49 45 50 99 51 93 52 95 53
REMARK SMILES IDX 46 54 98 55 92 56 91 57 47 59 79 60 59 61 78 62 60 63 63 64
REMARK SMILES IDX 77 65 96 66 61 67 62 68 76 70 97 71 64 72 48 73 49 74 57 75
REMARK SMILES IDX 50 76 56 77 58 78 55 79 51 80 52 81 53 82 54 83 80 84 81 85
REMARK SMILES IDX 89 86 82 87 88 88 90 89 87 90 83 91 84 92 85 93 86 94 65 95
REMARK SMILES IDX 66 96 74 97 67 98 73 99 75 100 72 101 68 102 69 103 70 104
REMARK SMILES IDX 71 105
REMARK H PARENT 16 18 95 58 63 69
REMARK Flexibility Score: inf
ROOT
ATOM      1  C   UNL A   1      34.481  32.211  29.192  1.00  0.00     0.188 C 
ENDROOT
BRANCH   1   2
ATOM      2  C   UNL A   1      34.054  32.114  27.710  1.00  0.00     0.188 C 
BRANCH   2   3
ATOM      3  O   UNL A   1      33.168  31.049  27.411  1.00  0.00    -0.376 OA
BRANCH   3   4
ATOM      4  C   UNL A   1      33.623  30.028  26.542  1.00  0.00     0.202 C 
BRANCH   4   5
ATOM      5  C   UNL A   1      33.696  28.621  27.143  1.00  0.00     0.261 C 
BRANCH   5   6
ATOM      6  O   UNL A   1      33.884  27.566  26.192  1.00  0.00    -0.460 OA
BRANCH   6   7
ATOM      7  C   UNL A   1      33.002  26.541  26.202  1.00  0.00     0.338 C 
ATOM      8  O   UNL A   1      31.918  26.506  26.758  1.00  0.00    -0.246 OA
BRANCH   7   9
ATOM      9  C   UNL A   1      33.481  25.551  25.209  1.00  0.00     0.062 A 
ATOM     10  C   UNL A   1      35.198  24.033  24.423  1.00  0.00     0.042 A 
ATOM     11  C   UNL A   1      34.516  23.921  23.205  1.00  0.00     0.026 A 
ATOM     12  C   UNL A   1      34.690  24.878  25.410  1.00  0.00     0.041 A 
ATOM     13  C   UNL A   1      33.300  24.585  23.006  1.00  0.00     0.003 A 
ATOM     14  C   UNL A   1      32.770  25.385  24.017  1.00  0.00     0.016 A 
BRANCH  10  15
ATOM     15  N   UNL A   1      36.376  23.280  24.594  1.00  0.00    -0.325 N 
ATOM     16  O   UNL A   1      35.573  21.525  25.902  1.00  0.00    -0.274 OA
ATOM     17  C   UNL A   1      36.488  22.106  25.324  1.00  0.00     0.234 C 
ATOM     18  H   UNL A   1      37.191  23.617  24.157  1.00  0.00     0.169 HD
BRANCH  17  19
ATOM     19  C   UNL A   1      37.893  21.534  25.368  1.00  0.00     0.177 C 
BRANCH  19  20
ATOM     20  S   UNL A   1      39.021  22.552  26.354  1.00  0.00    -0.084 SA
BRANCH  20  21
ATOM     21  C   UNL A   1      40.490  21.605  26.288  1.00  0.00     0.175 A 
ATOM     22  N   UNL A   1      40.446  20.297  26.406  1.00  0.00    -0.131 NA
ATOM     23  S   UNL A   1      42.044  22.237  25.954  1.00  0.00    -0.086 S 
ATOM     24  N   UNL A   1      41.681  19.718  26.190  1.00  0.00    -0.137 NA
ATOM     25  C   UNL A   1      42.618  20.612  25.934  1.00  0.00     0.148 A 
BRANCH  25  26
ATOM     26  C   UNL A   1      43.991  20.287  25.540  1.00  0.00     0.015 A 
ATOM     27  C   UNL A   1      44.433  18.974  25.361  1.00  0.00     0.031 A 
ATOM     28  C   UNL A   1      44.897  21.330  25.321  1.00  0.00     0.031 A 
ATOM     29  C   UNL A   1      45.753  18.767  24.988  1.00  0.00     0.111 A 
ATOM     30  C   UNL A   1      46.197  21.021  24.960  1.00  0.00     0.111 A 
ATOM     31  N   UNL A   1      46.646  19.761  24.792  1.00  0.00    -0.265 NA
ENDBRANCH  25  26
ENDBRANCH  20  21
ENDBRANCH  19  20
ENDBRANCH  17  19
ENDBRANCH  10  15
ENDBRANCH   7   9
ENDBRANCH   6   7
ENDBRANCH   5   6
ENDBRANCH   4   5
ENDBRANCH   3   4
ENDBRANCH   2   3
ENDBRANCH   1   2
BRANCH   1  32
ATOM     32  O   UNL A   1      35.229  33.315  29.681  1.00  0.00    -0.377 OA
BRANCH  32  33
ATOM     33  C   UNL A   1      35.554  33.399  31.063  1.00  0.00     0.188 C 
BRANCH  33  34
ATOM     34  C   UNL A   1      34.504  32.970  32.110  1.00  0.00     0.188 C 
BRANCH  34  35
ATOM     35  O   UNL A   1      34.987  32.962  33.447  1.00  0.00    -0.376 OA
BRANCH  35  36
ATOM     36  C   UNL A   1      36.382  33.163  33.609  1.00  0.00     0.202 C 
BRANCH  36  37
ATOM     37  C   UNL A   1      37.045  32.388  34.755  1.00  0.00     0.261 C 
BRANCH  37  38
ATOM     38  O   UNL A   1      38.224  32.982  35.321  1.00  0.00    -0.460 OA
BRANCH  38  39
ATOM     39  C   UNL A   1      38.912  33.870  34.567  1.00  0.00     0.338 C 
ATOM     40  O   UNL A   1      38.734  35.073  34.504  1.00  0.00    -0.246 OA
BRANCH  39  41
ATOM     41  C   UNL A   1      40.050  33.139  33.969  1.00  0.00     0.060 A 
ATOM     42  C   UNL A   1      41.349  33.371  34.443  1.00  0.00     0.016 A 
ATOM     43  C   UNL A   1      39.819  32.183  32.978  1.00  0.00     0.016 A 
ATOM     44  C   UNL A   1      42.422  32.640  33.924  1.00  0.00     0.010 A 
ATOM     45  C   UNL A   1      40.895  31.473  32.443  1.00  0.00     0.010 A 
ATOM     46  C   UNL A   1      42.204  31.704  32.905  1.00  0.00    -0.014 A 
BRANCH  46  47
ATOM     47  C   UNL A   1      43.346  31.062  32.206  1.00  0.00     0.031 A 
ATOM     48  C   UNL A   1      44.009  31.813  31.085  1.00  0.00     0.074 A 
ATOM     49  C   UNL A   1      43.769  29.830  32.543  1.00  0.00     0.049 A 
ATOM     50  N   UNL A   1      44.929  31.414  30.246  1.00  0.00    -0.248 NA
ATOM     51  C   UNL A   1      43.568  33.202  30.884  1.00  0.00     0.031 C 
ATOM     52  C   UNL A   1      43.245  29.028  33.647  1.00  0.00     0.029 A 
ATOM     53  N   UNL A   1      44.731  29.031  31.975  1.00  0.00    -0.354 N 
ATOM     54  C   UNL A   1      45.177  32.500  29.416  1.00  0.00     0.074 A 
ATOM     55  C   UNL A   1      44.288  33.563  29.833  1.00  0.00     0.031 C 
ATOM     56  C   UNL A   1      43.878  27.842  33.663  1.00  0.00     0.029 A 
ATOM     57  C   UNL A   1      44.814  27.779  32.542  1.00  0.00     0.049 A 
ATOM     58  H   UNL A   1      45.307  29.325  31.232  1.00  0.00     0.167 HD
ATOM     59  C   UNL A   1      46.069  32.601  28.399  1.00  0.00     0.034 A 
ATOM     60  C   UNL A   1      45.531  26.697  32.169  1.00  0.00     0.034 A 
ATOM     61  C   UNL A   1      46.933  31.524  27.981  1.00  0.00     0.049 A 
ATOM     62  C   UNL A   1      46.426  26.795  30.952  1.00  0.00     0.074 A 
ATOM     63  C   UNL A   1      47.876  31.523  26.968  1.00  0.00     0.029 A 
ATOM     64  N   UNL A   1      46.948  30.253  28.539  1.00  0.00    -0.354 N 
ATOM     65  N   UNL A   1      46.656  27.828  30.174  1.00  0.00    -0.248 NA
ATOM     66  C   UNL A   1      47.153  25.579  30.561  1.00  0.00     0.031 C 
ATOM     67  C   UNL A   1      48.403  30.231  26.864  1.00  0.00     0.029 A 
ATOM     68  C   UNL A   1      47.852  29.448  27.865  1.00  0.00     0.049 A 
ATOM     69  H   UNL A   1      46.397  29.966  29.303  1.00  0.00     0.167 HD
ATOM     70  C   UNL A   1      47.576  27.390  29.222  1.00  0.00     0.074 A 
ATOM     71  C   UNL A   1      47.874  26.009  29.537  1.00  0.00     0.031 C 
ATOM     72  C   UNL A   1      48.128  28.066  28.182  1.00  0.00     0.034 A 
BRANCH  59  73
ATOM     73  C   UNL A   1      46.112  33.902  27.638  1.00  0.00     0.023 A 
ATOM     74  C   UNL A   1      47.116  34.859  27.864  1.00  0.00     0.031 A 
ATOM     75  C   UNL A   1      45.128  34.193  26.677  1.00  0.00     0.131 A 
ATOM     76  C   UNL A   1      47.083  36.082  27.180  1.00  0.00     0.055 A 
ATOM     77  C   UNL A   1      45.142  35.381  25.945  1.00  0.00     0.041 A 
ATOM     78  F   UNL A   1      44.129  33.328  26.438  1.00  0.00    -0.206 F 
ATOM     79  C   UNL A   1      46.117  36.340  26.203  1.00  0.00     0.022 A 
BRANCH  76  80
ATOM     80  S   UNL A   1      48.245  37.385  27.672  1.00  0.00     0.124 S 
ATOM     81  O   UNL A   1      47.553  37.983  28.811  1.00  0.00    -0.237 OA
ATOM     82  O   UNL A   1      49.453  36.630  27.981  1.00  0.00    -0.237 OA
ATOM     83  O   UNL A   1      48.327  38.236  26.486  1.00  0.00    -0.744 OA
ENDBRANCH  76  80
ENDBRANCH  59  73
BRANCH  60  84
ATOM     84  C   UNL A   1      45.395  25.398  32.896  1.00  0.00     0.023 A 
ATOM     85  C   UNL A   1      46.258  25.065  33.953  1.00  0.00     0.031 A 
ATOM     86  C   UNL A   1      44.460  24.432  32.485  1.00  0.00     0.131 A 
ATOM     87  C   UNL A   1      46.209  23.782  34.521  1.00  0.00     0.055 A 
ATOM     88  C   UNL A   1      44.371  23.180  33.097  1.00  0.00     0.041 A 
ATOM     89  F   UNL A   1      43.618  24.687  31.471  1.00  0.00    -0.206 F 
ATOM     90  C   UNL A   1      45.261  22.843  34.111  1.00  0.00     0.022 A 
BRANCH  87  91
ATOM     91  S   UNL A   1      47.487  23.314  35.723  1.00  0.00     0.124 S 
ATOM     92  O   UNL A   1      48.652  24.020  35.203  1.00  0.00    -0.237 OA
ATOM     93  O   UNL A   1      46.929  23.825  36.970  1.00  0.00    -0.237 OA
ATOM     94  O   UNL A   1      47.538  21.857  35.614  1.00  0.00    -0.744 OA
ENDBRANCH  87  91
ENDBRANCH  60  84
BRANCH  72  95
ATOM     95  C   UNL A   1      49.135  27.327  27.333  1.00  0.00     0.023 A 
ATOM     96  C   UNL A   1      50.505  27.326  27.644  1.00  0.00     0.031 A 
ATOM     97  C   UNL A   1      48.717  26.614  26.194  1.00  0.00     0.131 A 
ATOM     98  C   UNL A   1      51.415  26.673  26.798  1.00  0.00     0.055 A 
ATOM     99  C   UNL A   1      49.617  25.913  25.393  1.00  0.00     0.041 A 
ATOM    100  F   UNL A   1      47.420  26.582  25.847  1.00  0.00    -0.206 F 
ATOM    101  C   UNL A   1      50.978  25.950  25.686  1.00  0.00     0.022 A 
BRANCH  98 102
ATOM    102  S   UNL A   1      53.190  26.853  27.122  1.00  0.00     0.124 S 
ATOM    103  O   UNL A   1      53.386  28.288  26.947  1.00  0.00    -0.237 OA
ATOM    104  O   UNL A   1      53.311  26.356  28.489  1.00  0.00    -0.237 OA
ATOM    105  O   UNL A   1      53.813  26.013  26.101  1.00  0.00    -0.744 OA
ENDBRANCH  98 102
ENDBRANCH  72  95
ENDBRANCH  46  47
ENDBRANCH  39  41
ENDBRANCH  38  39
ENDBRANCH  37  38
ENDBRANCH  36  37
ENDBRANCH  35  36
ENDBRANCH  34  35
ENDBRANCH  33  34
ENDBRANCH  32  33
ENDBRANCH   1  32
TORSDOF 28
ENDMDL
MODEL 2
REMARK VINA RESULT:      -8.1      5.756      9.272
REMARK SMILES O=C(CSc1nnc(-c2ccncc2)s1)Nc1cccc(C(=O)OCCOCCOCCOCCOC(=O)c2ccc(-c3c4nc(c(-c5cc(S(=O)(=O)[O-])ccc5F)c5ccc([nH]5)c(-c5cc(S(=O)(=O)[O-])ccc5F)c5nc(c(-c6cc(S(=O)(=O)[O-])ccc6F)c6ccc3[nH]6)C=C5)C=C4)cc2)c1
REMARK SMILES IDX 29 1 28 2 27 3 26 4 25 5 24 6 22 7 23 8 21 9 17 10 18 11
REMARK SMILES IDX 102 12 19 13 20 14 16 15 1 16 2 17 3 19 4 20 5 21 6 22 15 23
REMARK SMILES IDX 7 24 8 25 9 26 10 27 14 28 11 29 13 30 12 31 30 32 31 33
REMARK SMILES IDX 32 34 33 35 34 36 35 37 36 38 37 39 38 40 39 41 40 42 101 43
REMARK SMILES IDX 41 44 100 45 42 46 43 47 44 48 94 49 45 50 99 51 93 52 95 53
REMARK SMILES IDX 46 54 98 55 92 56 91 57 47 59 79 60 59 61 78 62 60 63 63 64
REMARK SMILES IDX 77 65 96 66 61 67 62 68 76 70 97 71 64 72 48 73 49 74 57 75
REMARK SMILES IDX 50 76 56 77 58 78 55 79 51 80 52 81 53 82 54 83 80 84 81 85
REMARK SMILES IDX 89 86 82 87 88 88 90 89 87 90 83 91 84 92 85 93 86 94 65 95
REMARK SMILES IDX 66 96 74 97 67 98 73 99 75 100 72 101 68 102 69 103 70 104
REMARK SMILES IDX 71 105
REMARK H PARENT 16 18 95 58 63 69
REMARK Flexibility Score: inf
ROOT
ATOM      1  C   UNL A   1      32.346  32.909  26.885  1.00  0.00     0.188 C 
ENDROOT
BRANCH   1   2
ATOM      2  C   UNL A   1      31.483  31.628  26.895  1.00  0.00     0.188 C 
BRANCH   2   3
ATOM      3  O   UNL A   1      32.214  30.413  26.893  1.00  0.00    -0.376 OA
BRANCH   3   4
ATOM      4  C   UNL A   1      33.596  30.468  26.592  1.00  0.00     0.202 C 
BRANCH   4   5
ATOM      5  C   UNL A   1      34.537  29.897  27.657  1.00  0.00     0.261 C 
BRANCH   5   6
ATOM      6  O   UNL A   1      35.068  30.860  28.575  1.00  0.00    -0.460 OA
BRANCH   6   7
ATOM      7  C   UNL A   1      35.977  31.746  28.106  1.00  0.00     0.338 C 
ATOM      8  O   UNL A   1      35.754  32.796  27.531  1.00  0.00    -0.246 OA
BRANCH   7   9
ATOM      9  C   UNL A   1      37.297  31.329  28.634  1.00  0.00     0.062 A 
ATOM     10  C   UNL A   1      39.002  29.630  28.910  1.00  0.00     0.042 A 
ATOM     11  C   UNL A   1      39.629  30.441  29.865  1.00  0.00     0.026 A 
ATOM     12  C   UNL A   1      37.815  30.068  28.322  1.00  0.00     0.041 A 
ATOM     13  C   UNL A   1      39.118  31.707  30.170  1.00  0.00     0.003 A 
ATOM     14  C   UNL A   1      37.962  32.162  29.539  1.00  0.00     0.016 A 
BRANCH  10  15
ATOM     15  N   UNL A   1      39.607  28.399  28.588  1.00  0.00    -0.325 N 
ATOM     16  O   UNL A   1      40.532  28.912  26.510  1.00  0.00    -0.274 OA
ATOM     17  C   UNL A   1      40.304  28.120  27.422  1.00  0.00     0.234 C 
ATOM     18  H   UNL A   1      39.527  27.674  29.248  1.00  0.00     0.169 HD
BRANCH  17  19
ATOM     19  C   UNL A   1      40.811  26.694  27.328  1.00  0.00     0.177 C 
BRANCH  19  20
ATOM     20  S   UNL A   1      42.421  26.479  28.134  1.00  0.00    -0.084 SA
BRANCH  20  21
ATOM     21  C   UNL A   1      42.711  24.774  27.879  1.00  0.00     0.175 A 
ATOM     22  N   UNL A   1      42.592  23.921  28.871  1.00  0.00    -0.131 NA
ATOM     23  S   UNL A   1      43.041  24.057  26.361  1.00  0.00    -0.086 S 
ATOM     24  N   UNL A   1      42.723  22.613  28.446  1.00  0.00    -0.137 NA
ATOM     25  C   UNL A   1      42.955  22.527  27.149  1.00  0.00     0.148 A 
BRANCH  25  26
ATOM     26  C   UNL A   1      43.011  21.271  26.398  1.00  0.00     0.015 A 
ATOM     27  C   UNL A   1      44.094  20.924  25.587  1.00  0.00     0.031 A 
ATOM     28  C   UNL A   1      41.943  20.372  26.504  1.00  0.00     0.031 A 
ATOM     29  C   UNL A   1      44.052  19.712  24.914  1.00  0.00     0.111 A 
ATOM     30  C   UNL A   1      41.991  19.191  25.784  1.00  0.00     0.111 A 
ATOM     31  N   UNL A   1      43.021  18.842  24.988  1.00  0.00    -0.265 NA
ENDBRANCH  25  26
ENDBRANCH  20  21
ENDBRANCH  19  20
ENDBRANCH  17  19
ENDBRANCH  10  15
ENDBRANCH   7   9
ENDBRANCH   6   7
ENDBRANCH   5   6
ENDBRANCH   4   5
ENDBRANCH   3   4
ENDBRANCH   2   3
ENDBRANCH   1   2
BRANCH   1  32
ATOM     32  O   UNL A   1      32.159  33.941  27.844  1.00  0.00    -0.377 OA
BRANCH  32  33
ATOM     33  C   UNL A   1      33.284  34.536  28.476  1.00  0.00     0.188 C 
BRANCH  33  34
ATOM     34  C   UNL A   1      33.056  35.595  29.576  1.00  0.00     0.188 C 
BRANCH  34  35
ATOM     35  O   UNL A   1      32.907  35.053  30.882  1.00  0.00    -0.376 OA
BRANCH  35  36
ATOM     36  C   UNL A   1      34.108  34.808  31.598  1.00  0.00     0.202 C 
BRANCH  36  37
ATOM     37  C   UNL A   1      34.642  33.372  31.543  1.00  0.00     0.261 C 
BRANCH  37  38
ATOM     38  O   UNL A   1      36.025  33.198  31.893  1.00  0.00    -0.460 OA
BRANCH  38  39
ATOM     39  C   UNL A   1      36.591  34.111  32.716  1.00  0.00     0.338 C 
ATOM     40  O   UNL A   1      36.240  35.264  32.884  1.00  0.00    -0.246 OA
BRANCH  39  41
ATOM     41  C   UNL A   1      37.606  33.397  33.520  1.00  0.00     0.060 A 
ATOM     42  C   UNL A   1      37.198  32.458  34.477  1.00  0.00     0.016 A 
ATOM     43  C   UNL A   1      38.964  33.621  33.283  1.00  0.00     0.016 A 
ATOM     44  C   UNL A   1      38.154  31.736  35.198  1.00  0.00     0.010 A 
ATOM     45  C   UNL A   1      39.917  32.918  34.022  1.00  0.00     0.010 A 
ATOM     46  C   UNL A   1      39.518  31.979  34.992  1.00  0.00    -0.014 A 
BRANCH  46  47
ATOM     47  C   UNL A   1      40.541  31.371  35.880  1.00  0.00     0.031 A 
ATOM     48  C   UNL A   1      40.955  32.126  37.112  1.00  0.00     0.074 A 
ATOM     49  C   UNL A   1      41.107  30.186  35.586  1.00  0.00     0.049 A 
ATOM     50  N   UNL A   1      41.913  31.867  37.963  1.00  0.00    -0.248 NA
ATOM     51  C   UNL A   1      40.183  33.339  37.420  1.00  0.00     0.031 C 
ATOM     52  C   UNL A   1      40.748  29.335  34.453  1.00  0.00     0.029 A 
ATOM     53  N   UNL A   1      42.120  29.501  36.212  1.00  0.00    -0.354 N 
ATOM     54  C   UNL A   1      41.862  32.885  38.908  1.00  0.00     0.074 A 
ATOM     55  C   UNL A   1      40.799  33.781  38.506  1.00  0.00     0.031 C 
ATOM     56  C   UNL A   1      41.543  28.250  34.454  1.00  0.00     0.029 A 
ATOM     57  C   UNL A   1      42.501  28.354  35.553  1.00  0.00     0.049 A 
ATOM     58  H   UNL A   1      42.534  29.802  37.053  1.00  0.00     0.167 HD
ATOM     59  C   UNL A   1      42.631  33.054  40.012  1.00  0.00     0.034 A 
ATOM     60  C   UNL A   1      43.530  27.512  35.788  1.00  0.00     0.034 A 
ATOM     61  C   UNL A   1      43.702  32.164  40.387  1.00  0.00     0.049 A 
ATOM     62  C   UNL A   1      44.454  27.793  36.954  1.00  0.00     0.074 A 
ATOM     63  C   UNL A   1      44.537  32.239  41.487  1.00  0.00     0.029 A 
ATOM     64  N   UNL A   1      44.097  31.046  39.664  1.00  0.00    -0.354 N 
ATOM     65  N   UNL A   1      44.396  28.757  37.843  1.00  0.00    -0.248 NA
ATOM     66  C   UNL A   1      45.585  26.873  37.143  1.00  0.00     0.031 C 
ATOM     67  C   UNL A   1      45.485  31.215  41.388  1.00  0.00     0.029 A 
ATOM     68  C   UNL A   1      45.191  30.449  40.272  1.00  0.00     0.049 A 
ATOM     69  H   UNL A   1      43.663  30.724  38.841  1.00  0.00     0.167 HD
ATOM     70  C   UNL A   1      45.465  28.539  38.712  1.00  0.00     0.074 A 
ATOM     71  C   UNL A   1      46.136  27.343  38.252  1.00  0.00     0.031 C 
ATOM     72  C   UNL A   1      45.859  29.262  39.793  1.00  0.00     0.034 A 
BRANCH  59  73
ATOM     73  C   UNL A   1      42.374  34.276  40.858  1.00  0.00     0.023 A 
ATOM     74  C   UNL A   1      41.460  34.259  41.924  1.00  0.00     0.031 A 
ATOM     75  C   UNL A   1      43.050  35.479  40.587  1.00  0.00     0.131 A 
ATOM     76  C   UNL A   1      41.205  35.434  42.645  1.00  0.00     0.055 A 
ATOM     77  C   UNL A   1      42.847  36.626  41.356  1.00  0.00     0.041 A 
ATOM     78  F   UNL A   1      43.915  35.561  39.564  1.00  0.00    -0.206 F 
ATOM     79  C   UNL A   1      41.911  36.611  42.385  1.00  0.00     0.022 A 
BRANCH  76  80
ATOM     80  S   UNL A   1      39.847  35.438  43.849  1.00  0.00     0.124 S 
ATOM     81  O   UNL A   1      39.206  34.154  43.573  1.00  0.00    -0.237 OA
ATOM     82  O   UNL A   1      40.553  35.540  45.120  1.00  0.00    -0.237 OA
ATOM     83  O   UNL A   1      39.060  36.611  43.474  1.00  0.00    -0.744 OA
ENDBRANCH  76  80
ENDBRANCH  59  73
BRANCH  60  84
ATOM     84  C   UNL A   1      43.805  26.361  34.875  1.00  0.00     0.023 A 
ATOM     85  C   UNL A   1      44.599  26.519  33.728  1.00  0.00     0.031 A 
ATOM     86  C   UNL A   1      43.200  25.109  35.087  1.00  0.00     0.131 A 
ATOM     87  C   UNL A   1      44.719  25.465  32.808  1.00  0.00     0.055 A 
ATOM     88  C   UNL A   1      43.377  24.043  34.202  1.00  0.00     0.041 A 
ATOM     89  F   UNL A   1      42.419  24.902  36.158  1.00  0.00    -0.206 F 
ATOM     90  C   UNL A   1      44.127  24.224  33.045  1.00  0.00     0.022 A 
BRANCH  87  91
ATOM     91  S   UNL A   1      45.563  25.780  31.232  1.00  0.00     0.124 S 
ATOM     92  O   UNL A   1      45.159  24.622  30.444  1.00  0.00    -0.237 OA
ATOM     93  O   UNL A   1      44.989  27.061  30.833  1.00  0.00    -0.237 OA
ATOM     94  O   UNL A   1      46.976  25.820  31.604  1.00  0.00    -0.744 OA
ENDBRANCH  87  91
ENDBRANCH  60  84
BRANCH  72  95
ATOM     95  C   UNL A   1      47.049  28.751  40.569  1.00  0.00     0.023 A 
ATOM     96  C   UNL A   1      48.357  29.179  40.282  1.00  0.00     0.031 A 
ATOM     97  C   UNL A   1      46.873  27.823  41.611  1.00  0.00     0.131 A 
ATOM     98  C   UNL A   1      49.442  28.638  40.989  1.00  0.00     0.055 A 
ATOM     99  C   UNL A   1      47.949  27.337  42.354  1.00  0.00     0.041 A 
ATOM    100  F   UNL A   1      45.647  27.377  41.929  1.00  0.00    -0.206 F 
ATOM    101  C   UNL A   1      49.245  27.735  42.036  1.00  0.00     0.022 A 
BRANCH  98 102
ATOM    102  S   UNL A   1      51.125  29.065  40.464  1.00  0.00     0.124 S 
ATOM    103  O   UNL A   1      50.890  30.216  39.599  1.00  0.00    -0.237 OA
ATOM    104  O   UNL A   1      51.787  29.348  41.734  1.00  0.00    -0.237 OA
ATOM    105  O   UNL A   1      51.588  27.859  39.780  1.00  0.00    -0.744 OA
ENDBRANCH  98 102
ENDBRANCH  72  95
ENDBRANCH  46  47
ENDBRANCH  39  41
ENDBRANCH  38  39
ENDBRANCH  37  38
ENDBRANCH  36  37
ENDBRANCH  35  36
ENDBRANCH  34  35
ENDBRANCH  33  34
ENDBRANCH  32  33
ENDBRANCH   1  32
TORSDOF 28
ENDMDL
MODEL 3
REMARK VINA RESULT:      -8.1      5.762     10.225
REMARK SMILES O=C(CSc1nnc(-c2ccncc2)s1)Nc1cccc(C(=O)OCCOCCOCCOCCOC(=O)c2ccc(-c3c4nc(c(-c5cc(S(=O)(=O)[O-])ccc5F)c5ccc([nH]5)c(-c5cc(S(=O)(=O)[O-])ccc5F)c5nc(c(-c6cc(S(=O)(=O)[O-])ccc6F)c6ccc3[nH]6)C=C5)C=C4)cc2)c1
REMARK SMILES IDX 29 1 28 2 27 3 26 4 25 5 24 6 22 7 23 8 21 9 17 10 18 11
REMARK SMILES IDX 102 12 19 13 20 14 16 15 1 16 2 17 3 19 4 20 5 21 6 22 15 23
REMARK SMILES IDX 7 24 8 25 9 26 10 27 14 28 11 29 13 30 12 31 30 32 31 33
REMARK SMILES IDX 32 34 33 35 34 36 35 37 36 38 37 39 38 40 39 41 40 42 101 43
REMARK SMILES IDX 41 44 100 45 42 46 43 47 44 48 94 49 45 50 99 51 93 52 95 53
REMARK SMILES IDX 46 54 98 55 92 56 91 57 47 59 79 60 59 61 78 62 60 63 63 64
REMARK SMILES IDX 77 65 96 66 61 67 62 68 76 70 97 71 64 72 48 73 49 74 57 75
REMARK SMILES IDX 50 76 56 77 58 78 55 79 51 80 52 81 53 82 54 83 80 84 81 85
REMARK SMILES IDX 89 86 82 87 88 88 90 89 87 90 83 91 84 92 85 93 86 94 65 95
REMARK SMILES IDX 66 96 74 97 67 98 73 99 75 100 72 101 68 102 69 103 70 104
REMARK SMILES IDX 71 105
REMARK H PARENT 16 18 95 58 63 69
REMARK Flexibility Score: inf
ROOT
ATOM      1  C   UNL A   1      30.623  30.756  24.462  1.00  0.00     0.188 C 
ENDROOT
BRANCH   1   2
ATOM      2  C   UNL A   1      29.964  29.967  23.308  1.00  0.00     0.188 C 
BRANCH   2   3
ATOM      3  O   UNL A   1      28.659  29.484  23.582  1.00  0.00    -0.376 OA
BRANCH   3   4
ATOM      4  C   UNL A   1      28.236  28.302  22.928  1.00  0.00     0.202 C 
BRANCH   4   5
ATOM      5  C   UNL A   1      28.443  26.998  23.705  1.00  0.00     0.261 C 
BRANCH   5   6
ATOM      6  O   UNL A   1      29.779  26.778  24.174  1.00  0.00    -0.460 OA
BRANCH   6   7
ATOM      7  C   UNL A   1      30.354  25.583  23.910  1.00  0.00     0.338 C 
ATOM      8  O   UNL A   1      29.913  24.693  23.204  1.00  0.00    -0.246 OA
BRANCH   7   9
ATOM      9  C   UNL A   1      31.736  25.643  24.440  1.00  0.00     0.062 A 
ATOM     10  C   UNL A   1      33.659  24.534  25.411  1.00  0.00     0.042 A 
ATOM     11  C   UNL A   1      34.208  25.787  25.708  1.00  0.00     0.026 A 
ATOM     12  C   UNL A   1      32.404  24.469  24.805  1.00  0.00     0.041 A 
ATOM     13  C   UNL A   1      33.547  26.961  25.334  1.00  0.00     0.003 A 
ATOM     14  C   UNL A   1      32.319  26.891  24.679  1.00  0.00     0.016 A 
BRANCH  10  15
ATOM     15  N   UNL A   1      34.407  23.387  25.742  1.00  0.00    -0.325 N 
ATOM     16  O   UNL A   1      35.145  22.736  23.628  1.00  0.00    -0.274 OA
ATOM     17  C   UNL A   1      35.074  22.568  24.843  1.00  0.00     0.234 C 
ATOM     18  H   UNL A   1      34.461  23.146  26.695  1.00  0.00     0.169 HD
BRANCH  17  19
ATOM     19  C   UNL A   1      35.765  21.378  25.482  1.00  0.00     0.177 C 
BRANCH  19  20
ATOM     20  S   UNL A   1      37.430  21.110  24.819  1.00  0.00    -0.084 SA
BRANCH  20  21
ATOM     21  C   UNL A   1      38.391  22.113  25.881  1.00  0.00     0.175 A 
ATOM     22  N   UNL A   1      39.475  21.636  26.451  1.00  0.00    -0.131 NA
ATOM     23  S   UNL A   1      38.105  23.774  26.176  1.00  0.00    -0.086 S 
ATOM     24  N   UNL A   1      40.170  22.613  27.137  1.00  0.00    -0.137 NA
ATOM     25  C   UNL A   1      39.575  23.789  27.077  1.00  0.00     0.148 A 
BRANCH  25  26
ATOM     26  C   UNL A   1      40.143  25.034  27.599  1.00  0.00     0.015 A 
ATOM     27  C   UNL A   1      41.366  25.547  27.162  1.00  0.00     0.031 A 
ATOM     28  C   UNL A   1      39.429  25.749  28.568  1.00  0.00     0.031 A 
ATOM     29  C   UNL A   1      41.822  26.733  27.719  1.00  0.00     0.111 A 
ATOM     30  C   UNL A   1      39.972  26.919  29.070  1.00  0.00     0.111 A 
ATOM     31  N   UNL A   1      41.156  27.425  28.669  1.00  0.00    -0.265 NA
ENDBRANCH  25  26
ENDBRANCH  20  21
ENDBRANCH  19  20
ENDBRANCH  17  19
ENDBRANCH  10  15
ENDBRANCH   7   9
ENDBRANCH   6   7
ENDBRANCH   5   6
ENDBRANCH   4   5
ENDBRANCH   3   4
ENDBRANCH   2   3
ENDBRANCH   1   2
BRANCH   1  32
ATOM     32  O   UNL A   1      31.339  30.101  25.500  1.00  0.00    -0.377 OA
BRANCH  32  33
ATOM     33  C   UNL A   1      31.910  30.858  26.558  1.00  0.00     0.188 C 
BRANCH  33  34
ATOM     34  C   UNL A   1      33.213  30.361  27.220  1.00  0.00     0.188 C 
BRANCH  34  35
ATOM     35  O   UNL A   1      34.246  31.337  27.272  1.00  0.00    -0.376 OA
BRANCH  35  36
ATOM     36  C   UNL A   1      34.754  31.642  28.561  1.00  0.00     0.202 C 
BRANCH  36  37
ATOM     37  C   UNL A   1      34.438  33.046  29.093  1.00  0.00     0.261 C 
BRANCH  37  38
ATOM     38  O   UNL A   1      35.390  33.601  30.015  1.00  0.00    -0.460 OA
BRANCH  38  39
ATOM     39  C   UNL A   1      36.705  33.431  29.749  1.00  0.00     0.338 C 
ATOM     40  O   UNL A   1      37.243  33.466  28.657  1.00  0.00    -0.246 OA
BRANCH  39  41
ATOM     41  C   UNL A   1      37.407  33.381  31.050  1.00  0.00     0.060 A 
ATOM     42  C   UNL A   1      37.766  34.575  31.690  1.00  0.00     0.016 A 
ATOM     43  C   UNL A   1      37.657  32.150  31.658  1.00  0.00     0.016 A 
ATOM     44  C   UNL A   1      38.375  34.537  32.948  1.00  0.00     0.010 A 
ATOM     45  C   UNL A   1      38.289  32.113  32.902  1.00  0.00     0.010 A 
ATOM     46  C   UNL A   1      38.661  33.304  33.551  1.00  0.00    -0.014 A 
BRANCH  46  47
ATOM     47  C   UNL A   1      39.480  33.235  34.787  1.00  0.00     0.031 A 
ATOM     48  C   UNL A   1      40.975  33.153  34.649  1.00  0.00     0.074 A 
ATOM     49  C   UNL A   1      38.908  33.222  36.005  1.00  0.00     0.049 A 
ATOM     50  N   UNL A   1      41.885  32.954  35.566  1.00  0.00    -0.248 NA
ATOM     51  C   UNL A   1      41.511  33.315  33.289  1.00  0.00     0.031 C 
ATOM     52  C   UNL A   1      37.476  33.353  36.268  1.00  0.00     0.029 A 
ATOM     53  N   UNL A   1      39.466  33.072  37.251  1.00  0.00    -0.354 N 
ATOM     54  C   UNL A   1      43.102  32.964  34.896  1.00  0.00     0.074 A 
ATOM     55  C   UNL A   1      42.810  33.158  33.491  1.00  0.00     0.031 C 
ATOM     56  C   UNL A   1      37.267  33.258  37.593  1.00  0.00     0.029 A 
ATOM     57  C   UNL A   1      38.539  33.007  38.267  1.00  0.00     0.049 A 
ATOM     58  H   UNL A   1      40.437  33.017  37.404  1.00  0.00     0.167 HD
ATOM     59  C   UNL A   1      44.351  32.827  35.407  1.00  0.00     0.034 A 
ATOM     60  C   UNL A   1      38.699  32.735  39.580  1.00  0.00     0.034 A 
ATOM     61  C   UNL A   1      44.625  32.612  36.807  1.00  0.00     0.049 A 
ATOM     62  C   UNL A   1      40.092  32.459  40.106  1.00  0.00     0.074 A 
ATOM     63  C   UNL A   1      45.851  32.466  37.431  1.00  0.00     0.029 A 
ATOM     64  N   UNL A   1      43.659  32.493  37.797  1.00  0.00    -0.354 N 
ATOM     65  N   UNL A   1      41.237  32.474  39.464  1.00  0.00    -0.248 NA
ATOM     66  C   UNL A   1      40.210  32.125  41.533  1.00  0.00     0.031 C 
ATOM     67  C   UNL A   1      45.624  32.182  38.782  1.00  0.00     0.029 A 
ATOM     68  C   UNL A   1      44.260  32.234  39.019  1.00  0.00     0.049 A 
ATOM     69  H   UNL A   1      42.688  32.581  37.653  1.00  0.00     0.167 HD
ATOM     70  C   UNL A   1      42.211  32.180  40.418  1.00  0.00     0.074 A 
ATOM     71  C   UNL A   1      41.521  32.015  41.679  1.00  0.00     0.031 C 
ATOM     72  C   UNL A   1      43.556  32.057  40.268  1.00  0.00     0.034 A 
BRANCH  59  73
ATOM     73  C   UNL A   1      45.506  32.851  34.438  1.00  0.00     0.023 A 
ATOM     74  C   UNL A   1      45.991  31.678  33.836  1.00  0.00     0.031 A 
ATOM     75  C   UNL A   1      46.136  34.067  34.118  1.00  0.00     0.131 A 
ATOM     76  C   UNL A   1      47.107  31.737  32.990  1.00  0.00     0.055 A 
ATOM     77  C   UNL A   1      47.200  34.128  33.217  1.00  0.00     0.041 A 
ATOM     78  F   UNL A   1      45.733  35.215  34.683  1.00  0.00    -0.206 F 
ATOM     79  C   UNL A   1      47.700  32.957  32.655  1.00  0.00     0.022 A 
BRANCH  76  80
ATOM     80  S   UNL A   1      47.854  30.182  32.427  1.00  0.00     0.124 S 
ATOM     81  O   UNL A   1      49.156  30.224  33.090  1.00  0.00    -0.237 OA
ATOM     82  O   UNL A   1      46.915  29.183  32.923  1.00  0.00    -0.237 OA
ATOM     83  O   UNL A   1      47.900  30.330  30.974  1.00  0.00    -0.744 OA
ENDBRANCH  76  80
ENDBRANCH  59  73
BRANCH  60  84
ATOM     84  C   UNL A   1      37.520  32.634  40.492  1.00  0.00     0.023 A 
ATOM     85  C   UNL A   1      37.353  33.527  41.563  1.00  0.00     0.031 A 
ATOM     86  C   UNL A   1      36.592  31.585  40.362  1.00  0.00     0.131 A 
ATOM     87  C   UNL A   1      36.322  33.321  42.494  1.00  0.00     0.055 A 
ATOM     88  C   UNL A   1      35.528  31.423  41.253  1.00  0.00     0.041 A 
ATOM     89  F   UNL A   1      36.708  30.692  39.367  1.00  0.00    -0.206 F 
ATOM     90  C   UNL A   1      35.399  32.284  42.338  1.00  0.00     0.022 A 
BRANCH  87  91
ATOM     91  S   UNL A   1      36.277  34.356  43.984  1.00  0.00     0.124 S 
ATOM     92  O   UNL A   1      34.872  34.747  44.029  1.00  0.00    -0.237 OA
ATOM     93  O   UNL A   1      36.717  33.422  45.015  1.00  0.00    -0.237 OA
ATOM     94  O   UNL A   1      37.216  35.433  43.678  1.00  0.00    -0.744 OA
ENDBRANCH  87  91
ENDBRANCH  60  84
BRANCH  72  95
ATOM     95  C   UNL A   1      44.366  31.764  41.508  1.00  0.00     0.023 A 
ATOM     96  C   UNL A   1      44.668  30.449  41.900  1.00  0.00     0.031 A 
ATOM     97  C   UNL A   1      44.842  32.817  42.311  1.00  0.00     0.131 A 
ATOM     98  C   UNL A   1      45.376  30.217  43.089  1.00  0.00     0.055 A 
ATOM     99  C   UNL A   1      45.601  32.582  43.457  1.00  0.00     0.041 A 
ATOM    100  F   UNL A   1      44.583  34.094  41.987  1.00  0.00    -0.206 F 
ATOM    101  C   UNL A   1      45.862  31.275  43.860  1.00  0.00     0.022 A 
BRANCH  98 102
ATOM    102  S   UNL A   1      45.580  28.508  43.663  1.00  0.00     0.124 S 
ATOM    103  O   UNL A   1      45.651  27.772  42.406  1.00  0.00    -0.237 OA
ATOM    104  O   UNL A   1      46.821  28.581  44.428  1.00  0.00    -0.237 OA
ATOM    105  O   UNL A   1      44.377  28.266  44.457  1.00  0.00    -0.744 OA
ENDBRANCH  98 102
ENDBRANCH  72  95
ENDBRANCH  46  47
ENDBRANCH  39  41
ENDBRANCH  38  39
ENDBRANCH  37  38
ENDBRANCH  36  37
ENDBRANCH  35  36
ENDBRANCH  34  35
ENDBRANCH  33  34
ENDBRANCH  32  33
ENDBRANCH   1  32
TORSDOF 28
ENDMDL
