MODEL 1
REMARK VINA RESULT:      -8.5      0.000      0.000
REMARK SMILES COc1ccc([C@H](C(=O)OCCOCCOCCOCCOC(=O)c2ccc(-c3c4nc(c(-c5cc(S(=O)(=O)[O-])ccc5F)c5ccc([nH]5)c(-c5cc(S(=O)(=O)[O-])ccc5F)c5nc(c(-c6cc(S(=O)(=O)[O-])ccc6F)c6ccc3[nH]6)C=C5)C=C4)cc2)[NH+]2CCOCC2)c(OC)n1
REMARK SMILES IDX 17 1 16 2 15 3 14 4 13 5 12 6 11 7 10 8 8 9 9 10 7 11 6 12
REMARK SMILES IDX 3 13 4 14 97 15 5 16 94 17 2 18 1 19 95 20 96 21 88 22 89 23
REMARK SMILES IDX 93 24 90 26 92 27 91 28 18 29 19 30 20 31 21 32 22 33 23 34
REMARK SMILES IDX 24 35 25 36 26 37 87 38 27 39 86 40 28 41 29 42 30 43 80 44
REMARK SMILES IDX 31 45 85 46 79 47 81 48 32 49 84 50 78 51 77 52 33 54 65 55
REMARK SMILES IDX 45 56 64 57 46 58 49 59 63 60 82 61 47 62 48 63 62 65 83 66
REMARK SMILES IDX 50 67 34 68 35 69 43 70 36 71 42 72 44 73 41 74 37 75 38 76
REMARK SMILES IDX 39 77 40 78 66 79 67 80 75 81 68 82 74 83 76 84 73 85 69 86
REMARK SMILES IDX 70 87 71 88 72 89 51 90 52 91 60 92 53 93 59 94 61 95 58 96
REMARK SMILES IDX 54 97 55 98 56 99 57 100
REMARK H PARENT 88 25 81 53 49 64
REMARK Flexibility Score: inf
ROOT
ATOM      1  C   UNL A   1      31.906  28.909  25.720  1.00  0.00     0.188 C 
ENDROOT
BRANCH   1   2
ATOM      2  O   UNL A   1      32.109  28.256  26.961  1.00  0.00    -0.377 OA
BRANCH   2   3
ATOM      3  C   UNL A   1      32.561  26.911  26.897  1.00  0.00     0.188 C 
BRANCH   3   4
ATOM      4  C   UNL A   1      33.717  26.576  25.939  1.00  0.00     0.188 C 
BRANCH   4   5
ATOM      5  O   UNL A   1      34.217  25.245  26.049  1.00  0.00    -0.376 OA
BRANCH   5   6
ATOM      6  C   UNL A   1      35.119  24.744  25.082  1.00  0.00     0.202 C 
BRANCH   6   7
ATOM      7  C   UNL A   1      35.080  23.234  24.783  1.00  0.00     0.261 C 
BRANCH   7   8
ATOM      8  O   UNL A   1      34.837  22.742  23.449  1.00  0.00    -0.459 OA
BRANCH   8   9
ATOM      9  C   UNL A   1      33.809  23.248  22.760  1.00  0.00     0.370 C 
ATOM     10  O   UNL A   1      33.812  23.245  21.536  1.00  0.00    -0.245 OA
BRANCH   9  11
ATOM     11  C   UNL A   1      32.574  23.706  23.525  1.00  0.00     0.332 C 
BRANCH  11  12
ATOM     12  C   UNL A   1      31.889  25.035  23.191  1.00  0.00     0.083 A 
ATOM     13  C   UNL A   1      30.656  27.383  22.325  1.00  0.00     0.216 A 
ATOM     14  C   UNL A   1      31.789  26.951  21.664  1.00  0.00     0.069 A 
ATOM     15  N   UNL A   1      30.161  26.739  23.397  1.00  0.00    -0.177 NA
ATOM     16  C   UNL A   1      32.413  25.784  22.114  1.00  0.00     0.022 A 
ATOM     17  C   UNL A   1      30.763  25.593  23.798  1.00  0.00     0.226 A 
BRANCH  13  18
ATOM     18  O   UNL A   1      29.986  28.531  22.001  1.00  0.00    -0.481 OA
ATOM     19  C   UNL A   1      29.550  29.302  23.116  1.00  0.00     0.280 C 
ENDBRANCH  13  18
BRANCH  17  20
ATOM     20  O   UNL A   1      30.033  24.917  24.726  1.00  0.00    -0.481 OA
ATOM     21  C   UNL A   1      29.557  25.738  25.775  1.00  0.00     0.280 C 
ENDBRANCH  17  20
ENDBRANCH  11  12
BRANCH  11  22
ATOM     22  N   UNL A   1      31.601  22.570  23.738  1.00  0.00    -0.315 N 
ATOM     23  C   UNL A   1      31.568  22.016  25.115  1.00  0.00     0.292 C 
ATOM     24  C   UNL A   1      31.703  21.446  22.787  1.00  0.00     0.292 C 
ATOM     25  H   UNL A   1      30.723  23.058  23.558  1.00  0.00     0.349 HD
ATOM     26  C   UNL A   1      32.449  20.782  25.451  1.00  0.00     0.221 C 
ATOM     27  C   UNL A   1      32.725  20.342  23.128  1.00  0.00     0.221 C 
ATOM     28  O   UNL A   1      32.464  19.788  24.419  1.00  0.00    -0.370 OA
ENDBRANCH  11  22
ENDBRANCH   9  11
ENDBRANCH   8   9
ENDBRANCH   7   8
ENDBRANCH   6   7
ENDBRANCH   5   6
ENDBRANCH   4   5
ENDBRANCH   3   4
ENDBRANCH   2   3
ENDBRANCH   1   2
BRANCH   1  29
ATOM     29  C   UNL A   1      32.182  30.429  25.751  1.00  0.00     0.188 C 
BRANCH  29  30
ATOM     30  O   UNL A   1      31.836  31.232  26.875  1.00  0.00    -0.376 OA
BRANCH  30  31
ATOM     31  C   UNL A   1      31.645  32.628  26.751  1.00  0.00     0.202 C 
BRANCH  31  32
ATOM     32  C   UNL A   1      32.395  33.632  27.646  1.00  0.00     0.261 C 
BRANCH  32  33
ATOM     33  O   UNL A   1      33.802  33.440  27.841  1.00  0.00    -0.460 OA
BRANCH  33  34
ATOM     34  C   UNL A   1      34.245  33.566  29.114  1.00  0.00     0.338 C 
ATOM     35  O   UNL A   1      33.662  34.117  30.036  1.00  0.00    -0.246 OA
BRANCH  34  36
ATOM     36  C   UNL A   1      35.476  32.755  29.278  1.00  0.00     0.060 A 
ATOM     37  C   UNL A   1      35.408  31.563  30.016  1.00  0.00     0.016 A 
ATOM     38  C   UNL A   1      36.688  33.161  28.714  1.00  0.00     0.016 A 
ATOM     39  C   UNL A   1      36.546  30.788  30.219  1.00  0.00     0.010 A 
ATOM     40  C   UNL A   1      37.845  32.418  28.974  1.00  0.00     0.010 A 
ATOM     41  C   UNL A   1      37.781  31.256  29.767  1.00  0.00    -0.014 A 
BRANCH  41  42
ATOM     42  C   UNL A   1      39.007  30.731  30.415  1.00  0.00     0.031 A 
ATOM     43  C   UNL A   1      39.736  29.624  29.699  1.00  0.00     0.074 A 
ATOM     44  C   UNL A   1      39.500  31.253  31.550  1.00  0.00     0.049 A 
ATOM     45  N   UNL A   1      40.774  28.927  30.074  1.00  0.00    -0.248 NA
ATOM     46  C   UNL A   1      39.209  29.253  28.374  1.00  0.00     0.031 C 
ATOM     47  C   UNL A   1      38.940  32.393  32.274  1.00  0.00     0.029 A 
ATOM     48  N   UNL A   1      40.592  30.884  32.294  1.00  0.00    -0.354 N 
ATOM     49  C   UNL A   1      41.017  28.029  29.039  1.00  0.00     0.074 A 
ATOM     50  C   UNL A   1      39.998  28.247  28.038  1.00  0.00     0.031 C 
ATOM     51  C   UNL A   1      39.684  32.618  33.372  1.00  0.00     0.029 A 
ATOM     52  C   UNL A   1      40.741  31.610  33.453  1.00  0.00     0.049 A 
ATOM     53  H   UNL A   1      41.211  30.167  32.025  1.00  0.00     0.167 HD
ATOM     54  C   UNL A   1      42.006  27.111  28.932  1.00  0.00     0.034 A 
ATOM     55  C   UNL A   1      41.609  31.447  34.474  1.00  0.00     0.034 A 
ATOM     56  C   UNL A   1      43.004  26.899  29.949  1.00  0.00     0.049 A 
ATOM     57  C   UNL A   1      42.626  30.327  34.394  1.00  0.00     0.074 A 
ATOM     58  C   UNL A   1      44.041  25.985  29.962  1.00  0.00     0.029 A 
ATOM     59  N   UNL A   1      43.082  27.607  31.142  1.00  0.00    -0.354 N 
ATOM     60  N   UNL A   1      42.831  29.459  33.428  1.00  0.00    -0.248 NA
ATOM     61  C   UNL A   1      43.530  30.168  35.540  1.00  0.00     0.031 C 
ATOM     62  C   UNL A   1      44.695  26.085  31.194  1.00  0.00     0.029 A 
ATOM     63  C   UNL A   1      44.129  27.127  31.910  1.00  0.00     0.049 A 
ATOM     64  H   UNL A   1      42.481  28.343  31.402  1.00  0.00     0.167 HD
ATOM     65  C   UNL A   1      43.915  28.684  33.835  1.00  0.00     0.074 A 
ATOM     66  C   UNL A   1      44.324  29.192  35.127  1.00  0.00     0.031 C 
ATOM     67  C   UNL A   1      44.525  27.651  33.198  1.00  0.00     0.034 A 
BRANCH  54  68
ATOM     68  C   UNL A   1      42.005  26.229  27.707  1.00  0.00     0.023 A 
ATOM     69  C   UNL A   1      41.384  24.967  27.700  1.00  0.00     0.031 A 
ATOM     70  C   UNL A   1      42.670  26.642  26.539  1.00  0.00     0.131 A 
ATOM     71  C   UNL A   1      41.499  24.138  26.574  1.00  0.00     0.055 A 
ATOM     72  C   UNL A   1      42.708  25.847  25.393  1.00  0.00     0.041 A 
ATOM     73  F   UNL A   1      43.309  27.822  26.497  1.00  0.00    -0.206 F 
ATOM     74  C   UNL A   1      42.132  24.581  25.410  1.00  0.00     0.022 A 
BRANCH  71  75
ATOM     75  S   UNL A   1      40.941  22.417  26.703  1.00  0.00     0.124 S 
ATOM     76  O   UNL A   1      41.224  22.120  28.105  1.00  0.00    -0.237 OA
ATOM     77  O   UNL A   1      39.532  22.514  26.342  1.00  0.00    -0.237 OA
ATOM     78  O   UNL A   1      41.785  21.710  25.741  1.00  0.00    -0.744 OA
ENDBRANCH  71  75
ENDBRANCH  54  68
BRANCH  55  79
ATOM     79  C   UNL A   1      41.537  32.316  35.686  1.00  0.00     0.023 A 
ATOM     80  C   UNL A   1      40.543  32.124  36.659  1.00  0.00     0.031 A 
ATOM     81  C   UNL A   1      42.412  33.406  35.849  1.00  0.00     0.131 A 
ATOM     82  C   UNL A   1      40.411  33.037  37.717  1.00  0.00     0.055 A 
ATOM     83  C   UNL A   1      42.318  34.274  36.938  1.00  0.00     0.041 A 
ATOM     84  F   UNL A   1      43.372  33.647  34.943  1.00  0.00    -0.206 F 
ATOM     85  C   UNL A   1      41.301  34.101  37.872  1.00  0.00     0.022 A 
BRANCH  82  86
ATOM     86  S   UNL A   1      38.982  32.883  38.823  1.00  0.00     0.124 S 
ATOM     87  O   UNL A   1      38.526  34.265  38.913  1.00  0.00    -0.237 OA
ATOM     88  O   UNL A   1      38.120  31.970  38.080  1.00  0.00    -0.237 OA
ATOM     89  O   UNL A   1      39.558  32.334  40.050  1.00  0.00    -0.744 OA
ENDBRANCH  82  86
ENDBRANCH  55  79
BRANCH  67  90
ATOM     90  C   UNL A   1      45.745  27.049  33.857  1.00  0.00     0.023 A 
ATOM     91  C   UNL A   1      45.660  25.942  34.716  1.00  0.00     0.031 A 
ATOM     92  C   UNL A   1      47.017  27.598  33.609  1.00  0.00     0.131 A 
ATOM     93  C   UNL A   1      46.818  25.454  35.342  1.00  0.00     0.055 A 
ATOM     94  C   UNL A   1      48.173  27.065  34.179  1.00  0.00     0.041 A 
ATOM     95  F   UNL A   1      47.159  28.659  32.799  1.00  0.00    -0.206 F 
ATOM     96  C   UNL A   1      48.075  25.994  35.063  1.00  0.00     0.022 A 
BRANCH  93  97
ATOM     97  S   UNL A   1      46.647  24.165  36.608  1.00  0.00     0.124 S 
ATOM     98  O   UNL A   1      45.488  23.419  36.127  1.00  0.00    -0.237 OA
ATOM     99  O   UNL A   1      47.929  23.474  36.524  1.00  0.00    -0.237 OA
ATOM    100  O   UNL A   1      46.430  24.921  37.840  1.00  0.00    -0.744 OA
ENDBRANCH  93  97
ENDBRANCH  67  90
ENDBRANCH  41  42
ENDBRANCH  34  36
ENDBRANCH  33  34
ENDBRANCH  32  33
ENDBRANCH  31  32
ENDBRANCH  30  31
ENDBRANCH  29  30
ENDBRANCH   1  29
TORSDOF 27
ENDMDL
MODEL 2
REMARK VINA RESULT:      -8.4      1.348      2.189
REMARK SMILES COc1ccc([C@H](C(=O)OCCOCCOCCOCCOC(=O)c2ccc(-c3c4nc(c(-c5cc(S(=O)(=O)[O-])ccc5F)c5ccc([nH]5)c(-c5cc(S(=O)(=O)[O-])ccc5F)c5nc(c(-c6cc(S(=O)(=O)[O-])ccc6F)c6ccc3[nH]6)C=C5)C=C4)cc2)[NH+]2CCOCC2)c(OC)n1
REMARK SMILES IDX 17 1 16 2 15 3 14 4 13 5 12 6 11 7 10 8 8 9 9 10 7 11 6 12
REMARK SMILES IDX 3 13 4 14 97 15 5 16 94 17 2 18 1 19 95 20 96 21 88 22 89 23
REMARK SMILES IDX 93 24 90 26 92 27 91 28 18 29 19 30 20 31 21 32 22 33 23 34
REMARK SMILES IDX 24 35 25 36 26 37 87 38 27 39 86 40 28 41 29 42 30 43 80 44
REMARK SMILES IDX 31 45 85 46 79 47 81 48 32 49 84 50 78 51 77 52 33 54 65 55
REMARK SMILES IDX 45 56 64 57 46 58 49 59 63 60 82 61 47 62 48 63 62 65 83 66
REMARK SMILES IDX 50 67 34 68 35 69 43 70 36 71 42 72 44 73 41 74 37 75 38 76
REMARK SMILES IDX 39 77 40 78 66 79 67 80 75 81 68 82 74 83 76 84 73 85 69 86
REMARK SMILES IDX 70 87 71 88 72 89 51 90 52 91 60 92 53 93 59 94 61 95 58 96
REMARK SMILES IDX 54 97 55 98 56 99 57 100
REMARK H PARENT 88 25 81 53 49 64
REMARK Flexibility Score: inf
ROOT
ATOM      1  C   UNL A   1      32.029  28.855  25.448  1.00  0.00     0.188 C 
ENDROOT
BRANCH   1   2
ATOM      2  O   UNL A   1      30.752  28.604  24.887  1.00  0.00    -0.377 OA
BRANCH   2   3
ATOM      3  C   UNL A   1      30.408  27.241  24.692  1.00  0.00     0.188 C 
BRANCH   3   4
ATOM      4  C   UNL A   1      30.180  26.362  25.935  1.00  0.00     0.188 C 
BRANCH   4   5
ATOM      5  O   UNL A   1      29.843  25.005  25.652  1.00  0.00    -0.376 OA
BRANCH   5   6
ATOM      6  C   UNL A   1      30.126  23.993  26.599  1.00  0.00     0.202 C 
BRANCH   6   7
ATOM      7  C   UNL A   1      30.513  22.602  26.063  1.00  0.00     0.261 C 
BRANCH   7   8
ATOM      8  O   UNL A   1      31.789  22.008  26.378  1.00  0.00    -0.459 OA
BRANCH   8   9
ATOM      9  C   UNL A   1      32.900  22.641  25.986  1.00  0.00     0.370 C 
ATOM     10  O   UNL A   1      33.848  22.770  26.749  1.00  0.00    -0.245 OA
BRANCH   9  11
ATOM     11  C   UNL A   1      33.017  23.077  24.533  1.00  0.00     0.332 C 
BRANCH  11  12
ATOM     12  C   UNL A   1      33.321  24.534  24.169  1.00  0.00     0.083 A 
ATOM     13  C   UNL A   1      34.091  27.169  23.669  1.00  0.00     0.216 A 
ATOM     14  C   UNL A   1      34.098  26.717  24.974  1.00  0.00     0.069 A 
ATOM     15  N   UNL A   1      33.679  26.400  22.646  1.00  0.00    -0.177 NA
ATOM     16  C   UNL A   1      33.694  25.401  25.221  1.00  0.00     0.022 A 
ATOM     17  C   UNL A   1      33.320  25.119  22.902  1.00  0.00     0.226 A 
BRANCH  13  18
ATOM     18  O   UNL A   1      34.425  28.446  23.312  1.00  0.00    -0.481 OA
ATOM     19  C   UNL A   1      33.467  29.107  22.493  1.00  0.00     0.280 C 
ENDBRANCH  13  18
BRANCH  17  20
ATOM     20  O   UNL A   1      33.161  24.384  21.768  1.00  0.00    -0.481 OA
ATOM     21  C   UNL A   1      32.641  25.128  20.684  1.00  0.00     0.280 C 
ENDBRANCH  17  20
ENDBRANCH  11  12
BRANCH  11  22
ATOM     22  N   UNL A   1      33.807  22.082  23.715  1.00  0.00    -0.315 N 
ATOM     23  C   UNL A   1      33.318  20.681  23.779  1.00  0.00     0.292 C 
ATOM     24  C   UNL A   1      35.266  22.076  23.941  1.00  0.00     0.292 C 
ATOM     25  H   UNL A   1      33.633  22.450  22.779  1.00  0.00     0.349 HD
ATOM     26  C   UNL A   1      33.947  19.711  24.815  1.00  0.00     0.221 C 
ATOM     27  C   UNL A   1      35.782  21.200  25.102  1.00  0.00     0.221 C 
ATOM     28  O   UNL A   1      35.368  19.842  24.937  1.00  0.00    -0.370 OA
ENDBRANCH  11  22
ENDBRANCH   9  11
ENDBRANCH   8   9
ENDBRANCH   7   8
ENDBRANCH   6   7
ENDBRANCH   5   6
ENDBRANCH   4   5
ENDBRANCH   3   4
ENDBRANCH   2   3
ENDBRANCH   1   2
BRANCH   1  29
ATOM     29  C   UNL A   1      32.002  29.733  26.719  1.00  0.00     0.188 C 
BRANCH  29  30
ATOM     30  O   UNL A   1      32.425  31.092  26.702  1.00  0.00    -0.376 OA
BRANCH  30  31
ATOM     31  C   UNL A   1      31.507  32.151  26.888  1.00  0.00     0.202 C 
BRANCH  31  32
ATOM     32  C   UNL A   1      31.970  33.566  27.284  1.00  0.00     0.261 C 
BRANCH  32  33
ATOM     33  O   UNL A   1      33.370  33.780  27.504  1.00  0.00    -0.460 OA
BRANCH  33  34
ATOM     34  C   UNL A   1      33.749  33.937  28.793  1.00  0.00     0.338 C 
ATOM     35  O   UNL A   1      33.114  34.499  29.675  1.00  0.00    -0.246 OA
BRANCH  34  36
ATOM     36  C   UNL A   1      34.980  33.148  29.034  1.00  0.00     0.060 A 
ATOM     37  C   UNL A   1      34.876  31.916  29.700  1.00  0.00     0.016 A 
ATOM     38  C   UNL A   1      36.229  33.610  28.612  1.00  0.00     0.016 A 
ATOM     39  C   UNL A   1      36.011  31.158  29.972  1.00  0.00     0.010 A 
ATOM     40  C   UNL A   1      37.376  32.882  28.943  1.00  0.00     0.010 A 
ATOM     41  C   UNL A   1      37.270  31.678  29.666  1.00  0.00    -0.014 A 
BRANCH  41  42
ATOM     42  C   UNL A   1      38.443  31.147  30.401  1.00  0.00     0.031 A 
ATOM     43  C   UNL A   1      39.251  30.077  29.715  1.00  0.00     0.074 A 
ATOM     44  C   UNL A   1      38.825  31.634  31.593  1.00  0.00     0.049 A 
ATOM     45  N   UNL A   1      40.264  29.381  30.156  1.00  0.00    -0.248 NA
ATOM     46  C   UNL A   1      38.850  29.747  28.336  1.00  0.00     0.031 C 
ATOM     47  C   UNL A   1      38.183  32.738  32.304  1.00  0.00     0.029 A 
ATOM     48  N   UNL A   1      39.853  31.254  32.419  1.00  0.00    -0.354 N 
ATOM     49  C   UNL A   1      40.613  28.525  29.116  1.00  0.00     0.074 A 
ATOM     50  C   UNL A   1      39.683  28.765  28.037  1.00  0.00     0.031 C 
ATOM     51  C   UNL A   1      38.823  32.934  33.471  1.00  0.00     0.029 A 
ATOM     52  C   UNL A   1      39.886  31.939  33.611  1.00  0.00     0.049 A 
ATOM     53  H   UNL A   1      40.505  30.555  32.180  1.00  0.00     0.167 HD
ATOM     54  C   UNL A   1      41.623  27.625  29.065  1.00  0.00     0.034 A 
ATOM     55  C   UNL A   1      40.664  31.751  34.699  1.00  0.00     0.034 A 
ATOM     56  C   UNL A   1      42.531  27.391  30.159  1.00  0.00     0.049 A 
ATOM     57  C   UNL A   1      41.703  30.650  34.670  1.00  0.00     0.074 A 
ATOM     58  C   UNL A   1      43.578  26.492  30.232  1.00  0.00     0.029 A 
ATOM     59  N   UNL A   1      42.491  28.057  31.378  1.00  0.00    -0.354 N 
ATOM     60  N   UNL A   1      42.007  29.820  33.697  1.00  0.00    -0.248 NA
ATOM     61  C   UNL A   1      42.504  30.462  35.886  1.00  0.00     0.031 C 
ATOM     62  C   UNL A   1      44.119  26.556  31.520  1.00  0.00     0.029 A 
ATOM     63  C   UNL A   1      43.475  27.564  32.219  1.00  0.00     0.049 A 
ATOM     64  H   UNL A   1      41.857  28.774  31.609  1.00  0.00     0.167 HD
ATOM     65  C   UNL A   1      43.064  29.046  34.171  1.00  0.00     0.074 A 
ATOM     66  C   UNL A   1      43.348  29.513  35.511  1.00  0.00     0.031 C 
ATOM     67  C   UNL A   1      43.746  28.046  33.554  1.00  0.00     0.034 A 
BRANCH  54  68
ATOM     68  C   UNL A   1      41.745  26.789  27.814  1.00  0.00     0.023 A 
ATOM     69  C   UNL A   1      41.360  25.437  27.784  1.00  0.00     0.031 A 
ATOM     70  C   UNL A   1      42.294  27.344  26.645  1.00  0.00     0.131 A 
ATOM     71  C   UNL A   1      41.590  24.671  26.631  1.00  0.00     0.055 A 
ATOM     72  C   UNL A   1      42.441  26.598  25.475  1.00  0.00     0.041 A 
ATOM     73  F   UNL A   1      42.710  28.620  26.624  1.00  0.00    -0.206 F 
ATOM     74  C   UNL A   1      42.102  25.249  25.468  1.00  0.00     0.022 A 
BRANCH  71  75
ATOM     75  S   UNL A   1      41.352  22.875  26.722  1.00  0.00     0.124 S 
ATOM     76  O   UNL A   1      41.948  22.435  25.463  1.00  0.00    -0.237 OA
ATOM     77  O   UNL A   1      42.083  22.520  27.933  1.00  0.00    -0.237 OA
ATOM     78  O   UNL A   1      39.900  22.726  26.802  1.00  0.00    -0.744 OA
ENDBRANCH  71  75
ENDBRANCH  54  68
BRANCH  55  79
ATOM     79  C   UNL A   1      40.469  32.574  35.928  1.00  0.00     0.023 A 
ATOM     80  C   UNL A   1      39.639  32.135  36.973  1.00  0.00     0.031 A 
ATOM     81  C   UNL A   1      41.047  33.852  36.044  1.00  0.00     0.131 A 
ATOM     82  C   UNL A   1      39.363  32.986  38.055  1.00  0.00     0.055 A 
ATOM     83  C   UNL A   1      40.823  34.668  37.153  1.00  0.00     0.041 A 
ATOM     84  F   UNL A   1      41.838  34.330  35.070  1.00  0.00    -0.206 F 
ATOM     85  C   UNL A   1      39.962  34.243  38.160  1.00  0.00     0.022 A 
BRANCH  82  86
ATOM     86  S   UNL A   1      38.115  32.473  39.266  1.00  0.00     0.124 S 
ATOM     87  O   UNL A   1      37.353  33.703  39.446  1.00  0.00    -0.237 OA
ATOM     88  O   UNL A   1      37.432  31.394  38.559  1.00  0.00    -0.237 OA
ATOM     89  O   UNL A   1      38.909  32.056  40.420  1.00  0.00    -0.744 OA
ENDBRANCH  82  86
ENDBRANCH  55  79
BRANCH  67  90
ATOM     90  C   UNL A   1      44.913  27.438  34.298  1.00  0.00     0.023 A 
ATOM     91  C   UNL A   1      44.757  26.350  35.172  1.00  0.00     0.031 A 
ATOM     92  C   UNL A   1      46.207  27.960  34.117  1.00  0.00     0.131 A 
ATOM     93  C   UNL A   1      45.866  25.856  35.876  1.00  0.00     0.055 A 
ATOM     94  C   UNL A   1      47.317  27.420  34.766  1.00  0.00     0.041 A 
ATOM     95  F   UNL A   1      46.416  29.001  33.296  1.00  0.00    -0.206 F 
ATOM     96  C   UNL A   1      47.147  26.369  35.663  1.00  0.00     0.022 A 
BRANCH  93  97
ATOM     97  S   UNL A   1      45.596  24.596  37.154  1.00  0.00     0.124 S 
ATOM     98  O   UNL A   1      45.009  25.381  38.235  1.00  0.00    -0.237 OA
ATOM     99  O   UNL A   1      44.699  23.660  36.485  1.00  0.00    -0.237 OA
ATOM    100  O   UNL A   1      46.940  24.083  37.419  1.00  0.00    -0.744 OA
ENDBRANCH  93  97
ENDBRANCH  67  90
ENDBRANCH  41  42
ENDBRANCH  34  36
ENDBRANCH  33  34
ENDBRANCH  32  33
ENDBRANCH  31  32
ENDBRANCH  30  31
ENDBRANCH  29  30
ENDBRANCH   1  29
TORSDOF 27
ENDMDL
MODEL 3
REMARK VINA RESULT:      -7.9      2.715      3.550
REMARK SMILES COc1ccc([C@H](C(=O)OCCOCCOCCOCCOC(=O)c2ccc(-c3c4nc(c(-c5cc(S(=O)(=O)[O-])ccc5F)c5ccc([nH]5)c(-c5cc(S(=O)(=O)[O-])ccc5F)c5nc(c(-c6cc(S(=O)(=O)[O-])ccc6F)c6ccc3[nH]6)C=C5)C=C4)cc2)[NH+]2CCOCC2)c(OC)n1
REMARK SMILES IDX 17 1 16 2 15 3 14 4 13 5 12 6 11 7 10 8 8 9 9 10 7 11 6 12
REMARK SMILES IDX 3 13 4 14 97 15 5 16 94 17 2 18 1 19 95 20 96 21 88 22 89 23
REMARK SMILES IDX 93 24 90 26 92 27 91 28 18 29 19 30 20 31 21 32 22 33 23 34
REMARK SMILES IDX 24 35 25 36 26 37 87 38 27 39 86 40 28 41 29 42 30 43 80 44
REMARK SMILES IDX 31 45 85 46 79 47 81 48 32 49 84 50 78 51 77 52 33 54 65 55
REMARK SMILES IDX 45 56 64 57 46 58 49 59 63 60 82 61 47 62 48 63 62 65 83 66
REMARK SMILES IDX 50 67 34 68 35 69 43 70 36 71 42 72 44 73 41 74 37 75 38 76
REMARK SMILES IDX 39 77 40 78 66 79 67 80 75 81 68 82 74 83 76 84 73 85 69 86
REMARK SMILES IDX 70 87 71 88 72 89 51 90 52 91 60 92 53 93 59 94 61 95 58 96
REMARK SMILES IDX 54 97 55 98 56 99 57 100
REMARK H PARENT 88 25 81 53 49 64
REMARK Flexibility Score: inf
ROOT
ATOM      1  C   UNL A   1      32.164  29.128  25.595  1.00  0.00     0.188 C 
ENDROOT
BRANCH   1   2
ATOM      2  O   UNL A   1      30.983  28.596  25.021  1.00  0.00    -0.377 OA
BRANCH   2   3
ATOM      3  C   UNL A   1      30.945  27.187  24.855  1.00  0.00     0.188 C 
BRANCH   3   4
ATOM      4  C   UNL A   1      30.590  26.318  26.074  1.00  0.00     0.188 C 
BRANCH   4   5
ATOM      5  O   UNL A   1      30.304  24.954  25.773  1.00  0.00    -0.376 OA
BRANCH   5   6
ATOM      6  C   UNL A   1      30.799  23.925  26.607  1.00  0.00     0.202 C 
BRANCH   6   7
ATOM      7  C   UNL A   1      31.246  22.613  25.935  1.00  0.00     0.261 C 
BRANCH   7   8
ATOM      8  O   UNL A   1      32.512  22.002  26.255  1.00  0.00    -0.459 OA
BRANCH   8   9
ATOM      9  C   UNL A   1      33.633  22.603  25.840  1.00  0.00     0.370 C 
ATOM     10  O   UNL A   1      34.494  22.944  26.641  1.00  0.00    -0.245 OA
BRANCH   9  11
ATOM     11  C   UNL A   1      33.879  22.732  24.344  1.00  0.00     0.332 C 
BRANCH  11  12
ATOM     12  C   UNL A   1      33.767  24.089  23.641  1.00  0.00     0.083 A 
ATOM     13  C   UNL A   1      33.785  26.633  22.495  1.00  0.00     0.216 A 
ATOM     14  C   UNL A   1      33.993  26.521  23.856  1.00  0.00     0.069 A 
ATOM     15  N   UNL A   1      33.526  25.566  21.719  1.00  0.00    -0.177 NA
ATOM     16  C   UNL A   1      33.965  25.246  24.427  1.00  0.00     0.022 A 
ATOM     17  C   UNL A   1      33.533  24.335  22.287  1.00  0.00     0.226 A 
BRANCH  13  18
ATOM     18  O   UNL A   1      33.750  27.829  21.834  1.00  0.00    -0.481 OA
ATOM     19  C   UNL A   1      34.031  28.967  22.641  1.00  0.00     0.280 C 
ENDBRANCH  13  18
BRANCH  17  20
ATOM     20  O   UNL A   1      33.502  23.334  21.366  1.00  0.00    -0.481 OA
ATOM     21  C   UNL A   1      32.966  23.733  20.120  1.00  0.00     0.280 C 
ENDBRANCH  17  20
ENDBRANCH  11  12
BRANCH  11  22
ATOM     22  N   UNL A   1      35.085  21.933  23.908  1.00  0.00    -0.315 N 
ATOM     23  C   UNL A   1      35.515  20.871  24.852  1.00  0.00     0.292 C 
ATOM     24  C   UNL A   1      36.274  22.720  23.522  1.00  0.00     0.292 C 
ATOM     25  H   UNL A   1      34.709  21.495  23.067  1.00  0.00     0.349 HD
ATOM     26  C   UNL A   1      36.616  21.193  25.897  1.00  0.00     0.221 C 
ATOM     27  C   UNL A   1      37.231  23.131  24.660  1.00  0.00     0.221 C 
ATOM     28  O   UNL A   1      37.691  21.983  25.376  1.00  0.00    -0.370 OA
ENDBRANCH  11  22
ENDBRANCH   9  11
ENDBRANCH   8   9
ENDBRANCH   7   8
ENDBRANCH   6   7
ENDBRANCH   5   6
ENDBRANCH   4   5
ENDBRANCH   3   4
ENDBRANCH   2   3
ENDBRANCH   1   2
BRANCH   1  29
ATOM     29  C   UNL A   1      31.929  29.947  26.885  1.00  0.00     0.188 C 
BRANCH  29  30
ATOM     30  O   UNL A   1      32.544  31.213  27.093  1.00  0.00    -0.376 OA
BRANCH  30  31
ATOM     31  C   UNL A   1      31.778  32.400  27.168  1.00  0.00     0.202 C 
BRANCH  31  32
ATOM     32  C   UNL A   1      32.438  33.780  27.351  1.00  0.00     0.261 C 
BRANCH  32  33
ATOM     33  O   UNL A   1      33.802  33.823  27.787  1.00  0.00    -0.460 OA
BRANCH  33  34
ATOM     34  C   UNL A   1      33.992  33.993  29.116  1.00  0.00     0.338 C 
ATOM     35  O   UNL A   1      33.197  34.477  29.909  1.00  0.00    -0.246 OA
BRANCH  34  36
ATOM     36  C   UNL A   1      35.251  33.319  29.513  1.00  0.00     0.060 A 
ATOM     37  C   UNL A   1      35.178  32.125  30.248  1.00  0.00     0.016 A 
ATOM     38  C   UNL A   1      36.495  33.852  29.169  1.00  0.00     0.016 A 
ATOM     39  C   UNL A   1      36.336  31.476  30.667  1.00  0.00     0.010 A 
ATOM     40  C   UNL A   1      37.659  33.237  29.645  1.00  0.00     0.010 A 
ATOM     41  C   UNL A   1      37.576  32.074  30.434  1.00  0.00    -0.014 A 
BRANCH  41  42
ATOM     42  C   UNL A   1      38.714  31.682  31.301  1.00  0.00     0.031 A 
ATOM     43  C   UNL A   1      39.733  30.746  30.706  1.00  0.00     0.074 A 
ATOM     44  C   UNL A   1      38.883  32.184  32.536  1.00  0.00     0.049 A 
ATOM     45  N   UNL A   1      40.770  30.178  31.260  1.00  0.00    -0.248 NA
ATOM     46  C   UNL A   1      39.546  30.403  29.286  1.00  0.00     0.031 C 
ATOM     47  C   UNL A   1      38.020  33.175  33.175  1.00  0.00     0.029 A 
ATOM     48  N   UNL A   1      39.847  31.920  33.476  1.00  0.00    -0.354 N 
ATOM     49  C   UNL A   1      41.351  29.403  30.261  1.00  0.00     0.074 A 
ATOM     50  C   UNL A   1      40.532  29.547  29.080  1.00  0.00     0.031 C 
ATOM     51  C   UNL A   1      38.485  33.422  34.413  1.00  0.00     0.029 A 
ATOM     52  C   UNL A   1      39.647  32.572  34.670  1.00  0.00     0.049 A 
ATOM     53  H   UNL A   1      40.611  31.320  33.311  1.00  0.00     0.167 HD
ATOM     54  C   UNL A   1      42.471  28.645  30.323  1.00  0.00     0.034 A 
ATOM     55  C   UNL A   1      40.308  32.459  35.842  1.00  0.00     0.034 A 
ATOM     56  C   UNL A   1      43.266  28.503  31.517  1.00  0.00     0.049 A 
ATOM     57  C   UNL A   1      41.481  31.505  35.927  1.00  0.00     0.074 A 
ATOM     58  C   UNL A   1      44.408  27.748  31.707  1.00  0.00     0.029 A 
ATOM     59  N   UNL A   1      42.993  29.125  32.728  1.00  0.00    -0.354 N 
ATOM     60  N   UNL A   1      42.006  30.748  34.990  1.00  0.00    -0.248 NA
ATOM     61  C   UNL A   1      42.151  31.392  37.230  1.00  0.00     0.031 C 
ATOM     62  C   UNL A   1      44.778  27.848  33.051  1.00  0.00     0.029 A 
ATOM     63  C   UNL A   1      43.927  28.744  33.678  1.00  0.00     0.049 A 
ATOM     64  H   UNL A   1      42.246  29.746  32.889  1.00  0.00     0.167 HD
ATOM     65  C   UNL A   1      43.093  30.107  35.580  1.00  0.00     0.074 A 
ATOM     66  C   UNL A   1      43.152  30.572  36.950  1.00  0.00     0.031 C 
ATOM     67  C   UNL A   1      43.971  29.222  35.041  1.00  0.00     0.034 A 
BRANCH  54  68
ATOM     68  C   UNL A   1      42.851  27.865  29.088  1.00  0.00     0.023 A 
ATOM     69  C   UNL A   1      43.950  28.227  28.289  1.00  0.00     0.031 A 
ATOM     70  C   UNL A   1      42.076  26.765  28.682  1.00  0.00     0.131 A 
ATOM     71  C   UNL A   1      44.202  27.539  27.093  1.00  0.00     0.055 A 
ATOM     72  C   UNL A   1      42.383  26.031  27.536  1.00  0.00     0.041 A 
ATOM     73  F   UNL A   1      40.995  26.392  29.386  1.00  0.00    -0.206 F 
ATOM     74  C   UNL A   1      43.443  26.426  26.725  1.00  0.00     0.022 A 
BRANCH  71  75
ATOM     75  S   UNL A   1      45.440  28.210  25.949  1.00  0.00     0.124 S 
ATOM     76  O   UNL A   1      44.946  27.724  24.663  1.00  0.00    -0.237 OA
ATOM     77  O   UNL A   1      45.331  29.647  26.174  1.00  0.00    -0.237 OA
ATOM     78  O   UNL A   1      46.689  27.599  26.401  1.00  0.00    -0.744 OA
ENDBRANCH  71  75
ENDBRANCH  54  68
BRANCH  55  79
ATOM     79  C   UNL A   1      39.861  33.217  37.048  1.00  0.00     0.023 A 
ATOM     80  C   UNL A   1      38.976  32.647  37.977  1.00  0.00     0.031 A 
ATOM     81  C   UNL A   1      40.249  34.555  37.247  1.00  0.00     0.131 A 
ATOM     82  C   UNL A   1      38.462  33.426  39.026  1.00  0.00     0.055 A 
ATOM     83  C   UNL A   1      39.788  35.305  38.330  1.00  0.00     0.041 A 
ATOM     84  F   UNL A   1      41.083  35.156  36.384  1.00  0.00    -0.206 F 
ATOM     85  C   UNL A   1      38.875  34.746  39.219  1.00  0.00     0.022 A 
BRANCH  82  86
ATOM     86  S   UNL A   1      37.155  32.724  40.069  1.00  0.00     0.124 S 
ATOM     87  O   UNL A   1      37.054  33.721  41.128  1.00  0.00    -0.237 OA
ATOM     88  O   UNL A   1      36.031  32.657  39.141  1.00  0.00    -0.237 OA
ATOM     89  O   UNL A   1      37.702  31.432  40.478  1.00  0.00    -0.744 OA
ENDBRANCH  82  86
ENDBRANCH  55  79
BRANCH  67  90
ATOM     90  C   UNL A   1      45.112  28.752  35.914  1.00  0.00     0.023 A 
ATOM     91  C   UNL A   1      46.342  29.428  35.964  1.00  0.00     0.031 A 
ATOM     92  C   UNL A   1      44.955  27.605  36.714  1.00  0.00     0.131 A 
ATOM     93  C   UNL A   1      47.386  28.920  36.753  1.00  0.00     0.055 A 
ATOM     94  C   UNL A   1      45.972  27.145  37.550  1.00  0.00     0.041 A 
ATOM     95  F   UNL A   1      43.802  26.917  36.704  1.00  0.00    -0.206 F 
ATOM     96  C   UNL A   1      47.202  27.796  37.562  1.00  0.00     0.022 A 
BRANCH  93  97
ATOM     97  S   UNL A   1      49.024  29.690  36.632  1.00  0.00     0.124 S 
ATOM     98  O   UNL A   1      49.835  28.598  36.105  1.00  0.00    -0.237 OA
ATOM     99  O   UNL A   1      48.780  30.801  35.718  1.00  0.00    -0.237 OA
ATOM    100  O   UNL A   1      49.324  30.077  38.010  1.00  0.00    -0.744 OA
ENDBRANCH  93  97
ENDBRANCH  67  90
ENDBRANCH  41  42
ENDBRANCH  34  36
ENDBRANCH  33  34
ENDBRANCH  32  33
ENDBRANCH  31  32
ENDBRANCH  30  31
ENDBRANCH  29  30
ENDBRANCH   1  29
TORSDOF 27
ENDMDL
