MODEL 1
REMARK VINA RESULT:      -8.7      0.000      0.000
REMARK SMILES C[C@@H](CNc1cccc(F)c1C(=O)OCCOCCOCCOCCOC(=O)c1ccc(-c2c3nc(c(-c4cc(S(=O)(=O)[O-])ccc4F)c4ccc([nH]4)c(-c4cc(S(=O)(=O)[O-])ccc4F)c4nc(c(-c5cc(S(=O)(=O)[O-])ccc5F)c5ccc2[nH]5)C=C4)C=C3)cc1)[NH+]1CCCCC1
REMARK SMILES IDX 19 1 18 2 17 3 16 4 15 5 14 6 12 7 13 8 11 9 5 10 6 11 7 12
REMARK SMILES IDX 9 13 8 14 10 15 4 16 3 18 2 19 1 20 92 21 93 22 97 23 94 25
REMARK SMILES IDX 96 26 95 27 20 28 21 29 22 30 23 31 24 32 25 33 26 34 27 35
REMARK SMILES IDX 28 36 29 37 30 38 91 39 31 40 90 41 32 42 33 43 34 44 84 45
REMARK SMILES IDX 35 46 89 47 83 48 85 49 36 50 88 51 82 52 81 53 37 55 69 56
REMARK SMILES IDX 49 57 68 58 50 59 53 60 67 61 86 62 51 63 52 64 66 66 87 67
REMARK SMILES IDX 54 68 38 69 39 70 47 71 40 72 46 73 48 74 45 75 41 76 42 77
REMARK SMILES IDX 43 78 44 79 70 80 71 81 79 82 72 83 78 84 80 85 77 86 73 87
REMARK SMILES IDX 74 88 75 89 76 90 55 91 56 92 64 93 57 94 63 95 65 96 62 97
REMARK SMILES IDX 58 98 59 99 60 100 61 101
REMARK H PARENT 4 17 92 24 85 54 53 65
REMARK Flexibility Score: inf
ROOT
ATOM      1  C   UNL A   1      34.823  32.576  27.945  1.00  0.00     0.188 C 
ENDROOT
BRANCH   1   2
ATOM      2  C   UNL A   1      33.648  31.591  27.797  1.00  0.00     0.188 C 
BRANCH   2   3
ATOM      3  O   UNL A   1      33.974  30.294  27.313  1.00  0.00    -0.376 OA
BRANCH   3   4
ATOM      4  C   UNL A   1      32.921  29.579  26.678  1.00  0.00     0.202 C 
BRANCH   4   5
ATOM      5  C   UNL A   1      32.672  28.167  27.220  1.00  0.00     0.261 C 
BRANCH   5   6
ATOM      6  O   UNL A   1      32.056  27.295  26.259  1.00  0.00    -0.460 OA
BRANCH   6   7
ATOM      7  C   UNL A   1      32.900  26.549  25.516  1.00  0.00     0.343 C 
ATOM      8  O   UNL A   1      34.109  26.694  25.427  1.00  0.00    -0.246 OA
BRANCH   7   9
ATOM      9  C   UNL A   1      32.196  25.393  24.950  1.00  0.00     0.118 A 
ATOM     10  C   UNL A   1      31.556  25.497  23.690  1.00  0.00     0.052 A 
ATOM     11  C   UNL A   1      30.893  24.357  23.218  1.00  0.00     0.027 A 
ATOM     12  C   UNL A   1      30.811  23.189  23.992  1.00  0.00     0.005 A 
ATOM     13  C   UNL A   1      32.125  24.230  25.711  1.00  0.00     0.139 A 
ATOM     14  C   UNL A   1      31.425  23.128  25.240  1.00  0.00     0.040 A 
ATOM     15  F   UNL A   1      32.697  24.161  26.922  1.00  0.00    -0.206 F 
BRANCH  10  16
ATOM     16  N   UNL A   1      31.678  26.651  22.934  1.00  0.00    -0.378 N 
ATOM     17  H   UNL A   1      32.571  26.845  22.565  1.00  0.00     0.160 HD
BRANCH  16  18
ATOM     18  C   UNL A   1      30.622  27.609  22.626  1.00  0.00     0.177 C 
BRANCH  18  19
ATOM     19  C   UNL A   1      31.280  28.990  22.259  1.00  0.00     0.200 C 
ATOM     20  C   UNL A   1      32.597  29.159  23.033  1.00  0.00     0.077 C 
BRANCH  19  21
ATOM     21  N   UNL A   1      30.268  30.065  22.452  1.00  0.00    -0.331 N 
ATOM     22  C   UNL A   1      29.093  30.057  21.577  1.00  0.00     0.262 C 
ATOM     23  C   UNL A   1      29.890  30.218  23.860  1.00  0.00     0.262 C 
ATOM     24  H   UNL A   1      30.773  30.896  22.141  1.00  0.00     0.348 HD
ATOM     25  C   UNL A   1      28.224  31.310  21.750  1.00  0.00     0.062 C 
ATOM     26  C   UNL A   1      29.108  31.509  24.087  1.00  0.00     0.062 C 
ATOM     27  C   UNL A   1      27.868  31.576  23.205  1.00  0.00     0.012 C 
ENDBRANCH  19  21
ENDBRANCH  18  19
ENDBRANCH  16  18
ENDBRANCH  10  16
ENDBRANCH   7   9
ENDBRANCH   6   7
ENDBRANCH   5   6
ENDBRANCH   4   5
ENDBRANCH   3   4
ENDBRANCH   2   3
ENDBRANCH   1   2
BRANCH   1  28
ATOM     28  O   UNL A   1      34.669  33.944  27.601  1.00  0.00    -0.377 OA
BRANCH  28  29
ATOM     29  C   UNL A   1      34.631  34.926  28.625  1.00  0.00     0.188 C 
BRANCH  29  30
ATOM     30  C   UNL A   1      33.785  34.666  29.885  1.00  0.00     0.188 C 
BRANCH  30  31
ATOM     31  O   UNL A   1      34.525  34.208  31.012  1.00  0.00    -0.376 OA
BRANCH  31  32
ATOM     32  C   UNL A   1      33.992  34.559  32.283  1.00  0.00     0.202 C 
BRANCH  32  33
ATOM     33  C   UNL A   1      34.253  33.542  33.402  1.00  0.00     0.261 C 
BRANCH  33  34
ATOM     34  O   UNL A   1      35.509  32.847  33.329  1.00  0.00    -0.460 OA
BRANCH  34  35
ATOM     35  C   UNL A   1      36.380  33.010  34.350  1.00  0.00     0.338 C 
ATOM     36  O   UNL A   1      36.145  33.475  35.450  1.00  0.00    -0.246 OA
BRANCH  35  37
ATOM     37  C   UNL A   1      37.640  32.341  33.966  1.00  0.00     0.060 A 
ATOM     38  C   UNL A   1      38.845  32.789  34.524  1.00  0.00     0.016 A 
ATOM     39  C   UNL A   1      37.624  31.253  33.090  1.00  0.00     0.016 A 
ATOM     40  C   UNL A   1      40.044  32.164  34.179  1.00  0.00     0.010 A 
ATOM     41  C   UNL A   1      38.827  30.646  32.727  1.00  0.00     0.010 A 
ATOM     42  C   UNL A   1      40.044  31.120  33.244  1.00  0.00    -0.014 A 
BRANCH  42  43
ATOM     43  C   UNL A   1      41.319  30.682  32.631  1.00  0.00     0.031 A 
ATOM     44  C   UNL A   1      42.033  29.515  33.260  1.00  0.00     0.074 A 
ATOM     45  C   UNL A   1      41.824  31.280  31.538  1.00  0.00     0.049 A 
ATOM     46  N   UNL A   1      43.184  28.982  32.952  1.00  0.00    -0.248 NA
ATOM     47  C   UNL A   1      41.349  28.867  34.393  1.00  0.00     0.031 C 
ATOM     48  C   UNL A   1      41.197  32.379  30.806  1.00  0.00     0.029 A 
ATOM     49  N   UNL A   1      42.990  31.042  30.853  1.00  0.00    -0.354 N 
ATOM     50  C   UNL A   1      43.362  27.932  33.846  1.00  0.00     0.074 A 
ATOM     51  C   UNL A   1      42.216  27.923  34.728  1.00  0.00     0.031 C 
ATOM     52  C   UNL A   1      41.987  32.719  29.771  1.00  0.00     0.029 A 
ATOM     53  C   UNL A   1      43.192  31.890  29.790  1.00  0.00     0.049 A 
ATOM     54  H   UNL A   1      43.623  30.328  31.099  1.00  0.00     0.167 HD
ATOM     55  C   UNL A   1      44.386  27.051  33.921  1.00  0.00     0.034 A 
ATOM     56  C   UNL A   1      44.239  31.997  28.946  1.00  0.00     0.034 A 
ATOM     57  C   UNL A   1      45.532  27.079  33.052  1.00  0.00     0.049 A 
ATOM     58  C   UNL A   1      45.419  31.072  29.114  1.00  0.00     0.074 A 
ATOM     59  C   UNL A   1      46.629  26.236  33.051  1.00  0.00     0.029 A 
ATOM     60  N   UNL A   1      45.733  28.001  32.035  1.00  0.00    -0.354 N 
ATOM     61  N   UNL A   1      45.594  30.107  29.986  1.00  0.00    -0.248 NA
ATOM     62  C   UNL A   1      46.548  31.254  28.189  1.00  0.00     0.031 C 
ATOM     63  C   UNL A   1      47.522  26.685  32.074  1.00  0.00     0.029 A 
ATOM     64  C   UNL A   1      46.950  27.765  31.418  1.00  0.00     0.049 A 
ATOM     65  H   UNL A   1      45.104  28.716  31.789  1.00  0.00     0.167 HD
ATOM     66  C   UNL A   1      46.839  29.553  29.701  1.00  0.00     0.074 A 
ATOM     67  C   UNL A   1      47.375  30.291  28.576  1.00  0.00     0.031 C 
ATOM     68  C   UNL A   1      47.475  28.519  30.307  1.00  0.00     0.034 A 
BRANCH  55  69
ATOM     69  C   UNL A   1      44.330  26.017  35.011  1.00  0.00     0.023 A 
ATOM     70  C   UNL A   1      44.613  26.342  36.349  1.00  0.00     0.031 A 
ATOM     71  C   UNL A   1      43.988  24.688  34.706  1.00  0.00     0.131 A 
ATOM     72  C   UNL A   1      44.585  25.339  37.329  1.00  0.00     0.055 A 
ATOM     73  C   UNL A   1      43.903  23.708  35.695  1.00  0.00     0.041 A 
ATOM     74  F   UNL A   1      43.733  24.322  33.440  1.00  0.00    -0.206 F 
ATOM     75  C   UNL A   1      44.209  24.030  37.015  1.00  0.00     0.022 A 
BRANCH  72  76
ATOM     76  S   UNL A   1      45.120  25.749  39.011  1.00  0.00     0.124 S 
ATOM     77  O   UNL A   1      46.326  26.531  38.754  1.00  0.00    -0.237 OA
ATOM     78  O   UNL A   1      43.979  26.490  39.537  1.00  0.00    -0.237 OA
ATOM     79  O   UNL A   1      45.349  24.443  39.626  1.00  0.00    -0.744 OA
ENDBRANCH  72  76
ENDBRANCH  55  69
BRANCH  56  80
ATOM     80  C   UNL A   1      44.242  33.046  27.888  1.00  0.00     0.023 A 
ATOM     81  C   UNL A   1      44.490  34.392  28.199  1.00  0.00     0.031 A 
ATOM     82  C   UNL A   1      43.979  32.714  26.547  1.00  0.00     0.131 A 
ATOM     83  C   UNL A   1      44.450  35.362  27.184  1.00  0.00     0.055 A 
ATOM     84  C   UNL A   1      43.976  33.676  25.535  1.00  0.00     0.041 A 
ATOM     85  F   UNL A   1      43.734  31.440  26.200  1.00  0.00    -0.206 F 
ATOM     86  C   UNL A   1      44.208  35.010  25.853  1.00  0.00     0.022 A 
BRANCH  83  87
ATOM     87  S   UNL A   1      44.695  37.104  27.628  1.00  0.00     0.124 S 
ATOM     88  O   UNL A   1      43.807  37.778  26.689  1.00  0.00    -0.237 OA
ATOM     89  O   UNL A   1      44.285  37.123  29.028  1.00  0.00    -0.237 OA
ATOM     90  O   UNL A   1      46.124  37.315  27.399  1.00  0.00    -0.744 OA
ENDBRANCH  83  87
ENDBRANCH  56  80
BRANCH  68  91
ATOM     91  C   UNL A   1      48.809  28.094  29.751  1.00  0.00     0.023 A 
ATOM     92  C   UNL A   1      48.911  27.122  28.741  1.00  0.00     0.031 A 
ATOM     93  C   UNL A   1      49.986  28.721  30.195  1.00  0.00     0.131 A 
ATOM     94  C   UNL A   1      50.171  26.791  28.221  1.00  0.00     0.055 A 
ATOM     95  C   UNL A   1      51.232  28.419  29.644  1.00  0.00     0.041 A 
ATOM     96  F   UNL A   1      49.939  29.660  31.154  1.00  0.00    -0.206 F 
ATOM     97  C   UNL A   1      51.329  27.445  28.653  1.00  0.00     0.022 A 
BRANCH  94  98
ATOM     98  S   UNL A   1      50.287  25.475  26.979  1.00  0.00     0.124 S 
ATOM     99  O   UNL A   1      49.237  25.853  26.039  1.00  0.00    -0.237 OA
ATOM    100  O   UNL A   1      51.657  25.616  26.494  1.00  0.00    -0.237 OA
ATOM    101  O   UNL A   1      50.027  24.256  27.743  1.00  0.00    -0.744 OA
ENDBRANCH  94  98
ENDBRANCH  68  91
ENDBRANCH  42  43
ENDBRANCH  35  37
ENDBRANCH  34  35
ENDBRANCH  33  34
ENDBRANCH  32  33
ENDBRANCH  31  32
ENDBRANCH  30  31
ENDBRANCH  29  30
ENDBRANCH  28  29
ENDBRANCH   1  28
TORSDOF 27
ENDMDL
MODEL 2
REMARK VINA RESULT:      -8.7      4.448      7.372
REMARK SMILES C[C@@H](CNc1cccc(F)c1C(=O)OCCOCCOCCOCCOC(=O)c1ccc(-c2c3nc(c(-c4cc(S(=O)(=O)[O-])ccc4F)c4ccc([nH]4)c(-c4cc(S(=O)(=O)[O-])ccc4F)c4nc(c(-c5cc(S(=O)(=O)[O-])ccc5F)c5ccc2[nH]5)C=C4)C=C3)cc1)[NH+]1CCCCC1
REMARK SMILES IDX 19 1 18 2 17 3 16 4 15 5 14 6 12 7 13 8 11 9 5 10 6 11 7 12
REMARK SMILES IDX 9 13 8 14 10 15 4 16 3 18 2 19 1 20 92 21 93 22 97 23 94 25
REMARK SMILES IDX 96 26 95 27 20 28 21 29 22 30 23 31 24 32 25 33 26 34 27 35
REMARK SMILES IDX 28 36 29 37 30 38 91 39 31 40 90 41 32 42 33 43 34 44 84 45
REMARK SMILES IDX 35 46 89 47 83 48 85 49 36 50 88 51 82 52 81 53 37 55 69 56
REMARK SMILES IDX 49 57 68 58 50 59 53 60 67 61 86 62 51 63 52 64 66 66 87 67
REMARK SMILES IDX 54 68 38 69 39 70 47 71 40 72 46 73 48 74 45 75 41 76 42 77
REMARK SMILES IDX 43 78 44 79 70 80 71 81 79 82 72 83 78 84 80 85 77 86 73 87
REMARK SMILES IDX 74 88 75 89 76 90 55 91 56 92 64 93 57 94 63 95 65 96 62 97
REMARK SMILES IDX 58 98 59 99 60 100 61 101
REMARK H PARENT 4 17 92 24 85 54 53 65
REMARK Flexibility Score: inf
ROOT
ATOM      1  C   UNL A   1      34.602  33.458  28.024  1.00  0.00     0.188 C 
ENDROOT
BRANCH   1   2
ATOM      2  C   UNL A   1      33.699  32.293  27.578  1.00  0.00     0.188 C 
BRANCH   2   3
ATOM      3  O   UNL A   1      34.116  30.991  27.972  1.00  0.00    -0.376 OA
BRANCH   3   4
ATOM      4  C   UNL A   1      33.279  29.915  27.564  1.00  0.00     0.202 C 
BRANCH   4   5
ATOM      5  C   UNL A   1      34.013  28.705  26.977  1.00  0.00     0.261 C 
BRANCH   5   6
ATOM      6  O   UNL A   1      33.249  28.012  25.977  1.00  0.00    -0.460 OA
BRANCH   6   7
ATOM      7  C   UNL A   1      31.949  27.801  26.272  1.00  0.00     0.343 C 
ATOM      8  O   UNL A   1      31.478  27.625  27.384  1.00  0.00    -0.246 OA
BRANCH   7   9
ATOM      9  C   UNL A   1      31.117  27.994  25.079  1.00  0.00     0.118 A 
ATOM     10  C   UNL A   1      30.549  26.876  24.420  1.00  0.00     0.052 A 
ATOM     11  C   UNL A   1      29.777  27.135  23.280  1.00  0.00     0.027 A 
ATOM     12  C   UNL A   1      29.631  28.437  22.779  1.00  0.00     0.005 A 
ATOM     13  C   UNL A   1      30.961  29.288  24.589  1.00  0.00     0.139 A 
ATOM     14  C   UNL A   1      30.227  29.514  23.433  1.00  0.00     0.040 A 
ATOM     15  F   UNL A   1      31.542  30.331  25.198  1.00  0.00    -0.206 F 
BRANCH  10  16
ATOM     16  N   UNL A   1      30.683  25.604  24.952  1.00  0.00    -0.378 N 
ATOM     17  H   UNL A   1      29.857  25.164  25.258  1.00  0.00     0.160 HD
BRANCH  16  18
ATOM     18  C   UNL A   1      31.922  24.849  25.107  1.00  0.00     0.177 C 
BRANCH  18  19
ATOM     19  C   UNL A   1      32.004  23.771  23.965  1.00  0.00     0.200 C 
ATOM     20  C   UNL A   1      30.612  23.561  23.348  1.00  0.00     0.077 C 
BRANCH  19  21
ATOM     21  N   UNL A   1      32.666  22.552  24.509  1.00  0.00    -0.331 N 
ATOM     22  C   UNL A   1      32.529  22.288  25.943  1.00  0.00     0.262 C 
ATOM     23  C   UNL A   1      32.364  21.360  23.711  1.00  0.00     0.262 C 
ATOM     24  H   UNL A   1      33.656  22.784  24.417  1.00  0.00     0.348 HD
ATOM     25  C   UNL A   1      33.401  21.115  26.410  1.00  0.00     0.062 C 
ATOM     26  C   UNL A   1      33.284  20.199  24.080  1.00  0.00     0.062 C 
ATOM     27  C   UNL A   1      33.200  19.867  25.564  1.00  0.00     0.012 C 
ENDBRANCH  19  21
ENDBRANCH  18  19
ENDBRANCH  16  18
ENDBRANCH  10  16
ENDBRANCH   7   9
ENDBRANCH   6   7
ENDBRANCH   5   6
ENDBRANCH   4   5
ENDBRANCH   3   4
ENDBRANCH   2   3
ENDBRANCH   1   2
BRANCH   1  28
ATOM     28  O   UNL A   1      34.361  34.778  27.562  1.00  0.00    -0.377 OA
BRANCH  28  29
ATOM     29  C   UNL A   1      34.240  35.839  28.497  1.00  0.00     0.188 C 
BRANCH  29  30
ATOM     30  C   UNL A   1      32.901  36.048  29.228  1.00  0.00     0.188 C 
BRANCH  30  31
ATOM     31  O   UNL A   1      32.985  36.850  30.402  1.00  0.00    -0.376 OA
BRANCH  31  32
ATOM     32  C   UNL A   1      32.374  36.305  31.565  1.00  0.00     0.202 C 
BRANCH  32  33
ATOM     33  C   UNL A   1      33.344  35.677  32.575  1.00  0.00     0.261 C 
BRANCH  33  34
ATOM     34  O   UNL A   1      34.420  34.910  32.010  1.00  0.00    -0.460 OA
BRANCH  34  35
ATOM     35  C   UNL A   1      34.561  33.628  32.415  1.00  0.00     0.338 C 
ATOM     36  O   UNL A   1      33.714  32.922  32.931  1.00  0.00    -0.246 OA
BRANCH  35  37
ATOM     37  C   UNL A   1      35.880  33.159  31.942  1.00  0.00     0.060 A 
ATOM     38  C   UNL A   1      36.611  32.269  32.741  1.00  0.00     0.016 A 
ATOM     39  C   UNL A   1      36.372  33.568  30.700  1.00  0.00     0.016 A 
ATOM     40  C   UNL A   1      37.855  31.810  32.307  1.00  0.00     0.010 A 
ATOM     41  C   UNL A   1      37.628  33.127  30.280  1.00  0.00     0.010 A 
ATOM     42  C   UNL A   1      38.388  32.273  31.097  1.00  0.00    -0.014 A 
BRANCH  42  43
ATOM     43  C   UNL A   1      39.822  32.057  30.794  1.00  0.00     0.031 A 
ATOM     44  C   UNL A   1      40.810  33.048  31.349  1.00  0.00     0.074 A 
ATOM     45  C   UNL A   1      40.245  31.008  30.067  1.00  0.00     0.049 A 
ATOM     46  N   UNL A   1      42.103  33.115  31.179  1.00  0.00    -0.248 NA
ATOM     47  C   UNL A   1      40.258  34.105  32.213  1.00  0.00     0.031 C 
ATOM     48  C   UNL A   1      39.390  29.953  29.526  1.00  0.00     0.029 A 
ATOM     49  N   UNL A   1      41.509  30.660  29.659  1.00  0.00    -0.354 N 
ATOM     50  C   UNL A   1      42.522  34.216  31.917  1.00  0.00     0.074 A 
ATOM     51  C   UNL A   1      41.342  34.805  32.512  1.00  0.00     0.031 C 
ATOM     52  C   UNL A   1      40.158  29.073  28.856  1.00  0.00     0.029 A 
ATOM     53  C   UNL A   1      41.549  29.523  28.888  1.00  0.00     0.049 A 
ATOM     54  H   UNL A   1      42.313  31.177  29.898  1.00  0.00     0.167 HD
ATOM     55  C   UNL A   1      43.778  34.690  32.089  1.00  0.00     0.034 A 
ATOM     56  C   UNL A   1      42.587  28.928  28.265  1.00  0.00     0.034 A 
ATOM     57  C   UNL A   1      44.943  34.110  31.479  1.00  0.00     0.049 A 
ATOM     58  C   UNL A   1      43.964  29.535  28.383  1.00  0.00     0.074 A 
ATOM     59  C   UNL A   1      46.261  34.519  31.582  1.00  0.00     0.029 A 
ATOM     60  N   UNL A   1      44.933  33.001  30.645  1.00  0.00    -0.354 N 
ATOM     61  N   UNL A   1      44.343  30.597  29.055  1.00  0.00    -0.248 NA
ATOM     62  C   UNL A   1      45.053  28.866  27.656  1.00  0.00     0.031 C 
ATOM     63  C   UNL A   1      47.038  33.696  30.763  1.00  0.00     0.029 A 
ATOM     64  C   UNL A   1      46.216  32.729  30.204  1.00  0.00     0.049 A 
ATOM     65  H   UNL A   1      44.131  32.484  30.403  1.00  0.00     0.167 HD
ATOM     66  C   UNL A   1      45.715  30.711  28.849  1.00  0.00     0.074 A 
ATOM     67  C   UNL A   1      46.101  29.610  27.990  1.00  0.00     0.031 C 
ATOM     68  C   UNL A   1      46.580  31.636  29.337  1.00  0.00     0.034 A 
BRANCH  55  69
ATOM     69  C   UNL A   1      43.942  35.922  32.935  1.00  0.00     0.023 A 
ATOM     70  C   UNL A   1      43.678  37.205  32.424  1.00  0.00     0.031 A 
ATOM     71  C   UNL A   1      44.368  35.811  34.270  1.00  0.00     0.131 A 
ATOM     72  C   UNL A   1      43.879  38.331  33.235  1.00  0.00     0.055 A 
ATOM     73  C   UNL A   1      44.507  36.931  35.090  1.00  0.00     0.041 A 
ATOM     74  F   UNL A   1      44.656  34.611  34.796  1.00  0.00    -0.206 F 
ATOM     75  C   UNL A   1      44.269  38.201  34.571  1.00  0.00     0.022 A 
BRANCH  72  76
ATOM     76  S   UNL A   1      43.697  39.978  32.501  1.00  0.00     0.124 S 
ATOM     77  O   UNL A   1      42.707  40.587  33.386  1.00  0.00    -0.237 OA
ATOM     78  O   UNL A   1      45.049  40.518  32.588  1.00  0.00    -0.237 OA
ATOM     79  O   UNL A   1      43.225  39.699  31.146  1.00  0.00    -0.744 OA
ENDBRANCH  72  76
ENDBRANCH  55  69
BRANCH  56  80
ATOM     80  C   UNL A   1      42.364  27.711  27.434  1.00  0.00     0.023 A 
ATOM     81  C   UNL A   1      42.581  26.426  27.954  1.00  0.00     0.031 A 
ATOM     82  C   UNL A   1      41.945  27.823  26.097  1.00  0.00     0.131 A 
ATOM     83  C   UNL A   1      42.397  25.301  27.134  1.00  0.00     0.055 A 
ATOM     84  C   UNL A   1      41.729  26.700  25.296  1.00  0.00     0.041 A 
ATOM     85  F   UNL A   1      41.727  29.031  25.553  1.00  0.00    -0.206 F 
ATOM     86  C   UNL A   1      41.960  25.429  25.813  1.00  0.00     0.022 A 
BRANCH  83  87
ATOM     87  S   UNL A   1      42.761  23.657  27.810  1.00  0.00     0.124 S 
ATOM     88  O   UNL A   1      41.618  22.883  27.341  1.00  0.00    -0.237 OA
ATOM     89  O   UNL A   1      44.045  23.348  27.187  1.00  0.00    -0.237 OA
ATOM     90  O   UNL A   1      42.813  23.885  29.253  1.00  0.00    -0.744 OA
ENDBRANCH  83  87
ENDBRANCH  56  80
BRANCH  68  91
ATOM     91  C   UNL A   1      48.038  31.486  28.987  1.00  0.00     0.023 A 
ATOM     92  C   UNL A   1      48.606  32.157  27.892  1.00  0.00     0.031 A 
ATOM     93  C   UNL A   1      48.880  30.713  29.806  1.00  0.00     0.131 A 
ATOM     94  C   UNL A   1      49.979  32.025  27.633  1.00  0.00     0.055 A 
ATOM     95  C   UNL A   1      50.251  30.619  29.569  1.00  0.00     0.041 A 
ATOM     96  F   UNL A   1      48.383  30.057  30.869  1.00  0.00    -0.206 F 
ATOM     97  C   UNL A   1      50.807  31.275  28.474  1.00  0.00     0.022 A 
BRANCH  94  98
ATOM     98  S   UNL A   1      50.674  32.831  26.165  1.00  0.00     0.124 S 
ATOM     99  O   UNL A   1      49.492  33.445  25.569  1.00  0.00    -0.237 OA
ATOM    100  O   UNL A   1      51.649  33.752  26.740  1.00  0.00    -0.237 OA
ATOM    101  O   UNL A   1      51.248  31.723  25.403  1.00  0.00    -0.744 OA
ENDBRANCH  94  98
ENDBRANCH  68  91
ENDBRANCH  42  43
ENDBRANCH  35  37
ENDBRANCH  34  35
ENDBRANCH  33  34
ENDBRANCH  32  33
ENDBRANCH  31  32
ENDBRANCH  30  31
ENDBRANCH  29  30
ENDBRANCH  28  29
ENDBRANCH   1  28
TORSDOF 27
ENDMDL
MODEL 3
REMARK VINA RESULT:      -8.2      4.111      6.330
REMARK SMILES C[C@@H](CNc1cccc(F)c1C(=O)OCCOCCOCCOCCOC(=O)c1ccc(-c2c3nc(c(-c4cc(S(=O)(=O)[O-])ccc4F)c4ccc([nH]4)c(-c4cc(S(=O)(=O)[O-])ccc4F)c4nc(c(-c5cc(S(=O)(=O)[O-])ccc5F)c5ccc2[nH]5)C=C4)C=C3)cc1)[NH+]1CCCCC1
REMARK SMILES IDX 19 1 18 2 17 3 16 4 15 5 14 6 12 7 13 8 11 9 5 10 6 11 7 12
REMARK SMILES IDX 9 13 8 14 10 15 4 16 3 18 2 19 1 20 92 21 93 22 97 23 94 25
REMARK SMILES IDX 96 26 95 27 20 28 21 29 22 30 23 31 24 32 25 33 26 34 27 35
REMARK SMILES IDX 28 36 29 37 30 38 91 39 31 40 90 41 32 42 33 43 34 44 84 45
REMARK SMILES IDX 35 46 89 47 83 48 85 49 36 50 88 51 82 52 81 53 37 55 69 56
REMARK SMILES IDX 49 57 68 58 50 59 53 60 67 61 86 62 51 63 52 64 66 66 87 67
REMARK SMILES IDX 54 68 38 69 39 70 47 71 40 72 46 73 48 74 45 75 41 76 42 77
REMARK SMILES IDX 43 78 44 79 70 80 71 81 79 82 72 83 78 84 80 85 77 86 73 87
REMARK SMILES IDX 74 88 75 89 76 90 55 91 56 92 64 93 57 94 63 95 65 96 62 97
REMARK SMILES IDX 58 98 59 99 60 100 61 101
REMARK H PARENT 4 17 92 24 85 54 53 65
REMARK Flexibility Score: inf
ROOT
ATOM      1  C   UNL A   1      34.329  31.687  28.418  1.00  0.00     0.188 C 
ENDROOT
BRANCH   1   2
ATOM      2  C   UNL A   1      33.724  30.818  27.301  1.00  0.00     0.188 C 
BRANCH   2   3
ATOM      3  O   UNL A   1      34.133  29.455  27.275  1.00  0.00    -0.376 OA
BRANCH   3   4
ATOM      4  C   UNL A   1      33.273  28.555  26.586  1.00  0.00     0.202 C 
BRANCH   4   5
ATOM      5  C   UNL A   1      33.558  28.401  25.088  1.00  0.00     0.261 C 
BRANCH   5   6
ATOM      6  O   UNL A   1      32.746  29.257  24.269  1.00  0.00    -0.460 OA
BRANCH   6   7
ATOM      7  C   UNL A   1      32.291  28.715  23.120  1.00  0.00     0.343 C 
ATOM      8  O   UNL A   1      32.949  28.484  22.119  1.00  0.00    -0.246 OA
BRANCH   7   9
ATOM      9  C   UNL A   1      30.908  28.256  23.285  1.00  0.00     0.118 A 
ATOM     10  C   UNL A   1      30.608  26.872  23.245  1.00  0.00     0.052 A 
ATOM     11  C   UNL A   1      29.264  26.507  23.397  1.00  0.00     0.027 A 
ATOM     12  C   UNL A   1      28.256  27.476  23.515  1.00  0.00     0.005 A 
ATOM     13  C   UNL A   1      29.908  29.216  23.415  1.00  0.00     0.139 A 
ATOM     14  C   UNL A   1      28.579  28.831  23.520  1.00  0.00     0.040 A 
ATOM     15  F   UNL A   1      30.202  30.524  23.404  1.00  0.00    -0.206 F 
BRANCH  10  16
ATOM     16  N   UNL A   1      31.626  25.936  23.159  1.00  0.00    -0.378 N 
ATOM     17  H   UNL A   1      32.327  26.106  22.489  1.00  0.00     0.160 HD
BRANCH  16  18
ATOM     18  C   UNL A   1      31.768  24.724  23.959  1.00  0.00     0.177 C 
BRANCH  18  19
ATOM     19  C   UNL A   1      33.194  24.718  24.621  1.00  0.00     0.200 C 
ATOM     20  C   UNL A   1      34.270  24.903  23.539  1.00  0.00     0.077 C 
BRANCH  19  21
ATOM     21  N   UNL A   1      33.322  23.495  25.463  1.00  0.00    -0.331 N 
ATOM     22  C   UNL A   1      34.497  22.646  25.252  1.00  0.00     0.262 C 
ATOM     23  C   UNL A   1      33.113  23.782  26.885  1.00  0.00     0.262 C 
ATOM     24  H   UNL A   1      32.560  22.912  25.115  1.00  0.00     0.348 HD
ATOM     25  C   UNL A   1      34.421  21.332  26.042  1.00  0.00     0.062 C 
ATOM     26  C   UNL A   1      32.932  22.496  27.688  1.00  0.00     0.062 C 
ATOM     27  C   UNL A   1      34.117  21.556  27.516  1.00  0.00     0.012 C 
ENDBRANCH  19  21
ENDBRANCH  18  19
ENDBRANCH  16  18
ENDBRANCH  10  16
ENDBRANCH   7   9
ENDBRANCH   6   7
ENDBRANCH   5   6
ENDBRANCH   4   5
ENDBRANCH   3   4
ENDBRANCH   2   3
ENDBRANCH   1   2
BRANCH   1  28
ATOM     28  O   UNL A   1      34.459  33.091  28.253  1.00  0.00    -0.377 OA
BRANCH  28  29
ATOM     29  C   UNL A   1      34.967  33.879  29.319  1.00  0.00     0.188 C 
BRANCH  29  30
ATOM     30  C   UNL A   1      36.331  33.521  29.936  1.00  0.00     0.188 C 
BRANCH  30  31
ATOM     31  O   UNL A   1      36.354  33.512  31.360  1.00  0.00    -0.376 OA
BRANCH  31  32
ATOM     32  C   UNL A   1      35.646  32.446  31.980  1.00  0.00     0.202 C 
BRANCH  32  33
ATOM     33  C   UNL A   1      36.089  31.039  31.559  1.00  0.00     0.261 C 
BRANCH  33  34
ATOM     34  O   UNL A   1      37.421  30.940  31.027  1.00  0.00    -0.460 OA
BRANCH  34  35
ATOM     35  C   UNL A   1      37.728  29.846  30.295  1.00  0.00     0.338 C 
ATOM     36  O   UNL A   1      37.087  29.374  29.374  1.00  0.00    -0.246 OA
BRANCH  35  37
ATOM     37  C   UNL A   1      39.091  29.426  30.679  1.00  0.00     0.060 A 
ATOM     38  C   UNL A   1      40.173  30.260  30.367  1.00  0.00     0.016 A 
ATOM     39  C   UNL A   1      39.292  28.233  31.377  1.00  0.00     0.016 A 
ATOM     40  C   UNL A   1      41.466  29.883  30.729  1.00  0.00     0.010 A 
ATOM     41  C   UNL A   1      40.590  27.845  31.715  1.00  0.00     0.010 A 
ATOM     42  C   UNL A   1      41.684  28.653  31.363  1.00  0.00    -0.014 A 
BRANCH  42  43
ATOM     43  C   UNL A   1      43.057  28.101  31.450  1.00  0.00     0.031 A 
ATOM     44  C   UNL A   1      43.796  28.267  32.750  1.00  0.00     0.074 A 
ATOM     45  C   UNL A   1      43.628  27.455  30.419  1.00  0.00     0.049 A 
ATOM     46  N   UNL A   1      45.019  27.929  33.059  1.00  0.00    -0.248 NA
ATOM     47  C   UNL A   1      43.048  28.902  33.849  1.00  0.00     0.031 C 
ATOM     48  C   UNL A   1      42.992  27.182  29.131  1.00  0.00     0.029 A 
ATOM     49  N   UNL A   1      44.882  26.910  30.297  1.00  0.00    -0.354 N 
ATOM     50  C   UNL A   1      45.187  28.304  34.387  1.00  0.00     0.074 A 
ATOM     51  C   UNL A   1      43.952  28.922  34.816  1.00  0.00     0.031 C 
ATOM     52  C   UNL A   1      43.862  26.518  28.348  1.00  0.00     0.029 A 
ATOM     53  C   UNL A   1      45.127  26.353  29.064  1.00  0.00     0.049 A 
ATOM     54  H   UNL A   1      45.545  26.915  31.025  1.00  0.00     0.167 HD
ATOM     55  C   UNL A   1      46.272  28.142  35.179  1.00  0.00     0.034 A 
ATOM     56  C   UNL A   1      46.251  25.797  28.566  1.00  0.00     0.034 A 
ATOM     57  C   UNL A   1      47.503  27.543  34.739  1.00  0.00     0.049 A 
ATOM     58  C   UNL A   1      47.484  25.721  29.433  1.00  0.00     0.074 A 
ATOM     59  C   UNL A   1      48.666  27.340  35.461  1.00  0.00     0.029 A 
ATOM     60  N   UNL A   1      47.736  27.059  33.460  1.00  0.00    -0.354 N 
ATOM     61  N   UNL A   1      47.643  26.112  30.676  1.00  0.00    -0.248 NA
ATOM     62  C   UNL A   1      48.690  25.136  28.830  1.00  0.00     0.031 C 
ATOM     63  C   UNL A   1      49.621  26.789  34.602  1.00  0.00     0.029 A 
ATOM     64  C   UNL A   1      49.033  26.583  33.364  1.00  0.00     0.049 A 
ATOM     65  H   UNL A   1      47.077  27.054  32.729  1.00  0.00     0.167 HD
ATOM     66  C   UNL A   1      48.958  25.799  31.010  1.00  0.00     0.074 A 
ATOM     67  C   UNL A   1      49.552  25.189  29.838  1.00  0.00     0.031 C 
ATOM     68  C   UNL A   1      49.612  25.990  32.184  1.00  0.00     0.034 A 
BRANCH  55  69
ATOM     69  C   UNL A   1      46.184  28.664  36.587  1.00  0.00     0.023 A 
ATOM     70  C   UNL A   1      45.846  27.825  37.662  1.00  0.00     0.031 A 
ATOM     71  C   UNL A   1      46.444  30.019  36.855  1.00  0.00     0.131 A 
ATOM     72  C   UNL A   1      45.739  28.359  38.954  1.00  0.00     0.055 A 
ATOM     73  C   UNL A   1      46.396  30.531  38.152  1.00  0.00     0.041 A 
ATOM     74  F   UNL A   1      46.748  30.865  35.859  1.00  0.00    -0.206 F 
ATOM     75  C   UNL A   1      46.035  29.701  39.210  1.00  0.00     0.022 A 
BRANCH  72  76
ATOM     76  S   UNL A   1      45.135  27.295  40.291  1.00  0.00     0.124 S 
ATOM     77  O   UNL A   1      44.111  26.512  39.604  1.00  0.00    -0.237 OA
ATOM     78  O   UNL A   1      46.335  26.568  40.688  1.00  0.00    -0.237 OA
ATOM     79  O   UNL A   1      44.627  28.243  41.281  1.00  0.00    -0.744 OA
ENDBRANCH  72  76
ENDBRANCH  55  69
BRANCH  56  80
ATOM     80  C   UNL A   1      46.282  25.302  27.161  1.00  0.00     0.023 A 
ATOM     81  C   UNL A   1      45.739  24.054  26.817  1.00  0.00     0.031 A 
ATOM     82  C   UNL A   1      46.874  26.070  26.142  1.00  0.00     0.131 A 
ATOM     83  C   UNL A   1      45.817  23.601  25.490  1.00  0.00     0.055 A 
ATOM     84  C   UNL A   1      46.917  25.630  24.818  1.00  0.00     0.041 A 
ATOM     85  F   UNL A   1      47.410  27.269  26.422  1.00  0.00    -0.206 F 
ATOM     86  C   UNL A   1      46.390  24.386  24.487  1.00  0.00     0.022 A 
BRANCH  83  87
ATOM     87  S   UNL A   1      45.178  21.950  25.091  1.00  0.00     0.124 S 
ATOM     88  O   UNL A   1      46.378  21.131  25.206  1.00  0.00    -0.237 OA
ATOM     89  O   UNL A   1      44.165  21.755  26.124  1.00  0.00    -0.237 OA
ATOM     90  O   UNL A   1      44.655  22.107  23.734  1.00  0.00    -0.744 OA
ENDBRANCH  83  87
ENDBRANCH  56  80
BRANCH  68  91
ATOM     91  C   UNL A   1      51.034  25.504  32.281  1.00  0.00     0.023 A 
ATOM     92  C   UNL A   1      51.337  24.168  32.594  1.00  0.00     0.031 A 
ATOM     93  C   UNL A   1      52.096  26.379  31.991  1.00  0.00     0.131 A 
ATOM     94  C   UNL A   1      52.676  23.749  32.628  1.00  0.00     0.055 A 
ATOM     95  C   UNL A   1      53.422  25.947  31.984  1.00  0.00     0.041 A 
ATOM     96  F   UNL A   1      51.856  27.664  31.681  1.00  0.00    -0.206 F 
ATOM     97  C   UNL A   1      53.718  24.625  32.308  1.00  0.00     0.022 A 
BRANCH  94  98
ATOM     98  S   UNL A   1      53.048  22.043  33.116  1.00  0.00     0.124 S 
ATOM     99  O   UNL A   1      54.500  22.000  32.980  1.00  0.00    -0.237 OA
ATOM    100  O   UNL A   1      52.535  21.985  34.482  1.00  0.00    -0.237 OA
ATOM    101  O   UNL A   1      52.309  21.238  32.146  1.00  0.00    -0.744 OA
ENDBRANCH  94  98
ENDBRANCH  68  91
ENDBRANCH  42  43
ENDBRANCH  35  37
ENDBRANCH  34  35
ENDBRANCH  33  34
ENDBRANCH  32  33
ENDBRANCH  31  32
ENDBRANCH  30  31
ENDBRANCH  29  30
ENDBRANCH  28  29
ENDBRANCH   1  28
TORSDOF 27
ENDMDL
