MODEL 1
REMARK VINA RESULT:     -10.5      0.000      0.000
REMARK SMILES C/C(=N\NC(N)=S)c1nnn(-c2ccc(C(=O)OCCOCCOCCOCCOC(=O)c3ccc(-c4c5nc(c(-c6cc(S(=O)(=O)[O-])ccc6F)c6ccc([nH]6)c(-c6cc(S(=O)(=O)[O-])ccc6F)c6nc(c(-c7cc(S(=O)(=O)[O-])ccc7F)c7ccc4[nH]7)C=C6)C=C5)cc3)cc2)c1C
REMARK SMILES IDX 23 1 22 2 21 3 20 4 19 5 18 6 16 7 17 8 15 9 12 10 13 11
REMARK SMILES IDX 97 12 14 13 96 14 11 15 8 16 9 17 98 18 10 19 99 20 2 21
REMARK SMILES IDX 1 22 3 23 4 24 5 26 7 27 6 28 24 31 25 32 26 33 27 34 28 35
REMARK SMILES IDX 29 36 30 37 31 38 32 39 33 40 34 41 95 42 35 43 94 44 36 45
REMARK SMILES IDX 37 46 38 47 88 48 39 49 93 50 87 51 89 52 40 53 92 54 86 55
REMARK SMILES IDX 85 56 41 58 73 59 53 60 72 61 54 62 57 63 71 64 90 65 55 66
REMARK SMILES IDX 56 67 70 69 91 70 58 71 42 72 43 73 51 74 44 75 50 76 52 77
REMARK SMILES IDX 49 78 45 79 46 80 47 81 48 82 74 83 75 84 83 85 76 86 82 87
REMARK SMILES IDX 84 88 81 89 77 90 78 91 79 92 80 93 59 94 60 95 68 96 61 97
REMARK SMILES IDX 67 98 69 99 66 100 62 101 63 102 64 103 65 104
REMARK H PARENT 4 25 6 29 6 30 89 57 57 68
REMARK Flexibility Score: inf
ROOT
ATOM      1  C   UNL A   1      30.373  31.404  25.327  1.00  0.00     0.188 C 
ENDROOT
BRANCH   1   2
ATOM      2  C   UNL A   1      30.206  32.873  24.870  1.00  0.00     0.188 C 
BRANCH   2   3
ATOM      3  O   UNL A   1      29.602  33.255  23.635  1.00  0.00    -0.376 OA
BRANCH   3   4
ATOM      4  C   UNL A   1      28.746  32.377  22.925  1.00  0.00     0.202 C 
BRANCH   4   5
ATOM      5  C   UNL A   1      27.660  31.647  23.717  1.00  0.00     0.261 C 
BRANCH   5   6
ATOM      6  O   UNL A   1      27.101  30.524  23.032  1.00  0.00    -0.460 OA
BRANCH   6   7
ATOM      7  C   UNL A   1      27.909  29.974  22.098  1.00  0.00     0.338 C 
ATOM      8  O   UNL A   1      28.145  30.393  20.979  1.00  0.00    -0.246 OA
BRANCH   7   9
ATOM      9  C   UNL A   1      28.594  28.799  22.678  1.00  0.00     0.060 A 
ATOM     10  C   UNL A   1      29.785  26.709  24.036  1.00  0.00     0.067 A 
ATOM     11  C   UNL A   1      28.392  26.725  23.909  1.00  0.00     0.029 A 
ATOM     12  C   UNL A   1      30.588  27.637  23.362  1.00  0.00     0.029 A 
ATOM     13  C   UNL A   1      27.798  27.796  23.253  1.00  0.00     0.018 A 
ATOM     14  C   UNL A   1      29.988  28.684  22.670  1.00  0.00     0.018 A 
BRANCH  10  15
ATOM     15  N   UNL A   1      30.335  25.940  25.083  1.00  0.00    -0.217 N 
ATOM     16  C   UNL A   1      31.731  24.599  26.078  1.00  0.00     0.132 A 
ATOM     17  N   UNL A   1      31.491  25.663  26.901  1.00  0.00    -0.128 NA
ATOM     18  C   UNL A   1      31.010  24.739  24.910  1.00  0.00     0.071 A 
ATOM     19  N   UNL A   1      30.675  26.495  26.271  1.00  0.00    -0.061 NA
ATOM     20  C   UNL A   1      31.097  23.990  23.630  1.00  0.00     0.069 C 
BRANCH  16  21
ATOM     21  C   UNL A   1      32.783  23.641  26.340  1.00  0.00     0.087 C 
ATOM     22  C   UNL A   1      32.468  22.560  27.344  1.00  0.00     0.071 C 
ATOM     23  N   UNL A   1      33.896  23.820  25.690  1.00  0.00    -0.176 NA
BRANCH  23  24
ATOM     24  N   UNL A   1      34.921  22.940  25.874  1.00  0.00    -0.254 N 
ATOM     25  H   UNL A   1      34.799  22.246  26.561  1.00  0.00     0.193 HD
BRANCH  24  26
ATOM     26  C   UNL A   1      36.114  22.935  25.180  1.00  0.00     0.184 C 
ATOM     27  S   UNL A   1      37.650  23.245  25.737  1.00  0.00    -0.040 S 
BRANCH  26  28
ATOM     28  N   UNL A   1      35.949  22.607  23.864  1.00  0.00    -0.375 N 
ATOM     29  H   UNL A   1      36.617  22.043  23.410  1.00  0.00     0.159 HD
ATOM     30  H   UNL A   1      35.164  22.935  23.369  1.00  0.00     0.159 HD
ENDBRANCH  26  28
ENDBRANCH  24  26
ENDBRANCH  23  24
ENDBRANCH  16  21
ENDBRANCH  10  15
ENDBRANCH   7   9
ENDBRANCH   6   7
ENDBRANCH   5   6
ENDBRANCH   4   5
ENDBRANCH   3   4
ENDBRANCH   2   3
ENDBRANCH   1   2
BRANCH   1  31
ATOM     31  O   UNL A   1      31.707  30.959  25.521  1.00  0.00    -0.377 OA
BRANCH  31  32
ATOM     32  C   UNL A   1      32.060  30.728  26.884  1.00  0.00     0.188 C 
BRANCH  32  33
ATOM     33  C   UNL A   1      33.111  31.693  27.470  1.00  0.00     0.188 C 
BRANCH  33  34
ATOM     34  O   UNL A   1      34.448  31.208  27.357  1.00  0.00    -0.376 OA
BRANCH  34  35
ATOM     35  C   UNL A   1      35.501  32.000  27.887  1.00  0.00     0.202 C 
BRANCH  35  36
ATOM     36  C   UNL A   1      35.708  31.779  29.382  1.00  0.00     0.261 C 
BRANCH  36  37
ATOM     37  O   UNL A   1      36.924  31.113  29.691  1.00  0.00    -0.460 OA
BRANCH  37  38
ATOM     38  C   UNL A   1      36.816  29.939  30.348  1.00  0.00     0.338 C 
ATOM     39  O   UNL A   1      36.249  29.728  31.401  1.00  0.00    -0.246 OA
BRANCH  38  40
ATOM     40  C   UNL A   1      37.603  28.937  29.626  1.00  0.00     0.060 A 
ATOM     41  C   UNL A   1      38.141  27.916  30.410  1.00  0.00     0.016 A 
ATOM     42  C   UNL A   1      38.078  29.240  28.342  1.00  0.00     0.016 A 
ATOM     43  C   UNL A   1      39.355  27.400  30.034  1.00  0.00     0.010 A 
ATOM     44  C   UNL A   1      39.305  28.752  27.987  1.00  0.00     0.010 A 
ATOM     45  C   UNL A   1      39.962  27.918  28.890  1.00  0.00    -0.014 A 
BRANCH  45  46
ATOM     46  C   UNL A   1      41.344  27.582  28.656  1.00  0.00     0.031 A 
ATOM     47  C   UNL A   1      41.534  26.297  27.978  1.00  0.00     0.074 A 
ATOM     48  C   UNL A   1      42.336  28.446  28.921  1.00  0.00     0.049 A 
ATOM     49  N   UNL A   1      42.032  25.213  28.466  1.00  0.00    -0.248 NA
ATOM     50  C   UNL A   1      40.911  26.141  26.656  1.00  0.00     0.031 C 
ATOM     51  C   UNL A   1      42.210  29.858  29.289  1.00  0.00     0.029 A 
ATOM     52  N   UNL A   1      43.675  28.270  28.776  1.00  0.00    -0.354 N 
ATOM     53  C   UNL A   1      42.010  24.305  27.416  1.00  0.00     0.074 A 
ATOM     54  C   UNL A   1      41.081  24.837  26.462  1.00  0.00     0.031 C 
ATOM     55  C   UNL A   1      43.407  30.460  29.113  1.00  0.00     0.029 A 
ATOM     56  C   UNL A   1      44.388  29.458  28.722  1.00  0.00     0.049 A 
ATOM     57  H   UNL A   1      44.098  27.385  28.715  1.00  0.00     0.167 HD
ATOM     58  C   UNL A   1      42.979  23.360  27.291  1.00  0.00     0.034 A 
ATOM     59  C   UNL A   1      45.660  29.612  28.278  1.00  0.00     0.034 A 
ATOM     60  C   UNL A   1      43.686  23.181  28.548  1.00  0.00     0.049 A 
ATOM     61  C   UNL A   1      46.320  28.281  28.340  1.00  0.00     0.074 A 
ATOM     62  C   UNL A   1      43.289  22.873  29.837  1.00  0.00     0.029 A 
ATOM     63  N   UNL A   1      44.965  23.686  28.670  1.00  0.00    -0.354 N 
ATOM     64  N   UNL A   1      46.582  27.653  29.453  1.00  0.00    -0.248 NA
ATOM     65  C   UNL A   1      46.304  27.435  27.153  1.00  0.00     0.031 C 
ATOM     66  C   UNL A   1      44.152  23.616  30.693  1.00  0.00     0.029 A 
ATOM     67  C   UNL A   1      45.071  24.300  29.894  1.00  0.00     0.049 A 
ATOM     68  H   UNL A   1      45.679  23.619  27.994  1.00  0.00     0.167 HD
ATOM     69  C   UNL A   1      46.342  26.314  29.183  1.00  0.00     0.074 A 
ATOM     70  C   UNL A   1      46.305  26.227  27.728  1.00  0.00     0.031 C 
ATOM     71  C   UNL A   1      45.903  25.462  30.158  1.00  0.00     0.034 A 
BRANCH  58  72
ATOM     72  C   UNL A   1      43.551  22.920  25.952  1.00  0.00     0.023 A 
ATOM     73  C   UNL A   1      43.589  21.534  25.728  1.00  0.00     0.031 A 
ATOM     74  C   UNL A   1      44.304  23.697  25.037  1.00  0.00     0.131 A 
ATOM     75  C   UNL A   1      44.479  20.975  24.799  1.00  0.00     0.055 A 
ATOM     76  C   UNL A   1      45.138  23.136  24.065  1.00  0.00     0.041 A 
ATOM     77  F   UNL A   1      44.338  25.032  25.048  1.00  0.00    -0.206 F 
ATOM     78  C   UNL A   1      45.270  21.766  23.974  1.00  0.00     0.022 A 
BRANCH  75  79
ATOM     79  S   UNL A   1      44.735  19.188  24.863  1.00  0.00     0.124 S 
ATOM     80  O   UNL A   1      43.490  18.747  25.484  1.00  0.00    -0.237 OA
ATOM     81  O   UNL A   1      44.904  18.865  23.451  1.00  0.00    -0.237 OA
ATOM     82  O   UNL A   1      45.932  19.050  25.688  1.00  0.00    -0.744 OA
ENDBRANCH  75  79
ENDBRANCH  58  72
BRANCH  59  83
ATOM     83  C   UNL A   1      46.215  30.791  27.566  1.00  0.00     0.023 A 
ATOM     84  C   UNL A   1      45.421  31.608  26.740  1.00  0.00     0.031 A 
ATOM     85  C   UNL A   1      47.521  31.257  27.851  1.00  0.00     0.131 A 
ATOM     86  C   UNL A   1      45.943  32.814  26.224  1.00  0.00     0.055 A 
ATOM     87  C   UNL A   1      48.043  32.434  27.313  1.00  0.00     0.041 A 
ATOM     88  F   UNL A   1      48.314  30.627  28.733  1.00  0.00    -0.206 F 
ATOM     89  C   UNL A   1      47.250  33.224  26.499  1.00  0.00     0.022 A 
BRANCH  86  90
ATOM     90  S   UNL A   1      44.870  33.940  25.280  1.00  0.00     0.124 S 
ATOM     91  O   UNL A   1      44.221  34.707  26.336  1.00  0.00    -0.237 OA
ATOM     92  O   UNL A   1      45.828  34.660  24.447  1.00  0.00    -0.237 OA
ATOM     93  O   UNL A   1      43.989  33.032  24.546  1.00  0.00    -0.744 OA
ENDBRANCH  86  90
ENDBRANCH  59  83
BRANCH  71  94
ATOM     94  C   UNL A   1      46.074  25.874  31.608  1.00  0.00     0.023 A 
ATOM     95  C   UNL A   1      45.021  26.276  32.457  1.00  0.00     0.031 A 
ATOM     96  C   UNL A   1      47.356  25.754  32.175  1.00  0.00     0.131 A 
ATOM     97  C   UNL A   1      45.275  26.560  33.812  1.00  0.00     0.055 A 
ATOM     98  C   UNL A   1      47.602  26.019  33.522  1.00  0.00     0.041 A 
ATOM     99  F   UNL A   1      48.398  25.345  31.430  1.00  0.00    -0.206 F 
ATOM    100  C   UNL A   1      46.561  26.431  34.345  1.00  0.00     0.022 A 
BRANCH  97 101
ATOM    101  S   UNL A   1      43.933  27.125  34.906  1.00  0.00     0.124 S 
ATOM    102  O   UNL A   1      42.805  27.312  34.003  1.00  0.00    -0.237 OA
ATOM    103  O   UNL A   1      43.817  26.018  35.853  1.00  0.00    -0.237 OA
ATOM    104  O   UNL A   1      44.465  28.361  35.481  1.00  0.00    -0.744 OA
ENDBRANCH  97 101
ENDBRANCH  71  94
ENDBRANCH  45  46
ENDBRANCH  38  40
ENDBRANCH  37  38
ENDBRANCH  36  37
ENDBRANCH  35  36
ENDBRANCH  34  35
ENDBRANCH  33  34
ENDBRANCH  32  33
ENDBRANCH  31  32
ENDBRANCH   1  31
TORSDOF 28
ENDMDL
MODEL 2
REMARK VINA RESULT:     -10.0      2.678      3.590
REMARK SMILES C/C(=N\NC(N)=S)c1nnn(-c2ccc(C(=O)OCCOCCOCCOCCOC(=O)c3ccc(-c4c5nc(c(-c6cc(S(=O)(=O)[O-])ccc6F)c6ccc([nH]6)c(-c6cc(S(=O)(=O)[O-])ccc6F)c6nc(c(-c7cc(S(=O)(=O)[O-])ccc7F)c7ccc4[nH]7)C=C6)C=C5)cc3)cc2)c1C
REMARK SMILES IDX 23 1 22 2 21 3 20 4 19 5 18 6 16 7 17 8 15 9 12 10 13 11
REMARK SMILES IDX 97 12 14 13 96 14 11 15 8 16 9 17 98 18 10 19 99 20 2 21
REMARK SMILES IDX 1 22 3 23 4 24 5 26 7 27 6 28 24 31 25 32 26 33 27 34 28 35
REMARK SMILES IDX 29 36 30 37 31 38 32 39 33 40 34 41 95 42 35 43 94 44 36 45
REMARK SMILES IDX 37 46 38 47 88 48 39 49 93 50 87 51 89 52 40 53 92 54 86 55
REMARK SMILES IDX 85 56 41 58 73 59 53 60 72 61 54 62 57 63 71 64 90 65 55 66
REMARK SMILES IDX 56 67 70 69 91 70 58 71 42 72 43 73 51 74 44 75 50 76 52 77
REMARK SMILES IDX 49 78 45 79 46 80 47 81 48 82 74 83 75 84 83 85 76 86 82 87
REMARK SMILES IDX 84 88 81 89 77 90 78 91 79 92 80 93 59 94 60 95 68 96 61 97
REMARK SMILES IDX 67 98 69 99 66 100 62 101 63 102 64 103 65 104
REMARK H PARENT 4 25 6 29 6 30 89 57 57 68
REMARK Flexibility Score: inf
ROOT
ATOM      1  C   UNL A   1      31.969  29.183  24.933  1.00  0.00     0.188 C 
ENDROOT
BRANCH   1   2
ATOM      2  C   UNL A   1      33.126  29.274  23.910  1.00  0.00     0.188 C 
BRANCH   2   3
ATOM      3  O   UNL A   1      33.024  28.830  22.558  1.00  0.00    -0.376 OA
BRANCH   3   4
ATOM      4  C   UNL A   1      33.490  27.553  22.159  1.00  0.00     0.202 C 
BRANCH   4   5
ATOM      5  C   UNL A   1      32.481  26.405  22.132  1.00  0.00     0.261 C 
BRANCH   5   6
ATOM      6  O   UNL A   1      31.118  26.832  22.066  1.00  0.00    -0.460 OA
BRANCH   6   7
ATOM      7  C   UNL A   1      30.384  26.544  23.165  1.00  0.00     0.338 C 
ATOM      8  O   UNL A   1      29.346  27.070  23.524  1.00  0.00    -0.246 OA
BRANCH   7   9
ATOM      9  C   UNL A   1      30.972  25.372  23.849  1.00  0.00     0.060 A 
ATOM     10  C   UNL A   1      32.342  23.285  25.029  1.00  0.00     0.067 A 
ATOM     11  C   UNL A   1      32.417  24.554  25.610  1.00  0.00     0.029 A 
ATOM     12  C   UNL A   1      31.471  23.021  23.965  1.00  0.00     0.029 A 
ATOM     13  C   UNL A   1      31.751  25.607  24.993  1.00  0.00     0.018 A 
ATOM     14  C   UNL A   1      30.773  24.072  23.377  1.00  0.00     0.018 A 
BRANCH  10  15
ATOM     15  N   UNL A   1      33.369  22.366  25.334  1.00  0.00    -0.217 N 
ATOM     16  C   UNL A   1      35.398  21.606  25.529  1.00  0.00     0.132 A 
ATOM     17  N   UNL A   1      34.718  21.324  26.680  1.00  0.00    -0.128 NA
ATOM     18  C   UNL A   1      34.570  22.268  24.645  1.00  0.00     0.071 A 
ATOM     19  N   UNL A   1      33.497  21.828  26.570  1.00  0.00    -0.061 NA
ATOM     20  C   UNL A   1      34.885  22.980  23.381  1.00  0.00     0.069 C 
BRANCH  16  21
ATOM     21  C   UNL A   1      36.831  21.439  25.417  1.00  0.00     0.087 C 
ATOM     22  C   UNL A   1      37.310  20.125  24.852  1.00  0.00     0.071 C 
ATOM     23  N   UNL A   1      37.558  22.437  25.828  1.00  0.00    -0.176 NA
BRANCH  23  24
ATOM     24  N   UNL A   1      38.915  22.355  25.731  1.00  0.00    -0.254 N 
ATOM     25  H   UNL A   1      39.292  22.174  24.840  1.00  0.00     0.193 HD
BRANCH  24  26
ATOM     26  C   UNL A   1      39.809  22.504  26.772  1.00  0.00     0.184 C 
ATOM     27  S   UNL A   1      41.155  21.597  27.135  1.00  0.00    -0.040 S 
BRANCH  26  28
ATOM     28  N   UNL A   1      39.506  23.571  27.569  1.00  0.00    -0.375 N 
ATOM     29  H   UNL A   1      39.386  24.465  27.171  1.00  0.00     0.159 HD
ATOM     30  H   UNL A   1      39.408  23.449  28.541  1.00  0.00     0.159 HD
ENDBRANCH  26  28
ENDBRANCH  24  26
ENDBRANCH  23  24
ENDBRANCH  16  21
ENDBRANCH  10  15
ENDBRANCH   7   9
ENDBRANCH   6   7
ENDBRANCH   5   6
ENDBRANCH   4   5
ENDBRANCH   3   4
ENDBRANCH   2   3
ENDBRANCH   1   2
BRANCH   1  31
ATOM     31  O   UNL A   1      31.440  30.420  25.389  1.00  0.00    -0.377 OA
BRANCH  31  32
ATOM     32  C   UNL A   1      31.909  30.825  26.675  1.00  0.00     0.188 C 
BRANCH  32  33
ATOM     33  C   UNL A   1      32.992  29.922  27.301  1.00  0.00     0.188 C 
BRANCH  33  34
ATOM     34  O   UNL A   1      34.307  30.468  27.201  1.00  0.00    -0.376 OA
BRANCH  34  35
ATOM     35  C   UNL A   1      34.525  31.793  27.662  1.00  0.00     0.202 C 
BRANCH  35  36
ATOM     36  C   UNL A   1      35.723  31.900  28.600  1.00  0.00     0.261 C 
BRANCH  36  37
ATOM     37  O   UNL A   1      36.746  30.956  28.321  1.00  0.00    -0.460 OA
BRANCH  37  38
ATOM     38  C   UNL A   1      36.870  29.930  29.189  1.00  0.00     0.338 C 
ATOM     39  O   UNL A   1      36.291  29.780  30.247  1.00  0.00    -0.246 OA
BRANCH  38  40
ATOM     40  C   UNL A   1      37.923  29.039  28.697  1.00  0.00     0.060 A 
ATOM     41  C   UNL A   1      38.192  27.928  29.498  1.00  0.00     0.016 A 
ATOM     42  C   UNL A   1      38.819  29.513  27.729  1.00  0.00     0.016 A 
ATOM     43  C   UNL A   1      39.486  27.477  29.542  1.00  0.00     0.010 A 
ATOM     44  C   UNL A   1      40.116  29.087  27.801  1.00  0.00     0.010 A 
ATOM     45  C   UNL A   1      40.442  28.147  28.776  1.00  0.00    -0.014 A 
BRANCH  45  46
ATOM     46  C   UNL A   1      41.830  27.857  29.035  1.00  0.00     0.031 A 
ATOM     47  C   UNL A   1      42.335  26.688  28.311  1.00  0.00     0.074 A 
ATOM     48  C   UNL A   1      42.598  28.678  29.768  1.00  0.00     0.049 A 
ATOM     49  N   UNL A   1      42.682  25.546  28.798  1.00  0.00    -0.248 NA
ATOM     50  C   UNL A   1      42.257  26.726  26.843  1.00  0.00     0.031 C 
ATOM     51  C   UNL A   1      42.259  30.019  30.249  1.00  0.00     0.029 A 
ATOM     52  N   UNL A   1      43.904  28.533  30.114  1.00  0.00    -0.354 N 
ATOM     53  C   UNL A   1      43.106  24.804  27.705  1.00  0.00     0.074 A 
ATOM     54  C   UNL A   1      42.565  25.466  26.553  1.00  0.00     0.031 C 
ATOM     55  C   UNL A   1      43.397  30.647  30.619  1.00  0.00     0.029 A 
ATOM     56  C   UNL A   1      44.512  29.720  30.493  1.00  0.00     0.049 A 
ATOM     57  H   UNL A   1      44.372  27.669  30.097  1.00  0.00     0.167 HD
ATOM     58  C   UNL A   1      44.107  23.893  27.825  1.00  0.00     0.034 A 
ATOM     59  C   UNL A   1      45.846  29.944  30.584  1.00  0.00     0.034 A 
ATOM     60  C   UNL A   1      44.307  23.534  29.219  1.00  0.00     0.049 A 
ATOM     61  C   UNL A   1      46.516  28.623  30.709  1.00  0.00     0.074 A 
ATOM     62  C   UNL A   1      43.480  23.036  30.211  1.00  0.00     0.029 A 
ATOM     63  N   UNL A   1      45.417  24.023  29.879  1.00  0.00    -0.354 N 
ATOM     64  N   UNL A   1      46.385  27.838  31.743  1.00  0.00    -0.248 NA
ATOM     65  C   UNL A   1      46.993  27.962  29.500  1.00  0.00     0.031 C 
ATOM     66  C   UNL A   1      43.919  23.649  31.420  1.00  0.00     0.029 A 
ATOM     67  C   UNL A   1      45.024  24.448  31.125  1.00  0.00     0.049 A 
ATOM     68  H   UNL A   1      46.333  24.060  29.519  1.00  0.00     0.167 HD
ATOM     69  C   UNL A   1      46.344  26.552  31.223  1.00  0.00     0.074 A 
ATOM     70  C   UNL A   1      46.854  26.683  29.863  1.00  0.00     0.031 C 
ATOM     71  C   UNL A   1      45.627  25.563  31.838  1.00  0.00     0.034 A 
BRANCH  58  72
ATOM     72  C   UNL A   1      45.161  23.660  26.753  1.00  0.00     0.023 A 
ATOM     73  C   UNL A   1      46.047  24.725  26.525  1.00  0.00     0.031 A 
ATOM     74  C   UNL A   1      45.183  22.640  25.771  1.00  0.00     0.131 A 
ATOM     75  C   UNL A   1      46.732  24.848  25.307  1.00  0.00     0.055 A 
ATOM     76  C   UNL A   1      45.923  22.733  24.588  1.00  0.00     0.041 A 
ATOM     77  F   UNL A   1      44.461  21.519  25.848  1.00  0.00    -0.206 F 
ATOM     78  C   UNL A   1      46.665  23.867  24.325  1.00  0.00     0.022 A 
BRANCH  75  79
ATOM     79  S   UNL A   1      47.529  26.431  24.956  1.00  0.00     0.124 S 
ATOM     80  O   UNL A   1      46.736  26.902  23.825  1.00  0.00    -0.237 OA
ATOM     81  O   UNL A   1      47.341  27.139  26.218  1.00  0.00    -0.237 OA
ATOM     82  O   UNL A   1      48.905  26.054  24.646  1.00  0.00    -0.744 OA
ENDBRANCH  75  79
ENDBRANCH  58  72
BRANCH  59  83
ATOM     83  C   UNL A   1      46.553  31.220  30.300  1.00  0.00     0.023 A 
ATOM     84  C   UNL A   1      46.790  31.665  28.987  1.00  0.00     0.031 A 
ATOM     85  C   UNL A   1      46.839  32.134  31.341  1.00  0.00     0.131 A 
ATOM     86  C   UNL A   1      47.306  32.960  28.760  1.00  0.00     0.055 A 
ATOM     87  C   UNL A   1      47.378  33.401  31.114  1.00  0.00     0.041 A 
ATOM     88  F   UNL A   1      46.525  31.863  32.618  1.00  0.00    -0.206 F 
ATOM     89  C   UNL A   1      47.609  33.823  29.817  1.00  0.00     0.022 A 
BRANCH  86  90
ATOM     90  S   UNL A   1      47.472  33.591  27.062  1.00  0.00     0.124 S 
ATOM     91  O   UNL A   1      46.303  34.452  26.936  1.00  0.00    -0.237 OA
ATOM     92  O   UNL A   1      48.771  34.255  27.100  1.00  0.00    -0.237 OA
ATOM     93  O   UNL A   1      47.435  32.377  26.245  1.00  0.00    -0.744 OA
ENDBRANCH  86  90
ENDBRANCH  59  83
BRANCH  71  94
ATOM     94  C   UNL A   1      45.223  25.757  33.286  1.00  0.00     0.023 A 
ATOM     95  C   UNL A   1      44.069  26.448  33.712  1.00  0.00     0.031 A 
ATOM     96  C   UNL A   1      46.000  25.120  34.272  1.00  0.00     0.131 A 
ATOM     97  C   UNL A   1      43.740  26.499  35.080  1.00  0.00     0.055 A 
ATOM     98  C   UNL A   1      45.662  25.157  35.625  1.00  0.00     0.041 A 
ATOM     99  F   UNL A   1      47.094  24.417  33.932  1.00  0.00    -0.206 F 
ATOM    100  C   UNL A   1      44.533  25.856  36.035  1.00  0.00     0.022 A 
BRANCH  97 101
ATOM    101  S   UNL A   1      42.279  27.427  35.646  1.00  0.00     0.124 S 
ATOM    102  O   UNL A   1      42.740  28.093  36.858  1.00  0.00    -0.237 OA
ATOM    103  O   UNL A   1      42.001  28.296  34.505  1.00  0.00    -0.237 OA
ATOM    104  O   UNL A   1      41.280  26.380  35.869  1.00  0.00    -0.744 OA
ENDBRANCH  97 101
ENDBRANCH  71  94
ENDBRANCH  45  46
ENDBRANCH  38  40
ENDBRANCH  37  38
ENDBRANCH  36  37
ENDBRANCH  35  36
ENDBRANCH  34  35
ENDBRANCH  33  34
ENDBRANCH  32  33
ENDBRANCH  31  32
ENDBRANCH   1  31
TORSDOF 28
ENDMDL
MODEL 3
REMARK VINA RESULT:      -9.6      1.661      2.093
REMARK SMILES C/C(=N\NC(N)=S)c1nnn(-c2ccc(C(=O)OCCOCCOCCOCCOC(=O)c3ccc(-c4c5nc(c(-c6cc(S(=O)(=O)[O-])ccc6F)c6ccc([nH]6)c(-c6cc(S(=O)(=O)[O-])ccc6F)c6nc(c(-c7cc(S(=O)(=O)[O-])ccc7F)c7ccc4[nH]7)C=C6)C=C5)cc3)cc2)c1C
REMARK SMILES IDX 23 1 22 2 21 3 20 4 19 5 18 6 16 7 17 8 15 9 12 10 13 11
REMARK SMILES IDX 97 12 14 13 96 14 11 15 8 16 9 17 98 18 10 19 99 20 2 21
REMARK SMILES IDX 1 22 3 23 4 24 5 26 7 27 6 28 24 31 25 32 26 33 27 34 28 35
REMARK SMILES IDX 29 36 30 37 31 38 32 39 33 40 34 41 95 42 35 43 94 44 36 45
REMARK SMILES IDX 37 46 38 47 88 48 39 49 93 50 87 51 89 52 40 53 92 54 86 55
REMARK SMILES IDX 85 56 41 58 73 59 53 60 72 61 54 62 57 63 71 64 90 65 55 66
REMARK SMILES IDX 56 67 70 69 91 70 58 71 42 72 43 73 51 74 44 75 50 76 52 77
REMARK SMILES IDX 49 78 45 79 46 80 47 81 48 82 74 83 75 84 83 85 76 86 82 87
REMARK SMILES IDX 84 88 81 89 77 90 78 91 79 92 80 93 59 94 60 95 68 96 61 97
REMARK SMILES IDX 67 98 69 99 66 100 62 101 63 102 64 103 65 104
REMARK H PARENT 4 25 6 29 6 30 89 57 57 68
REMARK Flexibility Score: inf
ROOT
ATOM      1  C   UNL A   1      29.956  31.662  24.999  1.00  0.00     0.188 C 
ENDROOT
BRANCH   1   2
ATOM      2  C   UNL A   1      29.999  33.032  24.282  1.00  0.00     0.188 C 
BRANCH   2   3
ATOM      3  O   UNL A   1      29.189  33.362  23.155  1.00  0.00    -0.376 OA
BRANCH   3   4
ATOM      4  C   UNL A   1      28.366  32.396  22.525  1.00  0.00     0.202 C 
BRANCH   4   5
ATOM      5  C   UNL A   1      27.468  31.537  23.415  1.00  0.00     0.261 C 
BRANCH   5   6
ATOM      6  O   UNL A   1      27.319  30.190  22.960  1.00  0.00    -0.460 OA
BRANCH   6   7
ATOM      7  C   UNL A   1      28.107  29.860  21.912  1.00  0.00     0.338 C 
ATOM      8  O   UNL A   1      27.980  30.202  20.750  1.00  0.00    -0.246 OA
BRANCH   7   9
ATOM      9  C   UNL A   1      29.265  29.081  22.400  1.00  0.00     0.060 A 
ATOM     10  C   UNL A   1      31.477  27.548  23.019  1.00  0.00     0.067 A 
ATOM     11  C   UNL A   1      31.667  28.787  22.401  1.00  0.00     0.029 A 
ATOM     12  C   UNL A   1      30.213  27.143  23.467  1.00  0.00     0.029 A 
ATOM     13  C   UNL A   1      30.549  29.539  22.063  1.00  0.00     0.018 A 
ATOM     14  C   UNL A   1      29.100  27.921  23.163  1.00  0.00     0.018 A 
BRANCH  10  15
ATOM     15  N   UNL A   1      32.514  26.598  22.909  1.00  0.00    -0.217 N 
ATOM     16  C   UNL A   1      33.740  24.883  23.449  1.00  0.00     0.132 A 
ATOM     17  N   UNL A   1      33.435  24.796  22.119  1.00  0.00    -0.128 NA
ATOM     18  C   UNL A   1      33.173  26.020  23.986  1.00  0.00     0.071 A 
ATOM     19  N   UNL A   1      32.654  25.820  21.810  1.00  0.00    -0.061 NA
ATOM     20  C   UNL A   1      33.018  26.441  25.402  1.00  0.00     0.069 C 
BRANCH  16  21
ATOM     21  C   UNL A   1      34.349  23.790  24.175  1.00  0.00     0.087 C 
ATOM     22  C   UNL A   1      35.651  24.093  24.875  1.00  0.00     0.071 C 
ATOM     23  N   UNL A   1      33.715  22.654  24.138  1.00  0.00    -0.176 NA
BRANCH  23  24
ATOM     24  N   UNL A   1      34.222  21.587  24.820  1.00  0.00    -0.254 N 
ATOM     25  H   UNL A   1      35.030  21.162  24.451  1.00  0.00     0.193 HD
BRANCH  24  26
ATOM     26  C   UNL A   1      33.705  21.052  25.982  1.00  0.00     0.184 C 
ATOM     27  S   UNL A   1      33.951  21.529  27.556  1.00  0.00    -0.040 S 
BRANCH  26  28
ATOM     28  N   UNL A   1      32.869  19.998  25.741  1.00  0.00    -0.375 N 
ATOM     29  H   UNL A   1      32.074  19.861  26.306  1.00  0.00     0.159 HD
ATOM     30  H   UNL A   1      33.061  19.375  25.004  1.00  0.00     0.159 HD
ENDBRANCH  26  28
ENDBRANCH  24  26
ENDBRANCH  23  24
ENDBRANCH  16  21
ENDBRANCH  10  15
ENDBRANCH   7   9
ENDBRANCH   6   7
ENDBRANCH   5   6
ENDBRANCH   4   5
ENDBRANCH   3   4
ENDBRANCH   2   3
ENDBRANCH   1   2
BRANCH   1  31
ATOM     31  O   UNL A   1      31.212  31.046  25.243  1.00  0.00    -0.377 OA
BRANCH  31  32
ATOM     32  C   UNL A   1      31.496  30.809  26.621  1.00  0.00     0.188 C 
BRANCH  32  33
ATOM     33  C   UNL A   1      32.732  31.545  27.179  1.00  0.00     0.188 C 
BRANCH  33  34
ATOM     34  O   UNL A   1      33.959  30.868  26.911  1.00  0.00    -0.376 OA
BRANCH  34  35
ATOM     35  C   UNL A   1      35.122  31.273  27.619  1.00  0.00     0.202 C 
BRANCH  35  36
ATOM     36  C   UNL A   1      35.184  30.694  29.029  1.00  0.00     0.261 C 
BRANCH  36  37
ATOM     37  O   UNL A   1      36.451  30.853  29.651  1.00  0.00    -0.460 OA
BRANCH  37  38
ATOM     38  C   UNL A   1      36.843  29.861  30.477  1.00  0.00     0.338 C 
ATOM     39  O   UNL A   1      36.635  29.764  31.671  1.00  0.00    -0.246 OA
BRANCH  38  40
ATOM     40  C   UNL A   1      37.678  28.932  29.713  1.00  0.00     0.060 A 
ATOM     41  C   UNL A   1      38.196  27.856  30.435  1.00  0.00     0.016 A 
ATOM     42  C   UNL A   1      38.208  29.347  28.483  1.00  0.00     0.016 A 
ATOM     43  C   UNL A   1      39.434  27.388  30.076  1.00  0.00     0.010 A 
ATOM     44  C   UNL A   1      39.457  28.905  28.147  1.00  0.00     0.010 A 
ATOM     45  C   UNL A   1      40.085  28.007  29.008  1.00  0.00    -0.014 A 
BRANCH  45  46
ATOM     46  C   UNL A   1      41.481  27.708  28.813  1.00  0.00     0.031 A 
ATOM     47  C   UNL A   1      41.724  26.469  28.069  1.00  0.00     0.074 A 
ATOM     48  C   UNL A   1      42.445  28.571  29.170  1.00  0.00     0.049 A 
ATOM     49  N   UNL A   1      42.222  25.366  28.513  1.00  0.00    -0.248 NA
ATOM     50  C   UNL A   1      41.158  26.382  26.715  1.00  0.00     0.031 C 
ATOM     51  C   UNL A   1      42.277  29.957  29.615  1.00  0.00     0.029 A 
ATOM     52  N   UNL A   1      43.792  28.426  29.071  1.00  0.00    -0.354 N 
ATOM     53  C   UNL A   1      42.260  24.523  27.411  1.00  0.00     0.074 A 
ATOM     54  C   UNL A   1      41.360  25.095  26.452  1.00  0.00     0.031 C 
ATOM     55  C   UNL A   1      43.469  30.587  29.525  1.00  0.00     0.029 A 
ATOM     56  C   UNL A   1      44.484  29.627  29.118  1.00  0.00     0.049 A 
ATOM     57  H   UNL A   1      44.234  27.553  28.976  1.00  0.00     0.167 HD
ATOM     58  C   UNL A   1      43.250  23.603  27.271  1.00  0.00     0.034 A 
ATOM     59  C   UNL A   1      45.770  29.828  28.737  1.00  0.00     0.034 A 
ATOM     60  C   UNL A   1      43.909  23.361  28.544  1.00  0.00     0.049 A 
ATOM     61  C   UNL A   1      46.452  28.507  28.748  1.00  0.00     0.074 A 
ATOM     62  C   UNL A   1      43.465  22.970  29.795  1.00  0.00     0.029 A 
ATOM     63  N   UNL A   1      45.172  23.879  28.749  1.00  0.00    -0.354 N 
ATOM     64  N   UNL A   1      46.681  27.818  29.832  1.00  0.00    -0.248 NA
ATOM     65  C   UNL A   1      46.501  27.733  27.514  1.00  0.00     0.031 C 
ATOM     66  C   UNL A   1      44.279  23.675  30.728  1.00  0.00     0.029 A 
ATOM     67  C   UNL A   1      45.216  24.420  30.011  1.00  0.00     0.049 A 
ATOM     68  H   UNL A   1      45.914  23.864  28.101  1.00  0.00     0.167 HD
ATOM     69  C   UNL A   1      46.477  26.494  29.474  1.00  0.00     0.074 A 
ATOM     70  C   UNL A   1      46.501  26.494  28.016  1.00  0.00     0.031 C 
ATOM     71  C   UNL A   1      46.015  25.578  30.378  1.00  0.00     0.034 A 
BRANCH  58  72
ATOM     72  C   UNL A   1      43.886  23.253  25.933  1.00  0.00     0.023 A 
ATOM     73  C   UNL A   1      43.883  21.891  25.592  1.00  0.00     0.031 A 
ATOM     74  C   UNL A   1      44.722  24.071  25.135  1.00  0.00     0.131 A 
ATOM     75  C   UNL A   1      44.806  21.374  24.670  1.00  0.00     0.055 A 
ATOM     76  C   UNL A   1      45.591  23.559  24.166  1.00  0.00     0.041 A 
ATOM     77  F   UNL A   1      44.806  25.397  25.263  1.00  0.00    -0.206 F 
ATOM     78  C   UNL A   1      45.675  22.197  23.964  1.00  0.00     0.022 A 
BRANCH  75  79
ATOM     79  S   UNL A   1      44.988  19.579  24.594  1.00  0.00     0.124 S 
ATOM     80  O   UNL A   1      46.440  19.445  24.526  1.00  0.00    -0.237 OA
ATOM     81  O   UNL A   1      44.357  19.166  25.842  1.00  0.00    -0.237 OA
ATOM     82  O   UNL A   1      44.267  19.220  23.376  1.00  0.00    -0.744 OA
ENDBRANCH  75  79
ENDBRANCH  58  72
BRANCH  59  83
ATOM     83  C   UNL A   1      46.332  31.057  28.120  1.00  0.00     0.023 A 
ATOM     84  C   UNL A   1      45.574  31.875  27.262  1.00  0.00     0.031 A 
ATOM     85  C   UNL A   1      47.589  31.561  28.530  1.00  0.00     0.131 A 
ATOM     86  C   UNL A   1      46.085  33.121  26.838  1.00  0.00     0.055 A 
ATOM     87  C   UNL A   1      48.102  32.778  28.083  1.00  0.00     0.041 A 
ATOM     88  F   UNL A   1      48.332  30.926  29.451  1.00  0.00    -0.206 F 
ATOM     89  C   UNL A   1      47.347  33.570  27.237  1.00  0.00     0.022 A 
BRANCH  86  90
ATOM     90  S   UNL A   1      45.047  34.243  25.851  1.00  0.00     0.124 S 
ATOM     91  O   UNL A   1      44.901  35.391  26.738  1.00  0.00    -0.237 OA
ATOM     92  O   UNL A   1      45.854  34.445  24.653  1.00  0.00    -0.237 OA
ATOM     93  O   UNL A   1      43.823  33.471  25.637  1.00  0.00    -0.744 OA
ENDBRANCH  86  90
ENDBRANCH  59  83
BRANCH  71  94
ATOM     94  C   UNL A   1      46.118  25.906  31.855  1.00  0.00     0.023 A 
ATOM     95  C   UNL A   1      47.254  25.658  32.655  1.00  0.00     0.031 A 
ATOM     96  C   UNL A   1      45.044  26.595  32.447  1.00  0.00     0.131 A 
ATOM     97  C   UNL A   1      47.277  26.077  33.998  1.00  0.00     0.055 A 
ATOM     98  C   UNL A   1      45.077  27.025  33.774  1.00  0.00     0.041 A 
ATOM     99  F   UNL A   1      43.945  26.892  31.733  1.00  0.00    -0.206 F 
ATOM    100  C   UNL A   1      46.193  26.760  34.558  1.00  0.00     0.022 A 
BRANCH  97 101
ATOM    101  S   UNL A   1      48.718  25.722  35.054  1.00  0.00     0.124 S 
ATOM    102  O   UNL A   1      49.757  25.341  34.104  1.00  0.00    -0.237 OA
ATOM    103  O   UNL A   1      48.918  26.993  35.745  1.00  0.00    -0.237 OA
ATOM    104  O   UNL A   1      48.248  24.632  35.910  1.00  0.00    -0.744 OA
ENDBRANCH  97 101
ENDBRANCH  71  94
ENDBRANCH  45  46
ENDBRANCH  38  40
ENDBRANCH  37  38
ENDBRANCH  36  37
ENDBRANCH  35  36
ENDBRANCH  34  35
ENDBRANCH  33  34
ENDBRANCH  32  33
ENDBRANCH  31  32
ENDBRANCH   1  31
TORSDOF 28
ENDMDL
