MODEL 1
REMARK VINA RESULT:      -7.4      0.000      0.000
REMARK SMILES O=C(OCCOCCOCCOCCOC(=O)[C@@H](Cc1ccccc1Br)CC(F)(F)F)c1ccc(-c2c3nc(c(-c4cc(S(=O)(=O)[O-])ccc4F)c4ccc([nH]4)c(-c4cc(S(=O)(=O)[O-])ccc4F)c4nc(c(-c5cc(S(=O)(=O)[O-])ccc5F)c5ccc2[nH]5)C=C4)C=C3)cc1
REMARK SMILES IDX 8 1 7 2 6 3 5 4 4 5 3 6 2 7 1 8 32 9 33 10 94 11 34 12 93 13
REMARK SMILES IDX 35 14 36 15 37 16 87 17 38 18 92 19 86 20 88 21 39 22 91 23
REMARK SMILES IDX 85 24 84 25 40 27 72 28 52 29 71 30 53 31 56 32 70 33 89 34
REMARK SMILES IDX 54 35 55 36 69 38 90 39 57 40 41 41 42 42 50 43 43 44 49 45
REMARK SMILES IDX 51 46 48 47 44 48 45 49 46 50 47 51 73 52 74 53 82 54 75 55
REMARK SMILES IDX 81 56 83 57 80 58 76 59 77 60 78 61 79 62 58 63 59 64 67 65
REMARK SMILES IDX 60 66 66 67 68 68 65 69 61 70 62 71 63 72 64 73 9 74 10 75
REMARK SMILES IDX 11 76 12 77 13 78 14 79 15 80 16 81 17 82 18 83 19 84 20 85
REMARK SMILES IDX 21 86 25 87 22 88 24 89 26 90 23 91 27 92 28 93 29 94 30 95
REMARK SMILES IDX 31 96
REMARK H PARENT 88 26 56 37
REMARK Flexibility Score: inf
ROOT
ATOM      1  C   UNL A   1      35.317  33.807  30.013  1.00  0.00     0.188 C 
ENDROOT
BRANCH   1   2
ATOM      2  C   UNL A   1      34.560  33.825  31.334  1.00  0.00     0.188 C 
BRANCH   2   3
ATOM      3  O   UNL A   1      34.878  32.618  32.019  1.00  0.00    -0.376 OA
BRANCH   3   4
ATOM      4  C   UNL A   1      35.471  32.770  33.300  1.00  0.00     0.202 C 
BRANCH   4   5
ATOM      5  C   UNL A   1      36.986  32.578  33.269  1.00  0.00     0.261 C 
BRANCH   5   6
ATOM      6  O   UNL A   1      37.358  31.276  33.753  1.00  0.00    -0.460 OA
BRANCH   6   7
ATOM      7  C   UNL A   1      37.601  30.159  33.020  1.00  0.00     0.338 C 
ATOM      8  O   UNL A   1      36.655  29.632  32.435  1.00  0.00    -0.246 OA
BRANCH   7   9
ATOM      9  C   UNL A   1      38.954  29.532  32.861  1.00  0.00     0.060 A 
ATOM     10  C   UNL A   1      39.199  28.163  32.733  1.00  0.00     0.016 A 
ATOM     11  C   UNL A   1      40.053  30.403  32.759  1.00  0.00     0.016 A 
ATOM     12  C   UNL A   1      40.483  27.660  32.573  1.00  0.00     0.010 A 
ATOM     13  C   UNL A   1      41.352  29.908  32.585  1.00  0.00     0.010 A 
ATOM     14  C   UNL A   1      41.569  28.527  32.521  1.00  0.00    -0.014 A 
BRANCH  14  15
ATOM     15  C   UNL A   1      42.917  27.939  32.615  1.00  0.00     0.031 A 
ATOM     16  C   UNL A   1      43.476  27.716  33.989  1.00  0.00     0.074 A 
ATOM     17  C   UNL A   1      43.538  27.474  31.518  1.00  0.00     0.049 A 
ATOM     18  N   UNL A   1      44.651  27.285  34.352  1.00  0.00    -0.248 NA
ATOM     19  C   UNL A   1      42.565  28.005  35.110  1.00  0.00     0.031 C 
ATOM     20  C   UNL A   1      42.981  27.495  30.163  1.00  0.00     0.029 A 
ATOM     21  N   UNL A   1      44.756  26.867  31.367  1.00  0.00    -0.354 N 
ATOM     22  C   UNL A   1      44.634  27.279  35.742  1.00  0.00     0.074 A 
ATOM     23  C   UNL A   1      43.333  27.750  36.156  1.00  0.00     0.031 C 
ATOM     24  C   UNL A   1      43.854  26.916  29.322  1.00  0.00     0.029 A 
ATOM     25  C   UNL A   1      45.060  26.555  30.062  1.00  0.00     0.049 A 
ATOM     26  H   UNL A   1      45.358  26.672  32.122  1.00  0.00     0.167 HD
ATOM     27  C   UNL A   1      45.629  26.922  36.589  1.00  0.00     0.034 A 
ATOM     28  C   UNL A   1      46.204  26.078  29.534  1.00  0.00     0.034 A 
ATOM     29  C   UNL A   1      46.919  26.485  36.124  1.00  0.00     0.049 A 
ATOM     30  C   UNL A   1      47.349  25.816  30.483  1.00  0.00     0.074 A 
ATOM     31  C   UNL A   1      48.061  26.207  36.851  1.00  0.00     0.029 A 
ATOM     32  N   UNL A   1      47.235  26.265  34.785  1.00  0.00    -0.354 N 
ATOM     33  N   UNL A   1      47.376  25.925  31.795  1.00  0.00    -0.248 NA
ATOM     34  C   UNL A   1      48.621  25.389  29.890  1.00  0.00     0.031 C 
ATOM     35  C   UNL A   1      49.080  25.875  35.948  1.00  0.00     0.029 A 
ATOM     36  C   UNL A   1      48.557  25.880  34.661  1.00  0.00     0.049 A 
ATOM     37  H   UNL A   1      46.605  26.370  34.035  1.00  0.00     0.167 HD
ATOM     38  C   UNL A   1      48.664  25.575  32.183  1.00  0.00     0.074 A 
ATOM     39  C   UNL A   1      49.376  25.224  30.967  1.00  0.00     0.031 C 
ATOM     40  C   UNL A   1      49.221  25.550  33.421  1.00  0.00     0.034 A 
BRANCH  27  41
ATOM     41  C   UNL A   1      45.367  27.128  38.060  1.00  0.00     0.023 A 
ATOM     42  C   UNL A   1      45.735  28.312  38.725  1.00  0.00     0.031 A 
ATOM     43  C   UNL A   1      44.864  26.067  38.835  1.00  0.00     0.131 A 
ATOM     44  C   UNL A   1      45.686  28.370  40.128  1.00  0.00     0.055 A 
ATOM     45  C   UNL A   1      44.741  26.163  40.223  1.00  0.00     0.041 A 
ATOM     46  F   UNL A   1      44.529  24.901  38.261  1.00  0.00    -0.206 F 
ATOM     47  C   UNL A   1      45.171  27.311  40.879  1.00  0.00     0.022 A 
BRANCH  44  48
ATOM     48  S   UNL A   1      46.466  29.779  40.966  1.00  0.00     0.124 S 
ATOM     49  O   UNL A   1      45.721  29.823  42.225  1.00  0.00    -0.237 OA
ATOM     50  O   UNL A   1      47.855  29.367  41.059  1.00  0.00    -0.237 OA
ATOM     51  O   UNL A   1      46.204  30.903  40.063  1.00  0.00    -0.744 OA
ENDBRANCH  44  48
ENDBRANCH  27  41
BRANCH  28  52
ATOM     52  C   UNL A   1      46.362  25.918  28.055  1.00  0.00     0.023 A 
ATOM     53  C   UNL A   1      46.755  26.987  27.233  1.00  0.00     0.031 A 
ATOM     54  C   UNL A   1      46.069  24.689  27.432  1.00  0.00     0.131 A 
ATOM     55  C   UNL A   1      46.813  26.816  25.838  1.00  0.00     0.055 A 
ATOM     56  C   UNL A   1      46.183  24.508  26.052  1.00  0.00     0.041 A 
ATOM     57  F   UNL A   1      45.673  23.633  28.161  1.00  0.00    -0.206 F 
ATOM     58  C   UNL A   1      46.546  25.580  25.245  1.00  0.00     0.022 A 
BRANCH  55  59
ATOM     59  S   UNL A   1      47.157  28.258  24.791  1.00  0.00     0.124 S 
ATOM     60  O   UNL A   1      46.059  28.201  23.834  1.00  0.00    -0.237 OA
ATOM     61  O   UNL A   1      47.113  29.351  25.757  1.00  0.00    -0.237 OA
ATOM     62  O   UNL A   1      48.480  27.971  24.239  1.00  0.00    -0.744 OA
ENDBRANCH  55  59
ENDBRANCH  28  52
BRANCH  40  63
ATOM     63  C   UNL A   1      50.655  25.103  33.502  1.00  0.00     0.023 A 
ATOM     64  C   UNL A   1      51.007  23.749  33.367  1.00  0.00     0.031 A 
ATOM     65  C   UNL A   1      51.677  26.045  33.710  1.00  0.00     0.131 A 
ATOM     66  C   UNL A   1      52.350  23.368  33.487  1.00  0.00     0.055 A 
ATOM     67  C   UNL A   1      53.016  25.665  33.776  1.00  0.00     0.041 A 
ATOM     68  F   UNL A   1      51.387  27.348  33.842  1.00  0.00    -0.206 F 
ATOM     69  C   UNL A   1      53.358  24.319  33.675  1.00  0.00     0.022 A 
BRANCH  66  70
ATOM     70  S   UNL A   1      52.756  21.601  33.460  1.00  0.00     0.124 S 
ATOM     71  O   UNL A   1      51.998  21.099  34.601  1.00  0.00    -0.237 OA
ATOM     72  O   UNL A   1      52.277  21.189  32.145  1.00  0.00    -0.237 OA
ATOM     73  O   UNL A   1      54.209  21.582  33.623  1.00  0.00    -0.744 OA
ENDBRANCH  66  70
ENDBRANCH  40  63
ENDBRANCH  14  15
ENDBRANCH   7   9
ENDBRANCH   6   7
ENDBRANCH   5   6
ENDBRANCH   4   5
ENDBRANCH   3   4
ENDBRANCH   2   3
ENDBRANCH   1   2
BRANCH   1  74
ATOM     74  O   UNL A   1      34.458  33.843  28.869  1.00  0.00    -0.377 OA
BRANCH  74  75
ATOM     75  C   UNL A   1      34.580  32.777  27.938  1.00  0.00     0.188 C 
BRANCH  75  76
ATOM     76  C   UNL A   1      35.774  31.831  28.097  1.00  0.00     0.188 C 
BRANCH  76  77
ATOM     77  O   UNL A   1      35.638  30.505  27.628  1.00  0.00    -0.376 OA
BRANCH  77  78
ATOM     78  C   UNL A   1      36.739  29.602  27.726  1.00  0.00     0.202 C 
BRANCH  78  79
ATOM     79  C   UNL A   1      38.151  30.096  28.076  1.00  0.00     0.261 C 
BRANCH  79  80
ATOM     80  O   UNL A   1      39.218  29.179  27.717  1.00  0.00    -0.463 OA
BRANCH  80  81
ATOM     81  C   UNL A   1      39.273  28.032  28.427  1.00  0.00     0.309 C 
ATOM     82  O   UNL A   1      38.606  27.816  29.435  1.00  0.00    -0.252 OA
BRANCH  81  83
ATOM     83  C   UNL A   1      40.298  27.002  27.966  1.00  0.00     0.112 C 
BRANCH  83  84
ATOM     84  C   UNL A   1      40.267  25.559  28.521  1.00  0.00     0.052 C 
BRANCH  84  85
ATOM     85  C   UNL A   1      40.850  24.338  27.840  1.00  0.00    -0.033 A 
ATOM     86  C   UNL A   1      42.146  23.876  28.095  1.00  0.00     0.005 A 
ATOM     87  C   UNL A   1      40.076  23.613  26.901  1.00  0.00     0.021 A 
ATOM     88  C   UNL A   1      42.667  22.767  27.418  1.00  0.00     0.000 A 
ATOM     89  C   UNL A   1      40.606  22.517  26.209  1.00  0.00     0.016 A 
ATOM     90  Br  UNL A   1      38.264  24.058  26.499  1.00  0.00    -0.051 Br
ATOM     91  C   UNL A   1      41.906  22.096  26.466  1.00  0.00     0.001 A 
ENDBRANCH  84  85
ENDBRANCH  83  84
BRANCH  83  92
ATOM     92  C   UNL A   1      40.624  27.083  26.471  1.00  0.00     0.131 C 
BRANCH  92  93
ATOM     93  C   UNL A   1      42.041  27.533  26.173  1.00  0.00     0.389 C 
ATOM     94  F   UNL A   1      42.947  26.594  26.509  1.00  0.00    -0.171 F 
ATOM     95  F   UNL A   1      42.173  27.761  24.845  1.00  0.00    -0.171 F 
ATOM     96  F   UNL A   1      42.336  28.685  26.806  1.00  0.00    -0.171 F 
ENDBRANCH  92  93
ENDBRANCH  83  92
ENDBRANCH  81  83
ENDBRANCH  80  81
ENDBRANCH  79  80
ENDBRANCH  78  79
ENDBRANCH  77  78
ENDBRANCH  76  77
ENDBRANCH  75  76
ENDBRANCH  74  75
ENDBRANCH   1  74
TORSDOF 27
ENDMDL
MODEL 2
REMARK VINA RESULT:      -7.3      9.967     14.782
REMARK SMILES O=C(OCCOCCOCCOCCOC(=O)[C@@H](Cc1ccccc1Br)CC(F)(F)F)c1ccc(-c2c3nc(c(-c4cc(S(=O)(=O)[O-])ccc4F)c4ccc([nH]4)c(-c4cc(S(=O)(=O)[O-])ccc4F)c4nc(c(-c5cc(S(=O)(=O)[O-])ccc5F)c5ccc2[nH]5)C=C4)C=C3)cc1
REMARK SMILES IDX 8 1 7 2 6 3 5 4 4 5 3 6 2 7 1 8 32 9 33 10 94 11 34 12 93 13
REMARK SMILES IDX 35 14 36 15 37 16 87 17 38 18 92 19 86 20 88 21 39 22 91 23
REMARK SMILES IDX 85 24 84 25 40 27 72 28 52 29 71 30 53 31 56 32 70 33 89 34
REMARK SMILES IDX 54 35 55 36 69 38 90 39 57 40 41 41 42 42 50 43 43 44 49 45
REMARK SMILES IDX 51 46 48 47 44 48 45 49 46 50 47 51 73 52 74 53 82 54 75 55
REMARK SMILES IDX 81 56 83 57 80 58 76 59 77 60 78 61 79 62 58 63 59 64 67 65
REMARK SMILES IDX 60 66 66 67 68 68 65 69 61 70 62 71 63 72 64 73 9 74 10 75
REMARK SMILES IDX 11 76 12 77 13 78 14 79 15 80 16 81 17 82 18 83 19 84 20 85
REMARK SMILES IDX 21 86 25 87 22 88 24 89 26 90 23 91 27 92 28 93 29 94 30 95
REMARK SMILES IDX 31 96
REMARK H PARENT 88 26 56 37
REMARK Flexibility Score: inf
ROOT
ATOM      1  C   UNL A   1      47.405  40.685  27.236  1.00  0.00     0.188 C 
ENDROOT
BRANCH   1   2
ATOM      2  C   UNL A   1      47.824  40.709  28.700  1.00  0.00     0.188 C 
BRANCH   2   3
ATOM      3  O   UNL A   1      46.662  41.004  29.467  1.00  0.00    -0.376 OA
BRANCH   3   4
ATOM      4  C   UNL A   1      46.348  40.078  30.497  1.00  0.00     0.202 C 
BRANCH   4   5
ATOM      5  C   UNL A   1      47.123  38.769  30.361  1.00  0.00     0.261 C 
BRANCH   5   6
ATOM      6  O   UNL A   1      46.234  37.649  30.207  1.00  0.00    -0.460 OA
BRANCH   6   7
ATOM      7  C   UNL A   1      45.644  37.213  29.064  1.00  0.00     0.338 C 
ATOM      8  O   UNL A   1      45.438  38.032  28.169  1.00  0.00    -0.246 OA
BRANCH   7   9
ATOM      9  C   UNL A   1      45.239  35.792  28.813  1.00  0.00     0.060 A 
ATOM     10  C   UNL A   1      44.619  35.321  27.653  1.00  0.00     0.016 A 
ATOM     11  C   UNL A   1      45.583  34.847  29.796  1.00  0.00     0.016 A 
ATOM     12  C   UNL A   1      44.290  33.983  27.489  1.00  0.00     0.010 A 
ATOM     13  C   UNL A   1      45.266  33.492  29.637  1.00  0.00     0.010 A 
ATOM     14  C   UNL A   1      44.590  33.064  28.489  1.00  0.00    -0.014 A 
BRANCH  14  15
ATOM     15  C   UNL A   1      43.992  31.721  28.384  1.00  0.00     0.031 A 
ATOM     16  C   UNL A   1      44.799  30.661  27.696  1.00  0.00     0.074 A 
ATOM     17  C   UNL A   1      42.849  31.430  29.028  1.00  0.00     0.049 A 
ATOM     18  N   UNL A   1      44.485  29.429  27.408  1.00  0.00    -0.248 NA
ATOM     19  C   UNL A   1      46.162  31.047  27.293  1.00  0.00     0.031 C 
ATOM     20  C   UNL A   1      42.095  32.364  29.867  1.00  0.00     0.029 A 
ATOM     21  N   UNL A   1      42.137  30.263  29.105  1.00  0.00    -0.354 N 
ATOM     22  C   UNL A   1      45.598  28.901  26.764  1.00  0.00     0.074 A 
ATOM     23  C   UNL A   1      46.593  29.946  26.702  1.00  0.00     0.031 C 
ATOM     24  C   UNL A   1      41.030  31.727  30.382  1.00  0.00     0.029 A 
ATOM     25  C   UNL A   1      40.984  30.369  29.849  1.00  0.00     0.049 A 
ATOM     26  H   UNL A   1      42.422  29.428  28.669  1.00  0.00     0.167 HD
ATOM     27  C   UNL A   1      45.759  27.654  26.258  1.00  0.00     0.034 A 
ATOM     28  C   UNL A   1      39.990  29.476  30.030  1.00  0.00     0.034 A 
ATOM     29  C   UNL A   1      44.724  26.656  26.321  1.00  0.00     0.049 A 
ATOM     30  C   UNL A   1      40.127  28.138  29.343  1.00  0.00     0.074 A 
ATOM     31  C   UNL A   1      44.689  25.397  25.753  1.00  0.00     0.029 A 
ATOM     32  N   UNL A   1      43.520  26.820  27.003  1.00  0.00    -0.354 N 
ATOM     33  N   UNL A   1      41.131  27.676  28.628  1.00  0.00    -0.248 NA
ATOM     34  C   UNL A   1      38.999  27.209  29.466  1.00  0.00     0.031 C 
ATOM     35  C   UNL A   1      43.444  24.824  26.045  1.00  0.00     0.029 A 
ATOM     36  C   UNL A   1      42.726  25.697  26.851  1.00  0.00     0.049 A 
ATOM     37  H   UNL A   1      43.271  27.620  27.520  1.00  0.00     0.167 HD
ATOM     38  C   UNL A   1      40.757  26.401  28.220  1.00  0.00     0.074 A 
ATOM     39  C   UNL A   1      39.446  26.157  28.794  1.00  0.00     0.031 C 
ATOM     40  C   UNL A   1      41.420  25.509  27.439  1.00  0.00     0.034 A 
BRANCH  27  41
ATOM     41  C   UNL A   1      47.039  27.393  25.504  1.00  0.00     0.023 A 
ATOM     42  C   UNL A   1      47.259  27.903  24.211  1.00  0.00     0.031 A 
ATOM     43  C   UNL A   1      47.995  26.508  26.035  1.00  0.00     0.131 A 
ATOM     44  C   UNL A   1      48.355  27.448  23.458  1.00  0.00     0.055 A 
ATOM     45  C   UNL A   1      49.125  26.124  25.310  1.00  0.00     0.041 A 
ATOM     46  F   UNL A   1      47.820  25.962  27.249  1.00  0.00    -0.206 F 
ATOM     47  C   UNL A   1      49.300  26.578  24.008  1.00  0.00     0.022 A 
BRANCH  44  48
ATOM     48  S   UNL A   1      48.432  27.870  21.695  1.00  0.00     0.124 S 
ATOM     49  O   UNL A   1      48.263  26.558  21.069  1.00  0.00    -0.237 OA
ATOM     50  O   UNL A   1      47.325  28.798  21.540  1.00  0.00    -0.237 OA
ATOM     51  O   UNL A   1      49.766  28.454  21.539  1.00  0.00    -0.744 OA
ENDBRANCH  44  48
ENDBRANCH  27  41
BRANCH  28  52
ATOM     52  C   UNL A   1      38.757  29.842  30.792  1.00  0.00     0.023 A 
ATOM     53  C   UNL A   1      37.765  30.671  30.242  1.00  0.00     0.031 A 
ATOM     54  C   UNL A   1      38.575  29.399  32.117  1.00  0.00     0.131 A 
ATOM     55  C   UNL A   1      36.659  31.056  31.021  1.00  0.00     0.055 A 
ATOM     56  C   UNL A   1      37.448  29.738  32.867  1.00  0.00     0.041 A 
ATOM     57  F   UNL A   1      39.495  28.617  32.706  1.00  0.00    -0.206 F 
ATOM     58  C   UNL A   1      36.486  30.582  32.324  1.00  0.00     0.022 A 
BRANCH  55  59
ATOM     59  S   UNL A   1      35.485  32.262  30.343  1.00  0.00     0.124 S 
ATOM     60  O   UNL A   1      36.302  33.468  30.274  1.00  0.00    -0.237 OA
ATOM     61  O   UNL A   1      35.130  31.654  29.065  1.00  0.00    -0.237 OA
ATOM     62  O   UNL A   1      34.413  32.292  31.336  1.00  0.00    -0.744 OA
ENDBRANCH  55  59
ENDBRANCH  28  52
BRANCH  40  63
ATOM     63  C   UNL A   1      40.735  24.192  27.196  1.00  0.00     0.023 A 
ATOM     64  C   UNL A   1      39.549  24.112  26.448  1.00  0.00     0.031 A 
ATOM     65  C   UNL A   1      41.283  23.007  27.716  1.00  0.00     0.131 A 
ATOM     66  C   UNL A   1      38.921  22.871  26.277  1.00  0.00     0.055 A 
ATOM     67  C   UNL A   1      40.681  21.769  27.497  1.00  0.00     0.041 A 
ATOM     68  F   UNL A   1      42.416  23.036  28.434  1.00  0.00    -0.206 F 
ATOM     69  C   UNL A   1      39.487  21.698  26.784  1.00  0.00     0.022 A 
BRANCH  66  70
ATOM     70  S   UNL A   1      37.314  22.820  25.438  1.00  0.00     0.124 S 
ATOM     71  O   UNL A   1      37.074  21.385  25.331  1.00  0.00    -0.237 OA
ATOM     72  O   UNL A   1      36.453  23.544  26.367  1.00  0.00    -0.237 OA
ATOM     73  O   UNL A   1      37.569  23.503  24.170  1.00  0.00    -0.744 OA
ENDBRANCH  66  70
ENDBRANCH  40  63
ENDBRANCH  14  15
ENDBRANCH   7   9
ENDBRANCH   6   7
ENDBRANCH   5   6
ENDBRANCH   4   5
ENDBRANCH   3   4
ENDBRANCH   2   3
ENDBRANCH   1   2
BRANCH   1  74
ATOM     74  O   UNL A   1      46.081  41.182  27.020  1.00  0.00    -0.377 OA
BRANCH  74  75
ATOM     75  C   UNL A   1      45.509  40.956  25.739  1.00  0.00     0.188 C 
BRANCH  75  76
ATOM     76  C   UNL A   1      46.451  40.535  24.607  1.00  0.00     0.188 C 
BRANCH  76  77
ATOM     77  O   UNL A   1      46.624  41.421  23.521  1.00  0.00    -0.376 OA
BRANCH  77  78
ATOM     78  C   UNL A   1      45.925  42.665  23.501  1.00  0.00     0.202 C 
BRANCH  78  79
ATOM     79  C   UNL A   1      46.663  43.995  23.280  1.00  0.00     0.261 C 
BRANCH  79  80
ATOM     80  O   UNL A   1      46.559  44.525  21.933  1.00  0.00    -0.463 OA
BRANCH  80  81
ATOM     81  C   UNL A   1      45.367  45.066  21.603  1.00  0.00     0.309 C 
ATOM     82  O   UNL A   1      44.719  45.803  22.342  1.00  0.00    -0.252 OA
BRANCH  81  83
ATOM     83  C   UNL A   1      44.784  44.646  20.258  1.00  0.00     0.112 C 
BRANCH  83  84
ATOM     84  C   UNL A   1      45.400  45.165  18.938  1.00  0.00     0.052 C 
BRANCH  84  85
ATOM     85  C   UNL A   1      45.069  46.480  18.266  1.00  0.00    -0.033 A 
ATOM     86  C   UNL A   1      43.960  47.256  18.625  1.00  0.00     0.005 A 
ATOM     87  C   UNL A   1      45.895  46.973  17.226  1.00  0.00     0.021 A 
ATOM     88  C   UNL A   1      43.660  48.448  17.954  1.00  0.00     0.000 A 
ATOM     89  C   UNL A   1      45.582  48.155  16.543  1.00  0.00     0.016 A 
ATOM     90  Br  UNL A   1      47.490  46.083  16.671  1.00  0.00    -0.051 Br
ATOM     91  C   UNL A   1      44.460  48.891  16.905  1.00  0.00     0.001 A 
ENDBRANCH  84  85
ENDBRANCH  83  84
BRANCH  83  92
ATOM     92  C   UNL A   1      44.353  43.177  20.205  1.00  0.00     0.131 C 
BRANCH  92  93
ATOM     93  C   UNL A   1      42.856  42.969  20.326  1.00  0.00     0.389 C 
ATOM     94  F   UNL A   1      42.313  43.763  21.269  1.00  0.00    -0.171 F 
ATOM     95  F   UNL A   1      42.260  43.278  19.150  1.00  0.00    -0.171 F 
ATOM     96  F   UNL A   1      42.557  41.684  20.599  1.00  0.00    -0.171 F 
ENDBRANCH  92  93
ENDBRANCH  83  92
ENDBRANCH  81  83
ENDBRANCH  80  81
ENDBRANCH  79  80
ENDBRANCH  78  79
ENDBRANCH  77  78
ENDBRANCH  76  77
ENDBRANCH  75  76
ENDBRANCH  74  75
ENDBRANCH   1  74
TORSDOF 27
ENDMDL
MODEL 3
REMARK VINA RESULT:      -7.1      3.878      5.529
REMARK SMILES O=C(OCCOCCOCCOCCOC(=O)[C@@H](Cc1ccccc1Br)CC(F)(F)F)c1ccc(-c2c3nc(c(-c4cc(S(=O)(=O)[O-])ccc4F)c4ccc([nH]4)c(-c4cc(S(=O)(=O)[O-])ccc4F)c4nc(c(-c5cc(S(=O)(=O)[O-])ccc5F)c5ccc2[nH]5)C=C4)C=C3)cc1
REMARK SMILES IDX 8 1 7 2 6 3 5 4 4 5 3 6 2 7 1 8 32 9 33 10 94 11 34 12 93 13
REMARK SMILES IDX 35 14 36 15 37 16 87 17 38 18 92 19 86 20 88 21 39 22 91 23
REMARK SMILES IDX 85 24 84 25 40 27 72 28 52 29 71 30 53 31 56 32 70 33 89 34
REMARK SMILES IDX 54 35 55 36 69 38 90 39 57 40 41 41 42 42 50 43 43 44 49 45
REMARK SMILES IDX 51 46 48 47 44 48 45 49 46 50 47 51 73 52 74 53 82 54 75 55
REMARK SMILES IDX 81 56 83 57 80 58 76 59 77 60 78 61 79 62 58 63 59 64 67 65
REMARK SMILES IDX 60 66 66 67 68 68 65 69 61 70 62 71 63 72 64 73 9 74 10 75
REMARK SMILES IDX 11 76 12 77 13 78 14 79 15 80 16 81 17 82 18 83 19 84 20 85
REMARK SMILES IDX 21 86 25 87 22 88 24 89 26 90 23 91 27 92 28 93 29 94 30 95
REMARK SMILES IDX 31 96
REMARK H PARENT 88 26 56 37
REMARK Flexibility Score: inf
ROOT
ATOM      1  C   UNL A   1      34.631  33.531  32.518  1.00  0.00     0.188 C 
ENDROOT
BRANCH   1   2
ATOM      2  C   UNL A   1      35.695  34.616  32.420  1.00  0.00     0.188 C 
BRANCH   2   3
ATOM      3  O   UNL A   1      36.040  34.991  33.749  1.00  0.00    -0.376 OA
BRANCH   3   4
ATOM      4  C   UNL A   1      35.925  33.972  34.730  1.00  0.00     0.202 C 
BRANCH   4   5
ATOM      5  C   UNL A   1      37.185  33.838  35.584  1.00  0.00     0.261 C 
BRANCH   5   6
ATOM      6  O   UNL A   1      37.096  32.711  36.472  1.00  0.00    -0.460 OA
BRANCH   6   7
ATOM      7  C   UNL A   1      37.859  31.587  36.462  1.00  0.00     0.338 C 
ATOM      8  O   UNL A   1      37.689  30.762  37.359  1.00  0.00    -0.246 OA
BRANCH   7   9
ATOM      9  C   UNL A   1      38.888  31.275  35.417  1.00  0.00     0.060 A 
ATOM     10  C   UNL A   1      38.632  30.656  34.191  1.00  0.00     0.016 A 
ATOM     11  C   UNL A   1      40.201  31.712  35.663  1.00  0.00     0.016 A 
ATOM     12  C   UNL A   1      39.638  30.415  33.266  1.00  0.00     0.010 A 
ATOM     13  C   UNL A   1      41.224  31.486  34.733  1.00  0.00     0.010 A 
ATOM     14  C   UNL A   1      40.944  30.808  33.541  1.00  0.00    -0.014 A 
BRANCH  14  15
ATOM     15  C   UNL A   1      42.010  30.302  32.658  1.00  0.00     0.031 A 
ATOM     16  C   UNL A   1      42.559  28.938  32.955  1.00  0.00     0.074 A 
ATOM     17  C   UNL A   1      42.347  30.969  31.541  1.00  0.00     0.049 A 
ATOM     18  N   UNL A   1      43.537  28.291  32.386  1.00  0.00    -0.248 NA
ATOM     19  C   UNL A   1      41.892  28.196  34.038  1.00  0.00     0.031 C 
ATOM     20  C   UNL A   1      41.730  32.219  31.090  1.00  0.00     0.029 A 
ATOM     21  N   UNL A   1      43.266  30.680  30.568  1.00  0.00    -0.354 N 
ATOM     22  C   UNL A   1      43.624  27.078  33.061  1.00  0.00     0.074 A 
ATOM     23  C   UNL A   1      42.601  27.081  34.081  1.00  0.00     0.031 C 
ATOM     24  C   UNL A   1      42.284  32.581  29.920  1.00  0.00     0.029 A 
ATOM     25  C   UNL A   1      43.343  31.636  29.581  1.00  0.00     0.049 A 
ATOM     26  H   UNL A   1      43.818  29.865  30.573  1.00  0.00     0.167 HD
ATOM     27  C   UNL A   1      44.497  26.063  32.849  1.00  0.00     0.034 A 
ATOM     28  C   UNL A   1      44.209  31.747  28.554  1.00  0.00     0.034 A 
ATOM     29  C   UNL A   1      45.517  26.122  31.835  1.00  0.00     0.049 A 
ATOM     30  C   UNL A   1      45.262  30.672  28.417  1.00  0.00     0.074 A 
ATOM     31  C   UNL A   1      46.545  25.235  31.579  1.00  0.00     0.029 A 
ATOM     32  N   UNL A   1      45.636  27.151  30.903  1.00  0.00    -0.354 N 
ATOM     33  N   UNL A   1      45.424  29.579  29.132  1.00  0.00    -0.248 NA
ATOM     34  C   UNL A   1      46.259  30.850  27.356  1.00  0.00     0.031 C 
ATOM     35  C   UNL A   1      47.315  25.755  30.529  1.00  0.00     0.029 A 
ATOM     36  C   UNL A   1      46.730  26.934  30.086  1.00  0.00     0.049 A 
ATOM     37  H   UNL A   1      45.026  27.921  30.836  1.00  0.00     0.167 HD
ATOM     38  C   UNL A   1      46.537  28.936  28.603  1.00  0.00     0.074 A 
ATOM     39  C   UNL A   1      46.990  29.752  27.491  1.00  0.00     0.031 C 
ATOM     40  C   UNL A   1      47.143  27.786  28.995  1.00  0.00     0.034 A 
BRANCH  27  41
ATOM     41  C   UNL A   1      44.433  24.908  33.816  1.00  0.00     0.023 A 
ATOM     42  C   UNL A   1      44.800  25.046  35.168  1.00  0.00     0.031 A 
ATOM     43  C   UNL A   1      44.132  23.617  33.344  1.00  0.00     0.131 A 
ATOM     44  C   UNL A   1      44.948  23.903  35.971  1.00  0.00     0.055 A 
ATOM     45  C   UNL A   1      44.203  22.495  34.172  1.00  0.00     0.041 A 
ATOM     46  F   UNL A   1      43.811  23.419  32.056  1.00  0.00    -0.206 F 
ATOM     47  C   UNL A   1      44.632  22.632  35.488  1.00  0.00     0.022 A 
BRANCH  44  48
ATOM     48  S   UNL A   1      45.727  24.084  37.601  1.00  0.00     0.124 S 
ATOM     49  O   UNL A   1      45.904  22.688  38.000  1.00  0.00    -0.237 OA
ATOM     50  O   UNL A   1      46.942  24.819  37.295  1.00  0.00    -0.237 OA
ATOM     51  O   UNL A   1      44.728  24.820  38.380  1.00  0.00    -0.744 OA
ENDBRANCH  44  48
ENDBRANCH  27  41
BRANCH  28  52
ATOM     52  C   UNL A   1      44.190  32.942  27.656  1.00  0.00     0.023 A 
ATOM     53  C   UNL A   1      44.530  34.223  28.121  1.00  0.00     0.031 A 
ATOM     54  C   UNL A   1      43.777  32.823  26.314  1.00  0.00     0.131 A 
ATOM     55  C   UNL A   1      44.421  35.333  27.264  1.00  0.00     0.055 A 
ATOM     56  C   UNL A   1      43.724  33.920  25.452  1.00  0.00     0.041 A 
ATOM     57  F   UNL A   1      43.423  31.629  25.814  1.00  0.00    -0.206 F 
ATOM     58  C   UNL A   1      44.036  35.188  25.929  1.00  0.00     0.022 A 
BRANCH  55  59
ATOM     59  S   UNL A   1      44.702  36.994  27.940  1.00  0.00     0.124 S 
ATOM     60  O   UNL A   1      46.007  37.327  27.382  1.00  0.00    -0.237 OA
ATOM     61  O   UNL A   1      43.565  37.736  27.404  1.00  0.00    -0.237 OA
ATOM     62  O   UNL A   1      44.679  36.782  29.387  1.00  0.00    -0.744 OA
ENDBRANCH  55  59
ENDBRANCH  28  52
BRANCH  40  63
ATOM     63  C   UNL A   1      48.337  27.349  28.190  1.00  0.00     0.023 A 
ATOM     64  C   UNL A   1      49.641  27.722  28.555  1.00  0.00     0.031 A 
ATOM     65  C   UNL A   1      48.162  26.546  27.050  1.00  0.00     0.131 A 
ATOM     66  C   UNL A   1      50.723  27.327  27.757  1.00  0.00     0.055 A 
ATOM     67  C   UNL A   1      49.247  26.114  26.290  1.00  0.00     0.041 A 
ATOM     68  F   UNL A   1      46.934  26.164  26.666  1.00  0.00    -0.206 F 
ATOM     69  C   UNL A   1      50.536  26.513  26.636  1.00  0.00     0.022 A 
BRANCH  66  70
ATOM     70  S   UNL A   1      52.376  27.950  28.167  1.00  0.00     0.124 S 
ATOM     71  O   UNL A   1      52.901  28.303  26.853  1.00  0.00    -0.237 OA
ATOM     72  O   UNL A   1      52.078  29.067  29.057  1.00  0.00    -0.237 OA
ATOM     73  O   UNL A   1      53.023  26.805  28.807  1.00  0.00    -0.744 OA
ENDBRANCH  66  70
ENDBRANCH  40  63
ENDBRANCH  14  15
ENDBRANCH   7   9
ENDBRANCH   6   7
ENDBRANCH   5   6
ENDBRANCH   4   5
ENDBRANCH   3   4
ENDBRANCH   2   3
ENDBRANCH   1   2
BRANCH   1  74
ATOM     74  O   UNL A   1      34.918  32.385  31.711  1.00  0.00    -0.377 OA
BRANCH  74  75
ATOM     75  C   UNL A   1      35.847  32.559  30.650  1.00  0.00     0.188 C 
BRANCH  75  76
ATOM     76  C   UNL A   1      36.432  31.298  30.007  1.00  0.00     0.188 C 
BRANCH  76  77
ATOM     77  O   UNL A   1      36.987  30.315  30.857  1.00  0.00    -0.376 OA
BRANCH  77  78
ATOM     78  C   UNL A   1      37.314  29.028  30.334  1.00  0.00     0.202 C 
BRANCH  78  79
ATOM     79  C   UNL A   1      38.659  28.354  30.649  1.00  0.00     0.261 C 
BRANCH  79  80
ATOM     80  O   UNL A   1      39.679  28.542  29.634  1.00  0.00    -0.463 OA
BRANCH  80  81
ATOM     81  C   UNL A   1      39.859  27.510  28.782  1.00  0.00     0.309 C 
ATOM     82  O   UNL A   1      39.003  27.107  28.000  1.00  0.00    -0.252 OA
BRANCH  81  83
ATOM     83  C   UNL A   1      41.191  26.773  28.886  1.00  0.00     0.112 C 
BRANCH  83  84
ATOM     84  C   UNL A   1      41.304  25.291  28.465  1.00  0.00     0.052 C 
BRANCH  84  85
ATOM     85  C   UNL A   1      42.592  24.553  28.165  1.00  0.00    -0.033 A 
ATOM     86  C   UNL A   1      43.818  24.906  28.741  1.00  0.00     0.005 A 
ATOM     87  C   UNL A   1      42.590  23.458  27.266  1.00  0.00     0.021 A 
ATOM     88  C   UNL A   1      44.998  24.228  28.410  1.00  0.00     0.000 A 
ATOM     89  C   UNL A   1      43.774  22.795  26.920  1.00  0.00     0.016 A 
ATOM     90  Br  UNL A   1      40.993  22.795  26.457  1.00  0.00    -0.051 Br
ATOM     91  C   UNL A   1      44.980  23.183  27.491  1.00  0.00     0.001 A 
ENDBRANCH  84  85
ENDBRANCH  83  84
BRANCH  83  92
ATOM     92  C   UNL A   1      42.400  27.625  28.485  1.00  0.00     0.131 C 
BRANCH  92  93
ATOM     93  C   UNL A   1      42.420  28.013  27.019  1.00  0.00     0.389 C 
ATOM     94  F   UNL A   1      41.896  27.050  26.237  1.00  0.00    -0.171 F 
ATOM     95  F   UNL A   1      41.674  29.129  26.836  1.00  0.00    -0.171 F 
ATOM     96  F   UNL A   1      43.669  28.297  26.601  1.00  0.00    -0.171 F 
ENDBRANCH  92  93
ENDBRANCH  83  92
ENDBRANCH  81  83
ENDBRANCH  80  81
ENDBRANCH  79  80
ENDBRANCH  78  79
ENDBRANCH  77  78
ENDBRANCH  76  77
ENDBRANCH  75  76
ENDBRANCH  74  75
ENDBRANCH   1  74
TORSDOF 27
ENDMDL
