MODEL 1
REMARK VINA RESULT:      -8.7      0.000      0.000
REMARK SMILES C[NH2+][C@@]1(C(=O)OCCOCCOCCOCCOC(=O)c2ccc(-c3c4nc(c(-c5cc(S(=O)(=O)[O-])ccc5F)c5ccc([nH]5)c(-c5cc(S(=O)(=O)[O-])ccc5F)c5nc(c(-c6cc(S(=O)(=O)[O-])ccc6F)c6ccc3[nH]6)C=C5)C=C4)cc2)CCC[C@H](n2cc(I)cn2)C1
REMARK SMILES IDX 13 1 12 2 11 3 10 4 9 5 8 6 7 7 6 8 4 9 5 10 3 11 84 12
REMARK SMILES IDX 94 13 85 14 87 15 86 16 2 17 1 18 88 21 89 22 93 23 90 24
REMARK SMILES IDX 92 25 91 26 14 27 15 28 16 29 17 30 18 31 19 32 20 33 21 34
REMARK SMILES IDX 22 35 83 36 23 37 82 38 24 39 25 40 26 41 76 42 27 43 81 44
REMARK SMILES IDX 75 45 77 46 28 47 80 48 74 49 73 50 29 52 61 53 41 54 60 55
REMARK SMILES IDX 42 56 45 57 59 58 78 59 43 60 44 61 58 63 79 64 46 65 30 66
REMARK SMILES IDX 31 67 39 68 32 69 38 70 40 71 37 72 33 73 34 74 35 75 36 76
REMARK SMILES IDX 62 77 63 78 71 79 64 80 70 81 72 82 69 83 65 84 66 85 67 86
REMARK SMILES IDX 68 87 47 88 48 89 56 90 49 91 55 92 57 93 54 94 50 95 51 96
REMARK SMILES IDX 52 97 53 98
REMARK H PARENT 2 19 2 20 77 51 45 62
REMARK Flexibility Score: inf
ROOT
ATOM      1  C   UNL A   1      41.998  21.661  26.968  1.00  0.00     0.188 C 
ENDROOT
BRANCH   1   2
ATOM      2  O   UNL A   1      41.065  22.322  26.121  1.00  0.00    -0.377 OA
BRANCH   2   3
ATOM      3  C   UNL A   1      39.718  22.224  26.537  1.00  0.00     0.188 C 
BRANCH   3   4
ATOM      4  C   UNL A   1      38.856  21.228  25.765  1.00  0.00     0.188 C 
BRANCH   4   5
ATOM      5  O   UNL A   1      37.764  21.770  25.030  1.00  0.00    -0.376 OA
BRANCH   5   6
ATOM      6  C   UNL A   1      37.492  23.172  25.118  1.00  0.00     0.202 C 
BRANCH   6   7
ATOM      7  C   UNL A   1      36.332  23.645  26.004  1.00  0.00     0.261 C 
BRANCH   7   8
ATOM      8  O   UNL A   1      35.301  22.634  26.148  1.00  0.00    -0.459 OA
BRANCH   8   9
ATOM      9  C   UNL A   1      34.349  22.603  25.193  1.00  0.00     0.368 C 
ATOM     10  O   UNL A   1      34.579  22.847  24.006  1.00  0.00    -0.245 OA
BRANCH   9  11
ATOM     11  C   UNL A   1      32.889  22.293  25.692  1.00  0.00     0.196 C 
ATOM     12  C   UNL A   1      31.992  22.299  24.430  1.00  0.00     0.081 C 
ATOM     13  C   UNL A   1      32.270  23.120  26.862  1.00  0.00     0.108 C 
ATOM     14  C   UNL A   1      31.346  23.644  24.141  1.00  0.00     0.009 C 
ATOM     15  C   UNL A   1      31.405  24.374  26.542  1.00  0.00     0.114 C 
ATOM     16  C   UNL A   1      30.502  24.062  25.338  1.00  0.00     0.028 C 
BRANCH  11  17
ATOM     17  N   UNL A   1      32.907  20.826  26.097  1.00  0.00    -0.334 N 
ATOM     18  C   UNL A   1      32.635  19.879  25.020  1.00  0.00     0.331 C 
ATOM     19  H   UNL A   1      33.831  20.615  26.476  1.00  0.00     0.347 HD
ATOM     20  H   UNL A   1      32.152  20.711  26.772  1.00  0.00     0.347 HD
ENDBRANCH  11  17
BRANCH  15  21
ATOM     21  N   UNL A   1      32.115  25.644  26.390  1.00  0.00    -0.268 N 
ATOM     22  C   UNL A   1      31.612  26.898  26.621  1.00  0.00     0.123 A 
ATOM     23  N   UNL A   1      33.406  25.681  26.004  1.00  0.00    -0.180 NA
ATOM     24  C   UNL A   1      32.501  27.752  26.031  1.00  0.00     0.051 A 
ATOM     25  C   UNL A   1      33.622  26.978  25.748  1.00  0.00     0.149 A 
ATOM     26  I   UNL A   1      32.180  29.685  25.620  1.00  0.00    -0.041 I 
ENDBRANCH  15  21
ENDBRANCH   9  11
ENDBRANCH   8   9
ENDBRANCH   7   8
ENDBRANCH   6   7
ENDBRANCH   5   6
ENDBRANCH   4   5
ENDBRANCH   3   4
ENDBRANCH   2   3
ENDBRANCH   1   2
BRANCH   1  27
ATOM     27  C   UNL A   1      42.398  20.336  26.323  1.00  0.00     0.188 C 
BRANCH  27  28
ATOM     28  O   UNL A   1      43.248  20.407  25.176  1.00  0.00    -0.376 OA
BRANCH  28  29
ATOM     29  C   UNL A   1      44.578  19.920  25.320  1.00  0.00     0.202 C 
BRANCH  29  30
ATOM     30  C   UNL A   1      45.641  21.036  25.296  1.00  0.00     0.261 C 
BRANCH  30  31
ATOM     31  O   UNL A   1      45.244  22.268  25.923  1.00  0.00    -0.460 OA
BRANCH  31  32
ATOM     32  C   UNL A   1      45.093  23.309  25.064  1.00  0.00     0.338 C 
ATOM     33  O   UNL A   1      45.370  23.332  23.879  1.00  0.00    -0.246 OA
BRANCH  32  34
ATOM     34  C   UNL A   1      44.491  24.460  25.765  1.00  0.00     0.060 A 
ATOM     35  C   UNL A   1      44.089  25.574  25.018  1.00  0.00     0.016 A 
ATOM     36  C   UNL A   1      44.475  24.502  27.161  1.00  0.00     0.016 A 
ATOM     37  C   UNL A   1      43.735  26.759  25.670  1.00  0.00     0.010 A 
ATOM     38  C   UNL A   1      44.131  25.693  27.812  1.00  0.00     0.010 A 
ATOM     39  C   UNL A   1      43.808  26.843  27.069  1.00  0.00    -0.014 A 
BRANCH  39  40
ATOM     40  C   UNL A   1      43.757  28.172  27.735  1.00  0.00     0.031 A 
ATOM     41  C   UNL A   1      45.030  28.963  27.867  1.00  0.00     0.074 A 
ATOM     42  C   UNL A   1      42.604  28.688  28.196  1.00  0.00     0.049 A 
ATOM     43  N   UNL A   1      45.234  30.126  28.433  1.00  0.00    -0.248 NA
ATOM     44  C   UNL A   1      46.236  28.356  27.284  1.00  0.00     0.031 C 
ATOM     45  C   UNL A   1      41.301  28.040  28.099  1.00  0.00     0.029 A 
ATOM     46  N   UNL A   1      42.346  29.875  28.838  1.00  0.00    -0.354 N 
ATOM     47  C   UNL A   1      46.589  30.391  28.277  1.00  0.00     0.074 A 
ATOM     48  C   UNL A   1      47.163  29.249  27.594  1.00  0.00     0.031 C 
ATOM     49  C   UNL A   1      40.381  28.840  28.665  1.00  0.00     0.029 A 
ATOM     50  C   UNL A   1      41.027  30.037  29.192  1.00  0.00     0.049 A 
ATOM     51  H   UNL A   1      43.040  30.547  29.028  1.00  0.00     0.167 HD
ATOM     52  C   UNL A   1      47.291  31.485  28.663  1.00  0.00     0.034 A 
ATOM     53  C   UNL A   1      40.404  31.019  29.876  1.00  0.00     0.034 A 
ATOM     54  C   UNL A   1      46.715  32.607  29.364  1.00  0.00     0.049 A 
ATOM     55  C   UNL A   1      41.215  32.195  30.359  1.00  0.00     0.074 A 
ATOM     56  C   UNL A   1      47.340  33.760  29.809  1.00  0.00     0.029 A 
ATOM     57  N   UNL A   1      45.381  32.713  29.738  1.00  0.00    -0.354 N 
ATOM     58  N   UNL A   1      42.498  32.430  30.207  1.00  0.00    -0.248 NA
ATOM     59  C   UNL A   1      40.495  33.238  31.103  1.00  0.00     0.031 C 
ATOM     60  C   UNL A   1      46.401  34.530  30.506  1.00  0.00     0.029 A 
ATOM     61  C   UNL A   1      45.172  33.895  30.434  1.00  0.00     0.049 A 
ATOM     62  H   UNL A   1      44.686  32.045  29.539  1.00  0.00     0.167 HD
ATOM     63  C   UNL A   1      42.733  33.657  30.820  1.00  0.00     0.074 A 
ATOM     64  C   UNL A   1      41.457  34.121  31.324  1.00  0.00     0.031 C 
ATOM     65  C   UNL A   1      43.899  34.339  30.952  1.00  0.00     0.034 A 
BRANCH  52  66
ATOM     66  C   UNL A   1      48.774  31.479  28.382  1.00  0.00     0.023 A 
ATOM     67  C   UNL A   1      49.327  32.196  27.306  1.00  0.00     0.031 A 
ATOM     68  C   UNL A   1      49.640  30.704  29.173  1.00  0.00     0.131 A 
ATOM     69  C   UNL A   1      50.691  32.062  27.004  1.00  0.00     0.055 A 
ATOM     70  C   UNL A   1      51.010  30.636  28.914  1.00  0.00     0.041 A 
ATOM     71  F   UNL A   1      49.166  29.981  30.199  1.00  0.00    -0.206 F 
ATOM     72  C   UNL A   1      51.540  31.306  27.814  1.00  0.00     0.022 A 
BRANCH  69  73
ATOM     73  S   UNL A   1      51.311  32.773  25.455  1.00  0.00     0.124 S 
ATOM     74  O   UNL A   1      52.544  33.418  25.899  1.00  0.00    -0.237 OA
ATOM     75  O   UNL A   1      51.472  31.596  24.610  1.00  0.00    -0.237 OA
ATOM     76  O   UNL A   1      50.247  33.690  25.049  1.00  0.00    -0.744 OA
ENDBRANCH  69  73
ENDBRANCH  52  66
BRANCH  53  77
ATOM     77  C   UNL A   1      38.947  30.923  30.188  1.00  0.00     0.023 A 
ATOM     78  C   UNL A   1      37.981  31.532  29.368  1.00  0.00     0.031 A 
ATOM     79  C   UNL A   1      38.500  30.257  31.344  1.00  0.00     0.131 A 
ATOM     80  C   UNL A   1      36.627  31.498  29.737  1.00  0.00     0.055 A 
ATOM     81  C   UNL A   1      37.147  30.182  31.679  1.00  0.00     0.041 A 
ATOM     82  F   UNL A   1      39.378  29.659  32.165  1.00  0.00    -0.206 F 
ATOM     83  C   UNL A   1      36.202  30.817  30.880  1.00  0.00     0.022 A 
BRANCH  80  84
ATOM     84  S   UNL A   1      35.427  32.432  28.745  1.00  0.00     0.124 S 
ATOM     85  O   UNL A   1      34.385  32.714  29.727  1.00  0.00    -0.237 OA
ATOM     86  O   UNL A   1      36.222  33.573  28.306  1.00  0.00    -0.237 OA
ATOM     87  O   UNL A   1      35.054  31.493  27.690  1.00  0.00    -0.744 OA
ENDBRANCH  80  84
ENDBRANCH  53  77
BRANCH  65  88
ATOM     88  C   UNL A   1      43.833  35.677  31.646  1.00  0.00     0.023 A 
ATOM     89  C   UNL A   1      43.748  36.881  30.925  1.00  0.00     0.031 A 
ATOM     90  C   UNL A   1      43.875  35.748  33.049  1.00  0.00     0.131 A 
ATOM     91  C   UNL A   1      43.762  38.107  31.607  1.00  0.00     0.055 A 
ATOM     92  C   UNL A   1      43.830  36.968  33.725  1.00  0.00     0.041 A 
ATOM     93  F   UNL A   1      43.959  34.630  33.788  1.00  0.00    -0.206 F 
ATOM     94  C   UNL A   1      43.787  38.158  33.003  1.00  0.00     0.022 A 
BRANCH  91  95
ATOM     95  S   UNL A   1      43.833  39.641  30.642  1.00  0.00     0.124 S 
ATOM     96  O   UNL A   1      45.238  40.015  30.769  1.00  0.00    -0.237 OA
ATOM     97  O   UNL A   1      43.409  39.199  29.318  1.00  0.00    -0.237 OA
ATOM     98  O   UNL A   1      42.893  40.524  31.329  1.00  0.00    -0.744 OA
ENDBRANCH  91  95
ENDBRANCH  65  88
ENDBRANCH  39  40
ENDBRANCH  32  34
ENDBRANCH  31  32
ENDBRANCH  30  31
ENDBRANCH  29  30
ENDBRANCH  28  29
ENDBRANCH  27  28
ENDBRANCH   1  27
TORSDOF 25
ENDMDL
MODEL 2
REMARK VINA RESULT:      -8.3      4.697      9.061
REMARK SMILES C[NH2+][C@@]1(C(=O)OCCOCCOCCOCCOC(=O)c2ccc(-c3c4nc(c(-c5cc(S(=O)(=O)[O-])ccc5F)c5ccc([nH]5)c(-c5cc(S(=O)(=O)[O-])ccc5F)c5nc(c(-c6cc(S(=O)(=O)[O-])ccc6F)c6ccc3[nH]6)C=C5)C=C4)cc2)CCC[C@H](n2cc(I)cn2)C1
REMARK SMILES IDX 13 1 12 2 11 3 10 4 9 5 8 6 7 7 6 8 4 9 5 10 3 11 84 12
REMARK SMILES IDX 94 13 85 14 87 15 86 16 2 17 1 18 88 21 89 22 93 23 90 24
REMARK SMILES IDX 92 25 91 26 14 27 15 28 16 29 17 30 18 31 19 32 20 33 21 34
REMARK SMILES IDX 22 35 83 36 23 37 82 38 24 39 25 40 26 41 76 42 27 43 81 44
REMARK SMILES IDX 75 45 77 46 28 47 80 48 74 49 73 50 29 52 61 53 41 54 60 55
REMARK SMILES IDX 42 56 45 57 59 58 78 59 43 60 44 61 58 63 79 64 46 65 30 66
REMARK SMILES IDX 31 67 39 68 32 69 38 70 40 71 37 72 33 73 34 74 35 75 36 76
REMARK SMILES IDX 62 77 63 78 71 79 64 80 70 81 72 82 69 83 65 84 66 85 67 86
REMARK SMILES IDX 68 87 47 88 48 89 56 90 49 91 55 92 57 93 54 94 50 95 51 96
REMARK SMILES IDX 52 97 53 98
REMARK H PARENT 2 19 2 20 77 51 45 62
REMARK Flexibility Score: inf
ROOT
ATOM      1  C   UNL A   1      44.946  19.919  24.041  1.00  0.00     0.188 C 
ENDROOT
BRANCH   1   2
ATOM      2  O   UNL A   1      44.558  21.279  23.875  1.00  0.00    -0.377 OA
BRANCH   2   3
ATOM      3  C   UNL A   1      45.364  22.210  24.567  1.00  0.00     0.188 C 
BRANCH   3   4
ATOM      4  C   UNL A   1      44.844  23.646  24.594  1.00  0.00     0.188 C 
BRANCH   4   5
ATOM      5  O   UNL A   1      45.664  24.605  25.252  1.00  0.00    -0.376 OA
BRANCH   5   6
ATOM      6  C   UNL A   1      47.064  24.645  24.959  1.00  0.00     0.202 C 
BRANCH   6   7
ATOM      7  C   UNL A   1      47.735  26.009  24.745  1.00  0.00     0.261 C 
BRANCH   7   8
ATOM      8  O   UNL A   1      49.182  25.908  24.690  1.00  0.00    -0.459 OA
BRANCH   8   9
ATOM      9  C   UNL A   1      49.872  26.638  25.590  1.00  0.00     0.368 C 
ATOM     10  O   UNL A   1      49.806  27.867  25.652  1.00  0.00    -0.245 OA
BRANCH   9  11
ATOM     11  C   UNL A   1      50.833  25.826  26.536  1.00  0.00     0.196 C 
ATOM     12  C   UNL A   1      51.372  26.840  27.575  1.00  0.00     0.081 C 
ATOM     13  C   UNL A   1      51.966  24.941  25.928  1.00  0.00     0.108 C 
ATOM     14  C   UNL A   1      52.695  27.477  27.182  1.00  0.00     0.009 C 
ATOM     15  C   UNL A   1      53.392  25.539  25.748  1.00  0.00     0.114 C 
ATOM     16  C   UNL A   1      53.738  26.385  26.983  1.00  0.00     0.028 C 
BRANCH  11  17
ATOM     17  N   UNL A   1      49.919  24.934  27.365  1.00  0.00    -0.334 N 
ATOM     18  C   UNL A   1      49.772  25.322  28.764  1.00  0.00     0.331 C 
ATOM     19  H   UNL A   1      48.994  24.946  26.936  1.00  0.00     0.347 HD
ATOM     20  H   UNL A   1      50.355  24.013  27.371  1.00  0.00     0.347 HD
ENDBRANCH  11  17
BRANCH  15  21
ATOM     21  N   UNL A   1      53.656  26.248  24.496  1.00  0.00    -0.268 N 
ATOM     22  C   UNL A   1      54.831  26.851  24.126  1.00  0.00     0.123 A 
ATOM     23  N   UNL A   1      52.711  26.358  23.541  1.00  0.00    -0.180 NA
ATOM     24  C   UNL A   1      54.502  27.653  23.069  1.00  0.00     0.051 A 
ATOM     25  C   UNL A   1      53.225  27.253  22.688  1.00  0.00     0.149 A 
ATOM     26  I   UNL A   1      55.630  29.123  22.312  1.00  0.00    -0.041 I 
ENDBRANCH  15  21
ENDBRANCH   9  11
ENDBRANCH   8   9
ENDBRANCH   7   8
ENDBRANCH   6   7
ENDBRANCH   5   6
ENDBRANCH   4   5
ENDBRANCH   3   4
ENDBRANCH   2   3
ENDBRANCH   1   2
BRANCH   1  27
ATOM     27  C   UNL A   1      44.220  19.343  25.253  1.00  0.00     0.188 C 
BRANCH  27  28
ATOM     28  O   UNL A   1      42.853  18.965  25.069  1.00  0.00    -0.376 OA
BRANCH  28  29
ATOM     29  C   UNL A   1      41.900  19.504  25.978  1.00  0.00     0.202 C 
BRANCH  29  30
ATOM     30  C   UNL A   1      42.312  20.874  26.552  1.00  0.00     0.261 C 
BRANCH  30  31
ATOM     31  O   UNL A   1      41.816  22.011  25.826  1.00  0.00    -0.460 OA
BRANCH  31  32
ATOM     32  C   UNL A   1      40.965  22.798  26.533  1.00  0.00     0.338 C 
ATOM     33  O   UNL A   1      39.826  22.533  26.872  1.00  0.00    -0.246 OA
BRANCH  32  34
ATOM     34  C   UNL A   1      41.628  24.067  26.893  1.00  0.00     0.060 A 
ATOM     35  C   UNL A   1      42.072  24.251  28.207  1.00  0.00     0.016 A 
ATOM     36  C   UNL A   1      41.664  25.124  25.980  1.00  0.00     0.016 A 
ATOM     37  C   UNL A   1      42.488  25.517  28.632  1.00  0.00     0.010 A 
ATOM     38  C   UNL A   1      42.070  26.393  26.409  1.00  0.00     0.010 A 
ATOM     39  C   UNL A   1      42.436  26.607  27.750  1.00  0.00    -0.014 A 
BRANCH  39  40
ATOM     40  C   UNL A   1      42.557  27.993  28.279  1.00  0.00     0.031 A 
ATOM     41  C   UNL A   1      43.920  28.630  28.333  1.00  0.00     0.074 A 
ATOM     42  C   UNL A   1      41.482  28.692  28.682  1.00  0.00     0.049 A 
ATOM     43  N   UNL A   1      44.271  29.808  28.779  1.00  0.00    -0.248 NA
ATOM     44  C   UNL A   1      45.035  27.822  27.817  1.00  0.00     0.031 C 
ATOM     45  C   UNL A   1      40.107  28.204  28.649  1.00  0.00     0.029 A 
ATOM     46  N   UNL A   1      41.379  29.960  29.201  1.00  0.00    -0.354 N 
ATOM     47  C   UNL A   1      45.648  29.887  28.600  1.00  0.00     0.074 A 
ATOM     48  C   UNL A   1      46.069  28.620  28.037  1.00  0.00     0.031 C 
ATOM     49  C   UNL A   1      39.300  29.165  29.129  1.00  0.00     0.029 A 
ATOM     50  C   UNL A   1      40.094  30.319  29.533  1.00  0.00     0.049 A 
ATOM     51  H   UNL A   1      42.153  30.556  29.323  1.00  0.00     0.167 HD
ATOM     52  C   UNL A   1      46.484  30.919  28.875  1.00  0.00     0.034 A 
ATOM     53  C   UNL A   1      39.604  31.435  30.113  1.00  0.00     0.034 A 
ATOM     54  C   UNL A   1      46.058  32.168  29.458  1.00  0.00     0.049 A 
ATOM     55  C   UNL A   1      40.560  32.543  30.477  1.00  0.00     0.074 A 
ATOM     56  C   UNL A   1      46.826  33.273  29.786  1.00  0.00     0.029 A 
ATOM     57  N   UNL A   1      44.752  32.476  29.817  1.00  0.00    -0.354 N 
ATOM     58  N   UNL A   1      41.860  32.601  30.305  1.00  0.00    -0.248 NA
ATOM     59  C   UNL A   1      39.982  33.737  31.110  1.00  0.00     0.031 C 
ATOM     60  C   UNL A   1      45.996  34.219  30.399  1.00  0.00     0.029 A 
ATOM     61  C   UNL A   1      44.697  33.738  30.388  1.00  0.00     0.049 A 
ATOM     62  H   UNL A   1      43.977  31.883  29.684  1.00  0.00     0.167 HD
ATOM     63  C   UNL A   1      42.252  33.845  30.791  1.00  0.00     0.074 A 
ATOM     64  C   UNL A   1      41.048  34.512  31.243  1.00  0.00     0.031 C 
ATOM     65  C   UNL A   1      43.494  34.387  30.856  1.00  0.00     0.034 A 
BRANCH  52  66
ATOM     66  C   UNL A   1      47.951  30.700  28.600  1.00  0.00     0.023 A 
ATOM     67  C   UNL A   1      48.794  30.072  29.535  1.00  0.00     0.031 A 
ATOM     68  C   UNL A   1      48.525  31.170  27.406  1.00  0.00     0.131 A 
ATOM     69  C   UNL A   1      50.174  30.001  29.294  1.00  0.00     0.055 A 
ATOM     70  C   UNL A   1      49.888  31.028  27.139  1.00  0.00     0.041 A 
ATOM     71  F   UNL A   1      47.775  31.798  26.488  1.00  0.00    -0.206 F 
ATOM     72  C   UNL A   1      50.724  30.454  28.093  1.00  0.00     0.022 A 
BRANCH  69  73
ATOM     73  S   UNL A   1      51.261  29.441  30.634  1.00  0.00     0.124 S 
ATOM     74  O   UNL A   1      50.804  28.068  30.831  1.00  0.00    -0.237 OA
ATOM     75  O   UNL A   1      52.588  29.596  30.049  1.00  0.00    -0.237 OA
ATOM     76  O   UNL A   1      50.953  30.356  31.731  1.00  0.00    -0.744 OA
ENDBRANCH  69  73
ENDBRANCH  52  66
BRANCH  53  77
ATOM     77  C   UNL A   1      38.150  31.553  30.430  1.00  0.00     0.023 A 
ATOM     78  C   UNL A   1      37.228  32.015  29.476  1.00  0.00     0.031 A 
ATOM     79  C   UNL A   1      37.666  31.248  31.716  1.00  0.00     0.131 A 
ATOM     80  C   UNL A   1      35.882  32.197  29.833  1.00  0.00     0.055 A 
ATOM     81  C   UNL A   1      36.317  31.382  32.050  1.00  0.00     0.041 A 
ATOM     82  F   UNL A   1      38.502  30.804  32.669  1.00  0.00    -0.206 F 
ATOM     83  C   UNL A   1      35.418  31.872  31.109  1.00  0.00     0.022 A 
BRANCH  80  84
ATOM     84  S   UNL A   1      34.752  32.949  28.626  1.00  0.00     0.124 S 
ATOM     85  O   UNL A   1      34.147  34.019  29.412  1.00  0.00    -0.237 OA
ATOM     86  O   UNL A   1      35.671  33.366  27.572  1.00  0.00    -0.237 OA
ATOM     87  O   UNL A   1      33.856  31.851  28.270  1.00  0.00    -0.744 OA
ENDBRANCH  80  84
ENDBRANCH  53  77
BRANCH  65  88
ATOM     88  C   UNL A   1      43.602  35.785  31.412  1.00  0.00     0.023 A 
ATOM     89  C   UNL A   1      43.700  36.909  30.572  1.00  0.00     0.031 A 
ATOM     90  C   UNL A   1      43.624  35.994  32.802  1.00  0.00     0.131 A 
ATOM     91  C   UNL A   1      43.871  38.185  31.129  1.00  0.00     0.055 A 
ATOM     92  C   UNL A   1      43.737  37.272  33.351  1.00  0.00     0.041 A 
ATOM     93  F   UNL A   1      43.536  34.958  33.650  1.00  0.00    -0.206 F 
ATOM     94  C   UNL A   1      43.875  38.376  32.513  1.00  0.00     0.022 A 
BRANCH  91  95
ATOM     95  S   UNL A   1      44.176  39.588  30.019  1.00  0.00     0.124 S 
ATOM     96  O   UNL A   1      44.767  38.933  28.857  1.00  0.00    -0.237 OA
ATOM     97  O   UNL A   1      42.837  40.134  29.830  1.00  0.00    -0.237 OA
ATOM     98  O   UNL A   1      45.088  40.437  30.782  1.00  0.00    -0.744 OA
ENDBRANCH  91  95
ENDBRANCH  65  88
ENDBRANCH  39  40
ENDBRANCH  32  34
ENDBRANCH  31  32
ENDBRANCH  30  31
ENDBRANCH  29  30
ENDBRANCH  28  29
ENDBRANCH  27  28
ENDBRANCH   1  27
TORSDOF 25
ENDMDL
MODEL 3
REMARK VINA RESULT:      -8.0      6.559     11.063
REMARK SMILES C[NH2+][C@@]1(C(=O)OCCOCCOCCOCCOC(=O)c2ccc(-c3c4nc(c(-c5cc(S(=O)(=O)[O-])ccc5F)c5ccc([nH]5)c(-c5cc(S(=O)(=O)[O-])ccc5F)c5nc(c(-c6cc(S(=O)(=O)[O-])ccc6F)c6ccc3[nH]6)C=C5)C=C4)cc2)CCC[C@H](n2cc(I)cn2)C1
REMARK SMILES IDX 13 1 12 2 11 3 10 4 9 5 8 6 7 7 6 8 4 9 5 10 3 11 84 12
REMARK SMILES IDX 94 13 85 14 87 15 86 16 2 17 1 18 88 21 89 22 93 23 90 24
REMARK SMILES IDX 92 25 91 26 14 27 15 28 16 29 17 30 18 31 19 32 20 33 21 34
REMARK SMILES IDX 22 35 83 36 23 37 82 38 24 39 25 40 26 41 76 42 27 43 81 44
REMARK SMILES IDX 75 45 77 46 28 47 80 48 74 49 73 50 29 52 61 53 41 54 60 55
REMARK SMILES IDX 42 56 45 57 59 58 78 59 43 60 44 61 58 63 79 64 46 65 30 66
REMARK SMILES IDX 31 67 39 68 32 69 38 70 40 71 37 72 33 73 34 74 35 75 36 76
REMARK SMILES IDX 62 77 63 78 71 79 64 80 70 81 72 82 69 83 65 84 66 85 67 86
REMARK SMILES IDX 68 87 47 88 48 89 56 90 49 91 55 92 57 93 54 94 50 95 51 96
REMARK SMILES IDX 52 97 53 98
REMARK H PARENT 2 19 2 20 77 51 45 62
REMARK Flexibility Score: inf
ROOT
ATOM      1  C   UNL A   1      50.400  28.473  21.498  1.00  0.00     0.188 C 
ENDROOT
BRANCH   1   2
ATOM      2  O   UNL A   1      49.338  28.130  20.614  1.00  0.00    -0.377 OA
BRANCH   2   3
ATOM      3  C   UNL A   1      48.275  27.421  21.217  1.00  0.00     0.188 C 
BRANCH   3   4
ATOM      4  C   UNL A   1      47.487  28.185  22.278  1.00  0.00     0.188 C 
BRANCH   4   5
ATOM      5  O   UNL A   1      47.293  27.524  23.524  1.00  0.00    -0.376 OA
BRANCH   5   6
ATOM      6  C   UNL A   1      46.323  28.037  24.442  1.00  0.00     0.202 C 
BRANCH   6   7
ATOM      7  C   UNL A   1      46.798  28.553  25.807  1.00  0.00     0.261 C 
BRANCH   7   8
ATOM      8  O   UNL A   1      45.804  28.355  26.846  1.00  0.00    -0.459 OA
BRANCH   8   9
ATOM      9  C   UNL A   1      44.855  29.307  26.961  1.00  0.00     0.368 C 
ATOM     10  O   UNL A   1      43.983  29.494  26.110  1.00  0.00    -0.245 OA
BRANCH   9  11
ATOM     11  C   UNL A   1      44.958  30.225  28.234  1.00  0.00     0.196 C 
ATOM     12  C   UNL A   1      46.022  29.573  29.152  1.00  0.00     0.081 C 
ATOM     13  C   UNL A   1      43.669  30.628  29.017  1.00  0.00     0.108 C 
ATOM     14  C   UNL A   1      45.442  28.622  30.185  1.00  0.00     0.009 C 
ATOM     15  C   UNL A   1      43.211  29.771  30.233  1.00  0.00     0.114 C 
ATOM     16  C   UNL A   1      44.446  29.375  31.057  1.00  0.00     0.028 C 
BRANCH  11  17
ATOM     17  N   UNL A   1      45.646  31.496  27.757  1.00  0.00    -0.334 N 
ATOM     18  C   UNL A   1      46.630  32.057  28.678  1.00  0.00     0.331 C 
ATOM     19  H   UNL A   1      46.121  31.287  26.878  1.00  0.00     0.347 HD
ATOM     20  H   UNL A   1      44.912  32.198  27.667  1.00  0.00     0.347 HD
ENDBRANCH  11  17
BRANCH  15  21
ATOM     21  N   UNL A   1      42.345  28.628  29.946  1.00  0.00    -0.268 N 
ATOM     22  C   UNL A   1      42.449  27.765  28.885  1.00  0.00     0.123 A 
ATOM     23  N   UNL A   1      41.322  28.303  30.761  1.00  0.00    -0.180 NA
ATOM     24  C   UNL A   1      41.256  27.099  28.849  1.00  0.00     0.051 A 
ATOM     25  C   UNL A   1      40.637  27.390  30.061  1.00  0.00     0.149 A 
ATOM     26  I   UNL A   1      40.565  26.006  27.322  1.00  0.00    -0.041 I 
ENDBRANCH  15  21
ENDBRANCH   9  11
ENDBRANCH   8   9
ENDBRANCH   7   8
ENDBRANCH   6   7
ENDBRANCH   5   6
ENDBRANCH   4   5
ENDBRANCH   3   4
ENDBRANCH   2   3
ENDBRANCH   1   2
BRANCH   1  27
ATOM     27  C   UNL A   1      51.248  29.564  20.851  1.00  0.00     0.188 C 
BRANCH  27  28
ATOM     28  O   UNL A   1      52.453  29.149  20.204  1.00  0.00    -0.376 OA
BRANCH  28  29
ATOM     29  C   UNL A   1      52.578  27.768  19.883  1.00  0.00     0.202 C 
BRANCH  29  30
ATOM     30  C   UNL A   1      53.626  27.034  20.743  1.00  0.00     0.261 C 
BRANCH  30  31
ATOM     31  O   UNL A   1      53.151  26.575  22.020  1.00  0.00    -0.460 OA
BRANCH  31  32
ATOM     32  C   UNL A   1      54.059  26.678  23.025  1.00  0.00     0.338 C 
ATOM     33  O   UNL A   1      55.270  26.750  22.919  1.00  0.00    -0.246 OA
BRANCH  32  34
ATOM     34  C   UNL A   1      53.369  26.730  24.329  1.00  0.00     0.060 A 
ATOM     35  C   UNL A   1      53.360  25.588  25.137  1.00  0.00     0.016 A 
ATOM     36  C   UNL A   1      52.601  27.846  24.673  1.00  0.00     0.016 A 
ATOM     37  C   UNL A   1      52.526  25.534  26.259  1.00  0.00     0.010 A 
ATOM     38  C   UNL A   1      51.758  27.786  25.789  1.00  0.00     0.010 A 
ATOM     39  C   UNL A   1      51.679  26.611  26.559  1.00  0.00    -0.014 A 
BRANCH  39  40
ATOM     40  C   UNL A   1      50.570  26.432  27.534  1.00  0.00     0.031 A 
ATOM     41  C   UNL A   1      50.767  26.908  28.948  1.00  0.00     0.074 A 
ATOM     42  C   UNL A   1      49.397  25.881  27.177  1.00  0.00     0.049 A 
ATOM     43  N   UNL A   1      49.957  26.832  29.973  1.00  0.00    -0.248 NA
ATOM     44  C   UNL A   1      52.055  27.554  29.243  1.00  0.00     0.031 C 
ATOM     45  C   UNL A   1      49.068  25.412  25.835  1.00  0.00     0.029 A 
ATOM     46  N   UNL A   1      48.266  25.621  27.914  1.00  0.00    -0.354 N 
ATOM     47  C   UNL A   1      50.635  27.418  31.036  1.00  0.00     0.074 A 
ATOM     48  C   UNL A   1      51.937  27.812  30.536  1.00  0.00     0.031 C 
ATOM     49  C   UNL A   1      47.817  24.920  25.848  1.00  0.00     0.029 A 
ATOM     50  C   UNL A   1      47.267  25.007  27.196  1.00  0.00     0.049 A 
ATOM     51  H   UNL A   1      48.179  25.854  28.867  1.00  0.00     0.167 HD
ATOM     52  C   UNL A   1      50.213  27.614  32.310  1.00  0.00     0.034 A 
ATOM     53  C   UNL A   1      46.056  24.546  27.572  1.00  0.00     0.034 A 
ATOM     54  C   UNL A   1      48.924  27.195  32.805  1.00  0.00     0.049 A 
ATOM     55  C   UNL A   1      45.632  24.709  29.011  1.00  0.00     0.074 A 
ATOM     56  C   UNL A   1      48.402  27.337  34.080  1.00  0.00     0.029 A 
ATOM     57  N   UNL A   1      47.955  26.540  32.054  1.00  0.00    -0.354 N 
ATOM     58  N   UNL A   1      46.286  25.262  30.005  1.00  0.00    -0.248 NA
ATOM     59  C   UNL A   1      44.307  24.189  29.376  1.00  0.00     0.031 C 
ATOM     60  C   UNL A   1      47.150  26.711  34.116  1.00  0.00     0.029 A 
ATOM     61  C   UNL A   1      46.856  26.244  32.845  1.00  0.00     0.049 A 
ATOM     62  H   UNL A   1      48.039  26.318  31.098  1.00  0.00     0.167 HD
ATOM     63  C   UNL A   1      45.443  25.173  31.109  1.00  0.00     0.074 A 
ATOM     64  C   UNL A   1      44.227  24.533  30.652  1.00  0.00     0.031 C 
ATOM     65  C   UNL A   1      45.655  25.585  32.384  1.00  0.00     0.034 A 
BRANCH  52  66
ATOM     66  C   UNL A   1      51.191  28.256  33.262  1.00  0.00     0.023 A 
ATOM     67  C   UNL A   1      51.942  27.495  34.177  1.00  0.00     0.031 A 
ATOM     68  C   UNL A   1      51.338  29.654  33.289  1.00  0.00     0.131 A 
ATOM     69  C   UNL A   1      52.745  28.141  35.129  1.00  0.00     0.055 A 
ATOM     70  C   UNL A   1      52.198  30.286  34.188  1.00  0.00     0.041 A 
ATOM     71  F   UNL A   1      50.630  30.431  32.456  1.00  0.00    -0.206 F 
ATOM     72  C   UNL A   1      52.896  29.529  35.126  1.00  0.00     0.022 A 
BRANCH  69  73
ATOM     73  S   UNL A   1      53.475  27.152  36.463  1.00  0.00     0.124 S 
ATOM     74  O   UNL A   1      54.573  26.485  35.768  1.00  0.00    -0.237 OA
ATOM     75  O   UNL A   1      53.857  28.168  37.436  1.00  0.00    -0.237 OA
ATOM     76  O   UNL A   1      52.382  26.273  36.875  1.00  0.00    -0.744 OA
ENDBRANCH  69  73
ENDBRANCH  52  66
BRANCH  53  77
ATOM     77  C   UNL A   1      45.169  23.848  26.595  1.00  0.00     0.023 A 
ATOM     78  C   UNL A   1      45.305  22.474  26.335  1.00  0.00     0.031 A 
ATOM     79  C   UNL A   1      44.198  24.560  25.867  1.00  0.00     0.131 A 
ATOM     80  C   UNL A   1      44.514  21.866  25.346  1.00  0.00     0.055 A 
ATOM     81  C   UNL A   1      43.379  23.940  24.922  1.00  0.00     0.041 A 
ATOM     82  F   UNL A   1      44.025  25.876  26.073  1.00  0.00    -0.206 F 
ATOM     83  C   UNL A   1      43.544  22.587  24.648  1.00  0.00     0.022 A 
BRANCH  80  84
ATOM     84  S   UNL A   1      44.828  20.129  24.922  1.00  0.00     0.124 S 
ATOM     85  O   UNL A   1      46.274  20.038  25.092  1.00  0.00    -0.237 OA
ATOM     86  O   UNL A   1      44.019  19.426  25.911  1.00  0.00    -0.237 OA
ATOM     87  O   UNL A   1      44.353  20.025  23.544  1.00  0.00    -0.744 OA
ENDBRANCH  80  84
ENDBRANCH  53  77
BRANCH  65  88
ATOM     88  C   UNL A   1      44.528  25.379  33.366  1.00  0.00     0.023 A 
ATOM     89  C   UNL A   1      43.681  26.434  33.750  1.00  0.00     0.031 A 
ATOM     90  C   UNL A   1      44.310  24.114  33.937  1.00  0.00     0.131 A 
ATOM     91  C   UNL A   1      42.690  26.216  34.719  1.00  0.00     0.055 A 
ATOM     92  C   UNL A   1      43.285  23.889  34.858  1.00  0.00     0.041 A 
ATOM     93  F   UNL A   1      45.090  23.072  33.608  1.00  0.00    -0.206 F 
ATOM     94  C   UNL A   1      42.477  24.948  35.265  1.00  0.00     0.022 A 
BRANCH  91  95
ATOM     95  S   UNL A   1      41.735  27.635  35.325  1.00  0.00     0.124 S 
ATOM     96  O   UNL A   1      41.182  27.119  36.573  1.00  0.00    -0.237 OA
ATOM     97  O   UNL A   1      42.758  28.666  35.459  1.00  0.00    -0.237 OA
ATOM     98  O   UNL A   1      40.757  27.870  34.264  1.00  0.00    -0.744 OA
ENDBRANCH  91  95
ENDBRANCH  65  88
ENDBRANCH  39  40
ENDBRANCH  32  34
ENDBRANCH  31  32
ENDBRANCH  30  31
ENDBRANCH  29  30
ENDBRANCH  28  29
ENDBRANCH  27  28
ENDBRANCH   1  27
TORSDOF 25
ENDMDL
