MODEL 1
REMARK VINA RESULT:     -11.5      0.000      0.000
REMARK SMILES Cc1ccccc1C(=O)Nc1cc(NC(=O)c2ccccc2C)cc(C(=O)OCCOCCOCCOCCOC(=O)c2ccc(-c3c4nc(c(-c5cc(S(=O)(=O)[O-])ccc5F)c5ccc([nH]5)c(-c5cc(S(=O)(=O)[O-])ccc5F)c5nc(c(-c6cc(S(=O)(=O)[O-])ccc6F)c6ccc3[nH]6)C=C5)C=C4)cc2)c1
REMARK SMILES IDX 35 1 34 2 33 3 32 4 31 5 30 6 29 7 28 8 26 9 27 10 25 11
REMARK SMILES IDX 11 12 12 13 106 14 13 15 24 16 10 17 8 18 9 19 7 21 1 22
REMARK SMILES IDX 2 23 3 24 4 25 6 26 5 27 14 28 15 29 16 31 17 32 18 33 22 34
REMARK SMILES IDX 19 35 21 36 23 37 20 38 36 39 37 40 38 41 39 42 40 43 41 44
REMARK SMILES IDX 42 45 43 46 44 47 105 48 45 49 104 50 46 51 47 52 48 53
REMARK SMILES IDX 98 54 49 55 103 56 97 57 99 58 50 59 102 60 96 61 95 62
REMARK SMILES IDX 51 64 83 65 63 66 82 67 64 68 67 69 81 70 100 71 65 72 66 73
REMARK SMILES IDX 80 75 101 76 68 77 52 78 53 79 61 80 54 81 60 82 62 83 59 84
REMARK SMILES IDX 55 85 56 86 57 87 58 88 84 89 85 90 93 91 86 92 92 93 94 94
REMARK SMILES IDX 91 95 87 96 88 97 89 98 90 99 69 100 70 101 78 102 71 103
REMARK SMILES IDX 77 104 79 105 76 106 72 107 73 108 74 109 75 110
REMARK H PARENT 10 20 14 30 99 63 67 74
REMARK Flexibility Score: inf
ROOT
ATOM      1  C   UNL A   1      41.212  20.137  27.648  1.00  0.00     0.188 C 
ENDROOT
BRANCH   1   2
ATOM      2  O   UNL A   1      40.364  21.268  27.853  1.00  0.00    -0.377 OA
BRANCH   2   3
ATOM      3  C   UNL A   1      40.380  22.271  26.861  1.00  0.00     0.188 C 
BRANCH   3   4
ATOM      4  C   UNL A   1      39.754  23.638  27.230  1.00  0.00     0.188 C 
BRANCH   4   5
ATOM      5  O   UNL A   1      38.381  23.932  27.039  1.00  0.00    -0.376 OA
BRANCH   5   6
ATOM      6  C   UNL A   1      37.845  23.698  25.747  1.00  0.00     0.202 C 
BRANCH   6   7
ATOM      7  C   UNL A   1      36.366  23.508  25.566  1.00  0.00     0.261 C 
BRANCH   7   8
ATOM      8  O   UNL A   1      35.915  24.500  24.681  1.00  0.00    -0.460 OA
BRANCH   8   9
ATOM      9  C   UNL A   1      35.548  23.945  23.534  1.00  0.00     0.338 C 
ATOM     10  O   UNL A   1      36.167  23.193  22.820  1.00  0.00    -0.246 OA
BRANCH   9  11
ATOM     11  C   UNL A   1      34.101  24.125  23.465  1.00  0.00     0.064 A 
ATOM     12  C   UNL A   1      32.660  25.763  22.674  1.00  0.00     0.044 A 
ATOM     13  C   UNL A   1      31.721  25.385  23.626  1.00  0.00     0.052 A 
ATOM     14  C   UNL A   1      33.767  25.003  22.456  1.00  0.00     0.042 A 
ATOM     15  C   UNL A   1      31.917  24.241  24.418  1.00  0.00     0.044 A 
ATOM     16  C   UNL A   1      33.169  23.640  24.388  1.00  0.00     0.042 A 
BRANCH  12  17
ATOM     17  N   UNL A   1      32.774  27.044  22.144  1.00  0.00    -0.322 N 
ATOM     18  C   UNL A   1      33.268  28.110  22.885  1.00  0.00     0.255 C 
ATOM     19  O   UNL A   1      33.839  29.017  22.279  1.00  0.00    -0.269 OA
ATOM     20  H   UNL A   1      32.497  27.200  21.211  1.00  0.00     0.170 HD
BRANCH  18  21
ATOM     21  C   UNL A   1      32.917  28.291  24.324  1.00  0.00     0.043 A 
ATOM     22  C   UNL A   1      30.474  29.175  24.235  1.00  0.00     0.045 C 
ATOM     23  C   UNL A   1      31.784  28.893  24.909  1.00  0.00    -0.038 A 
ATOM     24  C   UNL A   1      31.797  29.150  26.293  1.00  0.00     0.004 A 
ATOM     25  C   UNL A   1      32.811  28.651  27.102  1.00  0.00     0.000 A 
ATOM     26  C   UNL A   1      33.902  27.749  25.161  1.00  0.00     0.014 A 
ATOM     27  C   UNL A   1      33.832  27.896  26.540  1.00  0.00     0.001 A 
ENDBRANCH  18  21
ENDBRANCH  12  17
BRANCH  15  28
ATOM     28  N   UNL A   1      30.963  23.777  25.346  1.00  0.00    -0.322 N 
ATOM     29  C   UNL A   1      30.797  22.503  25.854  1.00  0.00     0.255 C 
ATOM     30  H   UNL A   1      30.328  24.454  25.677  1.00  0.00     0.170 HD
ATOM     31  O   UNL A   1      29.739  22.144  26.363  1.00  0.00    -0.269 OA
BRANCH  29  32
ATOM     32  C   UNL A   1      31.927  21.541  25.780  1.00  0.00     0.043 A 
ATOM     33  C   UNL A   1      31.946  20.689  24.665  1.00  0.00     0.014 A 
ATOM     34  C   UNL A   1      33.016  21.573  26.676  1.00  0.00    -0.038 A 
ATOM     35  C   UNL A   1      33.090  19.949  24.375  1.00  0.00     0.001 A 
ATOM     36  C   UNL A   1      34.165  20.837  26.350  1.00  0.00     0.004 A 
ATOM     37  C   UNL A   1      33.046  22.416  27.921  1.00  0.00     0.045 C 
ATOM     38  C   UNL A   1      34.207  20.045  25.201  1.00  0.00     0.000 A 
ENDBRANCH  29  32
ENDBRANCH  15  28
ENDBRANCH   9  11
ENDBRANCH   8   9
ENDBRANCH   7   8
ENDBRANCH   6   7
ENDBRANCH   5   6
ENDBRANCH   4   5
ENDBRANCH   3   4
ENDBRANCH   2   3
ENDBRANCH   1   2
BRANCH   1  39
ATOM     39  C   UNL A   1      41.705  19.800  26.265  1.00  0.00     0.188 C 
BRANCH  39  40
ATOM     40  O   UNL A   1      43.036  19.317  26.415  1.00  0.00    -0.376 OA
BRANCH  40  41
ATOM     41  C   UNL A   1      43.434  18.370  25.444  1.00  0.00     0.202 C 
BRANCH  41  42
ATOM     42  C   UNL A   1      44.696  18.828  24.716  1.00  0.00     0.261 C 
BRANCH  42  43
ATOM     43  O   UNL A   1      44.520  20.195  24.273  1.00  0.00    -0.460 OA
BRANCH  43  44
ATOM     44  C   UNL A   1      45.300  21.130  24.896  1.00  0.00     0.338 C 
ATOM     45  O   UNL A   1      46.472  20.961  25.187  1.00  0.00    -0.246 OA
BRANCH  44  46
ATOM     46  C   UNL A   1      44.488  22.319  25.312  1.00  0.00     0.060 A 
ATOM     47  C   UNL A   1      43.992  23.250  24.380  1.00  0.00     0.016 A 
ATOM     48  C   UNL A   1      44.457  22.655  26.649  1.00  0.00     0.016 A 
ATOM     49  C   UNL A   1      43.679  24.581  24.773  1.00  0.00     0.010 A 
ATOM     50  C   UNL A   1      44.215  23.972  26.995  1.00  0.00     0.010 A 
ATOM     51  C   UNL A   1      43.896  24.995  26.082  1.00  0.00    -0.014 A 
BRANCH  51  52
ATOM     52  C   UNL A   1      43.949  26.411  26.600  1.00  0.00     0.031 A 
ATOM     53  C   UNL A   1      42.626  27.170  26.746  1.00  0.00     0.074 A 
ATOM     54  C   UNL A   1      45.049  26.854  27.295  1.00  0.00     0.049 A 
ATOM     55  N   UNL A   1      42.466  28.340  27.273  1.00  0.00    -0.248 NA
ATOM     56  C   UNL A   1      41.322  26.616  26.364  1.00  0.00     0.031 C 
ATOM     57  C   UNL A   1      45.067  27.856  28.365  1.00  0.00     0.029 A 
ATOM     58  N   UNL A   1      46.397  26.465  27.282  1.00  0.00    -0.354 N 
ATOM     59  C   UNL A   1      41.141  28.474  27.697  1.00  0.00     0.074 A 
ATOM     60  C   UNL A   1      40.457  27.419  26.998  1.00  0.00     0.031 C 
ATOM     61  C   UNL A   1      46.293  28.050  28.873  1.00  0.00     0.029 A 
ATOM     62  C   UNL A   1      47.186  27.451  27.925  1.00  0.00     0.049 A 
ATOM     63  H   UNL A   1      46.742  25.633  26.887  1.00  0.00     0.167 HD
ATOM     64  C   UNL A   1      40.831  29.351  28.714  1.00  0.00     0.034 A 
ATOM     65  C   UNL A   1      48.127  28.157  27.236  1.00  0.00     0.034 A 
ATOM     66  C   UNL A   1      42.030  30.103  29.142  1.00  0.00     0.049 A 
ATOM     67  C   UNL A   1      47.609  29.592  27.098  1.00  0.00     0.074 A 
ATOM     68  C   UNL A   1      42.662  30.323  30.357  1.00  0.00     0.029 A 
ATOM     69  N   UNL A   1      42.875  30.640  28.176  1.00  0.00    -0.354 N 
ATOM     70  N   UNL A   1      46.327  29.899  27.083  1.00  0.00    -0.248 NA
ATOM     71  C   UNL A   1      48.446  30.778  27.279  1.00  0.00     0.031 C 
ATOM     72  C   UNL A   1      43.942  30.893  30.089  1.00  0.00     0.029 A 
ATOM     73  C   UNL A   1      44.069  31.058  28.716  1.00  0.00     0.049 A 
ATOM     74  H   UNL A   1      42.646  30.713  27.221  1.00  0.00     0.167 HD
ATOM     75  C   UNL A   1      46.163  31.210  27.447  1.00  0.00     0.074 A 
ATOM     76  C   UNL A   1      47.521  31.738  27.474  1.00  0.00     0.031 C 
ATOM     77  C   UNL A   1      45.004  31.795  27.891  1.00  0.00     0.034 A 
BRANCH  64  78
ATOM     78  C   UNL A   1      39.524  29.470  29.535  1.00  0.00     0.023 A 
ATOM     79  C   UNL A   1      38.886  30.740  29.630  1.00  0.00     0.031 A 
ATOM     80  C   UNL A   1      38.887  28.462  30.288  1.00  0.00     0.131 A 
ATOM     81  C   UNL A   1      37.762  30.977  30.455  1.00  0.00     0.055 A 
ATOM     82  C   UNL A   1      37.732  28.683  31.070  1.00  0.00     0.041 A 
ATOM     83  F   UNL A   1      39.346  27.207  30.335  1.00  0.00    -0.206 F 
ATOM     84  C   UNL A   1      37.170  29.947  31.168  1.00  0.00     0.022 A 
BRANCH  81  85
ATOM     85  S   UNL A   1      37.091  32.664  30.599  1.00  0.00     0.124 S 
ATOM     86  O   UNL A   1      38.020  33.286  31.535  1.00  0.00    -0.237 OA
ATOM     87  O   UNL A   1      37.140  33.143  29.223  1.00  0.00    -0.237 OA
ATOM     88  O   UNL A   1      35.741  32.449  31.123  1.00  0.00    -0.744 OA
ENDBRANCH  81  85
ENDBRANCH  64  78
BRANCH  65  89
ATOM     89  C   UNL A   1      48.869  27.208  26.332  1.00  0.00     0.023 A 
ATOM     90  C   UNL A   1      48.378  27.172  24.991  1.00  0.00     0.031 A 
ATOM     91  C   UNL A   1      50.253  27.031  26.508  1.00  0.00     0.131 A 
ATOM     92  C   UNL A   1      49.269  27.262  23.902  1.00  0.00     0.055 A 
ATOM     93  C   UNL A   1      51.131  27.079  25.410  1.00  0.00     0.041 A 
ATOM     94  F   UNL A   1      50.789  27.056  27.736  1.00  0.00    -0.206 F 
ATOM     95  C   UNL A   1      50.648  27.269  24.114  1.00  0.00     0.022 A 
BRANCH  92  96
ATOM     96  S   UNL A   1      48.617  27.661  22.240  1.00  0.00     0.124 S 
ATOM     97  O   UNL A   1      49.589  28.631  21.753  1.00  0.00    -0.237 OA
ATOM     98  O   UNL A   1      48.619  26.362  21.573  1.00  0.00    -0.237 OA
ATOM     99  O   UNL A   1      47.280  28.188  22.515  1.00  0.00    -0.744 OA
ENDBRANCH  92  96
ENDBRANCH  65  89
BRANCH  77 100
ATOM    100  C   UNL A   1      44.629  33.213  27.541  1.00  0.00     0.023 A 
ATOM    101  C   UNL A   1      44.935  34.264  28.399  1.00  0.00     0.031 A 
ATOM    102  C   UNL A   1      44.113  33.580  26.268  1.00  0.00     0.131 A 
ATOM    103  C   UNL A   1      44.650  35.585  28.050  1.00  0.00     0.055 A 
ATOM    104  C   UNL A   1      43.924  34.907  25.882  1.00  0.00     0.041 A 
ATOM    105  F   UNL A   1      43.802  32.679  25.326  1.00  0.00    -0.206 F 
ATOM    106  C   UNL A   1      44.175  35.924  26.786  1.00  0.00     0.022 A 
BRANCH 103 107
ATOM    107  S   UNL A   1      44.839  36.816  29.350  1.00  0.00     0.124 S 
ATOM    108  O   UNL A   1      45.671  37.817  28.685  1.00  0.00    -0.237 OA
ATOM    109  O   UNL A   1      43.459  37.214  29.608  1.00  0.00    -0.237 OA
ATOM    110  O   UNL A   1      45.490  36.078  30.428  1.00  0.00    -0.744 OA
ENDBRANCH 103 107
ENDBRANCH  77 100
ENDBRANCH  51  52
ENDBRANCH  44  46
ENDBRANCH  43  44
ENDBRANCH  42  43
ENDBRANCH  41  42
ENDBRANCH  40  41
ENDBRANCH  39  40
ENDBRANCH   1  39
TORSDOF 27
ENDMDL
MODEL 2
REMARK VINA RESULT:     -10.3      1.854      2.210
REMARK SMILES Cc1ccccc1C(=O)Nc1cc(NC(=O)c2ccccc2C)cc(C(=O)OCCOCCOCCOCCOC(=O)c2ccc(-c3c4nc(c(-c5cc(S(=O)(=O)[O-])ccc5F)c5ccc([nH]5)c(-c5cc(S(=O)(=O)[O-])ccc5F)c5nc(c(-c6cc(S(=O)(=O)[O-])ccc6F)c6ccc3[nH]6)C=C5)C=C4)cc2)c1
REMARK SMILES IDX 35 1 34 2 33 3 32 4 31 5 30 6 29 7 28 8 26 9 27 10 25 11
REMARK SMILES IDX 11 12 12 13 106 14 13 15 24 16 10 17 8 18 9 19 7 21 1 22
REMARK SMILES IDX 2 23 3 24 4 25 6 26 5 27 14 28 15 29 16 31 17 32 18 33 22 34
REMARK SMILES IDX 19 35 21 36 23 37 20 38 36 39 37 40 38 41 39 42 40 43 41 44
REMARK SMILES IDX 42 45 43 46 44 47 105 48 45 49 104 50 46 51 47 52 48 53
REMARK SMILES IDX 98 54 49 55 103 56 97 57 99 58 50 59 102 60 96 61 95 62
REMARK SMILES IDX 51 64 83 65 63 66 82 67 64 68 67 69 81 70 100 71 65 72 66 73
REMARK SMILES IDX 80 75 101 76 68 77 52 78 53 79 61 80 54 81 60 82 62 83 59 84
REMARK SMILES IDX 55 85 56 86 57 87 58 88 84 89 85 90 93 91 86 92 92 93 94 94
REMARK SMILES IDX 91 95 87 96 88 97 89 98 90 99 69 100 70 101 78 102 71 103
REMARK SMILES IDX 77 104 79 105 76 106 72 107 73 108 74 109 75 110
REMARK H PARENT 10 20 14 30 99 63 67 74
REMARK Flexibility Score: inf
ROOT
ATOM      1  C   UNL A   1      41.616  20.131  27.554  1.00  0.00     0.188 C 
ENDROOT
BRANCH   1   2
ATOM      2  O   UNL A   1      40.893  21.345  27.771  1.00  0.00    -0.377 OA
BRANCH   2   3
ATOM      3  C   UNL A   1      40.008  21.756  26.752  1.00  0.00     0.188 C 
BRANCH   3   4
ATOM      4  C   UNL A   1      39.584  23.245  26.745  1.00  0.00     0.188 C 
BRANCH   4   5
ATOM      5  O   UNL A   1      38.230  23.659  26.706  1.00  0.00    -0.376 OA
BRANCH   5   6
ATOM      6  C   UNL A   1      37.672  23.919  25.427  1.00  0.00     0.202 C 
BRANCH   6   7
ATOM      7  C   UNL A   1      36.698  22.951  24.817  1.00  0.00     0.261 C 
BRANCH   7   8
ATOM      8  O   UNL A   1      35.529  23.662  24.508  1.00  0.00    -0.460 OA
BRANCH   8   9
ATOM      9  C   UNL A   1      35.288  23.588  23.206  1.00  0.00     0.338 C 
ATOM     10  O   UNL A   1      35.981  23.128  22.330  1.00  0.00    -0.246 OA
BRANCH   9  11
ATOM     11  C   UNL A   1      33.858  23.840  23.063  1.00  0.00     0.064 A 
ATOM     12  C   UNL A   1      32.543  25.574  22.258  1.00  0.00     0.044 A 
ATOM     13  C   UNL A   1      31.534  25.209  23.140  1.00  0.00     0.052 A 
ATOM     14  C   UNL A   1      33.624  24.769  22.072  1.00  0.00     0.042 A 
ATOM     15  C   UNL A   1      31.631  24.029  23.897  1.00  0.00     0.044 A 
ATOM     16  C   UNL A   1      32.853  23.369  23.914  1.00  0.00     0.042 A 
BRANCH  12  17
ATOM     17  N   UNL A   1      32.748  26.867  21.784  1.00  0.00    -0.322 N 
ATOM     18  C   UNL A   1      33.267  27.874  22.586  1.00  0.00     0.255 C 
ATOM     19  O   UNL A   1      33.911  28.771  22.040  1.00  0.00    -0.269 OA
ATOM     20  H   UNL A   1      32.518  27.073  20.849  1.00  0.00     0.170 HD
BRANCH  18  21
ATOM     21  C   UNL A   1      32.869  28.020  24.016  1.00  0.00     0.043 A 
ATOM     22  C   UNL A   1      30.499  29.079  23.871  1.00  0.00     0.045 C 
ATOM     23  C   UNL A   1      31.757  28.675  24.583  1.00  0.00    -0.038 A 
ATOM     24  C   UNL A   1      31.729  28.873  25.976  1.00  0.00     0.004 A 
ATOM     25  C   UNL A   1      32.669  28.269  26.802  1.00  0.00     0.000 A 
ATOM     26  C   UNL A   1      33.777  27.373  24.867  1.00  0.00     0.014 A 
ATOM     27  C   UNL A   1      33.658  27.467  26.248  1.00  0.00     0.001 A 
ENDBRANCH  18  21
ENDBRANCH  12  17
BRANCH  15  28
ATOM     28  N   UNL A   1      30.604  23.580  24.752  1.00  0.00    -0.322 N 
ATOM     29  C   UNL A   1      30.665  22.631  25.755  1.00  0.00     0.255 C 
ATOM     30  H   UNL A   1      29.723  23.999  24.615  1.00  0.00     0.170 HD
ATOM     31  O   UNL A   1      29.656  22.075  26.179  1.00  0.00    -0.269 OA
BRANCH  29  32
ATOM     32  C   UNL A   1      31.987  22.273  26.332  1.00  0.00     0.043 A 
ATOM     33  C   UNL A   1      32.455  23.095  27.369  1.00  0.00     0.014 A 
ATOM     34  C   UNL A   1      32.673  21.090  25.990  1.00  0.00    -0.038 A 
ATOM     35  C   UNL A   1      33.541  22.688  28.141  1.00  0.00     0.001 A 
ATOM     36  C   UNL A   1      33.749  20.689  26.796  1.00  0.00     0.004 A 
ATOM     37  C   UNL A   1      32.265  20.188  24.857  1.00  0.00     0.045 C 
ATOM     38  C   UNL A   1      34.168  21.473  27.873  1.00  0.00     0.000 A 
ENDBRANCH  29  32
ENDBRANCH  15  28
ENDBRANCH   9  11
ENDBRANCH   8   9
ENDBRANCH   7   8
ENDBRANCH   6   7
ENDBRANCH   5   6
ENDBRANCH   4   5
ENDBRANCH   3   4
ENDBRANCH   2   3
ENDBRANCH   1   2
BRANCH   1  39
ATOM     39  C   UNL A   1      41.949  19.687  26.153  1.00  0.00     0.188 C 
BRANCH  39  40
ATOM     40  O   UNL A   1      43.368  19.722  26.043  1.00  0.00    -0.376 OA
BRANCH  40  41
ATOM     41  C   UNL A   1      43.901  18.915  25.011  1.00  0.00     0.202 C 
BRANCH  41  42
ATOM     42  C   UNL A   1      44.852  19.716  24.125  1.00  0.00     0.261 C 
BRANCH  42  43
ATOM     43  O   UNL A   1      44.481  21.115  24.171  1.00  0.00    -0.460 OA
BRANCH  43  44
ATOM     44  C   UNL A   1      45.294  21.924  24.915  1.00  0.00     0.338 C 
ATOM     45  O   UNL A   1      46.481  21.718  25.102  1.00  0.00    -0.246 OA
BRANCH  44  46
ATOM     46  C   UNL A   1      44.505  23.002  25.596  1.00  0.00     0.060 A 
ATOM     47  C   UNL A   1      43.574  23.799  24.903  1.00  0.00     0.016 A 
ATOM     48  C   UNL A   1      44.895  23.401  26.857  1.00  0.00     0.016 A 
ATOM     49  C   UNL A   1      43.215  25.088  25.384  1.00  0.00     0.010 A 
ATOM     50  C   UNL A   1      44.587  24.686  27.269  1.00  0.00     0.010 A 
ATOM     51  C   UNL A   1      43.812  25.600  26.531  1.00  0.00    -0.014 A 
BRANCH  51  52
ATOM     52  C   UNL A   1      43.821  27.034  26.998  1.00  0.00     0.031 A 
ATOM     53  C   UNL A   1      42.478  27.682  27.350  1.00  0.00     0.074 A 
ATOM     54  C   UNL A   1      44.977  27.597  27.486  1.00  0.00     0.049 A 
ATOM     55  N   UNL A   1      42.302  28.853  27.869  1.00  0.00    -0.248 NA
ATOM     56  C   UNL A   1      41.184  27.003  27.209  1.00  0.00     0.031 C 
ATOM     57  C   UNL A   1      45.083  28.638  28.514  1.00  0.00     0.029 A 
ATOM     58  N   UNL A   1      46.333  27.325  27.253  1.00  0.00    -0.354 N 
ATOM     59  C   UNL A   1      41.061  28.890  28.509  1.00  0.00     0.074 A 
ATOM     60  C   UNL A   1      40.368  27.753  27.961  1.00  0.00     0.031 C 
ATOM     61  C   UNL A   1      46.354  28.955  28.801  1.00  0.00     0.029 A 
ATOM     62  C   UNL A   1      47.126  28.398  27.729  1.00  0.00     0.049 A 
ATOM     63  H   UNL A   1      46.682  26.510  26.824  1.00  0.00     0.167 HD
ATOM     64  C   UNL A   1      40.847  29.775  29.543  1.00  0.00     0.034 A 
ATOM     65  C   UNL A   1      47.870  29.155  26.873  1.00  0.00     0.034 A 
ATOM     66  C   UNL A   1      42.027  30.643  29.743  1.00  0.00     0.049 A 
ATOM     67  C   UNL A   1      47.207  30.535  26.791  1.00  0.00     0.074 A 
ATOM     68  C   UNL A   1      42.830  30.964  30.826  1.00  0.00     0.029 A 
ATOM     69  N   UNL A   1      42.645  31.214  28.634  1.00  0.00    -0.354 N 
ATOM     70  N   UNL A   1      45.919  30.729  26.987  1.00  0.00    -0.248 NA
ATOM     71  C   UNL A   1      47.952  31.794  26.799  1.00  0.00     0.031 C 
ATOM     72  C   UNL A   1      43.990  31.631  30.332  1.00  0.00     0.029 A 
ATOM     73  C   UNL A   1      43.870  31.753  28.953  1.00  0.00     0.049 A 
ATOM     74  H   UNL A   1      42.254  31.230  27.731  1.00  0.00     0.167 HD
ATOM     75  C   UNL A   1      45.699  32.035  27.343  1.00  0.00     0.074 A 
ATOM     76  C   UNL A   1      46.988  32.678  27.126  1.00  0.00     0.031 C 
ATOM     77  C   UNL A   1      44.583  32.535  27.963  1.00  0.00     0.034 A 
BRANCH  64  78
ATOM     78  C   UNL A   1      39.690  29.813  30.571  1.00  0.00     0.023 A 
ATOM     79  C   UNL A   1      39.936  30.366  31.860  1.00  0.00     0.031 A 
ATOM     80  C   UNL A   1      38.389  29.292  30.420  1.00  0.00     0.131 A 
ATOM     81  C   UNL A   1      38.985  30.333  32.906  1.00  0.00     0.055 A 
ATOM     82  C   UNL A   1      37.418  29.306  31.447  1.00  0.00     0.041 A 
ATOM     83  F   UNL A   1      37.975  28.718  29.286  1.00  0.00    -0.206 F 
ATOM     84  C   UNL A   1      37.716  29.815  32.701  1.00  0.00     0.022 A 
BRANCH  81  85
ATOM     85  S   UNL A   1      39.437  30.962  34.555  1.00  0.00     0.124 S 
ATOM     86  O   UNL A   1      38.923  29.918  35.434  1.00  0.00    -0.237 OA
ATOM     87  O   UNL A   1      40.888  31.076  34.464  1.00  0.00    -0.237 OA
ATOM     88  O   UNL A   1      38.728  32.240  34.638  1.00  0.00    -0.744 OA
ENDBRANCH  81  85
ENDBRANCH  64  78
BRANCH  65  89
ATOM     89  C   UNL A   1      48.534  28.239  25.878  1.00  0.00     0.023 A 
ATOM     90  C   UNL A   1      49.670  27.544  26.393  1.00  0.00     0.031 A 
ATOM     91  C   UNL A   1      47.743  27.558  24.936  1.00  0.00     0.131 A 
ATOM     92  C   UNL A   1      49.807  26.154  26.195  1.00  0.00     0.055 A 
ATOM     93  C   UNL A   1      47.915  26.180  24.713  1.00  0.00     0.041 A 
ATOM     94  F   UNL A   1      46.657  28.144  24.412  1.00  0.00    -0.206 F 
ATOM     95  C   UNL A   1      48.897  25.460  25.397  1.00  0.00     0.022 A 
BRANCH  92  96
ATOM     96  S   UNL A   1      51.001  25.216  27.214  1.00  0.00     0.124 S 
ATOM     97  O   UNL A   1      50.129  24.323  27.967  1.00  0.00    -0.237 OA
ATOM     98  O   UNL A   1      51.853  24.583  26.212  1.00  0.00    -0.237 OA
ATOM     99  O   UNL A   1      51.671  26.254  27.998  1.00  0.00    -0.744 OA
ENDBRANCH  92  96
ENDBRANCH  65  89
BRANCH  77 100
ATOM    100  C   UNL A   1      44.027  33.901  27.649  1.00  0.00     0.023 A 
ATOM    101  C   UNL A   1      44.197  34.961  28.534  1.00  0.00     0.031 A 
ATOM    102  C   UNL A   1      43.464  34.230  26.386  1.00  0.00     0.131 A 
ATOM    103  C   UNL A   1      43.743  36.242  28.218  1.00  0.00     0.055 A 
ATOM    104  C   UNL A   1      43.104  35.530  26.033  1.00  0.00     0.041 A 
ATOM    105  F   UNL A   1      43.269  33.320  25.421  1.00  0.00    -0.206 F 
ATOM    106  C   UNL A   1      43.224  36.549  26.963  1.00  0.00     0.022 A 
BRANCH 103 107
ATOM    107  S   UNL A   1      43.775  37.454  29.548  1.00  0.00     0.124 S 
ATOM    108  O   UNL A   1      42.737  38.388  29.117  1.00  0.00    -0.237 OA
ATOM    109  O   UNL A   1      43.449  36.645  30.718  1.00  0.00    -0.237 OA
ATOM    110  O   UNL A   1      45.139  37.973  29.506  1.00  0.00    -0.744 OA
ENDBRANCH 103 107
ENDBRANCH  77 100
ENDBRANCH  51  52
ENDBRANCH  44  46
ENDBRANCH  43  44
ENDBRANCH  42  43
ENDBRANCH  41  42
ENDBRANCH  40  41
ENDBRANCH  39  40
ENDBRANCH   1  39
TORSDOF 27
ENDMDL
MODEL 3
REMARK VINA RESULT:      -9.6      1.144      3.751
REMARK SMILES Cc1ccccc1C(=O)Nc1cc(NC(=O)c2ccccc2C)cc(C(=O)OCCOCCOCCOCCOC(=O)c2ccc(-c3c4nc(c(-c5cc(S(=O)(=O)[O-])ccc5F)c5ccc([nH]5)c(-c5cc(S(=O)(=O)[O-])ccc5F)c5nc(c(-c6cc(S(=O)(=O)[O-])ccc6F)c6ccc3[nH]6)C=C5)C=C4)cc2)c1
REMARK SMILES IDX 35 1 34 2 33 3 32 4 31 5 30 6 29 7 28 8 26 9 27 10 25 11
REMARK SMILES IDX 11 12 12 13 106 14 13 15 24 16 10 17 8 18 9 19 7 21 1 22
REMARK SMILES IDX 2 23 3 24 4 25 6 26 5 27 14 28 15 29 16 31 17 32 18 33 22 34
REMARK SMILES IDX 19 35 21 36 23 37 20 38 36 39 37 40 38 41 39 42 40 43 41 44
REMARK SMILES IDX 42 45 43 46 44 47 105 48 45 49 104 50 46 51 47 52 48 53
REMARK SMILES IDX 98 54 49 55 103 56 97 57 99 58 50 59 102 60 96 61 95 62
REMARK SMILES IDX 51 64 83 65 63 66 82 67 64 68 67 69 81 70 100 71 65 72 66 73
REMARK SMILES IDX 80 75 101 76 68 77 52 78 53 79 61 80 54 81 60 82 62 83 59 84
REMARK SMILES IDX 55 85 56 86 57 87 58 88 84 89 85 90 93 91 86 92 92 93 94 94
REMARK SMILES IDX 91 95 87 96 88 97 89 98 90 99 69 100 70 101 78 102 71 103
REMARK SMILES IDX 77 104 79 105 76 106 72 107 73 108 74 109 75 110
REMARK H PARENT 10 20 14 30 99 63 67 74
REMARK Flexibility Score: inf
ROOT
ATOM      1  C   UNL A   1      41.813  19.706  27.675  1.00  0.00     0.188 C 
ENDROOT
BRANCH   1   2
ATOM      2  O   UNL A   1      41.231  20.967  28.013  1.00  0.00    -0.377 OA
BRANCH   2   3
ATOM      3  C   UNL A   1      40.401  21.571  27.045  1.00  0.00     0.188 C 
BRANCH   3   4
ATOM      4  C   UNL A   1      40.144  23.091  27.187  1.00  0.00     0.188 C 
BRANCH   4   5
ATOM      5  O   UNL A   1      38.855  23.667  27.068  1.00  0.00    -0.376 OA
BRANCH   5   6
ATOM      6  C   UNL A   1      38.256  23.647  25.782  1.00  0.00     0.202 C 
BRANCH   6   7
ATOM      7  C   UNL A   1      36.781  23.394  25.640  1.00  0.00     0.261 C 
BRANCH   7   8
ATOM      8  O   UNL A   1      36.303  24.231  24.620  1.00  0.00    -0.460 OA
BRANCH   8   9
ATOM      9  C   UNL A   1      35.250  23.673  24.037  1.00  0.00     0.338 C 
ATOM     10  O   UNL A   1      35.098  22.531  23.676  1.00  0.00    -0.246 OA
BRANCH   9  11
ATOM     11  C   UNL A   1      34.154  24.616  24.237  1.00  0.00     0.064 A 
ATOM     12  C   UNL A   1      32.320  24.766  25.651  1.00  0.00     0.044 A 
ATOM     13  C   UNL A   1      31.633  25.473  24.672  1.00  0.00     0.052 A 
ATOM     14  C   UNL A   1      33.650  24.513  25.517  1.00  0.00     0.042 A 
ATOM     15  C   UNL A   1      32.282  25.898  23.501  1.00  0.00     0.044 A 
ATOM     16  C   UNL A   1      33.550  25.394  23.244  1.00  0.00     0.042 A 
BRANCH  12  17
ATOM     17  N   UNL A   1      31.717  23.967  26.618  1.00  0.00    -0.322 N 
ATOM     18  C   UNL A   1      31.946  22.599  26.694  1.00  0.00     0.255 C 
ATOM     19  O   UNL A   1      31.859  22.061  27.798  1.00  0.00    -0.269 OA
ATOM     20  H   UNL A   1      31.109  24.385  27.270  1.00  0.00     0.170 HD
BRANCH  18  21
ATOM     21  C   UNL A   1      32.050  21.753  25.469  1.00  0.00     0.043 A 
ATOM     22  C   UNL A   1      33.069  19.535  26.362  1.00  0.00     0.045 C 
ATOM     23  C   UNL A   1      32.671  20.501  25.286  1.00  0.00    -0.038 A 
ATOM     24  C   UNL A   1      32.835  20.016  23.975  1.00  0.00     0.004 A 
ATOM     25  C   UNL A   1      32.228  20.651  22.897  1.00  0.00     0.000 A 
ATOM     26  C   UNL A   1      31.399  22.350  24.381  1.00  0.00     0.014 A 
ATOM     27  C   UNL A   1      31.458  21.786  23.112  1.00  0.00     0.001 A 
ENDBRANCH  18  21
ENDBRANCH  12  17
BRANCH  15  28
ATOM     28  N   UNL A   1      31.648  26.678  22.513  1.00  0.00    -0.322 N 
ATOM     29  C   UNL A   1      31.218  27.990  22.588  1.00  0.00     0.255 C 
ATOM     30  H   UNL A   1      31.489  26.227  21.652  1.00  0.00     0.170 HD
ATOM     31  O   UNL A   1      30.378  28.439  21.814  1.00  0.00    -0.269 OA
BRANCH  29  32
ATOM     32  C   UNL A   1      31.785  28.878  23.636  1.00  0.00     0.043 A 
ATOM     33  C   UNL A   1      30.892  29.325  24.621  1.00  0.00     0.014 A 
ATOM     34  C   UNL A   1      33.167  29.138  23.749  1.00  0.00    -0.038 A 
ATOM     35  C   UNL A   1      31.379  29.935  25.776  1.00  0.00     0.001 A 
ATOM     36  C   UNL A   1      33.636  29.732  24.931  1.00  0.00     0.004 A 
ATOM     37  C   UNL A   1      34.177  28.740  22.709  1.00  0.00     0.045 C 
ATOM     38  C   UNL A   1      32.751  30.111  25.942  1.00  0.00     0.000 A 
ENDBRANCH  29  32
ENDBRANCH  15  28
ENDBRANCH   9  11
ENDBRANCH   8   9
ENDBRANCH   7   8
ENDBRANCH   6   7
ENDBRANCH   5   6
ENDBRANCH   4   5
ENDBRANCH   3   4
ENDBRANCH   2   3
ENDBRANCH   1   2
BRANCH   1  39
ATOM     39  C   UNL A   1      42.026  19.332  26.232  1.00  0.00     0.188 C 
BRANCH  39  40
ATOM     40  O   UNL A   1      43.434  19.306  26.022  1.00  0.00    -0.376 OA
BRANCH  40  41
ATOM     41  C   UNL A   1      43.848  18.587  24.878  1.00  0.00     0.202 C 
BRANCH  41  42
ATOM     42  C   UNL A   1      44.650  19.478  23.931  1.00  0.00     0.261 C 
BRANCH  42  43
ATOM     43  O   UNL A   1      44.475  20.862  24.318  1.00  0.00    -0.460 OA
BRANCH  43  44
ATOM     44  C   UNL A   1      45.588  21.490  24.806  1.00  0.00     0.338 C 
ATOM     45  O   UNL A   1      46.731  21.186  24.512  1.00  0.00    -0.246 OA
BRANCH  44  46
ATOM     46  C   UNL A   1      45.224  22.491  25.861  1.00  0.00     0.060 A 
ATOM     47  C   UNL A   1      43.888  22.838  26.135  1.00  0.00     0.016 A 
ATOM     48  C   UNL A   1      46.224  23.283  26.384  1.00  0.00     0.016 A 
ATOM     49  C   UNL A   1      43.566  24.085  26.737  1.00  0.00     0.010 A 
ATOM     50  C   UNL A   1      45.885  24.521  26.902  1.00  0.00     0.010 A 
ATOM     51  C   UNL A   1      44.569  25.002  27.030  1.00  0.00    -0.014 A 
BRANCH  51  52
ATOM     52  C   UNL A   1      44.407  26.469  27.343  1.00  0.00     0.031 A 
ATOM     53  C   UNL A   1      42.996  27.063  27.286  1.00  0.00     0.074 A 
ATOM     54  C   UNL A   1      45.382  27.139  28.046  1.00  0.00     0.049 A 
ATOM     55  N   UNL A   1      42.653  28.261  27.629  1.00  0.00    -0.248 NA
ATOM     56  C   UNL A   1      41.806  26.299  26.894  1.00  0.00     0.031 C 
ATOM     57  C   UNL A   1      45.186  28.267  28.962  1.00  0.00     0.029 A 
ATOM     58  N   UNL A   1      46.762  26.929  28.184  1.00  0.00    -0.354 N 
ATOM     59  C   UNL A   1      41.289  28.277  27.935  1.00  0.00     0.074 A 
ATOM     60  C   UNL A   1      40.799  27.060  27.344  1.00  0.00     0.031 C 
ATOM     61  C   UNL A   1      46.330  28.683  29.523  1.00  0.00     0.029 A 
ATOM     62  C   UNL A   1      47.368  28.085  28.736  1.00  0.00     0.049 A 
ATOM     63  H   UNL A   1      47.237  26.104  27.937  1.00  0.00     0.167 HD
ATOM     64  C   UNL A   1      40.789  29.233  28.792  1.00  0.00     0.034 A 
ATOM     65  C   UNL A   1      48.276  28.810  28.022  1.00  0.00     0.034 A 
ATOM     66  C   UNL A   1      41.847  30.184  29.194  1.00  0.00     0.049 A 
ATOM     67  C   UNL A   1      47.606  30.135  27.645  1.00  0.00     0.074 A 
ATOM     68  C   UNL A   1      42.339  30.642  30.406  1.00  0.00     0.029 A 
ATOM     69  N   UNL A   1      42.704  30.694  28.223  1.00  0.00    -0.354 N 
ATOM     70  N   UNL A   1      46.303  30.268  27.496  1.00  0.00    -0.248 NA
ATOM     71  C   UNL A   1      48.278  31.433  27.716  1.00  0.00     0.031 C 
ATOM     72  C   UNL A   1      43.560  31.333  30.153  1.00  0.00     0.029 A 
ATOM     73  C   UNL A   1      43.789  31.330  28.783  1.00  0.00     0.049 A 
ATOM     74  H   UNL A   1      42.554  30.610  27.254  1.00  0.00     0.167 HD
ATOM     75  C   UNL A   1      45.954  31.584  27.658  1.00  0.00     0.074 A 
ATOM     76  C   UNL A   1      47.231  32.283  27.707  1.00  0.00     0.031 C 
ATOM     77  C   UNL A   1      44.699  32.067  27.930  1.00  0.00     0.034 A 
BRANCH  64  78
ATOM     78  C   UNL A   1      39.409  29.288  29.493  1.00  0.00     0.023 A 
ATOM     79  C   UNL A   1      38.611  30.459  29.345  1.00  0.00     0.031 A 
ATOM     80  C   UNL A   1      38.839  28.322  30.346  1.00  0.00     0.131 A 
ATOM     81  C   UNL A   1      37.397  30.656  30.044  1.00  0.00     0.055 A 
ATOM     82  C   UNL A   1      37.600  28.493  31.003  1.00  0.00     0.041 A 
ATOM     83  F   UNL A   1      39.446  27.162  30.619  1.00  0.00    -0.206 F 
ATOM     84  C   UNL A   1      36.878  29.669  30.866  1.00  0.00     0.022 A 
BRANCH  81  85
ATOM     85  S   UNL A   1      36.510  32.238  29.878  1.00  0.00     0.124 S 
ATOM     86  O   UNL A   1      37.427  33.022  29.058  1.00  0.00    -0.237 OA
ATOM     87  O   UNL A   1      35.259  31.835  29.245  1.00  0.00    -0.237 OA
ATOM     88  O   UNL A   1      36.374  32.698  31.261  1.00  0.00    -0.744 OA
ENDBRANCH  81  85
ENDBRANCH  64  78
BRANCH  65  89
ATOM     89  C   UNL A   1      49.203  27.854  27.317  1.00  0.00     0.023 A 
ATOM     90  C   UNL A   1      48.661  27.288  26.123  1.00  0.00     0.031 A 
ATOM     91  C   UNL A   1      50.587  28.099  27.335  1.00  0.00     0.131 A 
ATOM     92  C   UNL A   1      49.420  27.267  24.934  1.00  0.00     0.055 A 
ATOM     93  C   UNL A   1      51.346  28.035  26.152  1.00  0.00     0.041 A 
ATOM     94  F   UNL A   1      51.168  28.634  28.418  1.00  0.00    -0.206 F 
ATOM     95  C   UNL A   1      50.749  27.691  24.936  1.00  0.00     0.022 A 
BRANCH  92  96
ATOM     96  S   UNL A   1      48.580  26.961  23.339  1.00  0.00     0.124 S 
ATOM     97  O   UNL A   1      47.628  25.915  23.689  1.00  0.00    -0.237 OA
ATOM     98  O   UNL A   1      48.009  28.266  23.020  1.00  0.00    -0.237 OA
ATOM     99  O   UNL A   1      49.669  26.552  22.452  1.00  0.00    -0.744 OA
ENDBRANCH  92  96
ENDBRANCH  65  89
BRANCH  77 100
ATOM    100  C   UNL A   1      44.191  33.366  27.357  1.00  0.00     0.023 A 
ATOM    101  C   UNL A   1      43.817  34.415  28.190  1.00  0.00     0.031 A 
ATOM    102  C   UNL A   1      44.228  33.660  25.967  1.00  0.00     0.131 A 
ATOM    103  C   UNL A   1      43.410  35.642  27.664  1.00  0.00     0.055 A 
ATOM    104  C   UNL A   1      43.918  34.917  25.450  1.00  0.00     0.041 A 
ATOM    105  F   UNL A   1      44.598  32.758  25.046  1.00  0.00    -0.206 F 
ATOM    106  C   UNL A   1      43.484  35.918  26.302  1.00  0.00     0.022 A 
BRANCH 103 107
ATOM    107  S   UNL A   1      42.695  36.815  28.828  1.00  0.00     0.124 S 
ATOM    108  O   UNL A   1      41.320  36.327  28.924  1.00  0.00    -0.237 OA
ATOM    109  O   UNL A   1      43.517  36.619  30.017  1.00  0.00    -0.237 OA
ATOM    110  O   UNL A   1      42.856  38.102  28.160  1.00  0.00    -0.744 OA
ENDBRANCH 103 107
ENDBRANCH  77 100
ENDBRANCH  51  52
ENDBRANCH  44  46
ENDBRANCH  43  44
ENDBRANCH  42  43
ENDBRANCH  41  42
ENDBRANCH  40  41
ENDBRANCH  39  40
ENDBRANCH   1  39
TORSDOF 27
ENDMDL
