MODEL 1
REMARK VINA RESULT:     -11.8      0.000      0.000
REMARK SMILES Cc1ccc(-c2nc(C)cc(N3CCCC[C@H]3C(=O)OCCOCCOCCOCCOC(=O)c3ccc(-c4c5nc(c(-c6cc(S(=O)(=O)[O-])ccc6F)c6ccc([nH]6)c(-c6cc(S(=O)(=O)[O-])ccc6F)c6nc(c(-c7cc(S(=O)(=O)[O-])ccc7F)c7ccc4[nH]7)C=C6)C=C5)cc3)n2)cc1
REMARK SMILES IDX 27 1 26 2 25 3 24 4 23 5 22 6 21 7 20 8 18 9 19 10 17 11
REMARK SMILES IDX 12 12 13 13 14 14 16 15 15 16 11 17 6 18 7 19 98 20 8 21
REMARK SMILES IDX 9 22 10 23 5 24 1 25 2 26 3 27 100 28 4 29 99 30 28 31 29 32
REMARK SMILES IDX 30 33 31 34 32 35 33 36 34 37 35 38 36 39 97 40 37 41 96 42
REMARK SMILES IDX 38 43 39 44 40 45 90 46 41 47 95 48 89 49 91 50 42 51 94 52
REMARK SMILES IDX 88 53 87 54 43 56 75 57 55 58 74 59 56 60 59 61 73 62 92 63
REMARK SMILES IDX 57 64 58 65 72 67 93 68 60 69 44 70 45 71 53 72 46 73 52 74
REMARK SMILES IDX 54 75 51 76 47 77 48 78 49 79 50 80 76 81 77 82 85 83 78 84
REMARK SMILES IDX 84 85 86 86 83 87 79 88 80 89 81 90 82 91 61 92 62 93 70 94
REMARK SMILES IDX 63 95 69 96 71 97 68 98 64 99 65 100 66 101 67 102
REMARK H PARENT 91 55 59 66
REMARK Flexibility Score: inf
ROOT
ATOM      1  C   UNL A   1      32.167  29.158  27.084  1.00  0.00     0.188 C 
ENDROOT
BRANCH   1   2
ATOM      2  O   UNL A   1      32.714  28.422  26.012  1.00  0.00    -0.377 OA
BRANCH   2   3
ATOM      3  C   UNL A   1      32.904  29.221  24.860  1.00  0.00     0.188 C 
BRANCH   3   4
ATOM      4  C   UNL A   1      32.583  28.636  23.459  1.00  0.00     0.188 C 
BRANCH   4   5
ATOM      5  O   UNL A   1      31.654  27.574  23.273  1.00  0.00    -0.376 OA
BRANCH   5   6
ATOM      6  C   UNL A   1      31.747  26.899  22.031  1.00  0.00     0.202 C 
BRANCH   6   7
ATOM      7  C   UNL A   1      33.075  26.203  21.733  1.00  0.00     0.261 C 
BRANCH   7   8
ATOM      8  O   UNL A   1      33.380  25.225  22.735  1.00  0.00    -0.462 OA
BRANCH   8   9
ATOM      9  C   UNL A   1      33.108  23.926  22.469  1.00  0.00     0.328 C 
ATOM     10  O   UNL A   1      33.635  23.273  21.575  1.00  0.00    -0.250 OA
BRANCH   9  11
ATOM     11  C   UNL A   1      32.244  23.301  23.594  1.00  0.00     0.193 C 
ATOM     12  N   UNL A   1      32.945  23.361  24.895  1.00  0.00    -0.343 N 
ATOM     13  C   UNL A   1      32.240  23.534  26.172  1.00  0.00     0.119 C 
ATOM     14  C   UNL A   1      30.879  24.215  26.131  1.00  0.00     0.022 C 
ATOM     15  C   UNL A   1      30.801  23.807  23.621  1.00  0.00     0.037 C 
ATOM     16  C   UNL A   1      30.371  24.685  24.785  1.00  0.00     0.005 C 
BRANCH  12  17
ATOM     17  C   UNL A   1      34.027  22.478  24.977  1.00  0.00     0.133 A 
ATOM     18  C   UNL A   1      34.675  20.287  24.934  1.00  0.00     0.161 A 
ATOM     19  N   UNL A   1      35.991  20.527  24.983  1.00  0.00    -0.233 NA
ATOM     20  N   UNL A   1      33.706  21.202  24.958  1.00  0.00    -0.211 NA
ATOM     21  C   UNL A   1      36.320  21.836  25.011  1.00  0.00     0.043 A 
ATOM     22  C   UNL A   1      37.778  22.199  24.970  1.00  0.00     0.067 C 
ATOM     23  C   UNL A   1      35.361  22.838  25.015  1.00  0.00     0.070 A 
BRANCH  18  24
ATOM     24  C   UNL A   1      34.118  18.953  24.827  1.00  0.00     0.019 A 
ATOM     25  C   UNL A   1      32.692  14.931  25.334  1.00  0.00     0.044 C 
ATOM     26  C   UNL A   1      33.172  16.333  25.144  1.00  0.00    -0.051 A 
ATOM     27  C   UNL A   1      34.399  16.580  24.506  1.00  0.00     0.004 A 
ATOM     28  C   UNL A   1      32.414  17.401  25.621  1.00  0.00     0.004 A 
ATOM     29  C   UNL A   1      34.867  17.884  24.340  1.00  0.00     0.012 A 
ATOM     30  C   UNL A   1      32.882  18.696  25.457  1.00  0.00     0.012 A 
ENDBRANCH  18  24
ENDBRANCH  12  17
ENDBRANCH   9  11
ENDBRANCH   8   9
ENDBRANCH   7   8
ENDBRANCH   6   7
ENDBRANCH   5   6
ENDBRANCH   4   5
ENDBRANCH   3   4
ENDBRANCH   2   3
ENDBRANCH   1   2
BRANCH   1  31
ATOM     31  C   UNL A   1      32.201  30.611  26.672  1.00  0.00     0.188 C 
BRANCH  31  32
ATOM     32  O   UNL A   1      33.074  31.315  27.533  1.00  0.00    -0.376 OA
BRANCH  32  33
ATOM     33  C   UNL A   1      33.062  32.725  27.323  1.00  0.00     0.202 C 
BRANCH  33  34
ATOM     34  C   UNL A   1      33.858  33.611  28.327  1.00  0.00     0.261 C 
BRANCH  34  35
ATOM     35  O   UNL A   1      35.174  33.028  28.605  1.00  0.00    -0.460 OA
BRANCH  35  36
ATOM     36  C   UNL A   1      35.309  32.330  29.783  1.00  0.00     0.338 C 
ATOM     37  O   UNL A   1      35.155  32.806  30.877  1.00  0.00    -0.246 OA
BRANCH  36  38
ATOM     38  C   UNL A   1      35.915  30.955  29.528  1.00  0.00     0.060 A 
ATOM     39  C   UNL A   1      36.126  30.109  30.628  1.00  0.00     0.016 A 
ATOM     40  C   UNL A   1      36.594  30.668  28.346  1.00  0.00     0.016 A 
ATOM     41  C   UNL A   1      37.195  29.183  30.628  1.00  0.00     0.010 A 
ATOM     42  C   UNL A   1      37.734  29.853  28.402  1.00  0.00     0.010 A 
ATOM     43  C   UNL A   1      38.107  29.154  29.566  1.00  0.00    -0.014 A 
BRANCH  43  44
ATOM     44  C   UNL A   1      39.534  28.690  29.694  1.00  0.00     0.031 A 
ATOM     45  C   UNL A   1      39.974  27.310  29.235  1.00  0.00     0.074 A 
ATOM     46  C   UNL A   1      40.511  29.621  29.903  1.00  0.00     0.049 A 
ATOM     47  N   UNL A   1      41.194  26.871  29.210  1.00  0.00    -0.248 NA
ATOM     48  C   UNL A   1      39.058  26.292  28.733  1.00  0.00     0.031 C 
ATOM     49  C   UNL A   1      41.916  29.512  29.500  1.00  0.00     0.029 A 
ATOM     50  N   UNL A   1      40.456  30.927  30.419  1.00  0.00    -0.354 N 
ATOM     51  C   UNL A   1      41.278  25.717  28.446  1.00  0.00     0.074 A 
ATOM     52  C   UNL A   1      39.894  25.373  28.232  1.00  0.00     0.031 C 
ATOM     53  C   UNL A   1      42.603  30.616  29.801  1.00  0.00     0.029 A 
ATOM     54  C   UNL A   1      41.780  31.336  30.725  1.00  0.00     0.049 A 
ATOM     55  H   UNL A   1      39.640  31.465  30.546  1.00  0.00     0.167 HD
ATOM     56  C   UNL A   1      42.507  25.265  28.017  1.00  0.00     0.034 A 
ATOM     57  C   UNL A   1      42.178  31.551  32.012  1.00  0.00     0.034 A 
ATOM     58  C   UNL A   1      43.618  25.983  28.694  1.00  0.00     0.049 A 
ATOM     59  C   UNL A   1      43.126  30.457  32.507  1.00  0.00     0.074 A 
ATOM     60  C   UNL A   1      44.785  26.625  28.296  1.00  0.00     0.029 A 
ATOM     61  N   UNL A   1      43.522  26.230  30.065  1.00  0.00    -0.354 N 
ATOM     62  N   UNL A   1      43.278  29.313  31.873  1.00  0.00    -0.248 NA
ATOM     63  C   UNL A   1      44.051  30.551  33.634  1.00  0.00     0.031 C 
ATOM     64  C   UNL A   1      45.274  27.389  29.397  1.00  0.00     0.029 A 
ATOM     65  C   UNL A   1      44.486  27.110  30.501  1.00  0.00     0.049 A 
ATOM     66  H   UNL A   1      42.844  25.823  30.651  1.00  0.00     0.167 HD
ATOM     67  C   UNL A   1      44.276  28.567  32.424  1.00  0.00     0.074 A 
ATOM     68  C   UNL A   1      44.716  29.379  33.547  1.00  0.00     0.031 C 
ATOM     69  C   UNL A   1      44.666  27.352  31.923  1.00  0.00     0.034 A 
BRANCH  56  70
ATOM     70  C   UNL A   1      42.783  24.256  26.874  1.00  0.00     0.023 A 
ATOM     71  C   UNL A   1      42.281  22.928  26.959  1.00  0.00     0.031 A 
ATOM     72  C   UNL A   1      43.573  24.482  25.725  1.00  0.00     0.131 A 
ATOM     73  C   UNL A   1      42.590  21.928  26.001  1.00  0.00     0.055 A 
ATOM     74  C   UNL A   1      43.845  23.503  24.750  1.00  0.00     0.041 A 
ATOM     75  F   UNL A   1      44.152  25.656  25.467  1.00  0.00    -0.206 F 
ATOM     76  C   UNL A   1      43.363  22.216  24.886  1.00  0.00     0.022 A 
BRANCH  73  77
ATOM     77  S   UNL A   1      41.982  20.228  26.227  1.00  0.00     0.124 S 
ATOM     78  O   UNL A   1      42.662  19.518  25.149  1.00  0.00    -0.237 OA
ATOM     79  O   UNL A   1      42.412  19.915  27.584  1.00  0.00    -0.237 OA
ATOM     80  O   UNL A   1      40.534  20.359  26.059  1.00  0.00    -0.744 OA
ENDBRANCH  73  77
ENDBRANCH  56  70
BRANCH  57  81
ATOM     81  C   UNL A   1      41.227  32.511  32.665  1.00  0.00     0.023 A 
ATOM     82  C   UNL A   1      40.068  31.860  33.175  1.00  0.00     0.031 A 
ATOM     83  C   UNL A   1      41.744  33.578  33.420  1.00  0.00     0.131 A 
ATOM     84  C   UNL A   1      39.698  32.038  34.520  1.00  0.00     0.055 A 
ATOM     85  C   UNL A   1      41.307  33.811  34.737  1.00  0.00     0.041 A 
ATOM     86  F   UNL A   1      42.820  34.256  32.990  1.00  0.00    -0.206 F 
ATOM     87  C   UNL A   1      40.340  32.986  35.317  1.00  0.00     0.022 A 
BRANCH  84  88
ATOM     88  S   UNL A   1      38.627  30.785  35.313  1.00  0.00     0.124 S 
ATOM     89  O   UNL A   1      37.615  31.617  35.955  1.00  0.00    -0.237 OA
ATOM     90  O   UNL A   1      38.163  29.981  34.185  1.00  0.00    -0.237 OA
ATOM     91  O   UNL A   1      39.537  30.087  36.219  1.00  0.00    -0.744 OA
ENDBRANCH  84  88
ENDBRANCH  57  81
BRANCH  69  92
ATOM     92  C   UNL A   1      45.306  26.242  32.729  1.00  0.00     0.023 A 
ATOM     93  C   UNL A   1      44.543  25.317  33.442  1.00  0.00     0.031 A 
ATOM     94  C   UNL A   1      46.701  25.973  32.674  1.00  0.00     0.131 A 
ATOM     95  C   UNL A   1      45.146  24.248  34.118  1.00  0.00     0.055 A 
ATOM     96  C   UNL A   1      47.288  24.854  33.270  1.00  0.00     0.041 A 
ATOM     97  F   UNL A   1      47.562  26.759  32.012  1.00  0.00    -0.206 F 
ATOM     98  C   UNL A   1      46.509  23.988  34.014  1.00  0.00     0.022 A 
BRANCH  95  99
ATOM     99  S   UNL A   1      44.091  23.257  35.196  1.00  0.00     0.124 S 
ATOM    100  O   UNL A   1      42.794  23.386  34.536  1.00  0.00    -0.237 OA
ATOM    101  O   UNL A   1      44.712  21.939  35.116  1.00  0.00    -0.237 OA
ATOM    102  O   UNL A   1      44.200  23.923  36.490  1.00  0.00    -0.744 OA
ENDBRANCH  95  99
ENDBRANCH  69  92
ENDBRANCH  43  44
ENDBRANCH  36  38
ENDBRANCH  35  36
ENDBRANCH  34  35
ENDBRANCH  33  34
ENDBRANCH  32  33
ENDBRANCH  31  32
ENDBRANCH   1  31
TORSDOF 25
ENDMDL
MODEL 2
REMARK VINA RESULT:     -11.3      2.151      3.134
REMARK SMILES Cc1ccc(-c2nc(C)cc(N3CCCC[C@H]3C(=O)OCCOCCOCCOCCOC(=O)c3ccc(-c4c5nc(c(-c6cc(S(=O)(=O)[O-])ccc6F)c6ccc([nH]6)c(-c6cc(S(=O)(=O)[O-])ccc6F)c6nc(c(-c7cc(S(=O)(=O)[O-])ccc7F)c7ccc4[nH]7)C=C6)C=C5)cc3)n2)cc1
REMARK SMILES IDX 27 1 26 2 25 3 24 4 23 5 22 6 21 7 20 8 18 9 19 10 17 11
REMARK SMILES IDX 12 12 13 13 14 14 16 15 15 16 11 17 6 18 7 19 98 20 8 21
REMARK SMILES IDX 9 22 10 23 5 24 1 25 2 26 3 27 100 28 4 29 99 30 28 31 29 32
REMARK SMILES IDX 30 33 31 34 32 35 33 36 34 37 35 38 36 39 97 40 37 41 96 42
REMARK SMILES IDX 38 43 39 44 40 45 90 46 41 47 95 48 89 49 91 50 42 51 94 52
REMARK SMILES IDX 88 53 87 54 43 56 75 57 55 58 74 59 56 60 59 61 73 62 92 63
REMARK SMILES IDX 57 64 58 65 72 67 93 68 60 69 44 70 45 71 53 72 46 73 52 74
REMARK SMILES IDX 54 75 51 76 47 77 48 78 49 79 50 80 76 81 77 82 85 83 78 84
REMARK SMILES IDX 84 85 86 86 83 87 79 88 80 89 81 90 82 91 61 92 62 93 70 94
REMARK SMILES IDX 63 95 69 96 71 97 68 98 64 99 65 100 66 101 67 102
REMARK H PARENT 91 55 59 66
REMARK Flexibility Score: inf
ROOT
ATOM      1  C   UNL A   1      32.617  29.383  24.156  1.00  0.00     0.188 C 
ENDROOT
BRANCH   1   2
ATOM      2  O   UNL A   1      31.672  28.709  23.354  1.00  0.00    -0.377 OA
BRANCH   2   3
ATOM      3  C   UNL A   1      30.344  28.944  23.782  1.00  0.00     0.188 C 
BRANCH   3   4
ATOM      4  C   UNL A   1      29.212  27.983  23.332  1.00  0.00     0.188 C 
BRANCH   4   5
ATOM      5  O   UNL A   1      28.948  26.754  23.998  1.00  0.00    -0.376 OA
BRANCH   5   6
ATOM      6  C   UNL A   1      29.998  25.804  23.955  1.00  0.00     0.202 C 
BRANCH   6   7
ATOM      7  C   UNL A   1      30.683  25.486  25.284  1.00  0.00     0.261 C 
BRANCH   7   8
ATOM      8  O   UNL A   1      31.783  24.588  25.094  1.00  0.00    -0.462 OA
BRANCH   8   9
ATOM      9  C   UNL A   1      33.037  25.096  25.111  1.00  0.00     0.328 C 
ATOM     10  O   UNL A   1      33.623  25.474  26.119  1.00  0.00    -0.250 OA
BRANCH   9  11
ATOM     11  C   UNL A   1      33.731  24.898  23.738  1.00  0.00     0.193 C 
ATOM     12  N   UNL A   1      33.652  23.486  23.305  1.00  0.00    -0.343 N 
ATOM     13  C   UNL A   1      33.542  23.092  21.893  1.00  0.00     0.119 C 
ATOM     14  C   UNL A   1      32.942  24.106  20.930  1.00  0.00     0.022 C 
ATOM     15  C   UNL A   1      33.310  25.917  22.678  1.00  0.00     0.037 C 
ATOM     16  C   UNL A   1      32.479  25.428  21.504  1.00  0.00     0.005 C 
BRANCH  12  17
ATOM     17  C   UNL A   1      34.472  22.635  24.053  1.00  0.00     0.133 A 
ATOM     18  C   UNL A   1      34.798  20.491  24.775  1.00  0.00     0.161 A 
ATOM     19  N   UNL A   1      35.981  20.716  25.360  1.00  0.00    -0.233 NA
ATOM     20  N   UNL A   1      34.036  21.398  24.164  1.00  0.00    -0.211 NA
ATOM     21  C   UNL A   1      36.424  21.987  25.253  1.00  0.00     0.043 A 
ATOM     22  C   UNL A   1      37.788  22.308  25.798  1.00  0.00     0.067 C 
ATOM     23  C   UNL A   1      35.690  22.973  24.610  1.00  0.00     0.070 A 
BRANCH  18  24
ATOM     24  C   UNL A   1      34.182  19.180  24.717  1.00  0.00     0.019 A 
ATOM     25  C   UNL A   1      32.594  15.239  25.363  1.00  0.00     0.044 C 
ATOM     26  C   UNL A   1      33.130  16.614  25.125  1.00  0.00    -0.051 A 
ATOM     27  C   UNL A   1      34.353  16.790  24.457  1.00  0.00     0.004 A 
ATOM     28  C   UNL A   1      32.429  17.726  25.586  1.00  0.00     0.004 A 
ATOM     29  C   UNL A   1      34.874  18.067  24.246  1.00  0.00     0.012 A 
ATOM     30  C   UNL A   1      32.949  18.995  25.377  1.00  0.00     0.012 A 
ENDBRANCH  18  24
ENDBRANCH  12  17
ENDBRANCH   9  11
ENDBRANCH   8   9
ENDBRANCH   7   8
ENDBRANCH   6   7
ENDBRANCH   5   6
ENDBRANCH   4   5
ENDBRANCH   3   4
ENDBRANCH   2   3
ENDBRANCH   1   2
BRANCH   1  31
ATOM     31  C   UNL A   1      32.184  29.184  25.590  1.00  0.00     0.188 C 
BRANCH  31  32
ATOM     32  O   UNL A   1      33.251  28.608  26.317  1.00  0.00    -0.376 OA
BRANCH  32  33
ATOM     33  C   UNL A   1      33.914  29.532  27.179  1.00  0.00     0.202 C 
BRANCH  33  34
ATOM     34  C   UNL A   1      33.298  30.957  27.320  1.00  0.00     0.261 C 
BRANCH  34  35
ATOM     35  O   UNL A   1      34.346  31.954  27.553  1.00  0.00    -0.460 OA
BRANCH  35  36
ATOM     36  C   UNL A   1      34.046  32.983  28.415  1.00  0.00     0.338 C 
ATOM     37  O   UNL A   1      33.174  33.793  28.231  1.00  0.00    -0.246 OA
BRANCH  36  38
ATOM     38  C   UNL A   1      35.111  33.108  29.498  1.00  0.00     0.060 A 
ATOM     39  C   UNL A   1      36.339  33.697  29.156  1.00  0.00     0.016 A 
ATOM     40  C   UNL A   1      35.058  32.343  30.661  1.00  0.00     0.016 A 
ATOM     41  C   UNL A   1      37.532  33.299  29.801  1.00  0.00     0.010 A 
ATOM     42  C   UNL A   1      36.255  31.848  31.201  1.00  0.00     0.010 A 
ATOM     43  C   UNL A   1      37.519  32.252  30.732  1.00  0.00    -0.014 A 
BRANCH  43  44
ATOM     44  C   UNL A   1      38.704  31.371  31.024  1.00  0.00     0.031 A 
ATOM     45  C   UNL A   1      38.959  30.086  30.256  1.00  0.00     0.074 A 
ATOM     46  C   UNL A   1      39.746  31.888  31.740  1.00  0.00     0.049 A 
ATOM     47  N   UNL A   1      40.004  29.327  30.367  1.00  0.00    -0.248 NA
ATOM     48  C   UNL A   1      38.045  29.544  29.255  1.00  0.00     0.031 C 
ATOM     49  C   UNL A   1      41.149  31.474  31.655  1.00  0.00     0.029 A 
ATOM     50  N   UNL A   1      39.816  32.978  32.625  1.00  0.00    -0.354 N 
ATOM     51  C   UNL A   1      40.069  28.432  29.311  1.00  0.00     0.074 A 
ATOM     52  C   UNL A   1      38.777  28.577  28.688  1.00  0.00     0.031 C 
ATOM     53  C   UNL A   1      41.931  32.212  32.447  1.00  0.00     0.029 A 
ATOM     54  C   UNL A   1      41.039  32.885  33.341  1.00  0.00     0.049 A 
ATOM     55  H   UNL A   1      39.135  33.681  32.730  1.00  0.00     0.167 HD
ATOM     56  C   UNL A   1      41.244  27.761  29.051  1.00  0.00     0.034 A 
ATOM     57  C   UNL A   1      41.060  32.641  34.683  1.00  0.00     0.034 A 
ATOM     58  C   UNL A   1      42.222  27.923  30.158  1.00  0.00     0.049 A 
ATOM     59  C   UNL A   1      41.555  31.228  34.998  1.00  0.00     0.074 A 
ATOM     60  C   UNL A   1      43.563  28.270  30.266  1.00  0.00     0.029 A 
ATOM     61  N   UNL A   1      41.766  27.833  31.475  1.00  0.00    -0.354 N 
ATOM     62  N   UNL A   1      41.645  30.290  34.080  1.00  0.00    -0.248 NA
ATOM     63  C   UNL A   1      42.089  30.758  36.274  1.00  0.00     0.031 C 
ATOM     64  C   UNL A   1      43.844  28.552  31.637  1.00  0.00     0.029 A 
ATOM     65  C   UNL A   1      42.715  28.249  32.380  1.00  0.00     0.049 A 
ATOM     66  H   UNL A   1      40.870  27.511  31.726  1.00  0.00     0.167 HD
ATOM     67  C   UNL A   1      42.243  29.168  34.571  1.00  0.00     0.074 A 
ATOM     68  C   UNL A   1      42.482  29.504  35.965  1.00  0.00     0.031 C 
ATOM     69  C   UNL A   1      42.499  28.060  33.805  1.00  0.00     0.034 A 
BRANCH  56  70
ATOM     70  C   UNL A   1      41.634  27.037  27.736  1.00  0.00     0.023 A 
ATOM     71  C   UNL A   1      41.857  25.632  27.735  1.00  0.00     0.031 A 
ATOM     72  C   UNL A   1      41.878  27.643  26.484  1.00  0.00     0.131 A 
ATOM     73  C   UNL A   1      42.320  24.931  26.593  1.00  0.00     0.055 A 
ATOM     74  C   UNL A   1      42.297  26.942  25.337  1.00  0.00     0.041 A 
ATOM     75  F   UNL A   1      41.745  28.954  26.278  1.00  0.00    -0.206 F 
ATOM     76  C   UNL A   1      42.530  25.581  25.386  1.00  0.00     0.022 A 
BRANCH  73  77
ATOM     77  S   UNL A   1      42.666  23.146  26.695  1.00  0.00     0.124 S 
ATOM     78  O   UNL A   1      42.701  22.764  25.288  1.00  0.00    -0.237 OA
ATOM     79  O   UNL A   1      43.935  23.111  27.411  1.00  0.00    -0.237 OA
ATOM     80  O   UNL A   1      41.525  22.622  27.446  1.00  0.00    -0.744 OA
ENDBRANCH  73  77
ENDBRANCH  56  70
BRANCH  57  81
ATOM     81  C   UNL A   1      40.183  33.642  35.377  1.00  0.00     0.023 A 
ATOM     82  C   UNL A   1      39.031  33.040  35.958  1.00  0.00     0.031 A 
ATOM     83  C   UNL A   1      40.781  34.696  36.090  1.00  0.00     0.131 A 
ATOM     84  C   UNL A   1      38.744  33.243  37.320  1.00  0.00     0.055 A 
ATOM     85  C   UNL A   1      40.427  34.956  37.427  1.00  0.00     0.041 A 
ATOM     86  F   UNL A   1      41.855  35.330  35.594  1.00  0.00    -0.206 F 
ATOM     87  C   UNL A   1      39.465  34.174  38.069  1.00  0.00     0.022 A 
BRANCH  84  88
ATOM     88  S   UNL A   1      37.674  32.037  38.185  1.00  0.00     0.124 S 
ATOM     89  O   UNL A   1      36.370  32.689  38.115  1.00  0.00    -0.237 OA
ATOM     90  O   UNL A   1      37.820  30.827  37.383  1.00  0.00    -0.237 OA
ATOM     91  O   UNL A   1      38.266  31.955  39.518  1.00  0.00    -0.744 OA
ENDBRANCH  84  88
ENDBRANCH  57  81
BRANCH  69  92
ATOM     92  C   UNL A   1      42.609  26.645  34.331  1.00  0.00     0.023 A 
ATOM     93  C   UNL A   1      43.801  25.925  34.260  1.00  0.00     0.031 A 
ATOM     94  C   UNL A   1      41.564  26.029  35.074  1.00  0.00     0.131 A 
ATOM     95  C   UNL A   1      43.910  24.646  34.823  1.00  0.00     0.055 A 
ATOM     96  C   UNL A   1      41.705  24.795  35.713  1.00  0.00     0.041 A 
ATOM     97  F   UNL A   1      40.366  26.604  35.247  1.00  0.00    -0.206 F 
ATOM     98  C   UNL A   1      42.884  24.085  35.577  1.00  0.00     0.022 A 
BRANCH  95  99
ATOM     99  S   UNL A   1      45.416  23.717  34.467  1.00  0.00     0.124 S 
ATOM    100  O   UNL A   1      46.048  24.559  33.454  1.00  0.00    -0.237 OA
ATOM    101  O   UNL A   1      46.079  23.687  35.766  1.00  0.00    -0.237 OA
ATOM    102  O   UNL A   1      44.921  22.431  33.987  1.00  0.00    -0.744 OA
ENDBRANCH  95  99
ENDBRANCH  69  92
ENDBRANCH  43  44
ENDBRANCH  36  38
ENDBRANCH  35  36
ENDBRANCH  34  35
ENDBRANCH  33  34
ENDBRANCH  32  33
ENDBRANCH  31  32
ENDBRANCH   1  31
TORSDOF 25
ENDMDL
MODEL 3
REMARK VINA RESULT:     -10.8      2.131      3.610
REMARK SMILES Cc1ccc(-c2nc(C)cc(N3CCCC[C@H]3C(=O)OCCOCCOCCOCCOC(=O)c3ccc(-c4c5nc(c(-c6cc(S(=O)(=O)[O-])ccc6F)c6ccc([nH]6)c(-c6cc(S(=O)(=O)[O-])ccc6F)c6nc(c(-c7cc(S(=O)(=O)[O-])ccc7F)c7ccc4[nH]7)C=C6)C=C5)cc3)n2)cc1
REMARK SMILES IDX 27 1 26 2 25 3 24 4 23 5 22 6 21 7 20 8 18 9 19 10 17 11
REMARK SMILES IDX 12 12 13 13 14 14 16 15 15 16 11 17 6 18 7 19 98 20 8 21
REMARK SMILES IDX 9 22 10 23 5 24 1 25 2 26 3 27 100 28 4 29 99 30 28 31 29 32
REMARK SMILES IDX 30 33 31 34 32 35 33 36 34 37 35 38 36 39 97 40 37 41 96 42
REMARK SMILES IDX 38 43 39 44 40 45 90 46 41 47 95 48 89 49 91 50 42 51 94 52
REMARK SMILES IDX 88 53 87 54 43 56 75 57 55 58 74 59 56 60 59 61 73 62 92 63
REMARK SMILES IDX 57 64 58 65 72 67 93 68 60 69 44 70 45 71 53 72 46 73 52 74
REMARK SMILES IDX 54 75 51 76 47 77 48 78 49 79 50 80 76 81 77 82 85 83 78 84
REMARK SMILES IDX 84 85 86 86 83 87 79 88 80 89 81 90 82 91 61 92 62 93 70 94
REMARK SMILES IDX 63 95 69 96 71 97 68 98 64 99 65 100 66 101 67 102
REMARK H PARENT 91 55 59 66
REMARK Flexibility Score: inf
ROOT
ATOM      1  C   UNL A   1      30.732  27.068  23.908  1.00  0.00     0.188 C 
ENDROOT
BRANCH   1   2
ATOM      2  O   UNL A   1      30.795  25.810  24.542  1.00  0.00    -0.377 OA
BRANCH   2   3
ATOM      3  C   UNL A   1      30.025  25.771  25.728  1.00  0.00     0.188 C 
BRANCH   3   4
ATOM      4  C   UNL A   1      29.719  24.406  26.399  1.00  0.00     0.188 C 
BRANCH   4   5
ATOM      5  O   UNL A   1      30.650  23.751  27.252  1.00  0.00    -0.376 OA
BRANCH   5   6
ATOM      6  C   UNL A   1      31.706  23.076  26.590  1.00  0.00     0.202 C 
BRANCH   6   7
ATOM      7  C   UNL A   1      33.120  23.377  27.084  1.00  0.00     0.261 C 
BRANCH   7   8
ATOM      8  O   UNL A   1      33.625  24.584  26.499  1.00  0.00    -0.462 OA
BRANCH   8   9
ATOM      9  C   UNL A   1      34.699  24.501  25.681  1.00  0.00     0.328 C 
ATOM     10  O   UNL A   1      35.099  25.410  24.961  1.00  0.00    -0.250 OA
BRANCH   9  11
ATOM     11  C   UNL A   1      35.507  23.208  25.960  1.00  0.00     0.193 C 
ATOM     12  N   UNL A   1      35.722  22.439  24.716  1.00  0.00    -0.343 N 
ATOM     13  C   UNL A   1      36.933  21.643  24.470  1.00  0.00     0.119 C 
ATOM     14  C   UNL A   1      38.197  22.049  25.213  1.00  0.00     0.022 C 
ATOM     15  C   UNL A   1      36.768  23.434  26.798  1.00  0.00     0.037 C 
ATOM     16  C   UNL A   1      38.118  23.256  26.123  1.00  0.00     0.005 C 
BRANCH  12  17
ATOM     17  C   UNL A   1      34.556  21.831  24.238  1.00  0.00     0.133 A 
ATOM     18  C   UNL A   1      33.329  19.904  24.175  1.00  0.00     0.161 A 
ATOM     19  N   UNL A   1      32.278  20.425  23.530  1.00  0.00    -0.233 NA
ATOM     20  N   UNL A   1      34.449  20.546  24.504  1.00  0.00    -0.211 NA
ATOM     21  C   UNL A   1      32.391  21.741  23.250  1.00  0.00     0.043 A 
ATOM     22  C   UNL A   1      31.218  22.431  22.612  1.00  0.00     0.067 C 
ATOM     23  C   UNL A   1      33.521  22.473  23.586  1.00  0.00     0.070 A 
BRANCH  18  24
ATOM     24  C   UNL A   1      33.374  18.528  24.628  1.00  0.00     0.019 A 
ATOM     25  C   UNL A   1      32.902  14.323  25.381  1.00  0.00     0.044 C 
ATOM     26  C   UNL A   1      33.087  15.784  25.124  1.00  0.00    -0.051 A 
ATOM     27  C   UNL A   1      32.501  16.732  25.978  1.00  0.00     0.004 A 
ATOM     28  C   UNL A   1      33.823  16.210  24.020  1.00  0.00     0.004 A 
ATOM     29  C   UNL A   1      32.650  18.098  25.737  1.00  0.00     0.012 A 
ATOM     30  C   UNL A   1      33.968  17.568  23.781  1.00  0.00     0.012 A 
ENDBRANCH  18  24
ENDBRANCH  12  17
ENDBRANCH   9  11
ENDBRANCH   8   9
ENDBRANCH   7   8
ENDBRANCH   6   7
ENDBRANCH   5   6
ENDBRANCH   4   5
ENDBRANCH   3   4
ENDBRANCH   2   3
ENDBRANCH   1   2
BRANCH   1  31
ATOM     31  C   UNL A   1      31.389  28.056  24.844  1.00  0.00     0.188 C 
BRANCH  31  32
ATOM     32  O   UNL A   1      32.768  27.758  24.934  1.00  0.00    -0.376 OA
BRANCH  32  33
ATOM     33  C   UNL A   1      33.567  28.879  25.307  1.00  0.00     0.202 C 
BRANCH  33  34
ATOM     34  C   UNL A   1      32.916  29.955  26.227  1.00  0.00     0.261 C 
BRANCH  34  35
ATOM     35  O   UNL A   1      33.886  30.460  27.203  1.00  0.00    -0.460 OA
BRANCH  35  36
ATOM     36  C   UNL A   1      33.668  31.724  27.701  1.00  0.00     0.338 C 
ATOM     37  O   UNL A   1      32.805  32.468  27.314  1.00  0.00    -0.246 OA
BRANCH  36  38
ATOM     38  C   UNL A   1      34.807  32.143  28.623  1.00  0.00     0.060 A 
ATOM     39  C   UNL A   1      35.980  32.647  28.040  1.00  0.00     0.016 A 
ATOM     40  C   UNL A   1      34.872  31.704  29.943  1.00  0.00     0.016 A 
ATOM     41  C   UNL A   1      37.234  32.451  28.665  1.00  0.00     0.010 A 
ATOM     42  C   UNL A   1      36.124  31.388  30.490  1.00  0.00     0.010 A 
ATOM     43  C   UNL A   1      37.333  31.680  29.830  1.00  0.00    -0.014 A 
BRANCH  43  44
ATOM     44  C   UNL A   1      38.571  30.927  30.238  1.00  0.00     0.031 A 
ATOM     45  C   UNL A   1      38.977  29.626  29.567  1.00  0.00     0.074 A 
ATOM     46  C   UNL A   1      39.522  31.575  30.972  1.00  0.00     0.049 A 
ATOM     47  N   UNL A   1      40.075  28.971  29.780  1.00  0.00    -0.248 NA
ATOM     48  C   UNL A   1      38.170  28.947  28.558  1.00  0.00     0.031 C 
ATOM     49  C   UNL A   1      40.958  31.284  30.985  1.00  0.00     0.029 A 
ATOM     50  N   UNL A   1      39.449  32.718  31.787  1.00  0.00    -0.354 N 
ATOM     51  C   UNL A   1      40.276  28.024  28.789  1.00  0.00     0.074 A 
ATOM     52  C   UNL A   1      39.013  28.017  28.092  1.00  0.00     0.031 C 
ATOM     53  C   UNL A   1      41.628  32.134  31.767  1.00  0.00     0.029 A 
ATOM     54  C   UNL A   1      40.632  32.777  32.569  1.00  0.00     0.049 A 
ATOM     55  H   UNL A   1      38.705  33.363  31.813  1.00  0.00     0.167 HD
ATOM     56  C   UNL A   1      41.517  27.445  28.632  1.00  0.00     0.034 A 
ATOM     57  C   UNL A   1      40.599  32.616  33.923  1.00  0.00     0.034 A 
ATOM     58  C   UNL A   1      42.413  27.759  29.775  1.00  0.00     0.049 A 
ATOM     59  C   UNL A   1      41.194  31.273  34.353  1.00  0.00     0.074 A 
ATOM     60  C   UNL A   1      43.711  28.230  29.929  1.00  0.00     0.029 A 
ATOM     61  N   UNL A   1      41.892  27.707  31.070  1.00  0.00    -0.354 N 
ATOM     62  N   UNL A   1      41.416  30.294  33.503  1.00  0.00    -0.248 NA
ATOM     63  C   UNL A   1      41.693  30.929  35.682  1.00  0.00     0.031 C 
ATOM     64  C   UNL A   1      43.889  28.616  31.292  1.00  0.00     0.029 A 
ATOM     65  C   UNL A   1      42.750  28.259  31.994  1.00  0.00     0.049 A 
ATOM     66  H   UNL A   1      41.015  27.322  31.296  1.00  0.00     0.167 HD
ATOM     67  C   UNL A   1      42.079  29.260  34.095  1.00  0.00     0.074 A 
ATOM     68  C   UNL A   1      42.208  29.698  35.475  1.00  0.00     0.031 C 
ATOM     69  C   UNL A   1      42.470  28.136  33.416  1.00  0.00     0.034 A 
BRANCH  56  70
ATOM     70  C   UNL A   1      42.041  26.683  27.388  1.00  0.00     0.023 A 
ATOM     71  C   UNL A   1      42.187  25.268  27.429  1.00  0.00     0.031 A 
ATOM     72  C   UNL A   1      42.481  27.256  26.175  1.00  0.00     0.131 A 
ATOM     73  C   UNL A   1      42.761  24.526  26.365  1.00  0.00     0.055 A 
ATOM     74  C   UNL A   1      43.013  26.516  25.101  1.00  0.00     0.041 A 
ATOM     75  F   UNL A   1      42.447  28.569  25.942  1.00  0.00    -0.206 F 
ATOM     76  C   UNL A   1      43.166  25.146  25.192  1.00  0.00     0.022 A 
BRANCH  73  77
ATOM     77  S   UNL A   1      42.996  22.729  26.528  1.00  0.00     0.124 S 
ATOM     78  O   UNL A   1      42.407  22.464  27.836  1.00  0.00    -0.237 OA
ATOM     79  O   UNL A   1      42.273  22.210  25.373  1.00  0.00    -0.237 OA
ATOM     80  O   UNL A   1      44.448  22.568  26.464  1.00  0.00    -0.744 OA
ENDBRANCH  73  77
ENDBRANCH  56  70
BRANCH  57  81
ATOM     81  C   UNL A   1      39.602  33.574  34.506  1.00  0.00     0.023 A 
ATOM     82  C   UNL A   1      38.654  32.923  35.347  1.00  0.00     0.031 A 
ATOM     83  C   UNL A   1      40.033  34.853  34.900  1.00  0.00     0.131 A 
ATOM     84  C   UNL A   1      38.456  33.377  36.663  1.00  0.00     0.055 A 
ATOM     85  C   UNL A   1      39.756  35.343  36.190  1.00  0.00     0.041 A 
ATOM     86  F   UNL A   1      40.906  35.539  34.146  1.00  0.00    -0.206 F 
ATOM     87  C   UNL A   1      39.035  34.568  37.102  1.00  0.00     0.022 A 
BRANCH  84  88
ATOM     88  S   UNL A   1      37.737  32.229  37.893  1.00  0.00     0.124 S 
ATOM     89  O   UNL A   1      38.683  32.341  38.998  1.00  0.00    -0.237 OA
ATOM     90  O   UNL A   1      36.411  32.788  38.135  1.00  0.00    -0.237 OA
ATOM     91  O   UNL A   1      37.733  30.945  37.194  1.00  0.00    -0.744 OA
ENDBRANCH  84  88
ENDBRANCH  57  81
BRANCH  69  92
ATOM     92  C   UNL A   1      42.671  26.770  34.036  1.00  0.00     0.023 A 
ATOM     93  C   UNL A   1      43.919  26.147  34.053  1.00  0.00     0.031 A 
ATOM     94  C   UNL A   1      41.649  26.118  34.780  1.00  0.00     0.131 A 
ATOM     95  C   UNL A   1      44.106  24.919  34.702  1.00  0.00     0.055 A 
ATOM     96  C   UNL A   1      41.862  24.942  35.503  1.00  0.00     0.041 A 
ATOM     97  F   UNL A   1      40.403  26.603  34.873  1.00  0.00    -0.206 F 
ATOM     98  C   UNL A   1      43.098  24.323  35.454  1.00  0.00     0.022 A 
BRANCH  95  99
ATOM     99  S   UNL A   1      45.694  24.095  34.460  1.00  0.00     0.124 S 
ATOM    100  O   UNL A   1      46.411  24.478  35.674  1.00  0.00    -0.237 OA
ATOM    101  O   UNL A   1      45.308  22.691  34.371  1.00  0.00    -0.237 OA
ATOM    102  O   UNL A   1      46.202  24.684  33.225  1.00  0.00    -0.744 OA
ENDBRANCH  95  99
ENDBRANCH  69  92
ENDBRANCH  43  44
ENDBRANCH  36  38
ENDBRANCH  35  36
ENDBRANCH  34  35
ENDBRANCH  33  34
ENDBRANCH  32  33
ENDBRANCH  31  32
ENDBRANCH   1  31
TORSDOF 25
ENDMDL
