MODEL 1
REMARK VINA RESULT:      -8.2      0.000      0.000
REMARK SMILES CCN(C(=O)N[C@@H]1CCOC1)[C@H]1COC[C@H]1C(=O)OCCOCCOCCOCCOC(=O)c1ccc(-c2c3nc(c(-c4cc(S(=O)(=O)[O-])ccc4F)c4ccc([nH]4)c(-c4cc(S(=O)(=O)[O-])ccc4F)c4nc(c(-c5cc(S(=O)(=O)[O-])ccc5F)c5ccc2[nH]5)C=C4)C=C3)cc1
REMARK SMILES IDX 25 1 24 2 23 3 22 4 21 5 20 6 19 7 17 8 18 9 16 10 12 11
REMARK SMILES IDX 13 12 14 13 15 14 3 15 2 16 1 17 4 18 5 19 6 20 7 22 8 23
REMARK SMILES IDX 11 24 9 25 10 26 26 27 27 28 28 29 29 30 30 31 31 32 32 33
REMARK SMILES IDX 33 34 34 35 35 36 96 37 36 38 95 39 37 40 38 41 39 42 89 43
REMARK SMILES IDX 40 44 94 45 88 46 90 47 41 48 93 49 87 50 86 51 42 53 74 54
REMARK SMILES IDX 54 55 73 56 55 57 58 58 72 59 91 60 56 61 57 62 71 64 92 65
REMARK SMILES IDX 59 66 43 67 44 68 52 69 45 70 51 71 53 72 50 73 46 74 47 75
REMARK SMILES IDX 48 76 49 77 75 78 76 79 84 80 77 81 83 82 85 83 82 84 78 85
REMARK SMILES IDX 79 86 80 87 81 88 60 89 61 90 69 91 62 92 68 93 70 94 67 95
REMARK SMILES IDX 63 96 64 97 65 98 66 99
REMARK H PARENT 6 21 90 52 58 63
REMARK Flexibility Score: inf
ROOT
ATOM      1  O   UNL A   1      33.858  28.857  27.255  1.00  0.00    -0.377 OA
ENDROOT
BRANCH   1   2
ATOM      2  C   UNL A   1      33.824  28.316  25.941  1.00  0.00     0.188 C 
BRANCH   2   3
ATOM      3  C   UNL A   1      33.093  29.081  24.829  1.00  0.00     0.188 C 
BRANCH   3   4
ATOM      4  O   UNL A   1      31.844  28.584  24.336  1.00  0.00    -0.376 OA
BRANCH   4   5
ATOM      5  C   UNL A   1      31.639  28.413  22.937  1.00  0.00     0.202 C 
BRANCH   5   6
ATOM      6  C   UNL A   1      30.850  27.147  22.534  1.00  0.00     0.261 C 
BRANCH   6   7
ATOM      7  O   UNL A   1      31.666  25.975  22.262  1.00  0.00    -0.463 OA
BRANCH   7   8
ATOM      8  C   UNL A   1      32.410  25.460  23.254  1.00  0.00     0.313 C 
ATOM      9  O   UNL A   1      33.609  25.683  23.372  1.00  0.00    -0.252 OA
BRANCH   8  10
ATOM     10  C   UNL A   1      31.673  24.522  24.193  1.00  0.00     0.150 C 
ATOM     11  C   UNL A   1      32.137  23.153  24.732  1.00  0.00     0.129 C 
ATOM     12  C   UNL A   1      30.897  22.835  25.584  1.00  0.00     0.186 C 
ATOM     13  O   UNL A   1      30.473  24.087  26.173  1.00  0.00    -0.378 OA
ATOM     14  C   UNL A   1      30.966  25.168  25.355  1.00  0.00     0.177 C 
BRANCH  11  15
ATOM     15  N   UNL A   1      33.361  22.905  25.566  1.00  0.00    -0.319 N 
BRANCH  15  16
ATOM     16  C   UNL A   1      33.701  21.569  25.992  1.00  0.00     0.118 C 
ATOM     17  C   UNL A   1      33.944  21.643  27.466  1.00  0.00     0.027 C 
ENDBRANCH  15  16
BRANCH  15  18
ATOM     18  C   UNL A   1      34.147  23.987  25.867  1.00  0.00     0.318 C 
ATOM     19  O   UNL A   1      33.688  24.921  26.541  1.00  0.00    -0.249 OA
ATOM     20  N   UNL A   1      35.439  24.129  25.538  1.00  0.00    -0.333 N 
ATOM     21  H   UNL A   1      35.794  24.819  26.144  1.00  0.00     0.165 HD
BRANCH  20  22
ATOM     22  C   UNL A   1      36.593  23.719  24.671  1.00  0.00     0.112 C 
ATOM     23  C   UNL A   1      36.640  22.478  23.798  1.00  0.00     0.056 C 
ATOM     24  C   UNL A   1      37.752  23.324  25.603  1.00  0.00     0.185 C 
ATOM     25  C   UNL A   1      36.880  21.340  24.764  1.00  0.00     0.162 C 
ATOM     26  O   UNL A   1      37.667  21.902  25.806  1.00  0.00    -0.379 OA
ENDBRANCH  20  22
ENDBRANCH  15  18
ENDBRANCH  11  15
ENDBRANCH   8  10
ENDBRANCH   7   8
ENDBRANCH   6   7
ENDBRANCH   5   6
ENDBRANCH   4   5
ENDBRANCH   3   4
ENDBRANCH   2   3
ENDBRANCH   1   2
BRANCH   1  27
ATOM     27  C   UNL A   1      34.960  29.656  27.641  1.00  0.00     0.188 C 
BRANCH  27  28
ATOM     28  C   UNL A   1      34.616  31.146  27.792  1.00  0.00     0.188 C 
BRANCH  28  29
ATOM     29  O   UNL A   1      35.152  31.873  28.891  1.00  0.00    -0.376 OA
BRANCH  29  30
ATOM     30  C   UNL A   1      36.475  31.572  29.322  1.00  0.00     0.202 C 
BRANCH  30  31
ATOM     31  C   UNL A   1      36.801  31.320  30.808  1.00  0.00     0.261 C 
BRANCH  31  32
ATOM     32  O   UNL A   1      37.508  32.356  31.509  1.00  0.00    -0.460 OA
BRANCH  32  33
ATOM     33  C   UNL A   1      37.451  33.585  30.950  1.00  0.00     0.338 C 
ATOM     34  O   UNL A   1      36.452  34.297  30.833  1.00  0.00    -0.246 OA
BRANCH  33  35
ATOM     35  C   UNL A   1      38.785  34.014  30.504  1.00  0.00     0.060 A 
ATOM     36  C   UNL A   1      38.999  34.415  29.179  1.00  0.00     0.016 A 
ATOM     37  C   UNL A   1      39.861  33.900  31.385  1.00  0.00     0.016 A 
ATOM     38  C   UNL A   1      40.293  34.713  28.730  1.00  0.00     0.010 A 
ATOM     39  C   UNL A   1      41.150  34.213  30.939  1.00  0.00     0.010 A 
ATOM     40  C   UNL A   1      41.384  34.608  29.603  1.00  0.00    -0.014 A 
BRANCH  40  41
ATOM     41  C   UNL A   1      42.792  34.711  29.112  1.00  0.00     0.031 A 
ATOM     42  C   UNL A   1      43.269  36.063  28.677  1.00  0.00     0.074 A 
ATOM     43  C   UNL A   1      43.629  33.658  29.018  1.00  0.00     0.049 A 
ATOM     44  N   UNL A   1      44.393  36.400  28.106  1.00  0.00    -0.248 NA
ATOM     45  C   UNL A   1      42.345  37.183  28.914  1.00  0.00     0.031 C 
ATOM     46  C   UNL A   1      43.328  32.317  29.486  1.00  0.00     0.029 A 
ATOM     47  N   UNL A   1      44.892  33.532  28.489  1.00  0.00    -0.354 N 
ATOM     48  C   UNL A   1      44.311  37.773  27.915  1.00  0.00     0.074 A 
ATOM     49  C   UNL A   1      42.997  38.188  28.357  1.00  0.00     0.031 C 
ATOM     50  C   UNL A   1      44.330  31.481  29.174  1.00  0.00     0.029 A 
ATOM     51  C   UNL A   1      45.369  32.236  28.483  1.00  0.00     0.049 A 
ATOM     52  H   UNL A   1      45.408  34.295  28.144  1.00  0.00     0.167 HD
ATOM     53  C   UNL A   1      45.260  38.616  27.448  1.00  0.00     0.034 A 
ATOM     54  C   UNL A   1      46.508  31.717  27.979  1.00  0.00     0.034 A 
ATOM     55  C   UNL A   1      46.563  38.189  27.010  1.00  0.00     0.049 A 
ATOM     56  C   UNL A   1      47.507  32.660  27.353  1.00  0.00     0.074 A 
ATOM     57  C   UNL A   1      47.604  38.963  26.533  1.00  0.00     0.029 A 
ATOM     58  N   UNL A   1      47.001  36.870  26.983  1.00  0.00    -0.354 N 
ATOM     59  N   UNL A   1      47.426  33.963  27.203  1.00  0.00    -0.248 NA
ATOM     60  C   UNL A   1      48.760  32.074  26.858  1.00  0.00     0.031 C 
ATOM     61  C   UNL A   1      48.640  38.108  26.144  1.00  0.00     0.029 A 
ATOM     62  C   UNL A   1      48.284  36.807  26.461  1.00  0.00     0.049 A 
ATOM     63  H   UNL A   1      46.477  36.095  27.291  1.00  0.00     0.167 HD
ATOM     64  C   UNL A   1      48.639  34.356  26.645  1.00  0.00     0.074 A 
ATOM     65  C   UNL A   1      49.432  33.154  26.489  1.00  0.00     0.031 C 
ATOM     66  C   UNL A   1      49.063  35.600  26.307  1.00  0.00     0.034 A 
BRANCH  53  67
ATOM     67  C   UNL A   1      44.884  40.072  27.355  1.00  0.00     0.023 A 
ATOM     68  C   UNL A   1      44.338  40.617  26.179  1.00  0.00     0.031 A 
ATOM     69  C   UNL A   1      45.137  40.938  28.431  1.00  0.00     0.131 A 
ATOM     70  C   UNL A   1      44.144  42.001  26.077  1.00  0.00     0.055 A 
ATOM     71  C   UNL A   1      44.856  42.303  28.354  1.00  0.00     0.041 A 
ATOM     72  F   UNL A   1      45.687  40.477  29.565  1.00  0.00    -0.206 F 
ATOM     73  C   UNL A   1      44.373  42.844  27.167  1.00  0.00     0.022 A 
BRANCH  70  74
ATOM     74  S   UNL A   1      43.748  42.700  24.451  1.00  0.00     0.124 S 
ATOM     75  O   UNL A   1      42.373  42.243  24.261  1.00  0.00    -0.237 OA
ATOM     76  O   UNL A   1      43.921  44.131  24.672  1.00  0.00    -0.237 OA
ATOM     77  O   UNL A   1      44.731  42.081  23.565  1.00  0.00    -0.744 OA
ENDBRANCH  70  74
ENDBRANCH  53  67
BRANCH  54  78
ATOM     78  C   UNL A   1      46.780  30.248  28.025  1.00  0.00     0.023 A 
ATOM     79  C   UNL A   1      46.495  29.415  26.930  1.00  0.00     0.031 A 
ATOM     80  C   UNL A   1      47.256  29.638  29.202  1.00  0.00     0.131 A 
ATOM     81  C   UNL A   1      46.632  28.022  27.048  1.00  0.00     0.055 A 
ATOM     82  C   UNL A   1      47.438  28.256  29.298  1.00  0.00     0.041 A 
ATOM     83  F   UNL A   1      47.549  30.379  30.282  1.00  0.00    -0.206 F 
ATOM     84  C   UNL A   1      47.110  27.437  28.222  1.00  0.00     0.022 A 
BRANCH  81  85
ATOM     85  S   UNL A   1      46.083  26.971  25.673  1.00  0.00     0.124 S 
ATOM     86  O   UNL A   1      47.354  26.531  25.111  1.00  0.00    -0.237 OA
ATOM     87  O   UNL A   1      45.299  25.955  26.367  1.00  0.00    -0.237 OA
ATOM     88  O   UNL A   1      45.311  27.885  24.835  1.00  0.00    -0.744 OA
ENDBRANCH  81  85
ENDBRANCH  54  78
BRANCH  66  89
ATOM     89  C   UNL A   1      50.472  35.731  25.784  1.00  0.00     0.023 A 
ATOM     90  C   UNL A   1      51.592  35.499  26.598  1.00  0.00     0.031 A 
ATOM     91  C   UNL A   1      50.694  36.091  24.441  1.00  0.00     0.131 A 
ATOM     92  C   UNL A   1      52.883  35.684  26.080  1.00  0.00     0.055 A 
ATOM     93  C   UNL A   1      51.980  36.206  23.913  1.00  0.00     0.041 A 
ATOM     94  F   UNL A   1      49.660  36.330  23.618  1.00  0.00    -0.206 F 
ATOM     95  C   UNL A   1      53.084  36.015  24.737  1.00  0.00     0.022 A 
BRANCH  92  96
ATOM     96  S   UNL A   1      54.296  35.584  27.213  1.00  0.00     0.124 S 
ATOM     97  O   UNL A   1      53.721  34.878  28.351  1.00  0.00    -0.237 OA
ATOM     98  O   UNL A   1      55.274  34.839  26.427  1.00  0.00    -0.237 OA
ATOM     99  O   UNL A   1      54.637  36.985  27.458  1.00  0.00    -0.744 OA
ENDBRANCH  92  96
ENDBRANCH  66  89
ENDBRANCH  40  41
ENDBRANCH  33  35
ENDBRANCH  32  33
ENDBRANCH  31  32
ENDBRANCH  30  31
ENDBRANCH  29  30
ENDBRANCH  28  29
ENDBRANCH  27  28
ENDBRANCH   1  27
TORSDOF 27
ENDMDL
MODEL 2
REMARK VINA RESULT:      -8.2      1.903      2.705
REMARK SMILES CCN(C(=O)N[C@@H]1CCOC1)[C@H]1COC[C@H]1C(=O)OCCOCCOCCOCCOC(=O)c1ccc(-c2c3nc(c(-c4cc(S(=O)(=O)[O-])ccc4F)c4ccc([nH]4)c(-c4cc(S(=O)(=O)[O-])ccc4F)c4nc(c(-c5cc(S(=O)(=O)[O-])ccc5F)c5ccc2[nH]5)C=C4)C=C3)cc1
REMARK SMILES IDX 25 1 24 2 23 3 22 4 21 5 20 6 19 7 17 8 18 9 16 10 12 11
REMARK SMILES IDX 13 12 14 13 15 14 3 15 2 16 1 17 4 18 5 19 6 20 7 22 8 23
REMARK SMILES IDX 11 24 9 25 10 26 26 27 27 28 28 29 29 30 30 31 31 32 32 33
REMARK SMILES IDX 33 34 34 35 35 36 96 37 36 38 95 39 37 40 38 41 39 42 89 43
REMARK SMILES IDX 40 44 94 45 88 46 90 47 41 48 93 49 87 50 86 51 42 53 74 54
REMARK SMILES IDX 54 55 73 56 55 57 58 58 72 59 91 60 56 61 57 62 71 64 92 65
REMARK SMILES IDX 59 66 43 67 44 68 52 69 45 70 51 71 53 72 50 73 46 74 47 75
REMARK SMILES IDX 48 76 49 77 75 78 76 79 84 80 77 81 83 82 85 83 82 84 78 85
REMARK SMILES IDX 79 86 80 87 81 88 60 89 61 90 69 91 62 92 68 93 70 94 67 95
REMARK SMILES IDX 63 96 64 97 65 98 66 99
REMARK H PARENT 6 21 90 52 58 63
REMARK Flexibility Score: inf
ROOT
ATOM      1  O   UNL A   1      33.464  28.690  27.181  1.00  0.00    -0.377 OA
ENDROOT
BRANCH   1   2
ATOM      2  C   UNL A   1      33.248  28.212  25.859  1.00  0.00     0.188 C 
BRANCH   2   3
ATOM      3  C   UNL A   1      32.453  29.073  24.867  1.00  0.00     0.188 C 
BRANCH   3   4
ATOM      4  O   UNL A   1      31.024  28.981  24.843  1.00  0.00    -0.376 OA
BRANCH   4   5
ATOM      5  C   UNL A   1      30.339  28.744  23.618  1.00  0.00     0.202 C 
BRANCH   5   6
ATOM      6  C   UNL A   1      29.389  27.525  23.616  1.00  0.00     0.261 C 
BRANCH   6   7
ATOM      7  O   UNL A   1      29.928  26.325  24.234  1.00  0.00    -0.463 OA
BRANCH   7   8
ATOM      8  C   UNL A   1      30.565  25.430  23.461  1.00  0.00     0.313 C 
ATOM      9  O   UNL A   1      30.102  24.325  23.202  1.00  0.00    -0.252 OA
BRANCH   8  10
ATOM     10  C   UNL A   1      31.939  25.857  22.978  1.00  0.00     0.150 C 
ATOM     11  C   UNL A   1      33.315  25.499  23.577  1.00  0.00     0.129 C 
ATOM     12  C   UNL A   1      34.185  26.275  22.576  1.00  0.00     0.186 C 
ATOM     13  O   UNL A   1      33.552  26.127  21.283  1.00  0.00    -0.378 OA
ATOM     14  C   UNL A   1      32.156  25.831  21.488  1.00  0.00     0.177 C 
BRANCH  11  15
ATOM     15  N   UNL A   1      33.878  24.115  23.722  1.00  0.00    -0.319 N 
BRANCH  15  16
ATOM     16  C   UNL A   1      35.179  23.909  24.312  1.00  0.00     0.118 C 
ATOM     17  C   UNL A   1      35.978  23.133  23.315  1.00  0.00     0.027 C 
ENDBRANCH  15  16
BRANCH  15  18
ATOM     18  C   UNL A   1      33.094  23.070  23.306  1.00  0.00     0.318 C 
ATOM     19  O   UNL A   1      33.045  22.769  22.105  1.00  0.00    -0.249 OA
ATOM     20  N   UNL A   1      32.377  22.266  24.105  1.00  0.00    -0.333 N 
ATOM     21  H   UNL A   1      32.197  21.456  23.575  1.00  0.00     0.165 HD
BRANCH  20  22
ATOM     22  C   UNL A   1      31.725  22.033  25.436  1.00  0.00     0.112 C 
ATOM     23  C   UNL A   1      30.812  23.012  26.151  1.00  0.00     0.056 C 
ATOM     24  C   UNL A   1      32.838  22.019  26.498  1.00  0.00     0.185 C 
ATOM     25  C   UNL A   1      31.744  24.057  26.721  1.00  0.00     0.162 C 
ATOM     26  O   UNL A   1      32.946  23.357  27.018  1.00  0.00    -0.379 OA
ENDBRANCH  20  22
ENDBRANCH  15  18
ENDBRANCH  11  15
ENDBRANCH   8  10
ENDBRANCH   7   8
ENDBRANCH   6   7
ENDBRANCH   5   6
ENDBRANCH   4   5
ENDBRANCH   3   4
ENDBRANCH   2   3
ENDBRANCH   1   2
BRANCH   1  27
ATOM     27  C   UNL A   1      34.554  29.555  27.431  1.00  0.00     0.188 C 
BRANCH  27  28
ATOM     28  C   UNL A   1      34.143  31.024  27.616  1.00  0.00     0.188 C 
BRANCH  28  29
ATOM     29  O   UNL A   1      34.688  31.764  28.702  1.00  0.00    -0.376 OA
BRANCH  29  30
ATOM     30  C   UNL A   1      36.039  31.520  29.078  1.00  0.00     0.202 C 
BRANCH  30  31
ATOM     31  C   UNL A   1      36.428  31.225  30.542  1.00  0.00     0.261 C 
BRANCH  31  32
ATOM     32  O   UNL A   1      37.118  32.261  31.259  1.00  0.00    -0.460 OA
BRANCH  32  33
ATOM     33  C   UNL A   1      37.189  33.458  30.634  1.00  0.00     0.338 C 
ATOM     34  O   UNL A   1      36.245  34.194  30.341  1.00  0.00    -0.246 OA
BRANCH  33  35
ATOM     35  C   UNL A   1      38.588  33.817  30.359  1.00  0.00     0.060 A 
ATOM     36  C   UNL A   1      38.925  34.537  29.205  1.00  0.00     0.016 A 
ATOM     37  C   UNL A   1      39.588  33.327  31.197  1.00  0.00     0.016 A 
ATOM     38  C   UNL A   1      40.269  34.777  28.889  1.00  0.00     0.010 A 
ATOM     39  C   UNL A   1      40.929  33.581  30.888  1.00  0.00     0.010 A 
ATOM     40  C   UNL A   1      41.287  34.295  29.723  1.00  0.00    -0.014 A 
BRANCH  40  41
ATOM     41  C   UNL A   1      42.723  34.346  29.314  1.00  0.00     0.031 A 
ATOM     42  C   UNL A   1      43.316  35.700  29.063  1.00  0.00     0.074 A 
ATOM     43  C   UNL A   1      43.489  33.251  29.138  1.00  0.00     0.049 A 
ATOM     44  N   UNL A   1      44.491  36.014  28.589  1.00  0.00    -0.248 NA
ATOM     45  C   UNL A   1      42.460  36.852  29.385  1.00  0.00     0.031 C 
ATOM     46  C   UNL A   1      43.070  31.893  29.432  1.00  0.00     0.029 A 
ATOM     47  N   UNL A   1      44.768  33.092  28.657  1.00  0.00    -0.354 N 
ATOM     48  C   UNL A   1      44.515  37.401  28.556  1.00  0.00     0.074 A 
ATOM     49  C   UNL A   1      43.211  37.861  28.980  1.00  0.00     0.031 C 
ATOM     50  C   UNL A   1      44.028  31.024  29.072  1.00  0.00     0.029 A 
ATOM     51  C   UNL A   1      45.154  31.772  28.523  1.00  0.00     0.049 A 
ATOM     52  H   UNL A   1      45.355  33.848  28.429  1.00  0.00     0.167 HD
ATOM     53  C   UNL A   1      45.544  38.219  28.235  1.00  0.00     0.034 A 
ATOM     54  C   UNL A   1      46.281  31.229  28.016  1.00  0.00     0.034 A 
ATOM     55  C   UNL A   1      46.837  37.746  27.813  1.00  0.00     0.049 A 
ATOM     56  C   UNL A   1      47.376  32.159  27.553  1.00  0.00     0.074 A 
ATOM     57  C   UNL A   1      47.954  38.489  27.479  1.00  0.00     0.029 A 
ATOM     58  N   UNL A   1      47.183  36.410  27.653  1.00  0.00    -0.354 N 
ATOM     59  N   UNL A   1      47.394  33.472  27.552  1.00  0.00    -0.248 NA
ATOM     60  C   UNL A   1      48.610  31.540  27.053  1.00  0.00     0.031 C 
ATOM     61  C   UNL A   1      48.949  37.608  27.042  1.00  0.00     0.029 A 
ATOM     62  C   UNL A   1      48.486  36.310  27.189  1.00  0.00     0.049 A 
ATOM     63  H   UNL A   1      46.592  35.646  27.843  1.00  0.00     0.167 HD
ATOM     64  C   UNL A   1      48.660  33.834  27.102  1.00  0.00     0.074 A 
ATOM     65  C   UNL A   1      49.375  32.601  26.844  1.00  0.00     0.031 C 
ATOM     66  C   UNL A   1      49.187  35.073  26.931  1.00  0.00     0.034 A 
BRANCH  53  67
ATOM     67  C   UNL A   1      45.276  39.699  28.295  1.00  0.00     0.023 A 
ATOM     68  C   UNL A   1      45.378  40.418  29.499  1.00  0.00     0.031 A 
ATOM     69  C   UNL A   1      44.849  40.388  27.147  1.00  0.00     0.131 A 
ATOM     70  C   UNL A   1      44.973  41.759  29.548  1.00  0.00     0.055 A 
ATOM     71  C   UNL A   1      44.535  41.746  27.183  1.00  0.00     0.041 A 
ATOM     72  F   UNL A   1      44.704  39.744  25.979  1.00  0.00    -0.206 F 
ATOM     73  C   UNL A   1      44.580  42.436  28.391  1.00  0.00     0.022 A 
BRANCH  70  74
ATOM     74  S   UNL A   1      44.812  42.555  31.169  1.00  0.00     0.124 S 
ATOM     75  O   UNL A   1      46.063  43.306  31.254  1.00  0.00    -0.237 OA
ATOM     76  O   UNL A   1      43.599  43.348  31.012  1.00  0.00    -0.237 OA
ATOM     77  O   UNL A   1      44.708  41.428  32.093  1.00  0.00    -0.744 OA
ENDBRANCH  70  74
ENDBRANCH  53  67
BRANCH  54  78
ATOM     78  C   UNL A   1      46.447  29.747  27.904  1.00  0.00     0.023 A 
ATOM     79  C   UNL A   1      45.896  29.028  26.830  1.00  0.00     0.031 A 
ATOM     80  C   UNL A   1      47.094  29.014  28.916  1.00  0.00     0.131 A 
ATOM     81  C   UNL A   1      45.949  27.624  26.820  1.00  0.00     0.055 A 
ATOM     82  C   UNL A   1      47.188  27.620  28.877  1.00  0.00     0.041 A 
ATOM     83  F   UNL A   1      47.644  29.644  29.967  1.00  0.00    -0.206 F 
ATOM     84  C   UNL A   1      46.600  26.916  27.831  1.00  0.00     0.022 A 
BRANCH  81  85
ATOM     85  S   UNL A   1      45.069  26.727  25.509  1.00  0.00     0.124 S 
ATOM     86  O   UNL A   1      44.206  27.769  24.965  1.00  0.00    -0.237 OA
ATOM     87  O   UNL A   1      46.168  26.290  24.655  1.00  0.00    -0.237 OA
ATOM     88  O   UNL A   1      44.383  25.659  26.232  1.00  0.00    -0.744 OA
ENDBRANCH  81  85
ENDBRANCH  54  78
BRANCH  66  89
ATOM     89  C   UNL A   1      50.629  35.155  26.494  1.00  0.00     0.023 A 
ATOM     90  C   UNL A   1      51.690  35.039  27.406  1.00  0.00     0.031 A 
ATOM     91  C   UNL A   1      50.942  35.351  25.135  1.00  0.00     0.131 A 
ATOM     92  C   UNL A   1      53.014  35.175  26.959  1.00  0.00     0.055 A 
ATOM     93  C   UNL A   1      52.261  35.415  24.686  1.00  0.00     0.041 A 
ATOM     94  F   UNL A   1      49.967  35.473  24.221  1.00  0.00    -0.206 F 
ATOM     95  C   UNL A   1      53.306  35.340  25.602  1.00  0.00     0.022 A 
BRANCH  92  96
ATOM     96  S   UNL A   1      54.344  35.232  28.189  1.00  0.00     0.124 S 
ATOM     97  O   UNL A   1      54.232  33.921  28.817  1.00  0.00    -0.237 OA
ATOM     98  O   UNL A   1      55.527  35.443  27.360  1.00  0.00    -0.237 OA
ATOM     99  O   UNL A   1      53.975  36.362  29.040  1.00  0.00    -0.744 OA
ENDBRANCH  92  96
ENDBRANCH  66  89
ENDBRANCH  40  41
ENDBRANCH  33  35
ENDBRANCH  32  33
ENDBRANCH  31  32
ENDBRANCH  30  31
ENDBRANCH  29  30
ENDBRANCH  28  29
ENDBRANCH  27  28
ENDBRANCH   1  27
TORSDOF 27
ENDMDL
MODEL 3
REMARK VINA RESULT:      -8.1      2.480      3.363
REMARK SMILES CCN(C(=O)N[C@@H]1CCOC1)[C@H]1COC[C@H]1C(=O)OCCOCCOCCOCCOC(=O)c1ccc(-c2c3nc(c(-c4cc(S(=O)(=O)[O-])ccc4F)c4ccc([nH]4)c(-c4cc(S(=O)(=O)[O-])ccc4F)c4nc(c(-c5cc(S(=O)(=O)[O-])ccc5F)c5ccc2[nH]5)C=C4)C=C3)cc1
REMARK SMILES IDX 25 1 24 2 23 3 22 4 21 5 20 6 19 7 17 8 18 9 16 10 12 11
REMARK SMILES IDX 13 12 14 13 15 14 3 15 2 16 1 17 4 18 5 19 6 20 7 22 8 23
REMARK SMILES IDX 11 24 9 25 10 26 26 27 27 28 28 29 29 30 30 31 31 32 32 33
REMARK SMILES IDX 33 34 34 35 35 36 96 37 36 38 95 39 37 40 38 41 39 42 89 43
REMARK SMILES IDX 40 44 94 45 88 46 90 47 41 48 93 49 87 50 86 51 42 53 74 54
REMARK SMILES IDX 54 55 73 56 55 57 58 58 72 59 91 60 56 61 57 62 71 64 92 65
REMARK SMILES IDX 59 66 43 67 44 68 52 69 45 70 51 71 53 72 50 73 46 74 47 75
REMARK SMILES IDX 48 76 49 77 75 78 76 79 84 80 77 81 83 82 85 83 82 84 78 85
REMARK SMILES IDX 79 86 80 87 81 88 60 89 61 90 69 91 62 92 68 93 70 94 67 95
REMARK SMILES IDX 63 96 64 97 65 98 66 99
REMARK H PARENT 6 21 90 52 58 63
REMARK Flexibility Score: inf
ROOT
ATOM      1  O   UNL A   1      31.987  28.688  26.099  1.00  0.00    -0.377 OA
ENDROOT
BRANCH   1   2
ATOM      2  C   UNL A   1      32.406  29.288  24.879  1.00  0.00     0.188 C 
BRANCH   2   3
ATOM      3  C   UNL A   1      31.446  29.309  23.682  1.00  0.00     0.188 C 
BRANCH   3   4
ATOM      4  O   UNL A   1      31.357  28.162  22.830  1.00  0.00    -0.376 OA
BRANCH   4   5
ATOM      5  C   UNL A   1      30.326  27.199  23.025  1.00  0.00     0.202 C 
BRANCH   5   6
ATOM      6  C   UNL A   1      30.800  25.733  23.136  1.00  0.00     0.261 C 
BRANCH   6   7
ATOM      7  O   UNL A   1      32.162  25.563  23.616  1.00  0.00    -0.463 OA
BRANCH   7   8
ATOM      8  C   UNL A   1      33.015  24.819  22.894  1.00  0.00     0.313 C 
ATOM      9  O   UNL A   1      33.655  25.266  21.950  1.00  0.00    -0.252 OA
BRANCH   8  10
ATOM     10  C   UNL A   1      33.086  23.354  23.287  1.00  0.00     0.150 C 
ATOM     11  C   UNL A   1      34.042  22.682  24.294  1.00  0.00     0.129 C 
ATOM     12  C   UNL A   1      33.517  21.244  24.149  1.00  0.00     0.186 C 
ATOM     13  O   UNL A   1      32.082  21.345  23.998  1.00  0.00    -0.378 OA
ATOM     14  C   UNL A   1      31.765  22.659  23.496  1.00  0.00     0.177 C 
BRANCH  11  15
ATOM     15  N   UNL A   1      34.147  23.003  25.756  1.00  0.00    -0.319 N 
BRANCH  15  16
ATOM     16  C   UNL A   1      33.374  24.078  26.330  1.00  0.00     0.118 C 
ATOM     17  C   UNL A   1      32.134  23.457  26.890  1.00  0.00     0.027 C 
ENDBRANCH  15  16
BRANCH  15  18
ATOM     18  C   UNL A   1      34.973  22.215  26.516  1.00  0.00     0.318 C 
ATOM     19  O   UNL A   1      34.548  21.689  27.554  1.00  0.00    -0.249 OA
ATOM     20  N   UNL A   1      36.240  21.895  26.214  1.00  0.00    -0.333 N 
ATOM     21  H   UNL A   1      36.447  21.096  26.750  1.00  0.00     0.165 HD
BRANCH  20  22
ATOM     22  C   UNL A   1      37.486  22.195  25.435  1.00  0.00     0.112 C 
ATOM     23  C   UNL A   1      38.903  21.896  25.892  1.00  0.00     0.056 C 
ATOM     24  C   UNL A   1      37.637  23.726  25.379  1.00  0.00     0.185 C 
ATOM     25  C   UNL A   1      39.208  22.967  26.914  1.00  0.00     0.162 C 
ATOM     26  O   UNL A   1      38.481  24.109  26.480  1.00  0.00    -0.379 OA
ENDBRANCH  20  22
ENDBRANCH  15  18
ENDBRANCH  11  15
ENDBRANCH   8  10
ENDBRANCH   7   8
ENDBRANCH   6   7
ENDBRANCH   5   6
ENDBRANCH   4   5
ENDBRANCH   3   4
ENDBRANCH   2   3
ENDBRANCH   1   2
BRANCH   1  27
ATOM     27  C   UNL A   1      32.564  29.125  27.314  1.00  0.00     0.188 C 
BRANCH  27  28
ATOM     28  C   UNL A   1      33.141  30.548  27.244  1.00  0.00     0.188 C 
BRANCH  28  29
ATOM     29  O   UNL A   1      34.332  30.849  27.962  1.00  0.00    -0.376 OA
BRANCH  29  30
ATOM     30  C   UNL A   1      34.354  32.013  28.780  1.00  0.00     0.202 C 
BRANCH  30  31
ATOM     31  C   UNL A   1      35.542  32.320  29.715  1.00  0.00     0.261 C 
BRANCH  31  32
ATOM     32  O   UNL A   1      35.555  31.667  30.995  1.00  0.00    -0.460 OA
BRANCH  32  33
ATOM     33  C   UNL A   1      36.400  30.617  31.107  1.00  0.00     0.338 C 
ATOM     34  O   UNL A   1      36.116  29.479  31.487  1.00  0.00    -0.246 OA
BRANCH  33  35
ATOM     35  C   UNL A   1      37.753  30.993  30.673  1.00  0.00     0.060 A 
ATOM     36  C   UNL A   1      38.192  30.698  29.375  1.00  0.00     0.016 A 
ATOM     37  C   UNL A   1      38.636  31.537  31.605  1.00  0.00     0.016 A 
ATOM     38  C   UNL A   1      39.518  30.955  29.001  1.00  0.00     0.010 A 
ATOM     39  C   UNL A   1      39.955  31.807  31.226  1.00  0.00     0.010 A 
ATOM     40  C   UNL A   1      40.417  31.505  29.925  1.00  0.00    -0.014 A 
BRANCH  40  41
ATOM     41  C   UNL A   1      41.880  31.597  29.634  1.00  0.00     0.031 A 
ATOM     42  C   UNL A   1      42.471  32.969  29.515  1.00  0.00     0.074 A 
ATOM     43  C   UNL A   1      42.673  30.523  29.450  1.00  0.00     0.049 A 
ATOM     44  N   UNL A   1      43.674  33.324  29.154  1.00  0.00    -0.248 NA
ATOM     45  C   UNL A   1      41.575  34.089  29.841  1.00  0.00     0.031 C 
ATOM     46  C   UNL A   1      42.253  29.144  29.625  1.00  0.00     0.029 A 
ATOM     47  N   UNL A   1      43.988  30.406  29.062  1.00  0.00    -0.354 N 
ATOM     48  C   UNL A   1      43.680  34.711  29.210  1.00  0.00     0.074 A 
ATOM     49  C   UNL A   1      42.340  35.130  29.559  1.00  0.00     0.031 C 
ATOM     50  C   UNL A   1      43.249  28.309  29.287  1.00  0.00     0.029 A 
ATOM     51  C   UNL A   1      44.403  29.102  28.876  1.00  0.00     0.049 A 
ATOM     52  H   UNL A   1      44.579  31.181  28.927  1.00  0.00     0.167 HD
ATOM     53  C   UNL A   1      44.719  35.557  29.023  1.00  0.00     0.034 A 
ATOM     54  C   UNL A   1      45.573  28.603  28.426  1.00  0.00     0.034 A 
ATOM     55  C   UNL A   1      46.047  35.125  28.674  1.00  0.00     0.049 A 
ATOM     56  C   UNL A   1      46.687  29.571  28.108  1.00  0.00     0.074 A 
ATOM     57  C   UNL A   1      47.176  35.899  28.475  1.00  0.00     0.029 A 
ATOM     58  N   UNL A   1      46.424  33.805  28.459  1.00  0.00    -0.354 N 
ATOM     59  N   UNL A   1      46.685  30.882  28.191  1.00  0.00    -0.248 NA
ATOM     60  C   UNL A   1      47.965  28.998  27.669  1.00  0.00     0.031 C 
ATOM     61  C   UNL A   1      48.214  35.057  28.064  1.00  0.00     0.029 A 
ATOM     62  C   UNL A   1      47.760  33.748  28.092  1.00  0.00     0.049 A 
ATOM     63  H   UNL A   1      45.831  33.025  28.554  1.00  0.00     0.167 HD
ATOM     64  C   UNL A   1      47.977  31.284  27.865  1.00  0.00     0.074 A 
ATOM     65  C   UNL A   1      48.728  30.077  27.587  1.00  0.00     0.031 C 
ATOM     66  C   UNL A   1      48.497  32.537  27.813  1.00  0.00     0.034 A 
BRANCH  53  67
ATOM     67  C   UNL A   1      44.425  37.028  29.154  1.00  0.00     0.023 A 
ATOM     68  C   UNL A   1      44.162  37.829  28.028  1.00  0.00     0.031 A 
ATOM     69  C   UNL A   1      44.474  37.651  30.412  1.00  0.00     0.131 A 
ATOM     70  C   UNL A   1      44.045  39.218  28.173  1.00  0.00     0.055 A 
ATOM     71  C   UNL A   1      44.265  39.022  30.559  1.00  0.00     0.041 A 
ATOM     72  F   UNL A   1      44.752  36.939  31.516  1.00  0.00    -0.206 F 
ATOM     73  C   UNL A   1      44.067  39.817  29.434  1.00  0.00     0.022 A 
BRANCH  70  74
ATOM     74  S   UNL A   1      44.031  40.244  26.677  1.00  0.00     0.124 S 
ATOM     75  O   UNL A   1      45.096  39.629  25.888  1.00  0.00    -0.237 OA
ATOM     76  O   UNL A   1      42.674  40.054  26.178  1.00  0.00    -0.237 OA
ATOM     77  O   UNL A   1      44.331  41.583  27.179  1.00  0.00    -0.744 OA
ENDBRANCH  70  74
ENDBRANCH  53  67
BRANCH  54  78
ATOM     78  C   UNL A   1      45.769  27.133  28.234  1.00  0.00     0.023 A 
ATOM     79  C   UNL A   1      45.536  26.519  26.992  1.00  0.00     0.031 A 
ATOM     80  C   UNL A   1      46.118  26.304  29.317  1.00  0.00     0.131 A 
ATOM     81  C   UNL A   1      45.595  25.120  26.875  1.00  0.00     0.055 A 
ATOM     82  C   UNL A   1      46.225  24.917  29.184  1.00  0.00     0.041 A 
ATOM     83  F   UNL A   1      46.357  26.831  30.529  1.00  0.00    -0.206 F 
ATOM     84  C   UNL A   1      45.948  24.316  27.960  1.00  0.00     0.022 A 
BRANCH  81  85
ATOM     85  S   UNL A   1      45.111  24.355  25.301  1.00  0.00     0.124 S 
ATOM     86  O   UNL A   1      44.731  23.014  25.729  1.00  0.00    -0.237 OA
ATOM     87  O   UNL A   1      44.022  25.225  24.868  1.00  0.00    -0.237 OA
ATOM     88  O   UNL A   1      46.327  24.435  24.496  1.00  0.00    -0.744 OA
ENDBRANCH  81  85
ENDBRANCH  54  78
BRANCH  66  89
ATOM     89  C   UNL A   1      49.968  32.661  27.496  1.00  0.00     0.023 A 
ATOM     90  C   UNL A   1      50.432  32.848  26.185  1.00  0.00     0.031 A 
ATOM     91  C   UNL A   1      50.919  32.593  28.532  1.00  0.00     0.131 A 
ATOM     92  C   UNL A   1      51.812  32.905  25.934  1.00  0.00     0.055 A 
ATOM     93  C   UNL A   1      52.286  32.720  28.285  1.00  0.00     0.041 A 
ATOM     94  F   UNL A   1      50.531  32.410  29.805  1.00  0.00    -0.206 F 
ATOM     95  C   UNL A   1      52.740  32.864  26.978  1.00  0.00     0.022 A 
BRANCH  92  96
ATOM     96  S   UNL A   1      52.381  32.933  24.213  1.00  0.00     0.124 S 
ATOM     97  O   UNL A   1      51.808  31.701  23.684  1.00  0.00    -0.237 OA
ATOM     98  O   UNL A   1      51.799  34.174  23.712  1.00  0.00    -0.237 OA
ATOM     99  O   UNL A   1      53.838  32.938  24.334  1.00  0.00    -0.744 OA
ENDBRANCH  92  96
ENDBRANCH  66  89
ENDBRANCH  40  41
ENDBRANCH  33  35
ENDBRANCH  32  33
ENDBRANCH  31  32
ENDBRANCH  30  31
ENDBRANCH  29  30
ENDBRANCH  28  29
ENDBRANCH  27  28
ENDBRANCH   1  27
TORSDOF 27
ENDMDL
