MODEL 1
REMARK VINA RESULT:      -9.2      0.000      0.000
REMARK SMILES O=C(Cc1cccn1-c1ccccc1F)OCCOCCOCCOCCOC(=O)c1ccc(-c2c3nc(c(-c4cc(S(=O)(=O)[O-])ccc4F)c4ccc([nH]4)c(-c4cc(S(=O)(=O)[O-])ccc4F)c4nc(c(-c5cc(S(=O)(=O)[O-])ccc5F)c5ccc2[nH]5)C=C4)C=C3)cc1
REMARK SMILES IDX 23 1 22 2 21 3 20 4 19 5 18 6 17 7 16 8 2 9 1 10 3 11 4 12
REMARK SMILES IDX 5 13 8 14 6 15 7 16 9 17 10 18 14 19 11 20 13 21 15 22 12 23
REMARK SMILES IDX 24 24 25 25 26 26 27 27 28 28 29 29 30 30 31 31 32 32 93 33
REMARK SMILES IDX 33 34 92 35 34 36 35 37 36 38 86 39 37 40 91 41 85 42 87 43
REMARK SMILES IDX 38 44 90 45 84 46 83 47 39 49 71 50 51 51 70 52 52 53 55 54
REMARK SMILES IDX 69 55 88 56 53 57 54 58 68 60 89 61 56 62 40 63 41 64 49 65
REMARK SMILES IDX 42 66 48 67 50 68 47 69 43 70 44 71 45 72 46 73 72 74 73 75
REMARK SMILES IDX 81 76 74 77 80 78 82 79 79 80 75 81 76 82 77 83 78 84 57 85
REMARK SMILES IDX 58 86 66 87 59 88 65 89 67 90 64 91 60 92 61 93 62 94 63 95
REMARK H PARENT 87 48 55 59
REMARK Flexibility Score: inf
ROOT
ATOM      1  C   UNL A   1      42.282  19.189  27.060  1.00  0.00     0.188 C 
ENDROOT
BRANCH   1   2
ATOM      2  O   UNL A   1      41.381  19.861  26.195  1.00  0.00    -0.377 OA
BRANCH   2   3
ATOM      3  C   UNL A   1      41.763  21.179  25.821  1.00  0.00     0.188 C 
BRANCH   3   4
ATOM      4  C   UNL A   1      41.373  22.268  26.824  1.00  0.00     0.188 C 
BRANCH   4   5
ATOM      5  O   UNL A   1      40.214  22.963  26.415  1.00  0.00    -0.376 OA
BRANCH   5   6
ATOM      6  C   UNL A   1      38.913  22.455  26.577  1.00  0.00     0.202 C 
BRANCH   6   7
ATOM      7  C   UNL A   1      38.178  21.864  25.385  1.00  0.00     0.261 C 
BRANCH   7   8
ATOM      8  O   UNL A   1      37.355  22.731  24.570  1.00  0.00    -0.463 OA
BRANCH   8   9
ATOM      9  C   UNL A   1      36.047  23.054  24.670  1.00  0.00     0.311 C 
ATOM     10  O   UNL A   1      35.246  22.527  23.897  1.00  0.00    -0.252 OA
BRANCH   9  11
ATOM     11  C   UNL A   1      35.586  24.126  25.637  1.00  0.00     0.177 C 
BRANCH  11  12
ATOM     12  C   UNL A   1      34.135  24.016  25.995  1.00  0.00     0.034 A 
ATOM     13  C   UNL A   1      33.528  22.958  26.654  1.00  0.00     0.024 A 
ATOM     14  N   UNL A   1      33.174  25.017  25.797  1.00  0.00    -0.318 N 
ATOM     15  C   UNL A   1      32.218  23.339  26.976  1.00  0.00     0.020 A 
ATOM     16  C   UNL A   1      32.033  24.603  26.470  1.00  0.00     0.091 A 
BRANCH  14  17
ATOM     17  C   UNL A   1      33.287  26.282  25.135  1.00  0.00     0.081 A 
ATOM     18  C   UNL A   1      33.077  27.464  25.871  1.00  0.00     0.030 A 
ATOM     19  C   UNL A   1      33.605  26.397  23.780  1.00  0.00     0.147 A 
ATOM     20  C   UNL A   1      33.203  28.719  25.263  1.00  0.00     0.002 A 
ATOM     21  C   UNL A   1      33.729  27.649  23.174  1.00  0.00     0.041 A 
ATOM     22  F   UNL A   1      33.731  25.321  22.994  1.00  0.00    -0.205 F 
ATOM     23  C   UNL A   1      33.531  28.812  23.914  1.00  0.00     0.003 A 
ENDBRANCH  14  17
ENDBRANCH  11  12
ENDBRANCH   9  11
ENDBRANCH   8   9
ENDBRANCH   7   8
ENDBRANCH   6   7
ENDBRANCH   5   6
ENDBRANCH   4   5
ENDBRANCH   3   4
ENDBRANCH   2   3
ENDBRANCH   1   2
BRANCH   1  24
ATOM     24  C   UNL A   1      43.089  18.037  26.414  1.00  0.00     0.188 C 
BRANCH  24  25
ATOM     25  O   UNL A   1      43.964  18.161  25.295  1.00  0.00    -0.376 OA
BRANCH  25  26
ATOM     26  C   UNL A   1      45.285  18.677  25.335  1.00  0.00     0.202 C 
BRANCH  26  27
ATOM     27  C   UNL A   1      45.648  20.081  25.821  1.00  0.00     0.261 C 
BRANCH  27  28
ATOM     28  O   UNL A   1      46.237  20.894  24.836  1.00  0.00    -0.460 OA
BRANCH  28  29
ATOM     29  C   UNL A   1      45.315  21.480  24.073  1.00  0.00     0.338 C 
ATOM     30  O   UNL A   1      44.541  20.934  23.272  1.00  0.00    -0.246 OA
BRANCH  29  31
ATOM     31  C   UNL A   1      45.372  22.919  24.247  1.00  0.00     0.060 A 
ATOM     32  C   UNL A   1      46.595  23.390  24.727  1.00  0.00     0.016 A 
ATOM     33  C   UNL A   1      44.148  23.557  24.481  1.00  0.00     0.016 A 
ATOM     34  C   UNL A   1      46.556  24.307  25.739  1.00  0.00     0.010 A 
ATOM     35  C   UNL A   1      44.103  24.436  25.528  1.00  0.00     0.010 A 
ATOM     36  C   UNL A   1      45.301  24.730  26.191  1.00  0.00    -0.014 A 
BRANCH  36  37
ATOM     37  C   UNL A   1      45.284  25.602  27.354  1.00  0.00     0.031 A 
ATOM     38  C   UNL A   1      45.659  27.017  26.936  1.00  0.00     0.074 A 
ATOM     39  C   UNL A   1      45.009  24.980  28.538  1.00  0.00     0.049 A 
ATOM     40  N   UNL A   1      46.214  27.964  27.621  1.00  0.00    -0.248 NA
ATOM     41  C   UNL A   1      45.494  27.414  25.503  1.00  0.00     0.031 C 
ATOM     42  C   UNL A   1      44.702  23.534  28.707  1.00  0.00     0.029 A 
ATOM     43  N   UNL A   1      44.943  25.418  29.837  1.00  0.00    -0.354 N 
ATOM     44  C   UNL A   1      46.229  29.102  26.798  1.00  0.00     0.074 A 
ATOM     45  C   UNL A   1      45.933  28.668  25.472  1.00  0.00     0.031 C 
ATOM     46  C   UNL A   1      44.568  23.217  30.016  1.00  0.00     0.029 A 
ATOM     47  C   UNL A   1      44.736  24.414  30.816  1.00  0.00     0.049 A 
ATOM     48  H   UNL A   1      45.033  26.370  30.074  1.00  0.00     0.167 HD
ATOM     49  C   UNL A   1      46.334  30.368  27.279  1.00  0.00     0.034 A 
ATOM     50  C   UNL A   1      44.741  24.544  32.177  1.00  0.00     0.034 A 
ATOM     51  C   UNL A   1      46.500  30.357  28.693  1.00  0.00     0.049 A 
ATOM     52  C   UNL A   1      44.863  25.996  32.414  1.00  0.00     0.074 A 
ATOM     53  C   UNL A   1      47.555  30.007  29.494  1.00  0.00     0.029 A 
ATOM     54  N   UNL A   1      45.359  30.407  29.458  1.00  0.00    -0.354 N 
ATOM     55  N   UNL A   1      43.937  26.875  32.173  1.00  0.00    -0.248 NA
ATOM     56  C   UNL A   1      46.158  26.522  32.857  1.00  0.00     0.031 C 
ATOM     57  C   UNL A   1      46.946  29.442  30.637  1.00  0.00     0.029 A 
ATOM     58  C   UNL A   1      45.557  29.589  30.548  1.00  0.00     0.049 A 
ATOM     59  H   UNL A   1      44.548  30.931  29.263  1.00  0.00     0.167 HD
ATOM     60  C   UNL A   1      44.635  28.058  32.137  1.00  0.00     0.074 A 
ATOM     61  C   UNL A   1      45.880  27.823  32.833  1.00  0.00     0.031 C 
ATOM     62  C   UNL A   1      44.398  28.961  31.151  1.00  0.00     0.034 A 
BRANCH  49  63
ATOM     63  C   UNL A   1      46.114  31.677  26.593  1.00  0.00     0.023 A 
ATOM     64  C   UNL A   1      47.230  32.533  26.493  1.00  0.00     0.031 A 
ATOM     65  C   UNL A   1      44.861  32.229  26.287  1.00  0.00     0.131 A 
ATOM     66  C   UNL A   1      47.078  33.888  26.182  1.00  0.00     0.055 A 
ATOM     67  C   UNL A   1      44.716  33.573  25.922  1.00  0.00     0.041 A 
ATOM     68  F   UNL A   1      43.730  31.519  26.410  1.00  0.00    -0.206 F 
ATOM     69  C   UNL A   1      45.824  34.416  25.894  1.00  0.00     0.022 A 
BRANCH  66  70
ATOM     70  S   UNL A   1      48.536  34.958  26.297  1.00  0.00     0.124 S 
ATOM     71  O   UNL A   1      47.975  36.281  26.047  1.00  0.00    -0.237 OA
ATOM     72  O   UNL A   1      48.991  34.706  27.662  1.00  0.00    -0.237 OA
ATOM     73  O   UNL A   1      49.416  34.446  25.248  1.00  0.00    -0.744 OA
ENDBRANCH  66  70
ENDBRANCH  49  63
BRANCH  50  74
ATOM     74  C   UNL A   1      44.756  23.650  33.403  1.00  0.00     0.023 A 
ATOM     75  C   UNL A   1      45.626  22.571  33.638  1.00  0.00     0.031 A 
ATOM     76  C   UNL A   1      43.881  23.960  34.490  1.00  0.00     0.131 A 
ATOM     77  C   UNL A   1      45.645  21.927  34.905  1.00  0.00     0.055 A 
ATOM     78  C   UNL A   1      43.958  23.378  35.756  1.00  0.00     0.041 A 
ATOM     79  F   UNL A   1      42.906  24.874  34.379  1.00  0.00    -0.206 F 
ATOM     80  C   UNL A   1      44.858  22.360  35.974  1.00  0.00     0.022 A 
BRANCH  77  81
ATOM     81  S   UNL A   1      46.713  20.495  35.241  1.00  0.00     0.124 S 
ATOM     82  O   UNL A   1      47.583  21.012  36.294  1.00  0.00    -0.237 OA
ATOM     83  O   UNL A   1      45.772  19.457  35.646  1.00  0.00    -0.237 OA
ATOM     84  O   UNL A   1      47.365  20.271  33.951  1.00  0.00    -0.744 OA
ENDBRANCH  77  81
ENDBRANCH  50  74
BRANCH  62  85
ATOM     85  C   UNL A   1      43.012  28.871  30.533  1.00  0.00     0.023 A 
ATOM     86  C   UNL A   1      42.771  28.004  29.455  1.00  0.00     0.031 A 
ATOM     87  C   UNL A   1      41.942  29.697  30.917  1.00  0.00     0.131 A 
ATOM     88  C   UNL A   1      41.515  27.990  28.814  1.00  0.00     0.055 A 
ATOM     89  C   UNL A   1      40.692  29.683  30.289  1.00  0.00     0.041 A 
ATOM     90  F   UNL A   1      42.080  30.562  31.917  1.00  0.00    -0.206 F 
ATOM     91  C   UNL A   1      40.472  28.823  29.227  1.00  0.00     0.022 A 
BRANCH  88  92
ATOM     92  S   UNL A   1      41.228  26.827  27.453  1.00  0.00     0.124 S 
ATOM     93  O   UNL A   1      41.741  25.574  27.994  1.00  0.00    -0.237 OA
ATOM     94  O   UNL A   1      39.780  26.901  27.274  1.00  0.00    -0.237 OA
ATOM     95  O   UNL A   1      42.008  27.392  26.351  1.00  0.00    -0.744 OA
ENDBRANCH  88  92
ENDBRANCH  62  85
ENDBRANCH  36  37
ENDBRANCH  29  31
ENDBRANCH  28  29
ENDBRANCH  27  28
ENDBRANCH  26  27
ENDBRANCH  25  26
ENDBRANCH  24  25
ENDBRANCH   1  24
TORSDOF 25
ENDMDL
MODEL 2
REMARK VINA RESULT:      -9.1      1.525      2.428
REMARK SMILES O=C(Cc1cccn1-c1ccccc1F)OCCOCCOCCOCCOC(=O)c1ccc(-c2c3nc(c(-c4cc(S(=O)(=O)[O-])ccc4F)c4ccc([nH]4)c(-c4cc(S(=O)(=O)[O-])ccc4F)c4nc(c(-c5cc(S(=O)(=O)[O-])ccc5F)c5ccc2[nH]5)C=C4)C=C3)cc1
REMARK SMILES IDX 23 1 22 2 21 3 20 4 19 5 18 6 17 7 16 8 2 9 1 10 3 11 4 12
REMARK SMILES IDX 5 13 8 14 6 15 7 16 9 17 10 18 14 19 11 20 13 21 15 22 12 23
REMARK SMILES IDX 24 24 25 25 26 26 27 27 28 28 29 29 30 30 31 31 32 32 93 33
REMARK SMILES IDX 33 34 92 35 34 36 35 37 36 38 86 39 37 40 91 41 85 42 87 43
REMARK SMILES IDX 38 44 90 45 84 46 83 47 39 49 71 50 51 51 70 52 52 53 55 54
REMARK SMILES IDX 69 55 88 56 53 57 54 58 68 60 89 61 56 62 40 63 41 64 49 65
REMARK SMILES IDX 42 66 48 67 50 68 47 69 43 70 44 71 45 72 46 73 72 74 73 75
REMARK SMILES IDX 81 76 74 77 80 78 82 79 79 80 75 81 76 82 77 83 78 84 57 85
REMARK SMILES IDX 58 86 66 87 59 88 65 89 67 90 64 91 60 92 61 93 62 94 63 95
REMARK H PARENT 87 48 55 59
REMARK Flexibility Score: inf
ROOT
ATOM      1  C   UNL A   1      42.283  19.372  26.820  1.00  0.00     0.188 C 
ENDROOT
BRANCH   1   2
ATOM      2  O   UNL A   1      41.591  20.122  25.835  1.00  0.00    -0.377 OA
BRANCH   2   3
ATOM      3  C   UNL A   1      41.895  21.512  25.803  1.00  0.00     0.188 C 
BRANCH   3   4
ATOM      4  C   UNL A   1      41.309  22.323  26.963  1.00  0.00     0.188 C 
BRANCH   4   5
ATOM      5  O   UNL A   1      40.003  22.774  26.675  1.00  0.00    -0.376 OA
BRANCH   5   6
ATOM      6  C   UNL A   1      38.923  21.906  26.431  1.00  0.00     0.202 C 
BRANCH   6   7
ATOM      7  C   UNL A   1      38.182  21.975  25.105  1.00  0.00     0.261 C 
BRANCH   7   8
ATOM      8  O   UNL A   1      37.362  23.132  24.821  1.00  0.00    -0.463 OA
BRANCH   8   9
ATOM      9  C   UNL A   1      36.020  23.261  24.725  1.00  0.00     0.311 C 
ATOM     10  O   UNL A   1      35.367  23.426  25.755  1.00  0.00    -0.252 OA
BRANCH   9  11
ATOM     11  C   UNL A   1      35.320  23.094  23.392  1.00  0.00     0.177 C 
BRANCH  11  12
ATOM     12  C   UNL A   1      33.896  23.561  23.409  1.00  0.00     0.034 A 
ATOM     13  C   UNL A   1      33.454  24.861  23.213  1.00  0.00     0.024 A 
ATOM     14  N   UNL A   1      32.774  22.732  23.537  1.00  0.00    -0.318 N 
ATOM     15  C   UNL A   1      32.057  24.832  23.099  1.00  0.00     0.020 A 
ATOM     16  C   UNL A   1      31.667  23.527  23.272  1.00  0.00     0.091 A 
BRANCH  14  17
ATOM     17  C   UNL A   1      32.694  21.324  23.789  1.00  0.00     0.081 A 
ATOM     18  C   UNL A   1      33.036  20.833  25.064  1.00  0.00     0.030 A 
ATOM     19  C   UNL A   1      32.284  20.408  22.817  1.00  0.00     0.147 A 
ATOM     20  C   UNL A   1      32.946  19.466  25.352  1.00  0.00     0.002 A 
ATOM     21  C   UNL A   1      32.196  19.044  23.106  1.00  0.00     0.041 A 
ATOM     22  F   UNL A   1      32.029  20.785  21.559  1.00  0.00    -0.205 F 
ATOM     23  C   UNL A   1      32.525  18.571  24.374  1.00  0.00     0.003 A 
ENDBRANCH  14  17
ENDBRANCH  11  12
ENDBRANCH   9  11
ENDBRANCH   8   9
ENDBRANCH   7   8
ENDBRANCH   6   7
ENDBRANCH   5   6
ENDBRANCH   4   5
ENDBRANCH   3   4
ENDBRANCH   2   3
ENDBRANCH   1   2
BRANCH   1  24
ATOM     24  C   UNL A   1      43.137  18.198  26.283  1.00  0.00     0.188 C 
BRANCH  24  25
ATOM     25  O   UNL A   1      44.159  18.299  25.295  1.00  0.00    -0.376 OA
BRANCH  25  26
ATOM     26  C   UNL A   1      45.398  18.971  25.457  1.00  0.00     0.202 C 
BRANCH  26  27
ATOM     27  C   UNL A   1      45.538  20.436  25.873  1.00  0.00     0.261 C 
BRANCH  27  28
ATOM     28  O   UNL A   1      46.157  21.249  24.907  1.00  0.00    -0.460 OA
BRANCH  28  29
ATOM     29  C   UNL A   1      45.258  21.854  24.131  1.00  0.00     0.338 C 
ATOM     30  O   UNL A   1      44.478  21.323  23.326  1.00  0.00    -0.246 OA
BRANCH  29  31
ATOM     31  C   UNL A   1      45.350  23.292  24.297  1.00  0.00     0.060 A 
ATOM     32  C   UNL A   1      46.586  23.736  24.769  1.00  0.00     0.016 A 
ATOM     33  C   UNL A   1      44.143  23.960  24.533  1.00  0.00     0.016 A 
ATOM     34  C   UNL A   1      46.574  24.659  25.775  1.00  0.00     0.010 A 
ATOM     35  C   UNL A   1      44.124  24.846  25.575  1.00  0.00     0.010 A 
ATOM     36  C   UNL A   1      45.332  25.115  26.231  1.00  0.00    -0.014 A 
BRANCH  36  37
ATOM     37  C   UNL A   1      45.341  25.994  27.389  1.00  0.00     0.031 A 
ATOM     38  C   UNL A   1      45.817  27.379  26.974  1.00  0.00     0.074 A 
ATOM     39  C   UNL A   1      44.996  25.398  28.568  1.00  0.00     0.049 A 
ATOM     40  N   UNL A   1      46.414  28.292  27.670  1.00  0.00    -0.248 NA
ATOM     41  C   UNL A   1      45.714  27.776  25.536  1.00  0.00     0.031 C 
ATOM     42  C   UNL A   1      44.593  23.976  28.736  1.00  0.00     0.029 A 
ATOM     43  N   UNL A   1      44.926  25.847  29.863  1.00  0.00    -0.354 N 
ATOM     44  C   UNL A   1      46.523  29.422  26.842  1.00  0.00     0.074 A 
ATOM     45  C   UNL A   1      46.234  28.999  25.511  1.00  0.00     0.031 C 
ATOM     46  C   UNL A   1      44.405  23.676  30.042  1.00  0.00     0.029 A 
ATOM     47  C   UNL A   1      44.630  24.864  30.841  1.00  0.00     0.049 A 
ATOM     48  H   UNL A   1      45.070  26.793  30.098  1.00  0.00     0.167 HD
ATOM     49  C   UNL A   1      46.697  30.682  27.320  1.00  0.00     0.034 A 
ATOM     50  C   UNL A   1      44.608  25.002  32.202  1.00  0.00     0.034 A 
ATOM     51  C   UNL A   1      46.826  30.668  28.738  1.00  0.00     0.049 A 
ATOM     52  C   UNL A   1      44.816  26.444  32.435  1.00  0.00     0.074 A 
ATOM     53  C   UNL A   1      47.835  30.257  29.568  1.00  0.00     0.029 A 
ATOM     54  N   UNL A   1      45.671  30.796  29.473  1.00  0.00    -0.354 N 
ATOM     55  N   UNL A   1      43.956  27.380  32.166  1.00  0.00    -0.248 NA
ATOM     56  C   UNL A   1      46.132  26.890  32.909  1.00  0.00     0.031 C 
ATOM     57  C   UNL A   1      47.163  29.739  30.697  1.00  0.00     0.029 A 
ATOM     58  C   UNL A   1      45.789  29.974  30.571  1.00  0.00     0.049 A 
ATOM     59  H   UNL A   1      44.901  31.370  29.254  1.00  0.00     0.167 HD
ATOM     60  C   UNL A   1      44.729  28.515  32.142  1.00  0.00     0.074 A 
ATOM     61  C   UNL A   1      45.939  28.205  32.872  1.00  0.00     0.031 C 
ATOM     62  C   UNL A   1      44.576  29.426  31.147  1.00  0.00     0.034 A 
BRANCH  49  63
ATOM     63  C   UNL A   1      46.579  31.998  26.622  1.00  0.00     0.023 A 
ATOM     64  C   UNL A   1      47.750  32.781  26.551  1.00  0.00     0.031 A 
ATOM     65  C   UNL A   1      45.373  32.625  26.278  1.00  0.00     0.131 A 
ATOM     66  C   UNL A   1      47.691  34.142  26.231  1.00  0.00     0.055 A 
ATOM     67  C   UNL A   1      45.323  33.973  25.904  1.00  0.00     0.041 A 
ATOM     68  F   UNL A   1      44.197  31.988  26.371  1.00  0.00    -0.206 F 
ATOM     69  C   UNL A   1      46.481  34.746  25.904  1.00  0.00     0.022 A 
BRANCH  66  70
ATOM     70  S   UNL A   1      49.210  35.119  26.384  1.00  0.00     0.124 S 
ATOM     71  O   UNL A   1      50.016  34.307  27.289  1.00  0.00    -0.237 OA
ATOM     72  O   UNL A   1      49.672  35.180  24.999  1.00  0.00    -0.237 OA
ATOM     73  O   UNL A   1      48.741  36.389  26.936  1.00  0.00    -0.744 OA
ENDBRANCH  66  70
ENDBRANCH  49  63
BRANCH  50  74
ATOM     74  C   UNL A   1      44.534  24.116  33.431  1.00  0.00     0.023 A 
ATOM     75  C   UNL A   1      45.295  22.960  33.672  1.00  0.00     0.031 A 
ATOM     76  C   UNL A   1      43.691  24.515  34.515  1.00  0.00     0.131 A 
ATOM     77  C   UNL A   1      45.249  22.322  34.943  1.00  0.00     0.055 A 
ATOM     78  C   UNL A   1      43.709  23.934  35.783  1.00  0.00     0.041 A 
ATOM     79  F   UNL A   1      42.810  25.518  34.398  1.00  0.00    -0.206 F 
ATOM     80  C   UNL A   1      44.506  22.835  36.008  1.00  0.00     0.022 A 
BRANCH  77  81
ATOM     81  S   UNL A   1      46.173  20.796  35.288  1.00  0.00     0.124 S 
ATOM     82  O   UNL A   1      47.260  20.878  34.316  1.00  0.00    -0.237 OA
ATOM     83  O   UNL A   1      46.559  20.942  36.687  1.00  0.00    -0.237 OA
ATOM     84  O   UNL A   1      45.181  19.754  35.025  1.00  0.00    -0.744 OA
ENDBRANCH  77  81
ENDBRANCH  50  74
BRANCH  62  85
ATOM     85  C   UNL A   1      43.204  29.421  30.493  1.00  0.00     0.023 A 
ATOM     86  C   UNL A   1      43.055  29.012  29.158  1.00  0.00     0.031 A 
ATOM     87  C   UNL A   1      42.047  29.907  31.126  1.00  0.00     0.131 A 
ATOM     88  C   UNL A   1      41.802  29.099  28.517  1.00  0.00     0.055 A 
ATOM     89  C   UNL A   1      40.800  29.992  30.497  1.00  0.00     0.041 A 
ATOM     90  F   UNL A   1      42.093  30.333  32.385  1.00  0.00    -0.206 F 
ATOM     91  C   UNL A   1      40.672  29.586  29.181  1.00  0.00     0.022 A 
BRANCH  88  92
ATOM     92  S   UNL A   1      41.639  28.522  26.806  1.00  0.00     0.124 S 
ATOM     93  O   UNL A   1      41.815  27.081  26.941  1.00  0.00    -0.237 OA
ATOM     94  O   UNL A   1      40.297  28.973  26.448  1.00  0.00    -0.237 OA
ATOM     95  O   UNL A   1      42.722  29.216  26.108  1.00  0.00    -0.744 OA
ENDBRANCH  88  92
ENDBRANCH  62  85
ENDBRANCH  36  37
ENDBRANCH  29  31
ENDBRANCH  28  29
ENDBRANCH  27  28
ENDBRANCH  26  27
ENDBRANCH  25  26
ENDBRANCH  24  25
ENDBRANCH   1  24
TORSDOF 25
ENDMDL
MODEL 3
REMARK VINA RESULT:      -8.9      2.228      3.255
REMARK SMILES O=C(Cc1cccn1-c1ccccc1F)OCCOCCOCCOCCOC(=O)c1ccc(-c2c3nc(c(-c4cc(S(=O)(=O)[O-])ccc4F)c4ccc([nH]4)c(-c4cc(S(=O)(=O)[O-])ccc4F)c4nc(c(-c5cc(S(=O)(=O)[O-])ccc5F)c5ccc2[nH]5)C=C4)C=C3)cc1
REMARK SMILES IDX 23 1 22 2 21 3 20 4 19 5 18 6 17 7 16 8 2 9 1 10 3 11 4 12
REMARK SMILES IDX 5 13 8 14 6 15 7 16 9 17 10 18 14 19 11 20 13 21 15 22 12 23
REMARK SMILES IDX 24 24 25 25 26 26 27 27 28 28 29 29 30 30 31 31 32 32 93 33
REMARK SMILES IDX 33 34 92 35 34 36 35 37 36 38 86 39 37 40 91 41 85 42 87 43
REMARK SMILES IDX 38 44 90 45 84 46 83 47 39 49 71 50 51 51 70 52 52 53 55 54
REMARK SMILES IDX 69 55 88 56 53 57 54 58 68 60 89 61 56 62 40 63 41 64 49 65
REMARK SMILES IDX 42 66 48 67 50 68 47 69 43 70 44 71 45 72 46 73 72 74 73 75
REMARK SMILES IDX 81 76 74 77 80 78 82 79 79 80 75 81 76 82 77 83 78 84 57 85
REMARK SMILES IDX 58 86 66 87 59 88 65 89 67 90 64 91 60 92 61 93 62 94 63 95
REMARK H PARENT 87 48 55 59
REMARK Flexibility Score: inf
ROOT
ATOM      1  C   UNL A   1      38.858  22.924  26.499  1.00  0.00     0.188 C 
ENDROOT
BRANCH   1   2
ATOM      2  O   UNL A   1      37.717  22.866  25.660  1.00  0.00    -0.377 OA
BRANCH   2   3
ATOM      3  C   UNL A   1      37.473  21.604  25.050  1.00  0.00     0.188 C 
BRANCH   3   4
ATOM      4  C   UNL A   1      36.087  21.015  25.327  1.00  0.00     0.188 C 
BRANCH   4   5
ATOM      5  O   UNL A   1      35.111  22.026  25.469  1.00  0.00    -0.376 OA
BRANCH   5   6
ATOM      6  C   UNL A   1      33.777  21.765  25.832  1.00  0.00     0.202 C 
BRANCH   6   7
ATOM      7  C   UNL A   1      32.642  22.316  24.983  1.00  0.00     0.261 C 
BRANCH   7   8
ATOM      8  O   UNL A   1      31.524  22.956  25.641  1.00  0.00    -0.463 OA
BRANCH   8   9
ATOM      9  C   UNL A   1      31.237  24.264  25.821  1.00  0.00     0.311 C 
ATOM     10  O   UNL A   1      31.380  24.751  26.943  1.00  0.00    -0.252 OA
BRANCH   9  11
ATOM     11  C   UNL A   1      30.648  25.090  24.696  1.00  0.00     0.177 C 
BRANCH  11  12
ATOM     12  C   UNL A   1      31.676  25.586  23.725  1.00  0.00     0.034 A 
ATOM     13  C   UNL A   1      32.006  25.007  22.509  1.00  0.00     0.024 A 
ATOM     14  N   UNL A   1      32.406  26.775  23.856  1.00  0.00    -0.318 N 
ATOM     15  C   UNL A   1      32.853  25.889  21.823  1.00  0.00     0.020 A 
ATOM     16  C   UNL A   1      33.061  26.967  22.647  1.00  0.00     0.091 A 
BRANCH  14  17
ATOM     17  C   UNL A   1      32.450  27.713  24.937  1.00  0.00     0.081 A 
ATOM     18  C   UNL A   1      31.685  28.893  24.857  1.00  0.00     0.030 A 
ATOM     19  C   UNL A   1      33.222  27.504  26.083  1.00  0.00     0.147 A 
ATOM     20  C   UNL A   1      31.686  29.819  25.906  1.00  0.00     0.002 A 
ATOM     21  C   UNL A   1      33.222  28.430  27.129  1.00  0.00     0.041 A 
ATOM     22  F   UNL A   1      34.043  26.453  26.196  1.00  0.00    -0.205 F 
ATOM     23  C   UNL A   1      32.453  29.588  27.043  1.00  0.00     0.003 A 
ENDBRANCH  14  17
ENDBRANCH  11  12
ENDBRANCH   9  11
ENDBRANCH   8   9
ENDBRANCH   7   8
ENDBRANCH   6   7
ENDBRANCH   5   6
ENDBRANCH   4   5
ENDBRANCH   3   4
ENDBRANCH   2   3
ENDBRANCH   1   2
BRANCH   1  24
ATOM     24  C   UNL A   1      39.956  21.875  26.202  1.00  0.00     0.188 C 
BRANCH  24  25
ATOM     25  O   UNL A   1      41.046  21.547  27.060  1.00  0.00    -0.376 OA
BRANCH  25  26
ATOM     26  C   UNL A   1      41.987  20.509  26.837  1.00  0.00     0.202 C 
BRANCH  26  27
ATOM     27  C   UNL A   1      43.054  20.531  25.741  1.00  0.00     0.261 C 
BRANCH  27  28
ATOM     28  O   UNL A   1      43.986  21.576  25.871  1.00  0.00    -0.460 OA
BRANCH  28  29
ATOM     29  C   UNL A   1      44.091  22.279  24.744  1.00  0.00     0.338 C 
ATOM     30  O   UNL A   1      44.231  21.840  23.592  1.00  0.00    -0.246 OA
BRANCH  29  31
ATOM     31  C   UNL A   1      44.090  23.698  25.044  1.00  0.00     0.060 A 
ATOM     32  C   UNL A   1      45.346  24.217  25.361  1.00  0.00     0.016 A 
ATOM     33  C   UNL A   1      42.887  24.220  25.536  1.00  0.00     0.016 A 
ATOM     34  C   UNL A   1      45.425  25.039  26.448  1.00  0.00     0.010 A 
ATOM     35  C   UNL A   1      42.969  25.002  26.655  1.00  0.00     0.010 A 
ATOM     36  C   UNL A   1      44.243  25.327  27.138  1.00  0.00    -0.014 A 
BRANCH  36  37
ATOM     37  C   UNL A   1      44.371  26.094  28.367  1.00  0.00     0.031 A 
ATOM     38  C   UNL A   1      44.613  27.559  28.031  1.00  0.00     0.074 A 
ATOM     39  C   UNL A   1      44.315  25.357  29.515  1.00  0.00     0.049 A 
ATOM     40  N   UNL A   1      45.227  28.474  28.709  1.00  0.00    -0.248 NA
ATOM     41  C   UNL A   1      44.205  28.067  26.684  1.00  0.00     0.031 C 
ATOM     42  C   UNL A   1      44.104  23.887  29.593  1.00  0.00     0.029 A 
ATOM     43  N   UNL A   1      44.437  25.677  30.844  1.00  0.00    -0.354 N 
ATOM     44  C   UNL A   1      45.061  29.678  28.004  1.00  0.00     0.074 A 
ATOM     45  C   UNL A   1      44.578  29.342  26.704  1.00  0.00     0.031 C 
ATOM     46  C   UNL A   1      44.192  23.451  30.871  1.00  0.00     0.029 A 
ATOM     47  C   UNL A   1      44.432  24.582  31.745  1.00  0.00     0.049 A 
ATOM     48  H   UNL A   1      44.520  26.609  31.153  1.00  0.00     0.167 HD
ATOM     49  C   UNL A   1      45.184  30.901  28.580  1.00  0.00     0.034 A 
ATOM     50  C   UNL A   1      44.647  24.595  33.095  1.00  0.00     0.034 A 
ATOM     51  C   UNL A   1      45.573  30.778  29.945  1.00  0.00     0.049 A 
ATOM     52  C   UNL A   1      44.740  26.025  33.446  1.00  0.00     0.074 A 
ATOM     53  C   UNL A   1      46.756  30.423  30.537  1.00  0.00     0.029 A 
ATOM     54  N   UNL A   1      44.566  30.696  30.877  1.00  0.00    -0.354 N 
ATOM     55  N   UNL A   1      43.750  26.866  33.434  1.00  0.00    -0.248 NA
ATOM     56  C   UNL A   1      46.065  26.587  33.732  1.00  0.00     0.031 C 
ATOM     57  C   UNL A   1      46.361  29.728  31.701  1.00  0.00     0.029 A 
ATOM     58  C   UNL A   1      44.971  29.801  31.841  1.00  0.00     0.049 A 
ATOM     59  H   UNL A   1      43.713  31.186  30.858  1.00  0.00     0.167 HD
ATOM     60  C   UNL A   1      44.380  28.087  33.402  1.00  0.00     0.074 A 
ATOM     61  C   UNL A   1      45.730  27.866  33.873  1.00  0.00     0.031 C 
ATOM     62  C   UNL A   1      43.951  29.056  32.554  1.00  0.00     0.034 A 
BRANCH  49  63
ATOM     63  C   UNL A   1      44.800  32.250  28.062  1.00  0.00     0.023 A 
ATOM     64  C   UNL A   1      43.978  33.035  28.895  1.00  0.00     0.031 A 
ATOM     65  C   UNL A   1      44.961  32.683  26.737  1.00  0.00     0.131 A 
ATOM     66  C   UNL A   1      43.292  34.147  28.395  1.00  0.00     0.055 A 
ATOM     67  C   UNL A   1      44.318  33.827  26.252  1.00  0.00     0.041 A 
ATOM     68  F   UNL A   1      45.672  31.975  25.847  1.00  0.00    -0.206 F 
ATOM     69  C   UNL A   1      43.457  34.551  27.074  1.00  0.00     0.022 A 
BRANCH  66  70
ATOM     70  S   UNL A   1      42.085  34.961  29.474  1.00  0.00     0.124 S 
ATOM     71  O   UNL A   1      41.305  35.754  28.530  1.00  0.00    -0.237 OA
ATOM     72  O   UNL A   1      41.394  33.820  30.071  1.00  0.00    -0.237 OA
ATOM     73  O   UNL A   1      42.918  35.731  30.395  1.00  0.00    -0.744 OA
ENDBRANCH  66  70
ENDBRANCH  49  63
BRANCH  50  74
ATOM     74  C   UNL A   1      44.895  23.601  34.214  1.00  0.00     0.023 A 
ATOM     75  C   UNL A   1      45.565  22.370  34.103  1.00  0.00     0.031 A 
ATOM     76  C   UNL A   1      44.513  23.955  35.546  1.00  0.00     0.131 A 
ATOM     77  C   UNL A   1      45.880  21.617  35.267  1.00  0.00     0.055 A 
ATOM     78  C   UNL A   1      44.893  23.253  36.689  1.00  0.00     0.041 A 
ATOM     79  F   UNL A   1      43.756  25.031  35.805  1.00  0.00    -0.206 F 
ATOM     80  C   UNL A   1      45.596  22.078  36.554  1.00  0.00     0.022 A 
BRANCH  77  81
ATOM     81  S   UNL A   1      46.697  19.996  35.172  1.00  0.00     0.124 S 
ATOM     82  O   UNL A   1      45.556  19.087  35.135  1.00  0.00    -0.237 OA
ATOM     83  O   UNL A   1      47.481  20.083  33.945  1.00  0.00    -0.237 OA
ATOM     84  O   UNL A   1      47.482  19.960  36.406  1.00  0.00    -0.744 OA
ENDBRANCH  77  81
ENDBRANCH  50  74
BRANCH  62  85
ATOM     85  C   UNL A   1      42.490  28.939  32.150  1.00  0.00     0.023 A 
ATOM     86  C   UNL A   1      42.141  28.462  30.877  1.00  0.00     0.031 A 
ATOM     87  C   UNL A   1      41.429  29.383  32.958  1.00  0.00     0.131 A 
ATOM     88  C   UNL A   1      40.794  28.444  30.462  1.00  0.00     0.055 A 
ATOM     89  C   UNL A   1      40.090  29.363  32.554  1.00  0.00     0.041 A 
ATOM     90  F   UNL A   1      41.662  29.867  34.174  1.00  0.00    -0.206 F 
ATOM     91  C   UNL A   1      39.765  28.890  31.295  1.00  0.00     0.022 A 
BRANCH  88  92
ATOM     92  S   UNL A   1      40.379  27.781  28.826  1.00  0.00     0.124 S 
ATOM     93  O   UNL A   1      38.924  27.890  28.800  1.00  0.00    -0.237 OA
ATOM     94  O   UNL A   1      41.103  28.678  27.929  1.00  0.00    -0.237 OA
ATOM     95  O   UNL A   1      40.897  26.414  28.871  1.00  0.00    -0.744 OA
ENDBRANCH  88  92
ENDBRANCH  62  85
ENDBRANCH  36  37
ENDBRANCH  29  31
ENDBRANCH  28  29
ENDBRANCH  27  28
ENDBRANCH  26  27
ENDBRANCH  25  26
ENDBRANCH  24  25
ENDBRANCH   1  24
TORSDOF 25
ENDMDL
