MODEL 1
REMARK VINA RESULT:      -9.1      0.000      0.000
REMARK SMILES O=C(/C=C/c1cc(F)cc(C[N@@H+]2CCC[C@H]2CO)c1)OCCOCCOCCOCCOC(=O)c1ccc(-c2c3nc(c(-c4cc(S(=O)(=O)[O-])ccc4F)c4ccc([nH]4)c(-c4cc(S(=O)(=O)[O-])ccc4F)c4nc(c(-c5cc(S(=O)(=O)[O-])ccc5F)c5ccc2[nH]5)C=C4)C=C3)cc1
REMARK SMILES IDX 25 1 24 2 23 3 22 4 21 5 20 6 2 7 1 8 3 9 4 10 5 11 6 12
REMARK SMILES IDX 19 13 7 14 10 15 8 16 9 17 11 18 12 19 13 20 16 21 14 23
REMARK SMILES IDX 15 24 17 25 18 26 26 28 27 29 28 30 29 31 30 32 31 33 32 34
REMARK SMILES IDX 33 35 34 36 35 37 36 38 97 39 37 40 96 41 38 42 39 43 40 44
REMARK SMILES IDX 90 45 41 46 95 47 89 48 91 49 42 50 94 51 88 52 87 53 43 55
REMARK SMILES IDX 75 56 55 57 74 58 56 59 59 60 73 61 92 62 57 63 58 64 72 66
REMARK SMILES IDX 93 67 60 68 44 69 45 70 53 71 46 72 52 73 54 74 51 75 47 76
REMARK SMILES IDX 48 77 49 78 50 79 76 80 77 81 85 82 78 83 84 84 86 85 83 86
REMARK SMILES IDX 79 87 80 88 81 89 82 90 61 91 62 92 70 93 63 94 69 95 71 96
REMARK SMILES IDX 68 97 64 98 65 99 66 100 67 101
REMARK H PARENT 12 22 18 27 91 54 59 65
REMARK Flexibility Score: inf
ROOT
ATOM      1  C   UNL A   1      41.755  19.065  26.049  1.00  0.00     0.188 C 
ENDROOT
BRANCH   1   2
ATOM      2  C   UNL A   1      41.268  20.505  26.149  1.00  0.00     0.188 C 
BRANCH   2   3
ATOM      3  O   UNL A   1      41.954  21.431  26.979  1.00  0.00    -0.376 OA
BRANCH   3   4
ATOM      4  C   UNL A   1      41.450  21.959  28.191  1.00  0.00     0.202 C 
BRANCH   4   5
ATOM      5  C   UNL A   1      41.549  23.441  28.544  1.00  0.00     0.261 C 
BRANCH   5   6
ATOM      6  O   UNL A   1      40.997  24.381  27.617  1.00  0.00    -0.460 OA
BRANCH   6   7
ATOM      7  C   UNL A   1      39.807  25.008  27.763  1.00  0.00     0.330 C 
ATOM      8  O   UNL A   1      39.457  25.444  28.856  1.00  0.00    -0.247 OA
BRANCH   7   9
ATOM      9  C   UNL A   1      38.794  24.850  26.703  1.00  0.00     0.094 C 
ATOM     10  C   UNL A   1      37.816  23.939  26.659  1.00  0.00     0.016 C 
BRANCH  10  11
ATOM     11  C   UNL A   1      36.801  23.910  25.606  1.00  0.00    -0.022 A 
ATOM     12  C   UNL A   1      37.150  23.414  24.353  1.00  0.00     0.047 A 
ATOM     13  C   UNL A   1      35.458  24.248  25.880  1.00  0.00     0.018 A 
ATOM     14  C   UNL A   1      36.147  23.126  23.447  1.00  0.00     0.124 A 
ATOM     15  C   UNL A   1      34.437  23.991  24.946  1.00  0.00     0.010 A 
ATOM     16  F   UNL A   1      36.466  22.584  22.265  1.00  0.00    -0.207 F 
ATOM     17  C   UNL A   1      34.809  23.348  23.758  1.00  0.00     0.048 A 
BRANCH  15  18
ATOM     18  C   UNL A   1      32.979  24.255  25.287  1.00  0.00     0.299 C 
BRANCH  18  19
ATOM     19  N   UNL A   1      32.382  25.575  25.034  1.00  0.00    -0.327 N 
ATOM     20  C   UNL A   1      32.614  26.165  23.718  1.00  0.00     0.263 C 
ATOM     21  C   UNL A   1      32.665  26.630  26.026  1.00  0.00     0.210 C 
ATOM     22  H   UNL A   1      31.406  25.289  25.105  1.00  0.00     0.348 HD
ATOM     23  C   UNL A   1      33.756  27.150  23.902  1.00  0.00     0.068 C 
ATOM     24  C   UNL A   1      33.721  27.527  25.374  1.00  0.00     0.073 C 
BRANCH  21  25
ATOM     25  C   UNL A   1      31.363  27.432  26.307  1.00  0.00     0.220 C 
BRANCH  25  26
ATOM     26  O   UNL A   1      31.078  27.483  27.701  1.00  0.00    -0.390 OA
ATOM     27  H   UNL A   1      30.780  26.611  28.003  1.00  0.00     0.210 HD
ENDBRANCH  25  26
ENDBRANCH  21  25
ENDBRANCH  18  19
ENDBRANCH  15  18
ENDBRANCH  10  11
ENDBRANCH   7   9
ENDBRANCH   6   7
ENDBRANCH   5   6
ENDBRANCH   4   5
ENDBRANCH   3   4
ENDBRANCH   2   3
ENDBRANCH   1   2
BRANCH   1  28
ATOM     28  O   UNL A   1      43.037  18.850  26.614  1.00  0.00    -0.377 OA
BRANCH  28  29
ATOM     29  C   UNL A   1      44.011  18.413  25.689  1.00  0.00     0.188 C 
BRANCH  29  30
ATOM     30  C   UNL A   1      44.784  19.530  24.949  1.00  0.00     0.188 C 
BRANCH  30  31
ATOM     31  O   UNL A   1      44.872  20.851  25.463  1.00  0.00    -0.376 OA
BRANCH  31  32
ATOM     32  C   UNL A   1      45.856  21.748  24.979  1.00  0.00     0.202 C 
BRANCH  32  33
ATOM     33  C   UNL A   1      45.520  22.760  23.870  1.00  0.00     0.261 C 
BRANCH  33  34
ATOM     34  O   UNL A   1      44.916  23.990  24.291  1.00  0.00    -0.460 OA
BRANCH  34  35
ATOM     35  C   UNL A   1      45.741  24.889  24.885  1.00  0.00     0.338 C 
ATOM     36  O   UNL A   1      46.912  25.099  24.620  1.00  0.00    -0.246 OA
BRANCH  35  37
ATOM     37  C   UNL A   1      44.930  25.747  25.782  1.00  0.00     0.060 A 
ATOM     38  C   UNL A   1      44.752  27.099  25.446  1.00  0.00     0.016 A 
ATOM     39  C   UNL A   1      44.298  25.214  26.908  1.00  0.00     0.016 A 
ATOM     40  C   UNL A   1      43.949  27.923  26.237  1.00  0.00     0.010 A 
ATOM     41  C   UNL A   1      43.532  26.050  27.723  1.00  0.00     0.010 A 
ATOM     42  C   UNL A   1      43.376  27.412  27.407  1.00  0.00    -0.014 A 
BRANCH  42  43
ATOM     43  C   UNL A   1      42.838  28.329  28.438  1.00  0.00     0.031 A 
ATOM     44  C   UNL A   1      43.725  28.637  29.615  1.00  0.00     0.074 A 
ATOM     45  C   UNL A   1      41.608  28.869  28.354  1.00  0.00     0.049 A 
ATOM     46  N   UNL A   1      43.436  29.234  30.738  1.00  0.00    -0.248 NA
ATOM     47  C   UNL A   1      45.129  28.204  29.504  1.00  0.00     0.031 C 
ATOM     48  C   UNL A   1      40.694  28.730  27.222  1.00  0.00     0.029 A 
ATOM     49  N   UNL A   1      40.914  29.639  29.254  1.00  0.00    -0.354 N 
ATOM     50  C   UNL A   1      44.617  29.246  31.470  1.00  0.00     0.074 A 
ATOM     51  C   UNL A   1      45.622  28.579  30.675  1.00  0.00     0.031 C 
ATOM     52  C   UNL A   1      39.552  29.385  27.503  1.00  0.00     0.029 A 
ATOM     53  C   UNL A   1      39.633  29.940  28.854  1.00  0.00     0.049 A 
ATOM     54  H   UNL A   1      41.298  29.947  30.107  1.00  0.00     0.167 HD
ATOM     55  C   UNL A   1      44.842  29.769  32.697  1.00  0.00     0.034 A 
ATOM     56  C   UNL A   1      38.636  30.558  29.521  1.00  0.00     0.034 A 
ATOM     57  C   UNL A   1      43.833  30.419  33.489  1.00  0.00     0.049 A 
ATOM     58  C   UNL A   1      38.875  31.014  30.944  1.00  0.00     0.074 A 
ATOM     59  C   UNL A   1      43.946  30.941  34.765  1.00  0.00     0.029 A 
ATOM     60  N   UNL A   1      42.529  30.644  33.076  1.00  0.00    -0.354 N 
ATOM     61  N   UNL A   1      39.971  30.940  31.664  1.00  0.00    -0.248 NA
ATOM     62  C   UNL A   1      37.737  31.626  31.646  1.00  0.00     0.031 C 
ATOM     63  C   UNL A   1      42.696  31.437  35.144  1.00  0.00     0.029 A 
ATOM     64  C   UNL A   1      41.823  31.287  34.078  1.00  0.00     0.049 A 
ATOM     65  H   UNL A   1      42.159  30.385  32.201  1.00  0.00     0.167 HD
ATOM     66  C   UNL A   1      39.662  31.531  32.887  1.00  0.00     0.074 A 
ATOM     67  C   UNL A   1      38.281  31.959  32.808  1.00  0.00     0.031 C 
ATOM     68  C   UNL A   1      40.449  31.710  33.979  1.00  0.00     0.034 A 
BRANCH  55  69
ATOM     69  C   UNL A   1      46.223  29.631  33.271  1.00  0.00     0.023 A 
ATOM     70  C   UNL A   1      46.577  28.522  34.056  1.00  0.00     0.031 A 
ATOM     71  C   UNL A   1      47.206  30.596  32.994  1.00  0.00     0.131 A 
ATOM     72  C   UNL A   1      47.884  28.414  34.555  1.00  0.00     0.055 A 
ATOM     73  C   UNL A   1      48.518  30.454  33.448  1.00  0.00     0.041 A 
ATOM     74  F   UNL A   1      46.908  31.684  32.267  1.00  0.00    -0.206 F 
ATOM     75  C   UNL A   1      48.862  29.358  34.234  1.00  0.00     0.022 A 
BRANCH  72  76
ATOM     76  S   UNL A   1      48.280  27.036  35.665  1.00  0.00     0.124 S 
ATOM     77  O   UNL A   1      46.964  26.707  36.207  1.00  0.00    -0.237 OA
ATOM     78  O   UNL A   1      48.860  26.052  34.758  1.00  0.00    -0.237 OA
ATOM     79  O   UNL A   1      49.214  27.628  36.621  1.00  0.00    -0.744 OA
ENDBRANCH  72  76
ENDBRANCH  55  69
BRANCH  56  80
ATOM     80  C   UNL A   1      37.296  30.751  28.893  1.00  0.00     0.023 A 
ATOM     81  C   UNL A   1      36.723  32.030  28.807  1.00  0.00     0.031 A 
ATOM     82  C   UNL A   1      36.537  29.657  28.442  1.00  0.00     0.131 A 
ATOM     83  C   UNL A   1      35.415  32.180  28.322  1.00  0.00     0.055 A 
ATOM     84  C   UNL A   1      35.253  29.818  27.914  1.00  0.00     0.041 A 
ATOM     85  F   UNL A   1      37.034  28.412  28.507  1.00  0.00    -0.206 F 
ATOM     86  C   UNL A   1      34.680  31.085  27.863  1.00  0.00     0.022 A 
BRANCH  83  87
ATOM     87  S   UNL A   1      34.656  33.828  28.364  1.00  0.00     0.124 S 
ATOM     88  O   UNL A   1      35.170  34.358  29.621  1.00  0.00    -0.237 OA
ATOM     89  O   UNL A   1      35.185  34.436  27.147  1.00  0.00    -0.237 OA
ATOM     90  O   UNL A   1      33.224  33.543  28.341  1.00  0.00    -0.744 OA
ENDBRANCH  83  87
ENDBRANCH  56  80
BRANCH  68  91
ATOM     91  C   UNL A   1      39.857  32.448  35.152  1.00  0.00     0.023 A 
ATOM     92  C   UNL A   1      40.166  33.793  35.411  1.00  0.00     0.031 A 
ATOM     93  C   UNL A   1      38.945  31.798  36.004  1.00  0.00     0.131 A 
ATOM     94  C   UNL A   1      39.602  34.435  36.524  1.00  0.00     0.055 A 
ATOM     95  C   UNL A   1      38.344  32.458  37.075  1.00  0.00     0.041 A 
ATOM     96  F   UNL A   1      38.612  30.515  35.796  1.00  0.00    -0.206 F 
ATOM     97  C   UNL A   1      38.680  33.781  37.346  1.00  0.00     0.022 A 
BRANCH  94  98
ATOM     98  S   UNL A   1      40.137  36.121  36.918  1.00  0.00     0.124 S 
ATOM     99  O   UNL A   1      39.170  36.515  37.937  1.00  0.00    -0.237 OA
ATOM    100  O   UNL A   1      41.505  35.917  37.383  1.00  0.00    -0.237 OA
ATOM    101  O   UNL A   1      40.017  36.827  35.643  1.00  0.00    -0.744 OA
ENDBRANCH  94  98
ENDBRANCH  68  91
ENDBRANCH  42  43
ENDBRANCH  35  37
ENDBRANCH  34  35
ENDBRANCH  33  34
ENDBRANCH  32  33
ENDBRANCH  31  32
ENDBRANCH  30  31
ENDBRANCH  29  30
ENDBRANCH  28  29
ENDBRANCH   1  28
TORSDOF 28
ENDMDL
MODEL 2
REMARK VINA RESULT:      -9.1      7.380     12.350
REMARK SMILES O=C(/C=C/c1cc(F)cc(C[N@@H+]2CCC[C@H]2CO)c1)OCCOCCOCCOCCOC(=O)c1ccc(-c2c3nc(c(-c4cc(S(=O)(=O)[O-])ccc4F)c4ccc([nH]4)c(-c4cc(S(=O)(=O)[O-])ccc4F)c4nc(c(-c5cc(S(=O)(=O)[O-])ccc5F)c5ccc2[nH]5)C=C4)C=C3)cc1
REMARK SMILES IDX 25 1 24 2 23 3 22 4 21 5 20 6 2 7 1 8 3 9 4 10 5 11 6 12
REMARK SMILES IDX 19 13 7 14 10 15 8 16 9 17 11 18 12 19 13 20 16 21 14 23
REMARK SMILES IDX 15 24 17 25 18 26 26 28 27 29 28 30 29 31 30 32 31 33 32 34
REMARK SMILES IDX 33 35 34 36 35 37 36 38 97 39 37 40 96 41 38 42 39 43 40 44
REMARK SMILES IDX 90 45 41 46 95 47 89 48 91 49 42 50 94 51 88 52 87 53 43 55
REMARK SMILES IDX 75 56 55 57 74 58 56 59 59 60 73 61 92 62 57 63 58 64 72 66
REMARK SMILES IDX 93 67 60 68 44 69 45 70 53 71 46 72 52 73 54 74 51 75 47 76
REMARK SMILES IDX 48 77 49 78 50 79 76 80 77 81 85 82 78 83 84 84 86 85 83 86
REMARK SMILES IDX 79 87 80 88 81 89 82 90 61 91 62 92 70 93 63 94 69 95 71 96
REMARK SMILES IDX 68 97 64 98 65 99 66 100 67 101
REMARK H PARENT 12 22 18 27 91 54 59 65
REMARK Flexibility Score: inf
ROOT
ATOM      1  C   UNL A   1      32.607  36.135  32.607  1.00  0.00     0.188 C 
ENDROOT
BRANCH   1   2
ATOM      2  C   UNL A   1      32.241  36.085  31.129  1.00  0.00     0.188 C 
BRANCH   2   3
ATOM      3  O   UNL A   1      32.883  35.156  30.268  1.00  0.00    -0.376 OA
BRANCH   3   4
ATOM      4  C   UNL A   1      33.055  35.328  28.873  1.00  0.00     0.202 C 
BRANCH   4   5
ATOM      5  C   UNL A   1      33.678  34.255  27.985  1.00  0.00     0.261 C 
BRANCH   5   6
ATOM      6  O   UNL A   1      34.790  33.524  28.511  1.00  0.00    -0.460 OA
BRANCH   6   7
ATOM      7  C   UNL A   1      35.078  32.234  28.221  1.00  0.00     0.330 C 
ATOM      8  O   UNL A   1      34.188  31.392  28.152  1.00  0.00    -0.247 OA
BRANCH   7   9
ATOM      9  C   UNL A   1      36.478  31.782  28.339  1.00  0.00     0.094 C 
ATOM     10  C   UNL A   1      36.906  30.518  28.417  1.00  0.00     0.016 C 
BRANCH  10  11
ATOM     11  C   UNL A   1      38.325  30.158  28.447  1.00  0.00    -0.022 A 
ATOM     12  C   UNL A   1      39.149  30.766  29.389  1.00  0.00     0.047 A 
ATOM     13  C   UNL A   1      38.830  29.121  27.635  1.00  0.00     0.018 A 
ATOM     14  C   UNL A   1      40.409  30.242  29.611  1.00  0.00     0.124 A 
ATOM     15  C   UNL A   1      40.125  28.608  27.831  1.00  0.00     0.010 A 
ATOM     16  F   UNL A   1      41.184  30.774  30.563  1.00  0.00    -0.207 F 
ATOM     17  C   UNL A   1      40.867  29.142  28.892  1.00  0.00     0.048 A 
BRANCH  15  18
ATOM     18  C   UNL A   1      40.626  27.418  27.027  1.00  0.00     0.299 C 
BRANCH  18  19
ATOM     19  N   UNL A   1      42.060  27.093  26.993  1.00  0.00    -0.327 N 
ATOM     20  C   UNL A   1      42.724  27.158  25.694  1.00  0.00     0.263 C 
ATOM     21  C   UNL A   1      42.462  25.814  27.609  1.00  0.00     0.210 C 
ATOM     22  H   UNL A   1      42.381  27.869  27.572  1.00  0.00     0.348 HD
ATOM     23  C   UNL A   1      42.786  25.727  25.188  1.00  0.00     0.068 C 
ATOM     24  C   UNL A   1      42.720  24.863  26.436  1.00  0.00     0.073 C 
BRANCH  21  25
ATOM     25  C   UNL A   1      43.761  26.027  28.436  1.00  0.00     0.220 C 
BRANCH  25  26
ATOM     26  O   UNL A   1      43.733  25.279  29.646  1.00  0.00    -0.390 OA
ATOM     27  H   UNL A   1      43.392  25.835  30.364  1.00  0.00     0.210 HD
ENDBRANCH  25  26
ENDBRANCH  21  25
ENDBRANCH  18  19
ENDBRANCH  15  18
ENDBRANCH  10  11
ENDBRANCH   7   9
ENDBRANCH   6   7
ENDBRANCH   5   6
ENDBRANCH   4   5
ENDBRANCH   3   4
ENDBRANCH   2   3
ENDBRANCH   1   2
BRANCH   1  28
ATOM     28  O   UNL A   1      33.929  36.579  32.858  1.00  0.00    -0.377 OA
BRANCH  28  29
ATOM     29  C   UNL A   1      34.787  35.579  33.371  1.00  0.00     0.188 C 
BRANCH  29  30
ATOM     30  C   UNL A   1      34.251  34.130  33.294  1.00  0.00     0.188 C 
BRANCH  30  31
ATOM     31  O   UNL A   1      35.070  33.008  33.593  1.00  0.00    -0.376 OA
BRANCH  31  32
ATOM     32  C   UNL A   1      35.519  32.150  32.559  1.00  0.00     0.202 C 
BRANCH  32  33
ATOM     33  C   UNL A   1      36.928  32.307  31.962  1.00  0.00     0.261 C 
BRANCH  33  34
ATOM     34  O   UNL A   1      37.195  33.535  31.274  1.00  0.00    -0.460 OA
BRANCH  34  35
ATOM     35  C   UNL A   1      38.070  34.381  31.876  1.00  0.00     0.338 C 
ATOM     36  O   UNL A   1      37.956  34.894  32.975  1.00  0.00    -0.246 OA
BRANCH  35  37
ATOM     37  C   UNL A   1      39.313  34.421  31.069  1.00  0.00     0.060 A 
ATOM     38  C   UNL A   1      40.542  34.191  31.708  1.00  0.00     0.016 A 
ATOM     39  C   UNL A   1      39.266  34.621  29.687  1.00  0.00     0.016 A 
ATOM     40  C   UNL A   1      41.727  34.167  30.971  1.00  0.00     0.010 A 
ATOM     41  C   UNL A   1      40.457  34.641  28.958  1.00  0.00     0.010 A 
ATOM     42  C   UNL A   1      41.693  34.441  29.599  1.00  0.00    -0.014 A 
BRANCH  42  43
ATOM     43  C   UNL A   1      42.939  34.781  28.873  1.00  0.00     0.031 A 
ATOM     44  C   UNL A   1      43.923  33.668  28.635  1.00  0.00     0.074 A 
ATOM     45  C   UNL A   1      43.204  36.028  28.441  1.00  0.00     0.049 A 
ATOM     46  N   UNL A   1      45.157  33.727  28.214  1.00  0.00    -0.248 NA
ATOM     47  C   UNL A   1      43.447  32.303  28.921  1.00  0.00     0.031 C 
ATOM     48  C   UNL A   1      42.293  37.168  28.519  1.00  0.00     0.029 A 
ATOM     49  N   UNL A   1      44.336  36.542  27.857  1.00  0.00    -0.354 N 
ATOM     50  C   UNL A   1      45.606  32.412  28.186  1.00  0.00     0.074 A 
ATOM     51  C   UNL A   1      44.522  31.578  28.654  1.00  0.00     0.031 C 
ATOM     52  C   UNL A   1      42.908  38.252  28.012  1.00  0.00     0.029 A 
ATOM     53  C   UNL A   1      44.274  37.897  27.626  1.00  0.00     0.049 A 
ATOM     54  H   UNL A   1      45.118  35.992  27.625  1.00  0.00     0.167 HD
ATOM     55  C   UNL A   1      46.815  31.943  27.803  1.00  0.00     0.034 A 
ATOM     56  C   UNL A   1      45.225  38.749  27.191  1.00  0.00     0.034 A 
ATOM     57  C   UNL A   1      47.893  32.780  27.353  1.00  0.00     0.049 A 
ATOM     58  C   UNL A   1      46.610  38.217  26.897  1.00  0.00     0.074 A 
ATOM     59  C   UNL A   1      49.175  32.409  26.988  1.00  0.00     0.029 A 
ATOM     60  N   UNL A   1      47.814  34.156  27.198  1.00  0.00    -0.354 N 
ATOM     61  N   UNL A   1      47.055  36.983  26.961  1.00  0.00    -0.248 NA
ATOM     62  C   UNL A   1      47.625  39.198  26.485  1.00  0.00     0.031 C 
ATOM     63  C   UNL A   1      49.886  33.566  26.660  1.00  0.00     0.029 A 
ATOM     64  C   UNL A   1      49.028  34.650  26.753  1.00  0.00     0.049 A 
ATOM     65  H   UNL A   1      47.014  34.700  27.378  1.00  0.00     0.167 HD
ATOM     66  C   UNL A   1      48.388  37.038  26.560  1.00  0.00     0.074 A 
ATOM     67  C   UNL A   1      48.675  38.423  26.254  1.00  0.00     0.031 C 
ATOM     68  C   UNL A   1      49.294  36.033  26.449  1.00  0.00     0.034 A 
BRANCH  55  69
ATOM     69  C   UNL A   1      47.046  30.461  27.886  1.00  0.00     0.023 A 
ATOM     70  C   UNL A   1      47.119  29.670  26.730  1.00  0.00     0.031 A 
ATOM     71  C   UNL A   1      47.240  29.843  29.134  1.00  0.00     0.131 A 
ATOM     72  C   UNL A   1      47.362  28.293  26.844  1.00  0.00     0.055 A 
ATOM     73  C   UNL A   1      47.536  28.484  29.237  1.00  0.00     0.041 A 
ATOM     74  F   UNL A   1      47.157  30.555  30.268  1.00  0.00    -0.206 F 
ATOM     75  C   UNL A   1      47.598  27.701  28.088  1.00  0.00     0.022 A 
BRANCH  72  76
ATOM     76  S   UNL A   1      47.330  27.275  25.344  1.00  0.00     0.124 S 
ATOM     77  O   UNL A   1      48.269  27.990  24.484  1.00  0.00    -0.237 OA
ATOM     78  O   UNL A   1      47.776  25.975  25.832  1.00  0.00    -0.237 OA
ATOM     79  O   UNL A   1      45.932  27.336  24.922  1.00  0.00    -0.744 OA
ENDBRANCH  72  76
ENDBRANCH  55  69
BRANCH  56  80
ATOM     80  C   UNL A   1      44.941  40.207  27.043  1.00  0.00     0.023 A 
ATOM     81  C   UNL A   1      44.483  40.727  25.822  1.00  0.00     0.031 A 
ATOM     82  C   UNL A   1      45.193  41.109  28.091  1.00  0.00     0.131 A 
ATOM     83  C   UNL A   1      44.334  42.114  25.664  1.00  0.00     0.055 A 
ATOM     84  C   UNL A   1      44.996  42.484  27.944  1.00  0.00     0.041 A 
ATOM     85  F   UNL A   1      45.638  40.665  29.278  1.00  0.00    -0.206 F 
ATOM     86  C   UNL A   1      44.575  42.995  26.720  1.00  0.00     0.022 A 
BRANCH  83  87
ATOM     87  S   UNL A   1      43.884  42.758  24.028  1.00  0.00     0.124 S 
ATOM     88  O   UNL A   1      43.730  44.181  24.304  1.00  0.00    -0.237 OA
ATOM     89  O   UNL A   1      45.044  42.381  23.225  1.00  0.00    -0.237 OA
ATOM     90  O   UNL A   1      42.652  42.043  23.708  1.00  0.00    -0.744 OA
ENDBRANCH  83  87
ENDBRANCH  56  80
BRANCH  68  91
ATOM     91  C   UNL A   1      50.662  36.383  25.922  1.00  0.00     0.023 A 
ATOM     92  C   UNL A   1      51.765  36.541  26.776  1.00  0.00     0.031 A 
ATOM     93  C   UNL A   1      50.865  36.532  24.538  1.00  0.00     0.131 A 
ATOM     94  C   UNL A   1      53.016  36.882  26.241  1.00  0.00     0.055 A 
ATOM     95  C   UNL A   1      52.123  36.815  24.007  1.00  0.00     0.041 A 
ATOM     96  F   UNL A   1      49.844  36.386  23.678  1.00  0.00    -0.206 F 
ATOM     97  C   UNL A   1      53.206  37.002  24.861  1.00  0.00     0.022 A 
BRANCH  94  98
ATOM     98  S   UNL A   1      54.384  37.226  27.380  1.00  0.00     0.124 S 
ATOM     99  O   UNL A   1      53.693  37.326  28.662  1.00  0.00    -0.237 OA
ATOM    100  O   UNL A   1      55.239  36.056  27.208  1.00  0.00    -0.237 OA
ATOM    101  O   UNL A   1      54.944  38.480  26.877  1.00  0.00    -0.744 OA
ENDBRANCH  94  98
ENDBRANCH  68  91
ENDBRANCH  42  43
ENDBRANCH  35  37
ENDBRANCH  34  35
ENDBRANCH  33  34
ENDBRANCH  32  33
ENDBRANCH  31  32
ENDBRANCH  30  31
ENDBRANCH  29  30
ENDBRANCH  28  29
ENDBRANCH   1  28
TORSDOF 28
ENDMDL
MODEL 3
REMARK VINA RESULT:      -8.9      7.328     12.038
REMARK SMILES O=C(/C=C/c1cc(F)cc(C[N@@H+]2CCC[C@H]2CO)c1)OCCOCCOCCOCCOC(=O)c1ccc(-c2c3nc(c(-c4cc(S(=O)(=O)[O-])ccc4F)c4ccc([nH]4)c(-c4cc(S(=O)(=O)[O-])ccc4F)c4nc(c(-c5cc(S(=O)(=O)[O-])ccc5F)c5ccc2[nH]5)C=C4)C=C3)cc1
REMARK SMILES IDX 25 1 24 2 23 3 22 4 21 5 20 6 2 7 1 8 3 9 4 10 5 11 6 12
REMARK SMILES IDX 19 13 7 14 10 15 8 16 9 17 11 18 12 19 13 20 16 21 14 23
REMARK SMILES IDX 15 24 17 25 18 26 26 28 27 29 28 30 29 31 30 32 31 33 32 34
REMARK SMILES IDX 33 35 34 36 35 37 36 38 97 39 37 40 96 41 38 42 39 43 40 44
REMARK SMILES IDX 90 45 41 46 95 47 89 48 91 49 42 50 94 51 88 52 87 53 43 55
REMARK SMILES IDX 75 56 55 57 74 58 56 59 59 60 73 61 92 62 57 63 58 64 72 66
REMARK SMILES IDX 93 67 60 68 44 69 45 70 53 71 46 72 52 73 54 74 51 75 47 76
REMARK SMILES IDX 48 77 49 78 50 79 76 80 77 81 85 82 78 83 84 84 86 85 83 86
REMARK SMILES IDX 79 87 80 88 81 89 82 90 61 91 62 92 70 93 63 94 69 95 71 96
REMARK SMILES IDX 68 97 64 98 65 99 66 100 67 101
REMARK H PARENT 12 22 18 27 91 54 59 65
REMARK Flexibility Score: inf
ROOT
ATOM      1  C   UNL A   1      32.822  35.754  31.852  1.00  0.00     0.188 C 
ENDROOT
BRANCH   1   2
ATOM      2  C   UNL A   1      33.118  35.809  30.358  1.00  0.00     0.188 C 
BRANCH   2   3
ATOM      3  O   UNL A   1      33.118  34.615  29.589  1.00  0.00    -0.376 OA
BRANCH   3   4
ATOM      4  C   UNL A   1      34.249  33.792  29.371  1.00  0.00     0.202 C 
BRANCH   4   5
ATOM      5  C   UNL A   1      34.405  32.927  28.123  1.00  0.00     0.261 C 
BRANCH   5   6
ATOM      6  O   UNL A   1      33.409  31.929  27.881  1.00  0.00    -0.460 OA
BRANCH   6   7
ATOM      7  C   UNL A   1      32.321  32.094  27.094  1.00  0.00     0.330 C 
ATOM      8  O   UNL A   1      31.730  33.169  27.057  1.00  0.00    -0.247 OA
BRANCH   7   9
ATOM      9  C   UNL A   1      31.646  30.893  26.566  1.00  0.00     0.094 C 
ATOM     10  C   UNL A   1      32.069  30.112  25.566  1.00  0.00     0.016 C 
BRANCH  10  11
ATOM     11  C   UNL A   1      31.375  28.888  25.163  1.00  0.00    -0.022 A 
ATOM     12  C   UNL A   1      30.677  28.880  23.960  1.00  0.00     0.047 A 
ATOM     13  C   UNL A   1      31.516  27.694  25.903  1.00  0.00     0.018 A 
ATOM     14  C   UNL A   1      30.257  27.670  23.440  1.00  0.00     0.124 A 
ATOM     15  C   UNL A   1      31.058  26.465  25.396  1.00  0.00     0.010 A 
ATOM     16  F   UNL A   1      29.645  27.642  22.250  1.00  0.00    -0.207 F 
ATOM     17  C   UNL A   1      30.499  26.475  24.112  1.00  0.00     0.048 A 
BRANCH  15  18
ATOM     18  C   UNL A   1      31.309  25.166  26.146  1.00  0.00     0.299 C 
BRANCH  18  19
ATOM     19  N   UNL A   1      32.340  24.226  25.682  1.00  0.00    -0.327 N 
ATOM     20  C   UNL A   1      33.694  24.424  26.191  1.00  0.00     0.263 C 
ATOM     21  C   UNL A   1      32.459  24.042  24.224  1.00  0.00     0.210 C 
ATOM     22  H   UNL A   1      31.944  23.385  26.103  1.00  0.00     0.348 HD
ATOM     23  C   UNL A   1      34.441  25.172  25.100  1.00  0.00     0.068 C 
ATOM     24  C   UNL A   1      33.701  24.841  23.815  1.00  0.00     0.073 C 
BRANCH  21  25
ATOM     25  C   UNL A   1      32.652  22.532  23.909  1.00  0.00     0.220 C 
BRANCH  25  26
ATOM     26  O   UNL A   1      31.705  21.733  24.610  1.00  0.00    -0.390 OA
ATOM     27  H   UNL A   1      31.617  22.057  25.520  1.00  0.00     0.210 HD
ENDBRANCH  25  26
ENDBRANCH  21  25
ENDBRANCH  18  19
ENDBRANCH  15  18
ENDBRANCH  10  11
ENDBRANCH   7   9
ENDBRANCH   6   7
ENDBRANCH   5   6
ENDBRANCH   4   5
ENDBRANCH   3   4
ENDBRANCH   2   3
ENDBRANCH   1   2
BRANCH   1  28
ATOM     28  O   UNL A   1      33.792  36.405  32.655  1.00  0.00    -0.377 OA
BRANCH  28  29
ATOM     29  C   UNL A   1      34.537  35.533  33.481  1.00  0.00     0.188 C 
BRANCH  29  30
ATOM     30  C   UNL A   1      34.352  34.022  33.204  1.00  0.00     0.188 C 
BRANCH  30  31
ATOM     31  O   UNL A   1      35.166  33.038  33.824  1.00  0.00    -0.376 OA
BRANCH  31  32
ATOM     32  C   UNL A   1      35.868  32.088  33.042  1.00  0.00     0.202 C 
BRANCH  32  33
ATOM     33  C   UNL A   1      37.335  32.326  32.644  1.00  0.00     0.261 C 
BRANCH  33  34
ATOM     34  O   UNL A   1      37.564  33.257  31.580  1.00  0.00    -0.460 OA
BRANCH  34  35
ATOM     35  C   UNL A   1      38.213  34.401  31.914  1.00  0.00     0.338 C 
ATOM     36  O   UNL A   1      37.941  35.160  32.828  1.00  0.00    -0.246 OA
BRANCH  35  37
ATOM     37  C   UNL A   1      39.461  34.481  31.116  1.00  0.00     0.060 A 
ATOM     38  C   UNL A   1      40.687  34.223  31.750  1.00  0.00     0.016 A 
ATOM     39  C   UNL A   1      39.420  34.746  29.745  1.00  0.00     0.016 A 
ATOM     40  C   UNL A   1      41.875  34.236  31.019  1.00  0.00     0.010 A 
ATOM     41  C   UNL A   1      40.615  34.804  29.024  1.00  0.00     0.010 A 
ATOM     42  C   UNL A   1      41.848  34.574  29.661  1.00  0.00    -0.014 A 
BRANCH  42  43
ATOM     43  C   UNL A   1      43.097  34.951  28.959  1.00  0.00     0.031 A 
ATOM     44  C   UNL A   1      44.038  33.838  28.584  1.00  0.00     0.074 A 
ATOM     45  C   UNL A   1      43.402  36.228  28.664  1.00  0.00     0.049 A 
ATOM     46  N   UNL A   1      45.268  33.901  28.153  1.00  0.00    -0.248 NA
ATOM     47  C   UNL A   1      43.516  32.467  28.723  1.00  0.00     0.031 C 
ATOM     48  C   UNL A   1      42.532  37.383  28.882  1.00  0.00     0.029 A 
ATOM     49  N   UNL A   1      44.544  36.764  28.124  1.00  0.00    -0.354 N 
ATOM     50  C   UNL A   1      45.669  32.583  27.973  1.00  0.00     0.074 A 
ATOM     51  C   UNL A   1      44.562  31.739  28.361  1.00  0.00     0.031 C 
ATOM     52  C   UNL A   1      43.180  38.495  28.489  1.00  0.00     0.029 A 
ATOM     53  C   UNL A   1      44.528  38.138  28.046  1.00  0.00     0.049 A 
ATOM     54  H   UNL A   1      45.304  36.217  27.820  1.00  0.00     0.167 HD
ATOM     55  C   UNL A   1      46.856  32.118  27.522  1.00  0.00     0.034 A 
ATOM     56  C   UNL A   1      45.504  39.000  27.693  1.00  0.00     0.034 A 
ATOM     57  C   UNL A   1      47.959  32.963  27.152  1.00  0.00     0.049 A 
ATOM     58  C   UNL A   1      46.866  38.457  27.322  1.00  0.00     0.074 A 
ATOM     59  C   UNL A   1      49.222  32.591  26.728  1.00  0.00     0.029 A 
ATOM     60  N   UNL A   1      47.927  34.349  27.151  1.00  0.00    -0.354 N 
ATOM     61  N   UNL A   1      47.267  37.209  27.241  1.00  0.00    -0.248 NA
ATOM     62  C   UNL A   1      47.911  39.443  27.006  1.00  0.00     0.031 C 
ATOM     63  C   UNL A   1      49.971  33.752  26.520  1.00  0.00     0.029 A 
ATOM     64  C   UNL A   1      49.153  34.847  26.746  1.00  0.00     0.049 A 
ATOM     65  H   UNL A   1      47.149  34.897  27.402  1.00  0.00     0.167 HD
ATOM     66  C   UNL A   1      48.597  37.263  26.828  1.00  0.00     0.074 A 
ATOM     67  C   UNL A   1      48.930  38.663  26.673  1.00  0.00     0.031 C 
ATOM     68  C   UNL A   1      49.465  36.246  26.593  1.00  0.00     0.034 A 
BRANCH  55  69
ATOM     69  C   UNL A   1      47.036  30.629  27.437  1.00  0.00     0.023 A 
ATOM     70  C   UNL A   1      46.709  29.922  26.269  1.00  0.00     0.031 A 
ATOM     71  C   UNL A   1      47.580  29.918  28.519  1.00  0.00     0.131 A 
ATOM     72  C   UNL A   1      46.914  28.536  26.216  1.00  0.00     0.055 A 
ATOM     73  C   UNL A   1      47.832  28.548  28.441  1.00  0.00     0.041 A 
ATOM     74  F   UNL A   1      47.887  30.547  29.664  1.00  0.00    -0.206 F 
ATOM     75  C   UNL A   1      47.498  27.849  27.284  1.00  0.00     0.022 A 
BRANCH  72  76
ATOM     76  S   UNL A   1      46.370  27.631  24.743  1.00  0.00     0.124 S 
ATOM     77  O   UNL A   1      46.756  28.549  23.674  1.00  0.00    -0.237 OA
ATOM     78  O   UNL A   1      47.138  26.393  24.827  1.00  0.00    -0.237 OA
ATOM     79  O   UNL A   1      44.930  27.485  24.944  1.00  0.00    -0.744 OA
ENDBRANCH  72  76
ENDBRANCH  55  69
BRANCH  56  80
ATOM     80  C   UNL A   1      45.271  40.475  27.712  1.00  0.00     0.023 A 
ATOM     81  C   UNL A   1      45.235  41.178  28.927  1.00  0.00     0.031 A 
ATOM     82  C   UNL A   1      45.007  41.187  26.529  1.00  0.00     0.131 A 
ATOM     83  C   UNL A   1      44.898  42.540  28.937  1.00  0.00     0.055 A 
ATOM     84  C   UNL A   1      44.719  42.554  26.540  1.00  0.00     0.041 A 
ATOM     85  F   UNL A   1      45.023  40.561  25.341  1.00  0.00    -0.206 F 
ATOM     86  C   UNL A   1      44.652  43.236  27.751  1.00  0.00     0.022 A 
BRANCH  83  87
ATOM     87  S   UNL A   1      44.715  43.378  30.536  1.00  0.00     0.124 S 
ATOM     88  O   UNL A   1      46.078  43.332  31.051  1.00  0.00    -0.237 OA
ATOM     89  O   UNL A   1      44.225  44.693  30.134  1.00  0.00    -0.237 OA
ATOM     90  O   UNL A   1      43.747  42.548  31.246  1.00  0.00    -0.744 OA
ENDBRANCH  83  87
ENDBRANCH  56  80
BRANCH  68  91
ATOM     91  C   UNL A   1      50.838  36.606  26.087  1.00  0.00     0.023 A 
ATOM     92  C   UNL A   1      51.918  36.807  26.961  1.00  0.00     0.031 A 
ATOM     93  C   UNL A   1      51.071  36.718  24.704  1.00  0.00     0.131 A 
ATOM     94  C   UNL A   1      53.176  37.156  26.446  1.00  0.00     0.055 A 
ATOM     95  C   UNL A   1      52.336  37.009  24.194  1.00  0.00     0.041 A 
ATOM     96  F   UNL A   1      50.073  36.530  23.826  1.00  0.00    -0.206 F 
ATOM     97  C   UNL A   1      53.395  37.240  25.068  1.00  0.00     0.022 A 
BRANCH  94  98
ATOM     98  S   UNL A   1      54.510  37.557  27.605  1.00  0.00     0.124 S 
ATOM     99  O   UNL A   1      55.696  37.168  26.848  1.00  0.00    -0.237 OA
ATOM    100  O   UNL A   1      54.328  38.989  27.812  1.00  0.00    -0.237 OA
ATOM    101  O   UNL A   1      54.217  36.722  28.770  1.00  0.00    -0.744 OA
ENDBRANCH  94  98
ENDBRANCH  68  91
ENDBRANCH  42  43
ENDBRANCH  35  37
ENDBRANCH  34  35
ENDBRANCH  33  34
ENDBRANCH  32  33
ENDBRANCH  31  32
ENDBRANCH  30  31
ENDBRANCH  29  30
ENDBRANCH  28  29
ENDBRANCH   1  28
TORSDOF 28
ENDMDL
