MODEL 1
REMARK VINA RESULT:      -9.5      0.000      0.000
REMARK SMILES Cc1cc(C)c2c(OCCCC(=O)OCCOCCOCCOCCOC(=O)c3ccc(-c4c5nc(c(-c6cc(S(=O)(=O)[O-])ccc6F)c6ccc([nH]6)c(-c6cc(S(=O)(=O)[O-])ccc6F)c6nc(c(-c7cc(S(=O)(=O)[O-])ccc7F)c7ccc4[nH]7)C=C6)C=C5)cc3)nsc2n1
REMARK SMILES IDX 19 1 18 2 17 3 16 4 15 5 14 6 12 7 13 8 11 9 10 10 9 11 8 12
REMARK SMILES IDX 7 13 1 14 2 15 3 16 95 17 4 18 94 19 5 20 6 21 93 22 92 23
REMARK SMILES IDX 20 24 21 25 22 26 23 27 24 28 25 29 26 30 27 31 28 32 29 33
REMARK SMILES IDX 30 34 91 35 31 36 90 37 32 38 33 39 34 40 84 41 35 42 89 43
REMARK SMILES IDX 83 44 85 45 36 46 88 47 82 48 81 49 37 51 69 52 49 53 68 54
REMARK SMILES IDX 50 55 53 56 67 57 86 58 51 59 52 60 66 62 87 63 54 64 38 65
REMARK SMILES IDX 39 66 47 67 40 68 46 69 48 70 45 71 41 72 42 73 43 74 44 75
REMARK SMILES IDX 70 76 71 77 79 78 72 79 78 80 80 81 77 82 73 83 74 84 75 85
REMARK SMILES IDX 76 86 55 87 56 88 64 89 57 90 63 91 65 92 62 93 58 94 59 95
REMARK SMILES IDX 60 96 61 97
REMARK H PARENT 85 50 53 61
REMARK Flexibility Score: inf
ROOT
ATOM      1  C   UNL A   1      39.966  21.730  26.959  1.00  0.00     0.188 C 
ENDROOT
BRANCH   1   2
ATOM      2  C   UNL A   1      39.056  21.193  25.824  1.00  0.00     0.188 C 
BRANCH   2   3
ATOM      3  O   UNL A   1      37.706  21.637  25.739  1.00  0.00    -0.376 OA
BRANCH   3   4
ATOM      4  C   UNL A   1      37.383  22.529  24.689  1.00  0.00     0.202 C 
BRANCH   4   5
ATOM      5  C   UNL A   1      36.518  23.727  25.066  1.00  0.00     0.261 C 
BRANCH   5   6
ATOM      6  O   UNL A   1      35.122  23.698  24.637  1.00  0.00    -0.463 OA
BRANCH   6   7
ATOM      7  C   UNL A   1      34.493  24.890  24.519  1.00  0.00     0.305 C 
ATOM      8  O   UNL A   1      33.924  25.241  23.486  1.00  0.00    -0.252 OA
BRANCH   7   9
ATOM      9  C   UNL A   1      34.558  25.855  25.709  1.00  0.00     0.126 C 
BRANCH   9  10
ATOM     10  C   UNL A   1      33.669  27.062  26.039  1.00  0.00     0.053 C 
BRANCH  10  11
ATOM     11  C   UNL A   1      32.135  27.092  25.900  1.00  0.00     0.232 C 
BRANCH  11  12
ATOM     12  O   UNL A   1      31.292  26.254  26.688  1.00  0.00    -0.477 OA
BRANCH  12  13
ATOM     13  C   UNL A   1      31.329  24.926  26.455  1.00  0.00     0.235 A 
ATOM     14  C   UNL A   1      32.327  21.716  22.101  1.00  0.00     0.067 C 
ATOM     15  C   UNL A   1      31.649  22.424  23.240  1.00  0.00     0.039 A 
ATOM     16  C   UNL A   1      30.810  23.500  22.976  1.00  0.00     0.027 A 
ATOM     17  N   UNL A   1      31.978  22.037  24.482  1.00  0.00    -0.240 NA
ATOM     18  C   UNL A   1      30.513  24.450  23.972  1.00  0.00    -0.034 A 
ATOM     19  C   UNL A   1      31.647  22.931  25.430  1.00  0.00     0.147 A 
ATOM     20  C   UNL A   1      29.759  25.697  23.586  1.00  0.00     0.045 C 
ATOM     21  C   UNL A   1      31.065  24.187  25.250  1.00  0.00     0.078 A 
ATOM     22  S   UNL A   1      31.982  22.678  27.079  1.00  0.00    -0.012 S 
ATOM     23  N   UNL A   1      31.683  24.239  27.540  1.00  0.00    -0.153 NA
ENDBRANCH  12  13
ENDBRANCH  11  12
ENDBRANCH  10  11
ENDBRANCH   9  10
ENDBRANCH   7   9
ENDBRANCH   6   7
ENDBRANCH   5   6
ENDBRANCH   4   5
ENDBRANCH   3   4
ENDBRANCH   2   3
ENDBRANCH   1   2
BRANCH   1  24
ATOM     24  O   UNL A   1      41.076  20.921  27.323  1.00  0.00    -0.377 OA
BRANCH  24  25
ATOM     25  C   UNL A   1      41.241  19.734  26.539  1.00  0.00     0.188 C 
BRANCH  25  26
ATOM     26  C   UNL A   1      42.641  19.489  25.920  1.00  0.00     0.188 C 
BRANCH  26  27
ATOM     27  O   UNL A   1      43.097  20.517  25.050  1.00  0.00    -0.376 OA
BRANCH  27  28
ATOM     28  C   UNL A   1      44.217  21.356  25.282  1.00  0.00     0.202 C 
BRANCH  28  29
ATOM     29  C   UNL A   1      44.038  22.874  25.231  1.00  0.00     0.261 C 
BRANCH  29  30
ATOM     30  O   UNL A   1      42.756  23.290  25.641  1.00  0.00    -0.460 OA
BRANCH  30  31
ATOM     31  C   UNL A   1      42.639  24.632  25.703  1.00  0.00     0.338 C 
ATOM     32  O   UNL A   1      43.194  25.458  25.006  1.00  0.00    -0.246 OA
BRANCH  31  33
ATOM     33  C   UNL A   1      41.735  24.956  26.803  1.00  0.00     0.060 A 
ATOM     34  C   UNL A   1      40.669  25.775  26.432  1.00  0.00     0.016 A 
ATOM     35  C   UNL A   1      42.358  24.999  28.052  1.00  0.00     0.016 A 
ATOM     36  C   UNL A   1      40.493  26.915  27.165  1.00  0.00     0.010 A 
ATOM     37  C   UNL A   1      42.242  26.170  28.732  1.00  0.00     0.010 A 
ATOM     38  C   UNL A   1      41.376  27.138  28.223  1.00  0.00    -0.014 A 
BRANCH  38  39
ATOM     39  C   UNL A   1      41.310  28.399  28.907  1.00  0.00     0.031 A 
ATOM     40  C   UNL A   1      42.400  29.280  28.454  1.00  0.00     0.074 A 
ATOM     41  C   UNL A   1      40.278  28.698  29.713  1.00  0.00     0.049 A 
ATOM     42  N   UNL A   1      43.470  29.599  29.100  1.00  0.00    -0.248 NA
ATOM     43  C   UNL A   1      42.455  29.603  27.013  1.00  0.00     0.031 C 
ATOM     44  C   UNL A   1      39.054  27.928  29.948  1.00  0.00     0.029 A 
ATOM     45  N   UNL A   1      40.055  29.835  30.410  1.00  0.00    -0.354 N 
ATOM     46  C   UNL A   1      44.172  30.406  28.217  1.00  0.00     0.074 A 
ATOM     47  C   UNL A   1      43.690  30.087  26.906  1.00  0.00     0.031 C 
ATOM     48  C   UNL A   1      38.135  28.731  30.532  1.00  0.00     0.029 A 
ATOM     49  C   UNL A   1      38.735  30.030  30.796  1.00  0.00     0.049 A 
ATOM     50  H   UNL A   1      40.772  30.474  30.627  1.00  0.00     0.167 HD
ATOM     51  C   UNL A   1      44.797  31.529  28.653  1.00  0.00     0.034 A 
ATOM     52  C   UNL A   1      38.189  31.214  31.186  1.00  0.00     0.034 A 
ATOM     53  C   UNL A   1      45.021  31.474  30.079  1.00  0.00     0.049 A 
ATOM     54  C   UNL A   1      39.334  32.083  31.588  1.00  0.00     0.074 A 
ATOM     55  C   UNL A   1      45.667  30.573  30.906  1.00  0.00     0.029 A 
ATOM     56  N   UNL A   1      44.171  32.191  30.893  1.00  0.00    -0.354 N 
ATOM     57  N   UNL A   1      40.128  31.811  32.592  1.00  0.00    -0.248 NA
ATOM     58  C   UNL A   1      39.912  32.958  30.573  1.00  0.00     0.031 C 
ATOM     59  C   UNL A   1      44.840  30.470  32.061  1.00  0.00     0.029 A 
ATOM     60  C   UNL A   1      43.782  31.374  31.929  1.00  0.00     0.049 A 
ATOM     61  H   UNL A   1      43.893  33.126  30.757  1.00  0.00     0.167 HD
ATOM     62  C   UNL A   1      41.407  32.119  32.144  1.00  0.00     0.074 A 
ATOM     63  C   UNL A   1      41.200  32.897  30.923  1.00  0.00     0.031 C 
ATOM     64  C   UNL A   1      42.508  31.466  32.624  1.00  0.00     0.034 A 
BRANCH  51  65
ATOM     65  C   UNL A   1      44.854  32.802  27.844  1.00  0.00     0.023 A 
ATOM     66  C   UNL A   1      43.990  33.840  28.220  1.00  0.00     0.031 A 
ATOM     67  C   UNL A   1      45.521  32.974  26.604  1.00  0.00     0.131 A 
ATOM     68  C   UNL A   1      43.789  34.945  27.376  1.00  0.00     0.055 A 
ATOM     69  C   UNL A   1      45.373  34.107  25.805  1.00  0.00     0.041 A 
ATOM     70  F   UNL A   1      46.280  32.029  26.039  1.00  0.00    -0.206 F 
ATOM     71  C   UNL A   1      44.482  35.093  26.177  1.00  0.00     0.022 A 
BRANCH  68  72
ATOM     72  S   UNL A   1      42.499  36.131  27.816  1.00  0.00     0.124 S 
ATOM     73  O   UNL A   1      41.350  35.255  28.015  1.00  0.00    -0.237 OA
ATOM     74  O   UNL A   1      43.057  36.747  29.014  1.00  0.00    -0.237 OA
ATOM     75  O   UNL A   1      42.428  37.000  26.644  1.00  0.00    -0.744 OA
ENDBRANCH  68  72
ENDBRANCH  51  65
BRANCH  52  76
ATOM     76  C   UNL A   1      36.819  31.732  30.874  1.00  0.00     0.023 A 
ATOM     77  C   UNL A   1      36.038  32.429  31.824  1.00  0.00     0.031 A 
ATOM     78  C   UNL A   1      36.336  31.751  29.543  1.00  0.00     0.131 A 
ATOM     79  C   UNL A   1      34.849  33.093  31.433  1.00  0.00     0.055 A 
ATOM     80  C   UNL A   1      35.154  32.396  29.165  1.00  0.00     0.041 A 
ATOM     81  F   UNL A   1      37.037  31.220  28.532  1.00  0.00    -0.206 F 
ATOM     82  C   UNL A   1      34.410  33.079  30.108  1.00  0.00     0.022 A 
BRANCH  79  83
ATOM     83  S   UNL A   1      33.903  34.094  32.628  1.00  0.00     0.124 S 
ATOM     84  O   UNL A   1      33.160  33.075  33.360  1.00  0.00    -0.237 OA
ATOM     85  O   UNL A   1      34.955  34.784  33.365  1.00  0.00    -0.237 OA
ATOM     86  O   UNL A   1      33.087  34.959  31.775  1.00  0.00    -0.744 OA
ENDBRANCH  79  83
ENDBRANCH  52  76
BRANCH  64  87
ATOM     87  C   UNL A   1      42.365  30.609  33.869  1.00  0.00     0.023 A 
ATOM     88  C   UNL A   1      42.210  29.203  33.882  1.00  0.00     0.031 A 
ATOM     89  C   UNL A   1      42.580  31.252  35.102  1.00  0.00     0.131 A 
ATOM     90  C   UNL A   1      42.282  28.498  35.105  1.00  0.00     0.055 A 
ATOM     91  C   UNL A   1      42.673  30.550  36.302  1.00  0.00     0.041 A 
ATOM     92  F   UNL A   1      42.765  32.582  35.148  1.00  0.00    -0.206 F 
ATOM     93  C   UNL A   1      42.524  29.169  36.309  1.00  0.00     0.022 A 
BRANCH  90  94
ATOM     94  S   UNL A   1      42.099  26.683  35.151  1.00  0.00     0.124 S 
ATOM     95  O   UNL A   1      42.398  26.354  36.539  1.00  0.00    -0.237 OA
ATOM     96  O   UNL A   1      40.716  26.490  34.727  1.00  0.00    -0.237 OA
ATOM     97  O   UNL A   1      43.098  26.214  34.187  1.00  0.00    -0.744 OA
ENDBRANCH  90  94
ENDBRANCH  64  87
ENDBRANCH  38  39
ENDBRANCH  31  33
ENDBRANCH  30  31
ENDBRANCH  29  30
ENDBRANCH  28  29
ENDBRANCH  27  28
ENDBRANCH  26  27
ENDBRANCH  25  26
ENDBRANCH  24  25
ENDBRANCH   1  24
TORSDOF 27
ENDMDL
MODEL 2
REMARK VINA RESULT:      -9.5      1.575      2.501
REMARK SMILES Cc1cc(C)c2c(OCCCC(=O)OCCOCCOCCOCCOC(=O)c3ccc(-c4c5nc(c(-c6cc(S(=O)(=O)[O-])ccc6F)c6ccc([nH]6)c(-c6cc(S(=O)(=O)[O-])ccc6F)c6nc(c(-c7cc(S(=O)(=O)[O-])ccc7F)c7ccc4[nH]7)C=C6)C=C5)cc3)nsc2n1
REMARK SMILES IDX 19 1 18 2 17 3 16 4 15 5 14 6 12 7 13 8 11 9 10 10 9 11 8 12
REMARK SMILES IDX 7 13 1 14 2 15 3 16 95 17 4 18 94 19 5 20 6 21 93 22 92 23
REMARK SMILES IDX 20 24 21 25 22 26 23 27 24 28 25 29 26 30 27 31 28 32 29 33
REMARK SMILES IDX 30 34 91 35 31 36 90 37 32 38 33 39 34 40 84 41 35 42 89 43
REMARK SMILES IDX 83 44 85 45 36 46 88 47 82 48 81 49 37 51 69 52 49 53 68 54
REMARK SMILES IDX 50 55 53 56 67 57 86 58 51 59 52 60 66 62 87 63 54 64 38 65
REMARK SMILES IDX 39 66 47 67 40 68 46 69 48 70 45 71 41 72 42 73 43 74 44 75
REMARK SMILES IDX 70 76 71 77 79 78 72 79 78 80 80 81 77 82 73 83 74 84 75 85
REMARK SMILES IDX 76 86 55 87 56 88 64 89 57 90 63 91 65 92 62 93 58 94 59 95
REMARK SMILES IDX 60 96 61 97
REMARK H PARENT 85 50 53 61
REMARK Flexibility Score: inf
ROOT
ATOM      1  C   UNL A   1      39.222  22.043  26.132  1.00  0.00     0.188 C 
ENDROOT
BRANCH   1   2
ATOM      2  C   UNL A   1      38.400  21.032  25.292  1.00  0.00     0.188 C 
BRANCH   2   3
ATOM      3  O   UNL A   1      37.108  21.401  24.821  1.00  0.00    -0.376 OA
BRANCH   3   4
ATOM      4  C   UNL A   1      36.042  20.512  25.092  1.00  0.00     0.202 C 
BRANCH   4   5
ATOM      5  C   UNL A   1      34.677  20.911  24.542  1.00  0.00     0.261 C 
BRANCH   5   6
ATOM      6  O   UNL A   1      33.742  21.533  25.476  1.00  0.00    -0.463 OA
BRANCH   6   7
ATOM      7  C   UNL A   1      32.469  21.702  25.047  1.00  0.00     0.305 C 
ATOM      8  O   UNL A   1      31.540  20.992  25.430  1.00  0.00    -0.252 OA
BRANCH   7   9
ATOM      9  C   UNL A   1      32.206  22.783  23.993  1.00  0.00     0.126 C 
BRANCH   9  10
ATOM     10  C   UNL A   1      30.873  23.361  23.496  1.00  0.00     0.053 C 
BRANCH  10  11
ATOM     11  C   UNL A   1      30.408  24.814  23.709  1.00  0.00     0.232 C 
BRANCH  11  12
ATOM     12  O   UNL A   1      30.850  25.877  22.866  1.00  0.00    -0.477 OA
BRANCH  12  13
ATOM     13  C   UNL A   1      31.741  26.753  23.373  1.00  0.00     0.235 A 
ATOM     14  C   UNL A   1      31.508  31.160  26.656  1.00  0.00     0.067 C 
ATOM     15  C   UNL A   1      31.685  30.263  25.463  1.00  0.00     0.039 A 
ATOM     16  C   UNL A   1      30.707  30.234  24.477  1.00  0.00     0.027 A 
ATOM     17  N   UNL A   1      32.750  29.448  25.465  1.00  0.00    -0.240 NA
ATOM     18  C   UNL A   1      30.594  29.138  23.599  1.00  0.00    -0.034 A 
ATOM     19  C   UNL A   1      32.653  28.432  24.590  1.00  0.00     0.147 A 
ATOM     20  C   UNL A   1      29.402  29.063  22.679  1.00  0.00     0.045 C 
ATOM     21  C   UNL A   1      31.577  28.130  23.752  1.00  0.00     0.078 A 
ATOM     22  S   UNL A   1      33.867  27.252  24.423  1.00  0.00    -0.012 S 
ATOM     23  N   UNL A   1      32.943  26.202  23.537  1.00  0.00    -0.153 NA
ENDBRANCH  12  13
ENDBRANCH  11  12
ENDBRANCH  10  11
ENDBRANCH   9  10
ENDBRANCH   7   9
ENDBRANCH   6   7
ENDBRANCH   5   6
ENDBRANCH   4   5
ENDBRANCH   3   4
ENDBRANCH   2   3
ENDBRANCH   1   2
BRANCH   1  24
ATOM     24  O   UNL A   1      40.370  21.533  26.799  1.00  0.00    -0.377 OA
BRANCH  24  25
ATOM     25  C   UNL A   1      40.651  20.153  26.545  1.00  0.00     0.188 C 
BRANCH  25  26
ATOM     26  C   UNL A   1      42.130  19.777  26.266  1.00  0.00     0.188 C 
BRANCH  26  27
ATOM     27  O   UNL A   1      42.760  20.547  25.250  1.00  0.00    -0.376 OA
BRANCH  27  28
ATOM     28  C   UNL A   1      43.926  21.337  25.419  1.00  0.00     0.202 C 
BRANCH  28  29
ATOM     29  C   UNL A   1      43.810  22.862  25.367  1.00  0.00     0.261 C 
BRANCH  29  30
ATOM     30  O   UNL A   1      42.537  23.329  25.751  1.00  0.00    -0.460 OA
BRANCH  30  31
ATOM     31  C   UNL A   1      42.475  24.675  25.820  1.00  0.00     0.338 C 
ATOM     32  O   UNL A   1      43.050  25.481  25.116  1.00  0.00    -0.246 OA
BRANCH  31  33
ATOM     33  C   UNL A   1      41.604  25.030  26.936  1.00  0.00     0.060 A 
ATOM     34  C   UNL A   1      40.530  25.844  26.574  1.00  0.00     0.016 A 
ATOM     35  C   UNL A   1      42.263  25.103  28.166  1.00  0.00     0.016 A 
ATOM     36  C   UNL A   1      40.379  27.003  27.282  1.00  0.00     0.010 A 
ATOM     37  C   UNL A   1      42.170  26.292  28.817  1.00  0.00     0.010 A 
ATOM     38  C   UNL A   1      41.293  27.250  28.308  1.00  0.00    -0.014 A 
BRANCH  38  39
ATOM     39  C   UNL A   1      41.251  28.528  28.962  1.00  0.00     0.031 A 
ATOM     40  C   UNL A   1      42.378  29.365  28.514  1.00  0.00     0.074 A 
ATOM     41  C   UNL A   1      40.210  28.878  29.736  1.00  0.00     0.049 A 
ATOM     42  N   UNL A   1      43.442  29.666  29.177  1.00  0.00    -0.248 NA
ATOM     43  C   UNL A   1      42.476  29.651  27.068  1.00  0.00     0.031 C 
ATOM     44  C   UNL A   1      38.958  28.151  29.960  1.00  0.00     0.029 A 
ATOM     45  N   UNL A   1      40.008  30.038  30.401  1.00  0.00    -0.354 N 
ATOM     46  C   UNL A   1      44.189  30.429  28.293  1.00  0.00     0.074 A 
ATOM     47  C   UNL A   1      43.727  30.094  26.979  1.00  0.00     0.031 C 
ATOM     48  C   UNL A   1      38.051  28.997  30.503  1.00  0.00     0.029 A 
ATOM     49  C   UNL A   1      38.685  30.282  30.751  1.00  0.00     0.049 A 
ATOM     50  H   UNL A   1      40.739  30.660  30.620  1.00  0.00     0.167 HD
ATOM     51  C   UNL A   1      44.839  31.543  28.717  1.00  0.00     0.034 A 
ATOM     52  C   UNL A   1      38.168  31.491  31.101  1.00  0.00     0.034 A 
ATOM     53  C   UNL A   1      45.029  31.515  30.149  1.00  0.00     0.049 A 
ATOM     54  C   UNL A   1      39.331  32.335  31.509  1.00  0.00     0.074 A 
ATOM     55  C   UNL A   1      45.626  30.614  31.012  1.00  0.00     0.029 A 
ATOM     56  N   UNL A   1      44.183  32.277  30.925  1.00  0.00    -0.354 N 
ATOM     57  N   UNL A   1      40.093  32.062  32.538  1.00  0.00    -0.248 NA
ATOM     58  C   UNL A   1      39.958  33.166  30.488  1.00  0.00     0.031 C 
ATOM     59  C   UNL A   1      44.771  30.565  32.149  1.00  0.00     0.029 A 
ATOM     60  C   UNL A   1      43.745  31.498  31.971  1.00  0.00     0.049 A 
ATOM     61  H   UNL A   1      43.937  33.216  30.762  1.00  0.00     0.167 HD
ATOM     62  C   UNL A   1      41.390  32.320  32.113  1.00  0.00     0.074 A 
ATOM     63  C   UNL A   1      41.236  33.075  30.869  1.00  0.00     0.031 C 
ATOM     64  C   UNL A   1      42.459  31.645  32.634  1.00  0.00     0.034 A 
BRANCH  51  65
ATOM     65  C   UNL A   1      44.954  32.793  27.881  1.00  0.00     0.023 A 
ATOM     66  C   UNL A   1      44.132  33.875  28.227  1.00  0.00     0.031 A 
ATOM     67  C   UNL A   1      45.635  32.910  26.642  1.00  0.00     0.131 A 
ATOM     68  C   UNL A   1      43.983  34.968  27.357  1.00  0.00     0.055 A 
ATOM     69  C   UNL A   1      45.539  34.029  25.816  1.00  0.00     0.041 A 
ATOM     70  F   UNL A   1      46.357  31.921  26.103  1.00  0.00    -0.206 F 
ATOM     71  C   UNL A   1      44.689  35.060  26.160  1.00  0.00     0.022 A 
BRANCH  68  72
ATOM     72  S   UNL A   1      42.741  36.216  27.761  1.00  0.00     0.124 S 
ATOM     73  O   UNL A   1      41.667  35.396  28.310  1.00  0.00    -0.237 OA
ATOM     74  O   UNL A   1      43.461  37.057  28.712  1.00  0.00    -0.237 OA
ATOM     75  O   UNL A   1      42.457  36.839  26.471  1.00  0.00    -0.744 OA
ENDBRANCH  68  72
ENDBRANCH  51  65
BRANCH  52  76
ATOM     76  C   UNL A   1      36.822  32.044  30.744  1.00  0.00     0.023 A 
ATOM     77  C   UNL A   1      36.006  32.713  31.683  1.00  0.00     0.031 A 
ATOM     78  C   UNL A   1      36.405  32.125  29.393  1.00  0.00     0.131 A 
ATOM     79  C   UNL A   1      34.847  33.412  31.263  1.00  0.00     0.055 A 
ATOM     80  C   UNL A   1      35.252  32.803  28.986  1.00  0.00     0.041 A 
ATOM     81  F   UNL A   1      37.148  31.624  28.396  1.00  0.00    -0.206 F 
ATOM     82  C   UNL A   1      34.472  33.459  29.919  1.00  0.00     0.022 A 
BRANCH  79  83
ATOM     83  S   UNL A   1      33.857  34.378  32.451  1.00  0.00     0.124 S 
ATOM     84  O   UNL A   1      33.293  33.335  33.299  1.00  0.00    -0.237 OA
ATOM     85  O   UNL A   1      34.858  35.243  33.066  1.00  0.00    -0.237 OA
ATOM     86  O   UNL A   1      32.890  35.074  31.602  1.00  0.00    -0.744 OA
ENDBRANCH  79  83
ENDBRANCH  52  76
BRANCH  64  87
ATOM     87  C   UNL A   1      42.261  30.823  33.895  1.00  0.00     0.023 A 
ATOM     88  C   UNL A   1      41.979  29.437  33.932  1.00  0.00     0.031 A 
ATOM     89  C   UNL A   1      42.555  31.462  35.113  1.00  0.00     0.131 A 
ATOM     90  C   UNL A   1      42.008  28.747  35.165  1.00  0.00     0.055 A 
ATOM     91  C   UNL A   1      42.606  30.772  36.322  1.00  0.00     0.041 A 
ATOM     92  F   UNL A   1      42.861  32.770  35.135  1.00  0.00    -0.206 F 
ATOM     93  C   UNL A   1      42.332  29.411  36.354  1.00  0.00     0.022 A 
BRANCH  90  94
ATOM     94  S   UNL A   1      41.663  26.957  35.243  1.00  0.00     0.124 S 
ATOM     95  O   UNL A   1      42.984  26.357  35.100  1.00  0.00    -0.237 OA
ATOM     96  O   UNL A   1      41.028  26.810  36.550  1.00  0.00    -0.237 OA
ATOM     97  O   UNL A   1      40.766  26.731  34.107  1.00  0.00    -0.744 OA
ENDBRANCH  90  94
ENDBRANCH  64  87
ENDBRANCH  38  39
ENDBRANCH  31  33
ENDBRANCH  30  31
ENDBRANCH  29  30
ENDBRANCH  28  29
ENDBRANCH  27  28
ENDBRANCH  26  27
ENDBRANCH  25  26
ENDBRANCH  24  25
ENDBRANCH   1  24
TORSDOF 27
ENDMDL
MODEL 3
REMARK VINA RESULT:      -9.3      2.235      2.888
REMARK SMILES Cc1cc(C)c2c(OCCCC(=O)OCCOCCOCCOCCOC(=O)c3ccc(-c4c5nc(c(-c6cc(S(=O)(=O)[O-])ccc6F)c6ccc([nH]6)c(-c6cc(S(=O)(=O)[O-])ccc6F)c6nc(c(-c7cc(S(=O)(=O)[O-])ccc7F)c7ccc4[nH]7)C=C6)C=C5)cc3)nsc2n1
REMARK SMILES IDX 19 1 18 2 17 3 16 4 15 5 14 6 12 7 13 8 11 9 10 10 9 11 8 12
REMARK SMILES IDX 7 13 1 14 2 15 3 16 95 17 4 18 94 19 5 20 6 21 93 22 92 23
REMARK SMILES IDX 20 24 21 25 22 26 23 27 24 28 25 29 26 30 27 31 28 32 29 33
REMARK SMILES IDX 30 34 91 35 31 36 90 37 32 38 33 39 34 40 84 41 35 42 89 43
REMARK SMILES IDX 83 44 85 45 36 46 88 47 82 48 81 49 37 51 69 52 49 53 68 54
REMARK SMILES IDX 50 55 53 56 67 57 86 58 51 59 52 60 66 62 87 63 54 64 38 65
REMARK SMILES IDX 39 66 47 67 40 68 46 69 48 70 45 71 41 72 42 73 43 74 44 75
REMARK SMILES IDX 70 76 71 77 79 78 72 79 78 80 80 81 77 82 73 83 74 84 75 85
REMARK SMILES IDX 76 86 55 87 56 88 64 89 57 90 63 91 65 92 62 93 58 94 59 95
REMARK SMILES IDX 60 96 61 97
REMARK H PARENT 85 50 53 61
REMARK Flexibility Score: inf
ROOT
ATOM      1  C   UNL A   1      39.414  22.194  26.503  1.00  0.00     0.188 C 
ENDROOT
BRANCH   1   2
ATOM      2  C   UNL A   1      38.688  21.279  25.483  1.00  0.00     0.188 C 
BRANCH   2   3
ATOM      3  O   UNL A   1      37.450  21.701  24.921  1.00  0.00    -0.376 OA
BRANCH   3   4
ATOM      4  C   UNL A   1      36.280  21.039  25.361  1.00  0.00     0.202 C 
BRANCH   4   5
ATOM      5  C   UNL A   1      35.065  21.922  25.620  1.00  0.00     0.261 C 
BRANCH   5   6
ATOM      6  O   UNL A   1      34.765  22.247  27.012  1.00  0.00    -0.463 OA
BRANCH   6   7
ATOM      7  C   UNL A   1      33.504  22.657  27.287  1.00  0.00     0.305 C 
ATOM      8  O   UNL A   1      32.888  22.285  28.286  1.00  0.00    -0.252 OA
BRANCH   7   9
ATOM      9  C   UNL A   1      32.811  23.570  26.270  1.00  0.00     0.126 C 
BRANCH   9  10
ATOM     10  C   UNL A   1      32.749  25.103  26.213  1.00  0.00     0.053 C 
BRANCH  10  11
ATOM     11  C   UNL A   1      33.908  26.016  25.769  1.00  0.00     0.232 C 
BRANCH  11  12
ATOM     12  O   UNL A   1      34.044  26.455  24.418  1.00  0.00    -0.477 OA
BRANCH  12  13
ATOM     13  C   UNL A   1      32.931  26.508  23.659  1.00  0.00     0.235 A 
ATOM     14  C   UNL A   1      29.512  30.463  21.949  1.00  0.00     0.067 C 
ATOM     15  C   UNL A   1      30.087  29.261  22.643  1.00  0.00     0.039 A 
ATOM     16  C   UNL A   1      30.430  29.344  23.987  1.00  0.00     0.027 A 
ATOM     17  N   UNL A   1      30.339  28.182  21.887  1.00  0.00    -0.240 NA
ATOM     18  C   UNL A   1      31.349  28.443  24.559  1.00  0.00    -0.034 A 
ATOM     19  C   UNL A   1      31.180  27.305  22.462  1.00  0.00     0.147 A 
ATOM     20  C   UNL A   1      31.834  28.693  25.964  1.00  0.00     0.045 C 
ATOM     21  C   UNL A   1      31.826  27.427  23.694  1.00  0.00     0.078 A 
ATOM     22  S   UNL A   1      31.670  25.870  21.691  1.00  0.00    -0.012 S 
ATOM     23  N   UNL A   1      32.907  25.542  22.742  1.00  0.00    -0.153 NA
ENDBRANCH  12  13
ENDBRANCH  11  12
ENDBRANCH  10  11
ENDBRANCH   9  10
ENDBRANCH   7   9
ENDBRANCH   6   7
ENDBRANCH   5   6
ENDBRANCH   4   5
ENDBRANCH   3   4
ENDBRANCH   2   3
ENDBRANCH   1   2
BRANCH   1  24
ATOM     24  O   UNL A   1      40.582  21.666  27.115  1.00  0.00    -0.377 OA
BRANCH  24  25
ATOM     25  C   UNL A   1      40.756  20.253  26.966  1.00  0.00     0.188 C 
BRANCH  25  26
ATOM     26  C   UNL A   1      42.109  19.768  26.382  1.00  0.00     0.188 C 
BRANCH  26  27
ATOM     27  O   UNL A   1      42.670  20.620  25.391  1.00  0.00    -0.376 OA
BRANCH  27  28
ATOM     28  C   UNL A   1      43.899  21.318  25.507  1.00  0.00     0.202 C 
BRANCH  28  29
ATOM     29  C   UNL A   1      43.905  22.845  25.400  1.00  0.00     0.261 C 
BRANCH  29  30
ATOM     30  O   UNL A   1      42.615  23.405  25.476  1.00  0.00    -0.460 OA
BRANCH  30  31
ATOM     31  C   UNL A   1      42.637  24.738  25.677  1.00  0.00     0.338 C 
ATOM     32  O   UNL A   1      43.267  25.572  25.057  1.00  0.00    -0.246 OA
BRANCH  31  33
ATOM     33  C   UNL A   1      41.783  25.036  26.823  1.00  0.00     0.060 A 
ATOM     34  C   UNL A   1      40.770  25.955  26.545  1.00  0.00     0.016 A 
ATOM     35  C   UNL A   1      42.434  24.937  28.054  1.00  0.00     0.016 A 
ATOM     36  C   UNL A   1      40.692  27.042  27.369  1.00  0.00     0.010 A 
ATOM     37  C   UNL A   1      42.416  26.056  28.825  1.00  0.00     0.010 A 
ATOM     38  C   UNL A   1      41.611  27.119  28.417  1.00  0.00    -0.014 A 
BRANCH  38  39
ATOM     39  C   UNL A   1      41.651  28.323  29.198  1.00  0.00     0.031 A 
ATOM     40  C   UNL A   1      42.797  29.155  28.793  1.00  0.00     0.074 A 
ATOM     41  C   UNL A   1      40.656  28.633  30.046  1.00  0.00     0.049 A 
ATOM     42  N   UNL A   1      43.897  29.341  29.440  1.00  0.00    -0.248 NA
ATOM     43  C   UNL A   1      42.856  29.585  27.381  1.00  0.00     0.031 C 
ATOM     44  C   UNL A   1      39.381  27.939  30.246  1.00  0.00     0.029 A 
ATOM     45  N   UNL A   1      40.530  29.725  30.833  1.00  0.00    -0.354 N 
ATOM     46  C   UNL A   1      44.646  30.161  28.608  1.00  0.00     0.074 A 
ATOM     47  C   UNL A   1      44.122  29.984  27.286  1.00  0.00     0.031 C 
ATOM     48  C   UNL A   1      38.534  28.760  30.909  1.00  0.00     0.029 A 
ATOM     49  C   UNL A   1      39.234  29.986  31.260  1.00  0.00     0.049 A 
ATOM     50  H   UNL A   1      41.296  30.290  31.085  1.00  0.00     0.167 HD
ATOM     51  C   UNL A   1      45.360  31.196  29.117  1.00  0.00     0.034 A 
ATOM     52  C   UNL A   1      38.784  31.172  31.753  1.00  0.00     0.034 A 
ATOM     53  C   UNL A   1      45.600  31.012  30.529  1.00  0.00     0.049 A 
ATOM     54  C   UNL A   1      39.998  31.920  32.198  1.00  0.00     0.074 A 
ATOM     55  C   UNL A   1      46.188  30.003  31.271  1.00  0.00     0.029 A 
ATOM     56  N   UNL A   1      44.819  31.724  31.414  1.00  0.00    -0.354 N 
ATOM     57  N   UNL A   1      40.784  31.511  33.161  1.00  0.00    -0.248 NA
ATOM     58  C   UNL A   1      40.625  32.827  31.242  1.00  0.00     0.031 C 
ATOM     59  C   UNL A   1      45.373  29.871  32.431  1.00  0.00     0.029 A 
ATOM     60  C   UNL A   1      44.384  30.859  32.391  1.00  0.00     0.049 A 
ATOM     61  H   UNL A   1      44.610  32.684  31.357  1.00  0.00     0.167 HD
ATOM     62  C   UNL A   1      42.076  31.758  32.712  1.00  0.00     0.074 A 
ATOM     63  C   UNL A   1      41.910  32.644  31.560  1.00  0.00     0.031 C 
ATOM     64  C   UNL A   1      43.131  30.989  33.117  1.00  0.00     0.034 A 
BRANCH  51  65
ATOM     65  C   UNL A   1      45.501  32.521  28.409  1.00  0.00     0.023 A 
ATOM     66  C   UNL A   1      44.663  32.754  27.309  1.00  0.00     0.031 A 
ATOM     67  C   UNL A   1      46.548  33.461  28.595  1.00  0.00     0.131 A 
ATOM     68  C   UNL A   1      44.903  33.833  26.442  1.00  0.00     0.055 A 
ATOM     69  C   UNL A   1      46.738  34.571  27.773  1.00  0.00     0.041 A 
ATOM     70  F   UNL A   1      47.508  33.320  29.516  1.00  0.00    -0.206 F 
ATOM     71  C   UNL A   1      45.926  34.751  26.672  1.00  0.00     0.022 A 
BRANCH  68  72
ATOM     72  S   UNL A   1      43.927  33.944  24.926  1.00  0.00     0.124 S 
ATOM     73  O   UNL A   1      43.459  32.570  24.778  1.00  0.00    -0.237 OA
ATOM     74  O   UNL A   1      42.919  34.933  25.291  1.00  0.00    -0.237 OA
ATOM     75  O   UNL A   1      44.900  34.385  23.930  1.00  0.00    -0.744 OA
ENDBRANCH  68  72
ENDBRANCH  51  65
BRANCH  52  76
ATOM     76  C   UNL A   1      37.453  31.814  31.510  1.00  0.00     0.023 A 
ATOM     77  C   UNL A   1      36.930  32.000  30.210  1.00  0.00     0.031 A 
ATOM     78  C   UNL A   1      36.555  32.052  32.578  1.00  0.00     0.131 A 
ATOM     79  C   UNL A   1      35.584  32.404  30.026  1.00  0.00     0.055 A 
ATOM     80  C   UNL A   1      35.232  32.464  32.391  1.00  0.00     0.041 A 
ATOM     81  F   UNL A   1      36.896  31.808  33.851  1.00  0.00    -0.206 F 
ATOM     82  C   UNL A   1      34.737  32.632  31.112  1.00  0.00     0.022 A 
BRANCH  79  83
ATOM     83  S   UNL A   1      34.868  32.529  28.354  1.00  0.00     0.124 S 
ATOM     84  O   UNL A   1      34.532  31.140  28.060  1.00  0.00    -0.237 OA
ATOM     85  O   UNL A   1      33.745  33.438  28.557  1.00  0.00    -0.237 OA
ATOM     86  O   UNL A   1      35.962  33.081  27.555  1.00  0.00    -0.744 OA
ENDBRANCH  79  83
ENDBRANCH  52  76
BRANCH  64  87
ATOM     87  C   UNL A   1      42.942  30.049  34.295  1.00  0.00     0.023 A 
ATOM     88  C   UNL A   1      42.542  28.695  34.205  1.00  0.00     0.031 A 
ATOM     89  C   UNL A   1      43.368  30.522  35.549  1.00  0.00     0.131 A 
ATOM     90  C   UNL A   1      42.589  27.871  35.352  1.00  0.00     0.055 A 
ATOM     91  C   UNL A   1      43.435  29.699  36.672  1.00  0.00     0.041 A 
ATOM     92  F   UNL A   1      43.789  31.790  35.688  1.00  0.00    -0.206 F 
ATOM     93  C   UNL A   1      43.045  28.369  36.578  1.00  0.00     0.022 A 
BRANCH  90  94
ATOM     94  S   UNL A   1      42.093  26.117  35.264  1.00  0.00     0.124 S 
ATOM     95  O   UNL A   1      40.727  26.183  34.759  1.00  0.00    -0.237 OA
ATOM     96  O   UNL A   1      43.087  25.548  34.358  1.00  0.00    -0.237 OA
ATOM     97  O   UNL A   1      42.206  25.658  36.650  1.00  0.00    -0.744 OA
ENDBRANCH  90  94
ENDBRANCH  64  87
ENDBRANCH  38  39
ENDBRANCH  31  33
ENDBRANCH  30  31
ENDBRANCH  29  30
ENDBRANCH  28  29
ENDBRANCH  27  28
ENDBRANCH  26  27
ENDBRANCH  25  26
ENDBRANCH  24  25
ENDBRANCH   1  24
TORSDOF 27
ENDMDL
