MODEL 1
REMARK VINA RESULT:     -10.0      0.000      0.000
REMARK SMILES C[C@@H]1Cc2ccccc2N1c1ccc(F)cc1C(=O)OCCOCCOCCOCCOC(=O)c1ccc(-c2c3nc(c(-c4cc(S(=O)(=O)[O-])ccc4F)c4ccc([nH]4)c(-c4cc(S(=O)(=O)[O-])ccc4F)c4nc(c(-c5cc(S(=O)(=O)[O-])ccc5F)c5ccc2[nH]5)C=C4)C=C3)cc1
REMARK SMILES IDX 27 1 26 2 25 3 24 4 23 5 22 6 21 7 20 8 18 9 19 10 17 11
REMARK SMILES IDX 11 12 12 13 13 14 16 15 14 16 15 17 10 18 1 19 2 20 3 21
REMARK SMILES IDX 4 22 9 23 5 24 8 25 6 26 7 27 28 28 29 29 30 30 31 31 32 32
REMARK SMILES IDX 33 33 34 34 35 35 36 36 97 37 37 38 96 39 38 40 39 41 40 42
REMARK SMILES IDX 90 43 41 44 95 45 89 46 91 47 42 48 94 49 88 50 87 51 43 53
REMARK SMILES IDX 75 54 55 55 74 56 56 57 59 58 73 59 92 60 57 61 58 62 72 64
REMARK SMILES IDX 93 65 60 66 44 67 45 68 53 69 46 70 52 71 54 72 51 73 47 74
REMARK SMILES IDX 48 75 49 76 50 77 76 78 77 79 85 80 78 81 84 82 86 83 83 84
REMARK SMILES IDX 79 85 80 86 81 87 82 88 61 89 62 90 70 91 63 92 69 93 71 94
REMARK SMILES IDX 68 95 64 96 65 97 66 98 67 99
REMARK H PARENT 91 52 59 63
REMARK Flexibility Score: inf
ROOT
ATOM      1  C   UNL A   1      31.164  29.249  23.617  1.00  0.00     0.188 C 
ENDROOT
BRANCH   1   2
ATOM      2  O   UNL A   1      31.178  27.846  23.840  1.00  0.00    -0.377 OA
BRANCH   2   3
ATOM      3  C   UNL A   1      29.981  27.177  23.478  1.00  0.00     0.188 C 
BRANCH   3   4
ATOM      4  C   UNL A   1      29.418  26.212  24.532  1.00  0.00     0.188 C 
BRANCH   4   5
ATOM      5  O   UNL A   1      30.303  25.135  24.841  1.00  0.00    -0.376 OA
BRANCH   5   6
ATOM      6  C   UNL A   1      31.082  25.267  26.025  1.00  0.00     0.202 C 
BRANCH   6   7
ATOM      7  C   UNL A   1      32.567  24.990  25.806  1.00  0.00     0.261 C 
BRANCH   7   8
ATOM      8  O   UNL A   1      33.187  24.341  26.924  1.00  0.00    -0.460 OA
BRANCH   8   9
ATOM      9  C   UNL A   1      33.671  23.099  26.743  1.00  0.00     0.340 C 
ATOM     10  O   UNL A   1      33.207  22.077  27.227  1.00  0.00    -0.246 OA
BRANCH   9  11
ATOM     11  C   UNL A   1      34.762  23.100  25.729  1.00  0.00     0.086 A 
ATOM     12  C   UNL A   1      34.679  22.565  24.419  1.00  0.00     0.056 A 
ATOM     13  C   UNL A   1      35.831  22.676  23.605  1.00  0.00     0.030 A 
ATOM     14  C   UNL A   1      37.038  23.185  24.089  1.00  0.00     0.041 A 
ATOM     15  C   UNL A   1      35.983  23.618  26.207  1.00  0.00     0.057 A 
ATOM     16  C   UNL A   1      37.107  23.629  25.397  1.00  0.00     0.124 A 
ATOM     17  F   UNL A   1      38.276  24.060  25.889  1.00  0.00    -0.207 F 
BRANCH  12  18
ATOM     18  N   UNL A   1      33.584  21.832  23.930  1.00  0.00    -0.337 N 
ATOM     19  C   UNL A   1      32.171  23.548  22.677  1.00  0.00     0.032 C 
ATOM     20  C   UNL A   1      32.888  22.207  22.658  1.00  0.00     0.089 C 
ATOM     21  C   UNL A   1      31.860  21.081  22.359  1.00  0.00     0.063 C 
ATOM     22  C   UNL A   1      32.489  19.932  23.062  1.00  0.00    -0.022 A 
ATOM     23  C   UNL A   1      33.438  20.406  23.968  1.00  0.00     0.045 A 
ATOM     24  C   UNL A   1      32.202  18.582  22.928  1.00  0.00     0.006 A 
ATOM     25  C   UNL A   1      34.120  19.502  24.776  1.00  0.00     0.026 A 
ATOM     26  C   UNL A   1      32.918  17.675  23.708  1.00  0.00     0.000 A 
ATOM     27  C   UNL A   1      33.872  18.132  24.627  1.00  0.00     0.002 A 
ENDBRANCH  12  18
ENDBRANCH   9  11
ENDBRANCH   8   9
ENDBRANCH   7   8
ENDBRANCH   6   7
ENDBRANCH   5   6
ENDBRANCH   4   5
ENDBRANCH   3   4
ENDBRANCH   2   3
ENDBRANCH   1   2
BRANCH   1  28
ATOM     28  C   UNL A   1      30.805  30.087  24.864  1.00  0.00     0.188 C 
BRANCH  28  29
ATOM     29  O   UNL A   1      31.404  29.875  26.143  1.00  0.00    -0.376 OA
BRANCH  29  30
ATOM     30  C   UNL A   1      32.431  30.725  26.617  1.00  0.00     0.202 C 
BRANCH  30  31
ATOM     31  C   UNL A   1      32.059  32.167  26.987  1.00  0.00     0.261 C 
BRANCH  31  32
ATOM     32  O   UNL A   1      33.113  33.129  26.882  1.00  0.00    -0.460 OA
BRANCH  32  33
ATOM     33  C   UNL A   1      33.543  33.650  28.059  1.00  0.00     0.338 C 
ATOM     34  O   UNL A   1      32.973  34.479  28.747  1.00  0.00    -0.246 OA
BRANCH  33  35
ATOM     35  C   UNL A   1      34.773  32.938  28.472  1.00  0.00     0.060 A 
ATOM     36  C   UNL A   1      36.032  33.528  28.336  1.00  0.00     0.016 A 
ATOM     37  C   UNL A   1      34.651  31.649  29.008  1.00  0.00     0.016 A 
ATOM     38  C   UNL A   1      37.167  32.841  28.777  1.00  0.00     0.010 A 
ATOM     39  C   UNL A   1      35.787  30.954  29.425  1.00  0.00     0.010 A 
ATOM     40  C   UNL A   1      37.049  31.560  29.343  1.00  0.00    -0.014 A 
BRANCH  40  41
ATOM     41  C   UNL A   1      38.198  30.957  30.058  1.00  0.00     0.031 A 
ATOM     42  C   UNL A   1      39.137  29.998  29.398  1.00  0.00     0.074 A 
ATOM     43  C   UNL A   1      38.358  31.293  31.354  1.00  0.00     0.049 A 
ATOM     44  N   UNL A   1      40.232  29.470  29.881  1.00  0.00    -0.248 NA
ATOM     45  C   UNL A   1      38.814  29.572  28.030  1.00  0.00     0.031 C 
ATOM     46  C   UNL A   1      37.473  32.195  32.092  1.00  0.00     0.029 A 
ATOM     47  N   UNL A   1      39.307  30.929  32.275  1.00  0.00    -0.354 N 
ATOM     48  C   UNL A   1      40.746  28.664  28.874  1.00  0.00     0.074 A 
ATOM     49  C   UNL A   1      39.816  28.739  27.766  1.00  0.00     0.031 C 
ATOM     50  C   UNL A   1      37.934  32.337  33.342  1.00  0.00     0.029 A 
ATOM     51  C   UNL A   1      39.133  31.521  33.505  1.00  0.00     0.049 A 
ATOM     52  H   UNL A   1      40.041  30.305  32.076  1.00  0.00     0.167 HD
ATOM     53  C   UNL A   1      41.897  27.950  28.880  1.00  0.00     0.034 A 
ATOM     54  C   UNL A   1      39.865  31.432  34.633  1.00  0.00     0.034 A 
ATOM     55  C   UNL A   1      42.797  27.883  30.008  1.00  0.00     0.049 A 
ATOM     56  C   UNL A   1      41.121  30.603  34.616  1.00  0.00     0.074 A 
ATOM     57  C   UNL A   1      44.015  27.228  30.090  1.00  0.00     0.029 A 
ATOM     58  N   UNL A   1      42.583  28.473  31.246  1.00  0.00    -0.354 N 
ATOM     59  N   UNL A   1      41.659  29.943  33.617  1.00  0.00    -0.248 NA
ATOM     60  C   UNL A   1      41.883  30.516  35.869  1.00  0.00     0.031 C 
ATOM     61  C   UNL A   1      44.501  27.366  31.390  1.00  0.00     0.029 A 
ATOM     62  C   UNL A   1      43.628  28.170  32.104  1.00  0.00     0.049 A 
ATOM     63  H   UNL A   1      41.802  29.026  31.481  1.00  0.00     0.167 HD
ATOM     64  C   UNL A   1      42.837  29.392  34.112  1.00  0.00     0.074 A 
ATOM     65  C   UNL A   1      42.944  29.814  35.492  1.00  0.00     0.031 C 
ATOM     66  C   UNL A   1      43.744  28.608  33.477  1.00  0.00     0.034 A 
BRANCH  53  67
ATOM     67  C   UNL A   1      42.306  27.204  27.634  1.00  0.00     0.023 A 
ATOM     68  C   UNL A   1      42.106  25.813  27.541  1.00  0.00     0.031 A 
ATOM     69  C   UNL A   1      43.064  27.836  26.631  1.00  0.00     0.131 A 
ATOM     70  C   UNL A   1      42.703  25.092  26.499  1.00  0.00     0.055 A 
ATOM     71  C   UNL A   1      43.626  27.118  25.575  1.00  0.00     0.041 A 
ATOM     72  F   UNL A   1      43.283  29.161  26.674  1.00  0.00    -0.206 F 
ATOM     73  C   UNL A   1      43.460  25.738  25.515  1.00  0.00     0.022 A 
BRANCH  70  74
ATOM     74  S   UNL A   1      42.584  23.284  26.415  1.00  0.00     0.124 S 
ATOM     75  O   UNL A   1      43.892  22.874  26.923  1.00  0.00    -0.237 OA
ATOM     76  O   UNL A   1      41.457  23.012  27.302  1.00  0.00    -0.237 OA
ATOM     77  O   UNL A   1      42.357  23.014  24.999  1.00  0.00    -0.744 OA
ENDBRANCH  70  74
ENDBRANCH  53  67
BRANCH  54  78
ATOM     78  C   UNL A   1      39.466  32.233  35.827  1.00  0.00     0.023 A 
ATOM     79  C   UNL A   1      38.694  31.673  36.860  1.00  0.00     0.031 A 
ATOM     80  C   UNL A   1      39.769  33.604  35.896  1.00  0.00     0.131 A 
ATOM     81  C   UNL A   1      38.206  32.492  37.887  1.00  0.00     0.055 A 
ATOM     82  C   UNL A   1      39.337  34.402  36.955  1.00  0.00     0.041 A 
ATOM     83  F   UNL A   1      40.487  34.187  34.923  1.00  0.00    -0.206 F 
ATOM     84  C   UNL A   1      38.536  33.849  37.949  1.00  0.00     0.022 A 
BRANCH  81  85
ATOM     85  S   UNL A   1      37.020  31.853  39.102  1.00  0.00     0.124 S 
ATOM     86  O   UNL A   1      37.706  32.118  40.363  1.00  0.00    -0.237 OA
ATOM     87  O   UNL A   1      35.845  32.680  38.838  1.00  0.00    -0.237 OA
ATOM     88  O   UNL A   1      36.882  30.446  38.742  1.00  0.00    -0.744 OA
ENDBRANCH  81  85
ENDBRANCH  54  78
BRANCH  66  89
ATOM     89  C   UNL A   1      44.959  28.142  34.243  1.00  0.00     0.023 A 
ATOM     90  C   UNL A   1      44.896  26.968  35.018  1.00  0.00     0.031 A 
ATOM     91  C   UNL A   1      46.120  28.931  34.328  1.00  0.00     0.131 A 
ATOM     92  C   UNL A   1      45.952  26.639  35.876  1.00  0.00     0.055 A 
ATOM     93  C   UNL A   1      47.192  28.572  35.145  1.00  0.00     0.041 A 
ATOM     94  F   UNL A   1      46.226  30.066  33.617  1.00  0.00    -0.206 F 
ATOM     95  C   UNL A   1      47.104  27.430  35.937  1.00  0.00     0.022 A 
BRANCH  92  96
ATOM     96  S   UNL A   1      45.834  25.229  37.012  1.00  0.00     0.124 S 
ATOM     97  O   UNL A   1      46.338  24.134  36.187  1.00  0.00    -0.237 OA
ATOM     98  O   UNL A   1      46.711  25.641  38.105  1.00  0.00    -0.237 OA
ATOM     99  O   UNL A   1      44.414  25.159  37.340  1.00  0.00    -0.744 OA
ENDBRANCH  92  96
ENDBRANCH  66  89
ENDBRANCH  40  41
ENDBRANCH  33  35
ENDBRANCH  32  33
ENDBRANCH  31  32
ENDBRANCH  30  31
ENDBRANCH  29  30
ENDBRANCH  28  29
ENDBRANCH   1  28
TORSDOF 24
ENDMDL
MODEL 2
REMARK VINA RESULT:      -9.4      5.725      9.355
REMARK SMILES C[C@@H]1Cc2ccccc2N1c1ccc(F)cc1C(=O)OCCOCCOCCOCCOC(=O)c1ccc(-c2c3nc(c(-c4cc(S(=O)(=O)[O-])ccc4F)c4ccc([nH]4)c(-c4cc(S(=O)(=O)[O-])ccc4F)c4nc(c(-c5cc(S(=O)(=O)[O-])ccc5F)c5ccc2[nH]5)C=C4)C=C3)cc1
REMARK SMILES IDX 27 1 26 2 25 3 24 4 23 5 22 6 21 7 20 8 18 9 19 10 17 11
REMARK SMILES IDX 11 12 12 13 13 14 16 15 14 16 15 17 10 18 1 19 2 20 3 21
REMARK SMILES IDX 4 22 9 23 5 24 8 25 6 26 7 27 28 28 29 29 30 30 31 31 32 32
REMARK SMILES IDX 33 33 34 34 35 35 36 36 97 37 37 38 96 39 38 40 39 41 40 42
REMARK SMILES IDX 90 43 41 44 95 45 89 46 91 47 42 48 94 49 88 50 87 51 43 53
REMARK SMILES IDX 75 54 55 55 74 56 56 57 59 58 73 59 92 60 57 61 58 62 72 64
REMARK SMILES IDX 93 65 60 66 44 67 45 68 53 69 46 70 52 71 54 72 51 73 47 74
REMARK SMILES IDX 48 75 49 76 50 77 76 78 77 79 85 80 78 81 84 82 86 83 83 84
REMARK SMILES IDX 79 85 80 86 81 87 82 88 61 89 62 90 70 91 63 92 69 93 71 94
REMARK SMILES IDX 68 95 64 96 65 97 66 98 67 99
REMARK H PARENT 91 52 59 63
REMARK Flexibility Score: inf
ROOT
ATOM      1  C   UNL A   1      32.825  30.123  27.154  1.00  0.00     0.188 C 
ENDROOT
BRANCH   1   2
ATOM      2  O   UNL A   1      33.354  29.614  25.938  1.00  0.00    -0.377 OA
BRANCH   2   3
ATOM      3  C   UNL A   1      32.601  28.559  25.361  1.00  0.00     0.188 C 
BRANCH   3   4
ATOM      4  C   UNL A   1      31.695  28.958  24.187  1.00  0.00     0.188 C 
BRANCH   4   5
ATOM      5  O   UNL A   1      31.866  28.130  23.036  1.00  0.00    -0.376 OA
BRANCH   5   6
ATOM      6  C   UNL A   1      33.194  27.986  22.545  1.00  0.00     0.202 C 
BRANCH   6   7
ATOM      7  C   UNL A   1      33.463  26.617  21.922  1.00  0.00     0.261 C 
BRANCH   7   8
ATOM      8  O   UNL A   1      32.514  25.622  22.326  1.00  0.00    -0.460 OA
BRANCH   8   9
ATOM      9  C   UNL A   1      32.985  24.489  22.876  1.00  0.00     0.340 C 
ATOM     10  O   UNL A   1      33.864  23.782  22.406  1.00  0.00    -0.246 OA
BRANCH   9  11
ATOM     11  C   UNL A   1      32.413  24.285  24.236  1.00  0.00     0.086 A 
ATOM     12  C   UNL A   1      32.883  23.365  25.206  1.00  0.00     0.056 A 
ATOM     13  C   UNL A   1      32.201  23.334  26.446  1.00  0.00     0.030 A 
ATOM     14  C   UNL A   1      31.049  24.087  26.681  1.00  0.00     0.041 A 
ATOM     15  C   UNL A   1      31.252  25.046  24.485  1.00  0.00     0.057 A 
ATOM     16  C   UNL A   1      30.572  24.918  25.685  1.00  0.00     0.124 A 
ATOM     17  F   UNL A   1      29.432  25.596  25.878  1.00  0.00    -0.207 F 
BRANCH  12  18
ATOM     18  N   UNL A   1      33.887  22.410  24.972  1.00  0.00    -0.337 N 
ATOM     19  C   UNL A   1      36.058  23.596  25.596  1.00  0.00     0.032 C 
ATOM     20  C   UNL A   1      35.154  22.385  25.770  1.00  0.00     0.089 C 
ATOM     21  C   UNL A   1      35.926  21.105  25.348  1.00  0.00     0.063 C 
ATOM     22  C   UNL A   1      34.808  20.241  24.889  1.00  0.00    -0.022 A 
ATOM     23  C   UNL A   1      33.679  21.027  24.656  1.00  0.00     0.045 A 
ATOM     24  C   UNL A   1      34.818  18.873  24.662  1.00  0.00     0.006 A 
ATOM     25  C   UNL A   1      32.521  20.429  24.170  1.00  0.00     0.026 A 
ATOM     26  C   UNL A   1      33.642  18.270  24.215  1.00  0.00     0.000 A 
ATOM     27  C   UNL A   1      32.500  19.044  23.971  1.00  0.00     0.002 A 
ENDBRANCH  12  18
ENDBRANCH   9  11
ENDBRANCH   8   9
ENDBRANCH   7   8
ENDBRANCH   6   7
ENDBRANCH   5   6
ENDBRANCH   4   5
ENDBRANCH   3   4
ENDBRANCH   2   3
ENDBRANCH   1   2
BRANCH   1  28
ATOM     28  C   UNL A   1      33.487  31.433  27.635  1.00  0.00     0.188 C 
BRANCH  28  29
ATOM     29  O   UNL A   1      34.873  31.529  27.967  1.00  0.00    -0.376 OA
BRANCH  29  30
ATOM     30  C   UNL A   1      35.349  32.549  28.824  1.00  0.00     0.202 C 
BRANCH  30  31
ATOM     31  C   UNL A   1      34.433  33.018  29.963  1.00  0.00     0.261 C 
BRANCH  31  32
ATOM     32  O   UNL A   1      34.397  32.177  31.120  1.00  0.00    -0.460 OA
BRANCH  32  33
ATOM     33  C   UNL A   1      34.358  32.828  32.310  1.00  0.00     0.338 C 
ATOM     34  O   UNL A   1      33.377  33.034  33.003  1.00  0.00    -0.246 OA
BRANCH  33  35
ATOM     35  C   UNL A   1      35.745  33.136  32.728  1.00  0.00     0.060 A 
ATOM     36  C   UNL A   1      36.690  32.122  32.906  1.00  0.00     0.016 A 
ATOM     37  C   UNL A   1      36.096  34.475  32.943  1.00  0.00     0.016 A 
ATOM     38  C   UNL A   1      38.001  32.456  33.259  1.00  0.00     0.010 A 
ATOM     39  C   UNL A   1      37.399  34.805  33.319  1.00  0.00     0.010 A 
ATOM     40  C   UNL A   1      38.367  33.800  33.447  1.00  0.00    -0.014 A 
BRANCH  40  41
ATOM     41  C   UNL A   1      39.799  34.171  33.542  1.00  0.00     0.031 A 
ATOM     42  C   UNL A   1      40.495  34.342  34.855  1.00  0.00     0.074 A 
ATOM     43  C   UNL A   1      40.458  34.374  32.384  1.00  0.00     0.049 A 
ATOM     44  N   UNL A   1      41.763  34.575  35.079  1.00  0.00    -0.248 NA
ATOM     45  C   UNL A   1      39.675  34.245  36.071  1.00  0.00     0.031 C 
ATOM     46  C   UNL A   1      39.853  34.262  31.056  1.00  0.00     0.029 A 
ATOM     47  N   UNL A   1      41.764  34.707  32.129  1.00  0.00    -0.354 N 
ATOM     48  C   UNL A   1      41.905  34.632  36.459  1.00  0.00     0.074 A 
ATOM     49  C   UNL A   1      40.582  34.454  37.021  1.00  0.00     0.031 C 
ATOM     50  C   UNL A   1      40.790  34.494  30.126  1.00  0.00     0.029 A 
ATOM     51  C   UNL A   1      42.056  34.793  30.787  1.00  0.00     0.049 A 
ATOM     52  H   UNL A   1      42.428  34.868  32.838  1.00  0.00     0.167 HD
ATOM     53  C   UNL A   1      43.042  34.799  37.176  1.00  0.00     0.034 A 
ATOM     54  C   UNL A   1      43.217  35.066  30.158  1.00  0.00     0.034 A 
ATOM     55  C   UNL A   1      44.346  34.990  36.585  1.00  0.00     0.049 A 
ATOM     56  C   UNL A   1      44.455  35.279  30.987  1.00  0.00     0.074 A 
ATOM     57  C   UNL A   1      45.565  35.115  37.230  1.00  0.00     0.029 A 
ATOM     58  N   UNL A   1      44.607  35.097  35.225  1.00  0.00    -0.354 N 
ATOM     59  N   UNL A   1      44.597  35.210  32.290  1.00  0.00    -0.248 NA
ATOM     60  C   UNL A   1      45.697  35.591  30.265  1.00  0.00     0.031 C 
ATOM     61  C   UNL A   1      46.547  35.362  36.271  1.00  0.00     0.029 A 
ATOM     62  C   UNL A   1      45.960  35.317  35.017  1.00  0.00     0.049 A 
ATOM     63  H   UNL A   1      43.930  35.026  34.513  1.00  0.00     0.167 HD
ATOM     64  C   UNL A   1      45.947  35.435  32.540  1.00  0.00     0.074 A 
ATOM     65  C   UNL A   1      46.582  35.621  31.253  1.00  0.00     0.031 C 
ATOM     66  C   UNL A   1      46.596  35.483  33.731  1.00  0.00     0.034 A 
BRANCH  53  67
ATOM     67  C   UNL A   1      42.975  34.746  38.683  1.00  0.00     0.023 A 
ATOM     68  C   UNL A   1      43.013  33.508  39.352  1.00  0.00     0.031 A 
ATOM     69  C   UNL A   1      42.679  35.900  39.431  1.00  0.00     0.131 A 
ATOM     70  C   UNL A   1      42.705  33.446  40.718  1.00  0.00     0.055 A 
ATOM     71  C   UNL A   1      42.409  35.836  40.800  1.00  0.00     0.041 A 
ATOM     72  F   UNL A   1      42.631  37.105  38.839  1.00  0.00    -0.206 F 
ATOM     73  C   UNL A   1      42.406  34.604  41.445  1.00  0.00     0.022 A 
BRANCH  70  74
ATOM     74  S   UNL A   1      42.611  31.859  41.591  1.00  0.00     0.124 S 
ATOM     75  O   UNL A   1      42.935  32.252  42.961  1.00  0.00    -0.237 OA
ATOM     76  O   UNL A   1      41.222  31.469  41.365  1.00  0.00    -0.237 OA
ATOM     77  O   UNL A   1      43.617  31.036  40.929  1.00  0.00    -0.744 OA
ENDBRANCH  70  74
ENDBRANCH  53  67
BRANCH  54  78
ATOM     78  C   UNL A   1      43.259  35.047  28.667  1.00  0.00     0.023 A 
ATOM     79  C   UNL A   1      43.748  33.934  27.962  1.00  0.00     0.031 A 
ATOM     80  C   UNL A   1      42.903  36.192  27.932  1.00  0.00     0.131 A 
ATOM     81  C   UNL A   1      43.919  34.009  26.573  1.00  0.00     0.055 A 
ATOM     82  C   UNL A   1      43.013  36.238  26.542  1.00  0.00     0.041 A 
ATOM     83  F   UNL A   1      42.449  37.286  28.563  1.00  0.00    -0.206 F 
ATOM     84  C   UNL A   1      43.539  35.148  25.858  1.00  0.00     0.022 A 
BRANCH  81  85
ATOM     85  S   UNL A   1      44.760  32.682  25.667  1.00  0.00     0.124 S 
ATOM     86  O   UNL A   1      44.076  31.493  26.164  1.00  0.00    -0.237 OA
ATOM     87  O   UNL A   1      44.475  33.039  24.279  1.00  0.00    -0.237 OA
ATOM     88  O   UNL A   1      46.157  32.822  26.068  1.00  0.00    -0.744 OA
ENDBRANCH  81  85
ENDBRANCH  54  78
BRANCH  66  89
ATOM     89  C   UNL A   1      48.085  35.738  33.732  1.00  0.00     0.023 A 
ATOM     90  C   UNL A   1      48.574  37.056  33.807  1.00  0.00     0.031 A 
ATOM     91  C   UNL A   1      49.007  34.700  33.509  1.00  0.00     0.131 A 
ATOM     92  C   UNL A   1      49.939  37.307  33.616  1.00  0.00     0.055 A 
ATOM     93  C   UNL A   1      50.372  34.950  33.371  1.00  0.00     0.041 A 
ATOM     94  F   UNL A   1      48.590  33.426  33.419  1.00  0.00    -0.206 F 
ATOM     95  C   UNL A   1      50.841  36.260  33.408  1.00  0.00     0.022 A 
BRANCH  92  96
ATOM     96  S   UNL A   1      50.578  39.003  33.538  1.00  0.00     0.124 S 
ATOM     97  O   UNL A   1      50.503  39.419  34.936  1.00  0.00    -0.237 OA
ATOM     98  O   UNL A   1      51.929  38.798  33.020  1.00  0.00    -0.237 OA
ATOM     99  O   UNL A   1      49.658  39.686  32.635  1.00  0.00    -0.744 OA
ENDBRANCH  92  96
ENDBRANCH  66  89
ENDBRANCH  40  41
ENDBRANCH  33  35
ENDBRANCH  32  33
ENDBRANCH  31  32
ENDBRANCH  30  31
ENDBRANCH  29  30
ENDBRANCH  28  29
ENDBRANCH   1  28
TORSDOF 24
ENDMDL
MODEL 3
REMARK VINA RESULT:      -9.3      6.365      9.590
REMARK SMILES C[C@@H]1Cc2ccccc2N1c1ccc(F)cc1C(=O)OCCOCCOCCOCCOC(=O)c1ccc(-c2c3nc(c(-c4cc(S(=O)(=O)[O-])ccc4F)c4ccc([nH]4)c(-c4cc(S(=O)(=O)[O-])ccc4F)c4nc(c(-c5cc(S(=O)(=O)[O-])ccc5F)c5ccc2[nH]5)C=C4)C=C3)cc1
REMARK SMILES IDX 27 1 26 2 25 3 24 4 23 5 22 6 21 7 20 8 18 9 19 10 17 11
REMARK SMILES IDX 11 12 12 13 13 14 16 15 14 16 15 17 10 18 1 19 2 20 3 21
REMARK SMILES IDX 4 22 9 23 5 24 8 25 6 26 7 27 28 28 29 29 30 30 31 31 32 32
REMARK SMILES IDX 33 33 34 34 35 35 36 36 97 37 37 38 96 39 38 40 39 41 40 42
REMARK SMILES IDX 90 43 41 44 95 45 89 46 91 47 42 48 94 49 88 50 87 51 43 53
REMARK SMILES IDX 75 54 55 55 74 56 56 57 59 58 73 59 92 60 57 61 58 62 72 64
REMARK SMILES IDX 93 65 60 66 44 67 45 68 53 69 46 70 52 71 54 72 51 73 47 74
REMARK SMILES IDX 48 75 49 76 50 77 76 78 77 79 85 80 78 81 84 82 86 83 83 84
REMARK SMILES IDX 79 85 80 86 81 87 82 88 61 89 62 90 70 91 63 92 69 93 71 94
REMARK SMILES IDX 68 95 64 96 65 97 66 98 67 99
REMARK H PARENT 91 52 59 63
REMARK Flexibility Score: inf
ROOT
ATOM      1  C   UNL A   1      35.684  32.548  28.713  1.00  0.00     0.188 C 
ENDROOT
BRANCH   1   2
ATOM      2  O   UNL A   1      35.182  31.219  28.702  1.00  0.00    -0.377 OA
BRANCH   2   3
ATOM      3  C   UNL A   1      34.113  30.998  27.797  1.00  0.00     0.188 C 
BRANCH   3   4
ATOM      4  C   UNL A   1      34.283  29.799  26.852  1.00  0.00     0.188 C 
BRANCH   4   5
ATOM      5  O   UNL A   1      33.454  28.689  27.193  1.00  0.00    -0.376 OA
BRANCH   5   6
ATOM      6  C   UNL A   1      32.798  28.026  26.118  1.00  0.00     0.202 C 
BRANCH   6   7
ATOM      7  C   UNL A   1      32.621  26.527  26.350  1.00  0.00     0.261 C 
BRANCH   7   8
ATOM      8  O   UNL A   1      33.784  25.765  26.002  1.00  0.00    -0.460 OA
BRANCH   8   9
ATOM      9  C   UNL A   1      33.690  24.424  26.025  1.00  0.00     0.340 C 
ATOM     10  O   UNL A   1      32.708  23.786  26.377  1.00  0.00    -0.246 OA
BRANCH   9  11
ATOM     11  C   UNL A   1      34.888  23.799  25.398  1.00  0.00     0.086 A 
ATOM     12  C   UNL A   1      34.874  22.800  24.393  1.00  0.00     0.056 A 
ATOM     13  C   UNL A   1      36.129  22.344  23.923  1.00  0.00     0.030 A 
ATOM     14  C   UNL A   1      37.333  22.765  24.489  1.00  0.00     0.041 A 
ATOM     15  C   UNL A   1      36.110  24.223  25.960  1.00  0.00     0.057 A 
ATOM     16  C   UNL A   1      37.309  23.684  25.522  1.00  0.00     0.124 A 
ATOM     17  F   UNL A   1      38.455  24.047  26.114  1.00  0.00    -0.207 F 
BRANCH  12  18
ATOM     18  N   UNL A   1      33.713  22.156  23.931  1.00  0.00    -0.337 N 
ATOM     19  C   UNL A   1      32.465  23.949  22.613  1.00  0.00     0.032 C 
ATOM     20  C   UNL A   1      33.053  22.546  22.645  1.00  0.00     0.089 C 
ATOM     21  C   UNL A   1      31.922  21.512  22.389  1.00  0.00     0.063 C 
ATOM     22  C   UNL A   1      32.442  20.337  23.135  1.00  0.00    -0.022 A 
ATOM     23  C   UNL A   1      33.434  20.752  24.023  1.00  0.00     0.045 A 
ATOM     24  C   UNL A   1      32.029  19.015  23.051  1.00  0.00     0.006 A 
ATOM     25  C   UNL A   1      34.030  19.819  24.865  1.00  0.00     0.026 A 
ATOM     26  C   UNL A   1      32.658  18.075  23.866  1.00  0.00     0.000 A 
ATOM     27  C   UNL A   1      33.654  18.474  24.768  1.00  0.00     0.002 A 
ENDBRANCH  12  18
ENDBRANCH   9  11
ENDBRANCH   8   9
ENDBRANCH   7   8
ENDBRANCH   6   7
ENDBRANCH   5   6
ENDBRANCH   4   5
ENDBRANCH   3   4
ENDBRANCH   2   3
ENDBRANCH   1   2
BRANCH   1  28
ATOM     28  C   UNL A   1      35.067  33.451  29.804  1.00  0.00     0.188 C 
BRANCH  28  29
ATOM     29  O   UNL A   1      35.528  33.464  31.156  1.00  0.00    -0.376 OA
BRANCH  29  30
ATOM     30  C   UNL A   1      35.018  32.552  32.110  1.00  0.00     0.202 C 
BRANCH  30  31
ATOM     31  C   UNL A   1      36.008  31.605  32.802  1.00  0.00     0.261 C 
BRANCH  31  32
ATOM     32  O   UNL A   1      36.173  30.321  32.191  1.00  0.00    -0.460 OA
BRANCH  32  33
ATOM     33  C   UNL A   1      37.321  29.671  32.506  1.00  0.00     0.338 C 
ATOM     34  O   UNL A   1      37.426  28.600  33.077  1.00  0.00    -0.246 OA
BRANCH  33  35
ATOM     35  C   UNL A   1      38.461  30.405  31.910  1.00  0.00     0.060 A 
ATOM     36  C   UNL A   1      39.477  30.938  32.709  1.00  0.00     0.016 A 
ATOM     37  C   UNL A   1      38.504  30.557  30.518  1.00  0.00     0.016 A 
ATOM     38  C   UNL A   1      40.558  31.588  32.107  1.00  0.00     0.010 A 
ATOM     39  C   UNL A   1      39.571  31.227  29.920  1.00  0.00     0.010 A 
ATOM     40  C   UNL A   1      40.622  31.717  30.708  1.00  0.00    -0.014 A 
BRANCH  40  41
ATOM     41  C   UNL A   1      41.883  32.147  30.061  1.00  0.00     0.031 A 
ATOM     42  C   UNL A   1      42.135  33.567  29.663  1.00  0.00     0.074 A 
ATOM     43  C   UNL A   1      42.805  31.194  29.820  1.00  0.00     0.049 A 
ATOM     44  N   UNL A   1      43.227  34.093  29.173  1.00  0.00    -0.248 NA
ATOM     45  C   UNL A   1      41.027  34.519  29.827  1.00  0.00     0.031 C 
ATOM     46  C   UNL A   1      42.635  29.776  30.144  1.00  0.00     0.029 A 
ATOM     47  N   UNL A   1      44.055  31.260  29.261  1.00  0.00    -0.354 N 
ATOM     48  C   UNL A   1      42.955  35.442  28.989  1.00  0.00     0.074 A 
ATOM     49  C   UNL A   1      41.574  35.645  29.378  1.00  0.00     0.031 C 
ATOM     50  C   UNL A   1      43.748  29.112  29.804  1.00  0.00     0.029 A 
ATOM     51  C   UNL A   1      44.703  30.047  29.218  1.00  0.00     0.049 A 
ATOM     52  H   UNL A   1      44.451  32.095  28.922  1.00  0.00     0.167 HD
ATOM     53  C   UNL A   1      43.794  36.412  28.553  1.00  0.00     0.034 A 
ATOM     54  C   UNL A   1      45.934  29.725  28.772  1.00  0.00     0.034 A 
ATOM     55  C   UNL A   1      45.163  36.175  28.156  1.00  0.00     0.049 A 
ATOM     56  C   UNL A   1      46.829  30.823  28.263  1.00  0.00     0.074 A 
ATOM     57  C   UNL A   1      46.106  37.104  27.751  1.00  0.00     0.029 A 
ATOM     58  N   UNL A   1      45.782  34.934  28.101  1.00  0.00    -0.354 N 
ATOM     59  N   UNL A   1      46.599  32.114  28.208  1.00  0.00    -0.248 NA
ATOM     60  C   UNL A   1      48.156  30.429  27.771  1.00  0.00     0.031 C 
ATOM     61  C   UNL A   1      47.268  36.422  27.389  1.00  0.00     0.029 A 
ATOM     62  C   UNL A   1      47.082  35.072  27.639  1.00  0.00     0.049 A 
ATOM     63  H   UNL A   1      45.361  34.080  28.354  1.00  0.00     0.167 HD
ATOM     64  C   UNL A   1      47.763  32.689  27.708  1.00  0.00     0.074 A 
ATOM     65  C   UNL A   1      48.702  31.607  27.497  1.00  0.00     0.031 C 
ATOM     66  C   UNL A   1      48.025  33.994  27.448  1.00  0.00     0.034 A 
BRANCH  53  67
ATOM     67  C   UNL A   1      43.305  37.839  28.506  1.00  0.00     0.023 A 
ATOM     68  C   UNL A   1      43.497  38.691  29.611  1.00  0.00     0.031 A 
ATOM     69  C   UNL A   1      42.486  38.287  27.454  1.00  0.00     0.131 A 
ATOM     70  C   UNL A   1      42.834  39.925  29.662  1.00  0.00     0.055 A 
ATOM     71  C   UNL A   1      41.857  39.532  27.494  1.00  0.00     0.041 A 
ATOM     72  F   UNL A   1      42.272  37.512  26.378  1.00  0.00    -0.206 F 
ATOM     73  C   UNL A   1      42.017  40.350  28.608  1.00  0.00     0.022 A 
BRANCH  70  74
ATOM     74  S   UNL A   1      42.945  40.994  31.123  1.00  0.00     0.124 S 
ATOM     75  O   UNL A   1      44.297  41.534  30.995  1.00  0.00    -0.237 OA
ATOM     76  O   UNL A   1      41.867  41.949  30.883  1.00  0.00    -0.237 OA
ATOM     77  O   UNL A   1      42.745  40.079  32.242  1.00  0.00    -0.744 OA
ENDBRANCH  70  74
ENDBRANCH  53  67
BRANCH  54  78
ATOM     78  C   UNL A   1      46.406  28.315  28.892  1.00  0.00     0.023 A 
ATOM     79  C   UNL A   1      46.074  27.347  27.928  1.00  0.00     0.031 A 
ATOM     80  C   UNL A   1      47.112  27.896  30.033  1.00  0.00     0.131 A 
ATOM     81  C   UNL A   1      46.401  26.003  28.149  1.00  0.00     0.055 A 
ATOM     82  C   UNL A   1      47.493  26.567  30.217  1.00  0.00     0.041 A 
ATOM     83  F   UNL A   1      47.435  28.780  30.990  1.00  0.00    -0.206 F 
ATOM     84  C   UNL A   1      47.122  25.609  29.280  1.00  0.00     0.022 A 
BRANCH  81  85
ATOM     85  S   UNL A   1      45.787  24.702  27.043  1.00  0.00     0.124 S 
ATOM     86  O   UNL A   1      45.388  25.467  25.866  1.00  0.00    -0.237 OA
ATOM     87  O   UNL A   1      46.972  23.864  26.879  1.00  0.00    -0.237 OA
ATOM     88  O   UNL A   1      44.698  24.093  27.799  1.00  0.00    -0.744 OA
ENDBRANCH  81  85
ENDBRANCH  54  78
BRANCH  66  89
ATOM     89  C   UNL A   1      49.387  34.364  26.911  1.00  0.00     0.023 A 
ATOM     90  C   UNL A   1      50.492  34.434  27.781  1.00  0.00     0.031 A 
ATOM     91  C   UNL A   1      49.562  34.790  25.583  1.00  0.00     0.131 A 
ATOM     92  C   UNL A   1      51.708  34.960  27.327  1.00  0.00     0.055 A 
ATOM     93  C   UNL A   1      50.789  35.265  25.120  1.00  0.00     0.041 A 
ATOM     94  F   UNL A   1      48.536  34.753  24.715  1.00  0.00    -0.206 F 
ATOM     95  C   UNL A   1      51.865  35.366  25.998  1.00  0.00     0.022 A 
BRANCH  92  96
ATOM     96  S   UNL A   1      53.099  35.221  28.461  1.00  0.00     0.124 S 
ATOM     97  O   UNL A   1      52.974  36.643  28.771  1.00  0.00    -0.237 OA
ATOM     98  O   UNL A   1      52.776  34.313  29.559  1.00  0.00    -0.237 OA
ATOM     99  O   UNL A   1      54.271  34.859  27.671  1.00  0.00    -0.744 OA
ENDBRANCH  92  96
ENDBRANCH  66  89
ENDBRANCH  40  41
ENDBRANCH  33  35
ENDBRANCH  32  33
ENDBRANCH  31  32
ENDBRANCH  30  31
ENDBRANCH  29  30
ENDBRANCH  28  29
ENDBRANCH   1  28
TORSDOF 24
ENDMDL
