MODEL 1
REMARK VINA RESULT:      -9.7      0.000      0.000
REMARK SMILES COc1ccc(-n2ccnc2C[N@@H+]2Cc3[nH]cnc3C[C@@H]2C(=O)OCCOCCOCCOCCOC(=O)c2ccc(-c3c4nc(c(-c5cc(S(=O)(=O)[O-])ccc5F)c5ccc([nH]5)c(-c5cc(S(=O)(=O)[O-])ccc5F)c5nc(c(-c6cc(S(=O)(=O)[O-])ccc6F)c6ccc3[nH]6)C=C5)C=C4)cc2)cc1
REMARK SMILES IDX 29 1 28 2 27 3 26 4 25 5 24 6 22 7 23 8 21 9 13 10 14 11
REMARK SMILES IDX 15 13 20 14 16 15 19 16 17 17 18 19 12 20 11 21 7 22 8 23
REMARK SMILES IDX 9 24 10 25 6 26 3 27 4 28 103 29 5 30 102 31 2 32 1 33 30 34
REMARK SMILES IDX 31 35 32 36 33 37 34 38 35 39 36 40 37 41 38 42 39 43 40 44
REMARK SMILES IDX 101 45 41 46 100 47 42 48 43 49 44 50 94 51 45 52 99 53
REMARK SMILES IDX 93 54 95 55 46 56 98 57 92 58 91 59 47 61 79 62 59 63 78 64
REMARK SMILES IDX 60 65 63 66 77 67 96 68 61 69 62 70 76 72 97 73 64 74 48 75
REMARK SMILES IDX 49 76 57 77 50 78 56 79 58 80 55 81 51 82 52 83 53 84 54 85
REMARK SMILES IDX 80 86 81 87 89 88 82 89 88 90 90 91 87 92 83 93 84 94 85 95
REMARK SMILES IDX 86 96 65 97 66 98 74 99 67 100 73 101 75 102 72 103 68 104
REMARK SMILES IDX 69 105 70 106 71 107
REMARK H PARENT 13 12 16 18 95 60 63 71
REMARK Flexibility Score: inf
ROOT
ATOM      1  C   UNL A   1      35.249  33.025  28.000  1.00  0.00     0.188 C 
ENDROOT
BRANCH   1   2
ATOM      2  C   UNL A   1      34.705  31.672  28.505  1.00  0.00     0.188 C 
BRANCH   2   3
ATOM      3  O   UNL A   1      35.030  30.560  27.690  1.00  0.00    -0.376 OA
BRANCH   3   4
ATOM      4  C   UNL A   1      34.076  29.520  27.611  1.00  0.00     0.202 C 
BRANCH   4   5
ATOM      5  C   UNL A   1      34.276  28.586  26.419  1.00  0.00     0.261 C 
BRANCH   5   6
ATOM      6  O   UNL A   1      33.077  28.265  25.703  1.00  0.00    -0.459 OA
BRANCH   6   7
ATOM      7  C   UNL A   1      32.391  27.116  25.981  1.00  0.00     0.365 C 
ATOM      8  O   UNL A   1      31.715  26.907  26.976  1.00  0.00    -0.245 OA
BRANCH   7   9
ATOM      9  C   UNL A   1      32.583  26.177  24.802  1.00  0.00     0.301 C 
ATOM     10  N   UNL A   1      32.432  24.701  25.098  1.00  0.00    -0.312 N 
ATOM     11  C   UNL A   1      32.237  23.923  23.854  1.00  0.00     0.320 C 
ATOM     12  H   UNL A   1      31.554  24.522  25.584  1.00  0.00     0.349 HD
ATOM     13  C   UNL A   1      32.687  24.711  22.646  1.00  0.00     0.093 A 
ATOM     14  C   UNL A   1      33.848  26.445  23.971  1.00  0.00     0.136 C 
ATOM     15  N   UNL A   1      32.025  24.838  21.449  1.00  0.00    -0.344 N 
ATOM     16  C   UNL A   1      33.528  25.812  22.669  1.00  0.00     0.074 A 
ATOM     17  C   UNL A   1      32.575  25.910  20.789  1.00  0.00     0.197 A 
ATOM     18  H   UNL A   1      31.293  24.266  21.125  1.00  0.00     0.167 HD
ATOM     19  N   UNL A   1      33.525  26.491  21.488  1.00  0.00    -0.241 NA
BRANCH  10  20
ATOM     20  C   UNL A   1      33.349  24.212  26.151  1.00  0.00     0.340 C 
BRANCH  20  21
ATOM     21  C   UNL A   1      34.689  23.596  25.866  1.00  0.00     0.168 A 
ATOM     22  N   UNL A   1      34.899  22.322  25.351  1.00  0.00    -0.299 N 
ATOM     23  C   UNL A   1      36.233  22.237  25.022  1.00  0.00     0.113 A 
ATOM     24  C   UNL A   1      36.780  23.448  25.353  1.00  0.00     0.132 A 
ATOM     25  N   UNL A   1      35.833  24.265  25.906  1.00  0.00    -0.236 NA
BRANCH  22  26
ATOM     26  C   UNL A   1      34.007  21.233  25.303  1.00  0.00     0.047 A 
ATOM     27  C   UNL A   1      32.568  18.870  25.053  1.00  0.00     0.119 A 
ATOM     28  C   UNL A   1      32.881  19.363  26.323  1.00  0.00     0.048 A 
ATOM     29  C   UNL A   1      32.861  19.627  23.919  1.00  0.00     0.048 A 
ATOM     30  C   UNL A   1      33.616  20.548  26.455  1.00  0.00     0.030 A 
ATOM     31  C   UNL A   1      33.575  20.815  24.041  1.00  0.00     0.030 A 
BRANCH  27  32
ATOM     32  O   UNL A   1      31.943  17.655  24.982  1.00  0.00    -0.497 OA
ATOM     33  C   UNL A   1      32.747  16.597  25.515  1.00  0.00     0.278 C 
ENDBRANCH  27  32
ENDBRANCH  22  26
ENDBRANCH  20  21
ENDBRANCH  10  20
ENDBRANCH   7   9
ENDBRANCH   6   7
ENDBRANCH   5   6
ENDBRANCH   4   5
ENDBRANCH   3   4
ENDBRANCH   2   3
ENDBRANCH   1   2
BRANCH   1  34
ATOM     34  O   UNL A   1      34.368  34.093  27.662  1.00  0.00    -0.377 OA
BRANCH  34  35
ATOM     35  C   UNL A   1      33.353  34.480  28.580  1.00  0.00     0.188 C 
BRANCH  35  36
ATOM     36  C   UNL A   1      33.087  35.989  28.837  1.00  0.00     0.188 C 
BRANCH  36  37
ATOM     37  O   UNL A   1      33.439  36.450  30.132  1.00  0.00    -0.376 OA
BRANCH  37  38
ATOM     38  C   UNL A   1      33.180  35.735  31.326  1.00  0.00     0.202 C 
BRANCH  38  39
ATOM     39  C   UNL A   1      33.974  36.082  32.582  1.00  0.00     0.261 C 
BRANCH  39  40
ATOM     40  O   UNL A   1      35.177  35.358  32.686  1.00  0.00    -0.460 OA
BRANCH  40  41
ATOM     41  C   UNL A   1      35.260  34.591  33.786  1.00  0.00     0.338 C 
ATOM     42  O   UNL A   1      35.076  34.943  34.945  1.00  0.00    -0.246 OA
BRANCH  41  43
ATOM     43  C   UNL A   1      35.627  33.234  33.367  1.00  0.00     0.060 A 
ATOM     44  C   UNL A   1      36.494  32.588  34.244  1.00  0.00     0.016 A 
ATOM     45  C   UNL A   1      35.583  32.971  31.992  1.00  0.00     0.016 A 
ATOM     46  C   UNL A   1      37.625  32.061  33.687  1.00  0.00     0.010 A 
ATOM     47  C   UNL A   1      36.726  32.485  31.436  1.00  0.00     0.010 A 
ATOM     48  C   UNL A   1      37.771  32.176  32.304  1.00  0.00    -0.014 A 
BRANCH  48  49
ATOM     49  C   UNL A   1      39.087  32.020  31.755  1.00  0.00     0.031 A 
ATOM     50  C   UNL A   1      39.253  30.719  31.099  1.00  0.00     0.074 A 
ATOM     51  C   UNL A   1      39.981  33.022  31.791  1.00  0.00     0.049 A 
ATOM     52  N   UNL A   1      39.904  29.704  31.553  1.00  0.00    -0.248 NA
ATOM     53  C   UNL A   1      38.381  30.419  29.953  1.00  0.00     0.031 C 
ATOM     54  C   UNL A   1      39.794  34.417  32.199  1.00  0.00     0.029 A 
ATOM     55  N   UNL A   1      41.255  33.009  31.345  1.00  0.00    -0.354 N 
ATOM     56  C   UNL A   1      39.708  28.705  30.614  1.00  0.00     0.074 A 
ATOM     57  C   UNL A   1      38.568  29.106  29.839  1.00  0.00     0.031 C 
ATOM     58  C   UNL A   1      40.834  35.152  31.737  1.00  0.00     0.029 A 
ATOM     59  C   UNL A   1      41.796  34.263  31.104  1.00  0.00     0.049 A 
ATOM     60  H   UNL A   1      41.761  32.176  31.201  1.00  0.00     0.167 HD
ATOM     61  C   UNL A   1      40.662  27.769  30.378  1.00  0.00     0.034 A 
ATOM     62  C   UNL A   1      42.879  34.514  30.319  1.00  0.00     0.034 A 
ATOM     63  C   UNL A   1      41.662  27.780  31.423  1.00  0.00     0.049 A 
ATOM     64  C   UNL A   1      43.639  33.229  30.233  1.00  0.00     0.074 A 
ATOM     65  C   UNL A   1      41.619  27.554  32.786  1.00  0.00     0.029 A 
ATOM     66  N   UNL A   1      42.830  28.478  31.192  1.00  0.00    -0.354 N 
ATOM     67  N   UNL A   1      44.206  32.670  31.273  1.00  0.00    -0.248 NA
ATOM     68  C   UNL A   1      43.309  32.300  29.155  1.00  0.00     0.031 C 
ATOM     69  C   UNL A   1      42.490  28.533  33.348  1.00  0.00     0.029 A 
ATOM     70  C   UNL A   1      43.086  29.247  32.305  1.00  0.00     0.049 A 
ATOM     71  H   UNL A   1      43.382  28.434  30.378  1.00  0.00     0.167 HD
ATOM     72  C   UNL A   1      43.917  31.314  31.172  1.00  0.00     0.074 A 
ATOM     73  C   UNL A   1      43.441  31.133  29.801  1.00  0.00     0.031 C 
ATOM     74  C   UNL A   1      43.782  30.525  32.284  1.00  0.00     0.034 A 
BRANCH  61  75
ATOM     75  C   UNL A   1      40.878  27.093  29.049  1.00  0.00     0.023 A 
ATOM     76  C   UNL A   1      41.836  27.662  28.195  1.00  0.00     0.031 A 
ATOM     77  C   UNL A   1      40.049  26.101  28.473  1.00  0.00     0.131 A 
ATOM     78  C   UNL A   1      41.887  27.311  26.838  1.00  0.00     0.055 A 
ATOM     79  C   UNL A   1      40.154  25.701  27.141  1.00  0.00     0.041 A 
ATOM     80  F   UNL A   1      39.027  25.530  29.122  1.00  0.00    -0.206 F 
ATOM     81  C   UNL A   1      41.056  26.330  26.304  1.00  0.00     0.022 A 
BRANCH  78  82
ATOM     82  S   UNL A   1      42.939  28.291  25.742  1.00  0.00     0.124 S 
ATOM     83  O   UNL A   1      42.559  27.782  24.428  1.00  0.00    -0.237 OA
ATOM     84  O   UNL A   1      42.512  29.650  26.056  1.00  0.00    -0.237 OA
ATOM     85  O   UNL A   1      44.291  27.944  26.175  1.00  0.00    -0.744 OA
ENDBRANCH  78  82
ENDBRANCH  61  75
BRANCH  62  86
ATOM     86  C   UNL A   1      43.004  35.656  29.363  1.00  0.00     0.023 A 
ATOM     87  C   UNL A   1      44.188  36.405  29.194  1.00  0.00     0.031 A 
ATOM     88  C   UNL A   1      41.965  35.914  28.434  1.00  0.00     0.131 A 
ATOM     89  C   UNL A   1      44.282  37.370  28.156  1.00  0.00     0.055 A 
ATOM     90  C   UNL A   1      42.057  36.875  27.425  1.00  0.00     0.041 A 
ATOM     91  F   UNL A   1      40.841  35.181  28.419  1.00  0.00    -0.206 F 
ATOM     92  C   UNL A   1      43.221  37.606  27.277  1.00  0.00     0.022 A 
BRANCH  89  93
ATOM     93  S   UNL A   1      45.833  38.285  27.870  1.00  0.00     0.124 S 
ATOM     94  O   UNL A   1      46.541  37.414  26.940  1.00  0.00    -0.237 OA
ATOM     95  O   UNL A   1      45.354  39.555  27.336  1.00  0.00    -0.237 OA
ATOM     96  O   UNL A   1      46.431  38.372  29.204  1.00  0.00    -0.744 OA
ENDBRANCH  89  93
ENDBRANCH  62  86
BRANCH  74  97
ATOM     97  C   UNL A   1      44.174  31.099  33.636  1.00  0.00     0.023 A 
ATOM     98  C   UNL A   1      43.256  31.524  34.626  1.00  0.00     0.031 A 
ATOM     99  C   UNL A   1      45.532  31.047  33.995  1.00  0.00     0.131 A 
ATOM    100  C   UNL A   1      43.715  31.878  35.912  1.00  0.00     0.055 A 
ATOM    101  C   UNL A   1      45.979  31.373  35.275  1.00  0.00     0.041 A 
ATOM    102  F   UNL A   1      46.452  30.624  33.111  1.00  0.00    -0.206 F 
ATOM    103  C   UNL A   1      45.070  31.793  36.239  1.00  0.00     0.022 A 
BRANCH 100 104
ATOM    104  S   UNL A   1      42.549  32.463  37.187  1.00  0.00     0.124 S 
ATOM    105  O   UNL A   1      43.339  32.420  38.413  1.00  0.00    -0.237 OA
ATOM    106  O   UNL A   1      42.191  33.792  36.701  1.00  0.00    -0.237 OA
ATOM    107  O   UNL A   1      41.463  31.481  37.130  1.00  0.00    -0.744 OA
ENDBRANCH 100 104
ENDBRANCH  74  97
ENDBRANCH  48  49
ENDBRANCH  41  43
ENDBRANCH  40  41
ENDBRANCH  39  40
ENDBRANCH  38  39
ENDBRANCH  37  38
ENDBRANCH  36  37
ENDBRANCH  35  36
ENDBRANCH  34  35
ENDBRANCH   1  34
TORSDOF 27
ENDMDL
MODEL 2
REMARK VINA RESULT:      -9.4      2.252      2.991
REMARK SMILES COc1ccc(-n2ccnc2C[N@@H+]2Cc3[nH]cnc3C[C@@H]2C(=O)OCCOCCOCCOCCOC(=O)c2ccc(-c3c4nc(c(-c5cc(S(=O)(=O)[O-])ccc5F)c5ccc([nH]5)c(-c5cc(S(=O)(=O)[O-])ccc5F)c5nc(c(-c6cc(S(=O)(=O)[O-])ccc6F)c6ccc3[nH]6)C=C5)C=C4)cc2)cc1
REMARK SMILES IDX 29 1 28 2 27 3 26 4 25 5 24 6 22 7 23 8 21 9 13 10 14 11
REMARK SMILES IDX 15 13 20 14 16 15 19 16 17 17 18 19 12 20 11 21 7 22 8 23
REMARK SMILES IDX 9 24 10 25 6 26 3 27 4 28 103 29 5 30 102 31 2 32 1 33 30 34
REMARK SMILES IDX 31 35 32 36 33 37 34 38 35 39 36 40 37 41 38 42 39 43 40 44
REMARK SMILES IDX 101 45 41 46 100 47 42 48 43 49 44 50 94 51 45 52 99 53
REMARK SMILES IDX 93 54 95 55 46 56 98 57 92 58 91 59 47 61 79 62 59 63 78 64
REMARK SMILES IDX 60 65 63 66 77 67 96 68 61 69 62 70 76 72 97 73 64 74 48 75
REMARK SMILES IDX 49 76 57 77 50 78 56 79 58 80 55 81 51 82 52 83 53 84 54 85
REMARK SMILES IDX 80 86 81 87 89 88 82 89 88 90 90 91 87 92 83 93 84 94 85 95
REMARK SMILES IDX 86 96 65 97 66 98 74 99 67 100 73 101 75 102 72 103 68 104
REMARK SMILES IDX 69 105 70 106 71 107
REMARK H PARENT 13 12 16 18 95 60 63 71
REMARK Flexibility Score: inf
ROOT
ATOM      1  C   UNL A   1      36.021  32.353  28.210  1.00  0.00     0.188 C 
ENDROOT
BRANCH   1   2
ATOM      2  C   UNL A   1      35.844  30.848  28.497  1.00  0.00     0.188 C 
BRANCH   2   3
ATOM      3  O   UNL A   1      35.595  30.050  27.353  1.00  0.00    -0.376 OA
BRANCH   3   4
ATOM      4  C   UNL A   1      34.530  29.124  27.433  1.00  0.00     0.202 C 
BRANCH   4   5
ATOM      5  C   UNL A   1      33.876  28.815  26.089  1.00  0.00     0.261 C 
BRANCH   5   6
ATOM      6  O   UNL A   1      32.471  29.094  26.029  1.00  0.00    -0.459 OA
BRANCH   6   7
ATOM      7  C   UNL A   1      31.562  28.159  26.438  1.00  0.00     0.365 C 
ATOM      8  O   UNL A   1      31.463  27.700  27.566  1.00  0.00    -0.245 OA
BRANCH   7   9
ATOM      9  C   UNL A   1      30.671  27.842  25.249  1.00  0.00     0.301 C 
ATOM     10  N   UNL A   1      30.675  26.403  24.782  1.00  0.00    -0.312 N 
ATOM     11  C   UNL A   1      29.510  26.119  23.914  1.00  0.00     0.320 C 
ATOM     12  H   UNL A   1      30.499  25.773  25.564  1.00  0.00     0.349 HD
ATOM     13  C   UNL A   1      28.913  27.397  23.373  1.00  0.00     0.093 A 
ATOM     14  C   UNL A   1      30.824  28.806  24.062  1.00  0.00     0.136 C 
ATOM     15  N   UNL A   1      27.581  27.723  23.304  1.00  0.00    -0.344 N 
ATOM     16  C   UNL A   1      29.550  28.627  23.325  1.00  0.00     0.074 A 
ATOM     17  C   UNL A   1      27.501  29.080  23.107  1.00  0.00     0.197 A 
ATOM     18  H   UNL A   1      26.824  27.098  23.382  1.00  0.00     0.167 HD
ATOM     19  N   UNL A   1      28.686  29.648  23.066  1.00  0.00    -0.241 NA
BRANCH  10  20
ATOM     20  C   UNL A   1      32.019  25.903  24.419  1.00  0.00     0.340 C 
BRANCH  20  21
ATOM     21  C   UNL A   1      32.463  25.666  23.004  1.00  0.00     0.168 A 
ATOM     22  N   UNL A   1      33.179  24.562  22.555  1.00  0.00    -0.299 N 
ATOM     23  C   UNL A   1      33.176  24.613  21.180  1.00  0.00     0.113 A 
ATOM     24  C   UNL A   1      32.472  25.739  20.847  1.00  0.00     0.132 A 
ATOM     25  N   UNL A   1      32.069  26.401  21.973  1.00  0.00    -0.236 NA
BRANCH  22  26
ATOM     26  C   UNL A   1      33.925  23.633  23.306  1.00  0.00     0.047 A 
ATOM     27  C   UNL A   1      35.327  21.537  24.471  1.00  0.00     0.119 A 
ATOM     28  C   UNL A   1      36.014  22.668  24.022  1.00  0.00     0.048 A 
ATOM     29  C   UNL A   1      33.933  21.514  24.455  1.00  0.00     0.048 A 
ATOM     30  C   UNL A   1      35.314  23.724  23.424  1.00  0.00     0.030 A 
ATOM     31  C   UNL A   1      33.226  22.566  23.879  1.00  0.00     0.030 A 
BRANCH  27  32
ATOM     32  O   UNL A   1      36.071  20.492  24.948  1.00  0.00    -0.497 OA
ATOM     33  C   UNL A   1      37.169  20.930  25.757  1.00  0.00     0.278 C 
ENDBRANCH  27  32
ENDBRANCH  22  26
ENDBRANCH  20  21
ENDBRANCH  10  20
ENDBRANCH   7   9
ENDBRANCH   6   7
ENDBRANCH   5   6
ENDBRANCH   4   5
ENDBRANCH   3   4
ENDBRANCH   2   3
ENDBRANCH   1   2
BRANCH   1  34
ATOM     34  O   UNL A   1      34.898  33.190  27.947  1.00  0.00    -0.377 OA
BRANCH  34  35
ATOM     35  C   UNL A   1      33.991  33.495  28.999  1.00  0.00     0.188 C 
BRANCH  35  36
ATOM     36  C   UNL A   1      33.951  34.933  29.587  1.00  0.00     0.188 C 
BRANCH  36  37
ATOM     37  O   UNL A   1      34.410  35.050  30.924  1.00  0.00    -0.376 OA
BRANCH  37  38
ATOM     38  C   UNL A   1      34.284  34.030  31.897  1.00  0.00     0.202 C 
BRANCH  38  39
ATOM     39  C   UNL A   1      35.000  34.194  33.235  1.00  0.00     0.261 C 
BRANCH  39  40
ATOM     40  O   UNL A   1      36.331  33.737  33.203  1.00  0.00    -0.460 OA
BRANCH  40  41
ATOM     41  C   UNL A   1      36.622  32.831  34.150  1.00  0.00     0.338 C 
ATOM     42  O   UNL A   1      36.543  32.983  35.364  1.00  0.00    -0.246 OA
BRANCH  41  43
ATOM     43  C   UNL A   1      37.072  31.605  33.484  1.00  0.00     0.060 A 
ATOM     44  C   UNL A   1      38.140  30.977  34.118  1.00  0.00     0.016 A 
ATOM     45  C   UNL A   1      36.836  31.521  32.105  1.00  0.00     0.016 A 
ATOM     46  C   UNL A   1      39.220  30.690  33.331  1.00  0.00     0.010 A 
ATOM     47  C   UNL A   1      37.923  31.275  31.323  1.00  0.00     0.010 A 
ATOM     48  C   UNL A   1      39.123  31.004  31.975  1.00  0.00    -0.014 A 
BRANCH  48  49
ATOM     49  C   UNL A   1      40.342  31.105  31.224  1.00  0.00     0.031 A 
ATOM     50  C   UNL A   1      40.561  29.926  30.379  1.00  0.00     0.074 A 
ATOM     51  C   UNL A   1      41.097  32.215  31.267  1.00  0.00     0.049 A 
ATOM     52  N   UNL A   1      41.400  28.972  30.590  1.00  0.00    -0.248 NA
ATOM     53  C   UNL A   1      39.559  29.638  29.341  1.00  0.00     0.031 C 
ATOM     54  C   UNL A   1      40.805  33.511  31.885  1.00  0.00     0.029 A 
ATOM     55  N   UNL A   1      42.273  32.440  30.642  1.00  0.00    -0.354 N 
ATOM     56  C   UNL A   1      41.181  28.070  29.562  1.00  0.00     0.074 A 
ATOM     57  C   UNL A   1      39.888  28.388  29.023  1.00  0.00     0.031 C 
ATOM     58  C   UNL A   1      41.655  34.438  31.382  1.00  0.00     0.029 A 
ATOM     59  C   UNL A   1      42.605  33.778  30.499  1.00  0.00     0.049 A 
ATOM     60  H   UNL A   1      42.849  31.711  30.314  1.00  0.00     0.167 HD
ATOM     61  C   UNL A   1      42.194  27.317  29.063  1.00  0.00     0.034 A 
ATOM     62  C   UNL A   1      43.506  34.273  29.608  1.00  0.00     0.034 A 
ATOM     63  C   UNL A   1      43.341  27.352  29.944  1.00  0.00     0.049 A 
ATOM     64  C   UNL A   1      44.397  33.131  29.237  1.00  0.00     0.074 A 
ATOM     65  C   UNL A   1      43.549  26.966  31.255  1.00  0.00     0.029 A 
ATOM     66  N   UNL A   1      44.358  28.234  29.644  1.00  0.00    -0.354 N 
ATOM     67  N   UNL A   1      45.192  32.544  30.097  1.00  0.00    -0.248 NA
ATOM     68  C   UNL A   1      44.015  32.295  28.101  1.00  0.00     0.031 C 
ATOM     69  C   UNL A   1      44.369  27.989  31.813  1.00  0.00     0.029 A 
ATOM     70  C   UNL A   1      44.693  28.898  30.802  1.00  0.00     0.049 A 
ATOM     71  H   UNL A   1      44.772  28.365  28.759  1.00  0.00     0.167 HD
ATOM     72  C   UNL A   1      45.063  31.181  29.855  1.00  0.00     0.074 A 
ATOM     73  C   UNL A   1      44.396  31.092  28.555  1.00  0.00     0.031 C 
ATOM     74  C   UNL A   1      45.211  30.257  30.855  1.00  0.00     0.034 A 
BRANCH  61  75
ATOM     75  C   UNL A   1      42.273  26.837  27.638  1.00  0.00     0.023 A 
ATOM     76  C   UNL A   1      42.345  25.449  27.439  1.00  0.00     0.031 A 
ATOM     77  C   UNL A   1      42.531  27.637  26.500  1.00  0.00     0.131 A 
ATOM     78  C   UNL A   1      42.737  24.920  26.200  1.00  0.00     0.055 A 
ATOM     79  C   UNL A   1      42.847  27.105  25.250  1.00  0.00     0.041 A 
ATOM     80  F   UNL A   1      42.596  28.973  26.542  1.00  0.00    -0.206 F 
ATOM     81  C   UNL A   1      42.983  25.738  25.100  1.00  0.00     0.022 A 
BRANCH  78  82
ATOM     82  S   UNL A   1      43.093  23.151  26.101  1.00  0.00     0.124 S 
ATOM     83  O   UNL A   1      42.047  22.587  26.949  1.00  0.00    -0.237 OA
ATOM     84  O   UNL A   1      42.967  22.901  24.669  1.00  0.00    -0.237 OA
ATOM     85  O   UNL A   1      44.449  23.050  26.637  1.00  0.00    -0.744 OA
ENDBRANCH  78  82
ENDBRANCH  61  75
BRANCH  62  86
ATOM     86  C   UNL A   1      43.329  35.524  28.809  1.00  0.00     0.023 A 
ATOM     87  C   UNL A   1      44.381  36.420  28.520  1.00  0.00     0.031 A 
ATOM     88  C   UNL A   1      42.104  35.764  28.139  1.00  0.00     0.131 A 
ATOM     89  C   UNL A   1      44.174  37.501  27.624  1.00  0.00     0.055 A 
ATOM     90  C   UNL A   1      41.901  36.839  27.270  1.00  0.00     0.041 A 
ATOM     91  F   UNL A   1      41.072  34.912  28.239  1.00  0.00    -0.206 F 
ATOM     92  C   UNL A   1      42.939  37.712  27.004  1.00  0.00     0.022 A 
BRANCH  89  93
ATOM     93  S   UNL A   1      45.544  38.617  27.175  1.00  0.00     0.124 S 
ATOM     94  O   UNL A   1      46.245  37.852  26.151  1.00  0.00    -0.237 OA
ATOM     95  O   UNL A   1      44.841  39.813  26.726  1.00  0.00    -0.237 OA
ATOM     96  O   UNL A   1      46.280  38.779  28.430  1.00  0.00    -0.744 OA
ENDBRANCH  89  93
ENDBRANCH  62  86
BRANCH  74  97
ATOM     97  C   UNL A   1      45.742  30.722  32.202  1.00  0.00     0.023 A 
ATOM     98  C   UNL A   1      44.941  31.239  33.248  1.00  0.00     0.031 A 
ATOM     99  C   UNL A   1      47.093  30.464  32.490  1.00  0.00     0.131 A 
ATOM    100  C   UNL A   1      45.504  31.478  34.519  1.00  0.00     0.055 A 
ATOM    101  C   UNL A   1      47.640  30.677  33.756  1.00  0.00     0.041 A 
ATOM    102  F   UNL A   1      47.902  29.945  31.551  1.00  0.00    -0.206 F 
ATOM    103  C   UNL A   1      46.847  31.188  34.776  1.00  0.00     0.022 A 
BRANCH 100 104
ATOM    104  S   UNL A   1      44.494  32.177  35.867  1.00  0.00     0.124 S 
ATOM    105  O   UNL A   1      44.227  33.539  35.419  1.00  0.00    -0.237 OA
ATOM    106  O   UNL A   1      43.346  31.275  35.901  1.00  0.00    -0.237 OA
ATOM    107  O   UNL A   1      45.375  32.084  37.034  1.00  0.00    -0.744 OA
ENDBRANCH 100 104
ENDBRANCH  74  97
ENDBRANCH  48  49
ENDBRANCH  41  43
ENDBRANCH  40  41
ENDBRANCH  39  40
ENDBRANCH  38  39
ENDBRANCH  37  38
ENDBRANCH  36  37
ENDBRANCH  35  36
ENDBRANCH  34  35
ENDBRANCH   1  34
TORSDOF 27
ENDMDL
MODEL 3
REMARK VINA RESULT:      -8.6      4.294     10.291
REMARK SMILES COc1ccc(-n2ccnc2C[N@@H+]2Cc3[nH]cnc3C[C@@H]2C(=O)OCCOCCOCCOCCOC(=O)c2ccc(-c3c4nc(c(-c5cc(S(=O)(=O)[O-])ccc5F)c5ccc([nH]5)c(-c5cc(S(=O)(=O)[O-])ccc5F)c5nc(c(-c6cc(S(=O)(=O)[O-])ccc6F)c6ccc3[nH]6)C=C5)C=C4)cc2)cc1
REMARK SMILES IDX 29 1 28 2 27 3 26 4 25 5 24 6 22 7 23 8 21 9 13 10 14 11
REMARK SMILES IDX 15 13 20 14 16 15 19 16 17 17 18 19 12 20 11 21 7 22 8 23
REMARK SMILES IDX 9 24 10 25 6 26 3 27 4 28 103 29 5 30 102 31 2 32 1 33 30 34
REMARK SMILES IDX 31 35 32 36 33 37 34 38 35 39 36 40 37 41 38 42 39 43 40 44
REMARK SMILES IDX 101 45 41 46 100 47 42 48 43 49 44 50 94 51 45 52 99 53
REMARK SMILES IDX 93 54 95 55 46 56 98 57 92 58 91 59 47 61 79 62 59 63 78 64
REMARK SMILES IDX 60 65 63 66 77 67 96 68 61 69 62 70 76 72 97 73 64 74 48 75
REMARK SMILES IDX 49 76 57 77 50 78 56 79 58 80 55 81 51 82 52 83 53 84 54 85
REMARK SMILES IDX 80 86 81 87 89 88 82 89 88 90 90 91 87 92 83 93 84 94 85 95
REMARK SMILES IDX 86 96 65 97 66 98 74 99 67 100 73 101 75 102 72 103 68 104
REMARK SMILES IDX 69 105 70 106 71 107
REMARK H PARENT 13 12 16 18 95 60 63 71
REMARK Flexibility Score: inf
ROOT
ATOM      1  C   UNL A   1      45.406  22.263  25.825  1.00  0.00     0.188 C 
ENDROOT
BRANCH   1   2
ATOM      2  C   UNL A   1      45.539  21.046  24.886  1.00  0.00     0.188 C 
BRANCH   2   3
ATOM      3  O   UNL A   1      45.135  19.812  25.453  1.00  0.00    -0.376 OA
BRANCH   3   4
ATOM      4  C   UNL A   1      43.783  19.439  25.285  1.00  0.00     0.202 C 
BRANCH   4   5
ATOM      5  C   UNL A   1      42.848  20.003  26.352  1.00  0.00     0.261 C 
BRANCH   5   6
ATOM      6  O   UNL A   1      41.663  20.628  25.840  1.00  0.00    -0.459 OA
BRANCH   6   7
ATOM      7  C   UNL A   1      41.637  21.974  25.606  1.00  0.00     0.365 C 
ATOM      8  O   UNL A   1      42.589  22.663  25.276  1.00  0.00    -0.245 OA
BRANCH   7   9
ATOM      9  C   UNL A   1      40.200  22.437  25.777  1.00  0.00     0.301 C 
ATOM     10  N   UNL A   1      40.000  23.684  26.609  1.00  0.00    -0.312 N 
ATOM     11  C   UNL A   1      38.657  24.266  26.385  1.00  0.00     0.320 C 
ATOM     12  H   UNL A   1      40.601  24.437  26.274  1.00  0.00     0.349 HD
ATOM     13  C   UNL A   1      37.721  23.250  25.774  1.00  0.00     0.093 A 
ATOM     14  C   UNL A   1      39.219  21.331  26.199  1.00  0.00     0.136 C 
ATOM     15  N   UNL A   1      36.850  23.451  24.732  1.00  0.00    -0.344 N 
ATOM     16  C   UNL A   1      37.906  21.877  25.781  1.00  0.00     0.074 A 
ATOM     17  C   UNL A   1      36.482  22.213  24.262  1.00  0.00     0.197 A 
ATOM     18  H   UNL A   1      36.546  24.321  24.385  1.00  0.00     0.167 HD
ATOM     19  N   UNL A   1      37.071  21.237  24.915  1.00  0.00    -0.241 NA
BRANCH  10  20
ATOM     20  C   UNL A   1      40.551  23.578  27.977  1.00  0.00     0.340 C 
BRANCH  20  21
ATOM     21  C   UNL A   1      41.851  24.201  28.400  1.00  0.00     0.168 A 
ATOM     22  N   UNL A   1      42.038  25.539  28.725  1.00  0.00    -0.299 N 
ATOM     23  C   UNL A   1      43.294  25.647  29.278  1.00  0.00     0.113 A 
ATOM     24  C   UNL A   1      43.821  24.384  29.262  1.00  0.00     0.132 A 
ATOM     25  N   UNL A   1      42.944  23.506  28.687  1.00  0.00    -0.236 NA
BRANCH  22  26
ATOM     26  C   UNL A   1      41.216  26.642  28.422  1.00  0.00     0.047 A 
ATOM     27  C   UNL A   1      39.460  28.589  27.504  1.00  0.00     0.119 A 
ATOM     28  C   UNL A   1      39.206  27.938  28.715  1.00  0.00     0.048 A 
ATOM     29  C   UNL A   1      40.655  28.357  26.824  1.00  0.00     0.048 A 
ATOM     30  C   UNL A   1      40.083  26.948  29.177  1.00  0.00     0.030 A 
ATOM     31  C   UNL A   1      41.541  27.389  27.285  1.00  0.00     0.030 A 
BRANCH  27  32
ATOM     32  O   UNL A   1      38.516  29.469  27.049  1.00  0.00    -0.497 OA
ATOM     33  C   UNL A   1      37.513  29.749  28.031  1.00  0.00     0.278 C 
ENDBRANCH  27  32
ENDBRANCH  22  26
ENDBRANCH  20  21
ENDBRANCH  10  20
ENDBRANCH   7   9
ENDBRANCH   6   7
ENDBRANCH   5   6
ENDBRANCH   4   5
ENDBRANCH   3   4
ENDBRANCH   2   3
ENDBRANCH   1   2
BRANCH   1  34
ATOM     34  O   UNL A   1      46.558  22.910  26.360  1.00  0.00    -0.377 OA
BRANCH  34  35
ATOM     35  C   UNL A   1      46.867  24.237  25.954  1.00  0.00     0.188 C 
BRANCH  35  36
ATOM     36  C   UNL A   1      45.936  25.406  26.378  1.00  0.00     0.188 C 
BRANCH  36  37
ATOM     37  O   UNL A   1      45.778  26.432  25.411  1.00  0.00    -0.376 OA
BRANCH  37  38
ATOM     38  C   UNL A   1      46.812  27.316  25.017  1.00  0.00     0.202 C 
BRANCH  38  39
ATOM     39  C   UNL A   1      46.474  28.785  24.778  1.00  0.00     0.261 C 
BRANCH  39  40
ATOM     40  O   UNL A   1      46.946  29.628  25.802  1.00  0.00    -0.460 OA
BRANCH  40  41
ATOM     41  C   UNL A   1      45.994  30.032  26.659  1.00  0.00     0.338 C 
ATOM     42  O   UNL A   1      44.818  30.263  26.399  1.00  0.00    -0.246 OA
BRANCH  41  43
ATOM     43  C   UNL A   1      46.605  30.170  27.985  1.00  0.00     0.060 A 
ATOM     44  C   UNL A   1      46.777  28.961  28.656  1.00  0.00     0.016 A 
ATOM     45  C   UNL A   1      46.412  31.394  28.639  1.00  0.00     0.016 A 
ATOM     46  C   UNL A   1      46.269  28.903  29.923  1.00  0.00     0.010 A 
ATOM     47  C   UNL A   1      45.868  31.330  29.885  1.00  0.00     0.010 A 
ATOM     48  C   UNL A   1      45.684  30.063  30.432  1.00  0.00    -0.014 A 
BRANCH  48  49
ATOM     49  C   UNL A   1      44.798  29.928  31.552  1.00  0.00     0.031 A 
ATOM     50  C   UNL A   1      43.419  30.282  31.203  1.00  0.00     0.074 A 
ATOM     51  C   UNL A   1      45.230  29.441  32.728  1.00  0.00     0.049 A 
ATOM     52  N   UNL A   1      42.795  31.362  31.524  1.00  0.00    -0.248 NA
ATOM     53  C   UNL A   1      42.755  29.483  30.161  1.00  0.00     0.031 C 
ATOM     54  C   UNL A   1      46.522  28.836  33.062  1.00  0.00     0.029 A 
ATOM     55  N   UNL A   1      44.523  29.286  33.868  1.00  0.00    -0.354 N 
ATOM     56  C   UNL A   1      41.561  31.260  30.905  1.00  0.00     0.074 A 
ATOM     57  C   UNL A   1      41.709  30.259  29.886  1.00  0.00     0.031 C 
ATOM     58  C   UNL A   1      46.401  28.161  34.230  1.00  0.00     0.029 A 
ATOM     59  C   UNL A   1      45.065  28.380  34.766  1.00  0.00     0.049 A 
ATOM     60  H   UNL A   1      43.689  29.778  34.048  1.00  0.00     0.167 HD
ATOM     61  C   UNL A   1      40.451  31.809  31.461  1.00  0.00     0.034 A 
ATOM     62  C   UNL A   1      44.387  27.775  35.778  1.00  0.00     0.034 A 
ATOM     63  C   UNL A   1      40.808  32.733  32.515  1.00  0.00     0.049 A 
ATOM     64  C   UNL A   1      43.193  28.633  36.052  1.00  0.00     0.074 A 
ATOM     65  C   UNL A   1      41.540  33.904  32.548  1.00  0.00     0.029 A 
ATOM     66  N   UNL A   1      40.769  32.275  33.816  1.00  0.00    -0.354 N 
ATOM     67  N   UNL A   1      43.290  29.856  36.511  1.00  0.00    -0.248 NA
ATOM     68  C   UNL A   1      41.961  28.362  35.316  1.00  0.00     0.031 C 
ATOM     69  C   UNL A   1      42.301  33.828  33.751  1.00  0.00     0.029 A 
ATOM     70  C   UNL A   1      41.935  32.665  34.433  1.00  0.00     0.049 A 
ATOM     71  H   UNL A   1      40.036  31.761  34.229  1.00  0.00     0.167 HD
ATOM     72  C   UNL A   1      42.377  30.604  35.777  1.00  0.00     0.074 A 
ATOM     73  C   UNL A   1      41.522  29.613  35.121  1.00  0.00     0.031 C 
ATOM     74  C   UNL A   1      42.585  31.931  35.509  1.00  0.00     0.034 A 
BRANCH  61  75
ATOM     75  C   UNL A   1      39.057  31.262  31.292  1.00  0.00     0.023 A 
ATOM     76  C   UNL A   1      38.054  32.180  30.943  1.00  0.00     0.031 A 
ATOM     77  C   UNL A   1      38.609  29.979  31.686  1.00  0.00     0.131 A 
ATOM     78  C   UNL A   1      36.697  31.845  31.072  1.00  0.00     0.055 A 
ATOM     79  C   UNL A   1      37.261  29.626  31.740  1.00  0.00     0.041 A 
ATOM     80  F   UNL A   1      39.429  29.023  32.138  1.00  0.00    -0.206 F 
ATOM     81  C   UNL A   1      36.292  30.572  31.462  1.00  0.00     0.022 A 
BRANCH  78  82
ATOM     82  S   UNL A   1      35.472  33.162  30.891  1.00  0.00     0.124 S 
ATOM     83  O   UNL A   1      36.063  34.232  31.689  1.00  0.00    -0.237 OA
ATOM     84  O   UNL A   1      35.463  33.364  29.446  1.00  0.00    -0.237 OA
ATOM     85  O   UNL A   1      34.258  32.570  31.447  1.00  0.00    -0.744 OA
ENDBRANCH  78  82
ENDBRANCH  61  75
BRANCH  62  86
ATOM     86  C   UNL A   1      44.527  26.339  36.171  1.00  0.00     0.023 A 
ATOM     87  C   UNL A   1      44.754  25.296  35.248  1.00  0.00     0.031 A 
ATOM     88  C   UNL A   1      44.625  25.991  37.541  1.00  0.00     0.131 A 
ATOM     89  C   UNL A   1      45.035  23.983  35.707  1.00  0.00     0.055 A 
ATOM     90  C   UNL A   1      44.886  24.694  37.988  1.00  0.00     0.041 A 
ATOM     91  F   UNL A   1      44.550  26.920  38.507  1.00  0.00    -0.206 F 
ATOM     92  C   UNL A   1      45.098  23.682  37.070  1.00  0.00     0.022 A 
BRANCH  89  93
ATOM     93  S   UNL A   1      45.414  22.644  34.529  1.00  0.00     0.124 S 
ATOM     94  O   UNL A   1      46.865  22.723  34.424  1.00  0.00    -0.237 OA
ATOM     95  O   UNL A   1      44.874  21.469  35.205  1.00  0.00    -0.237 OA
ATOM     96  O   UNL A   1      44.689  23.035  33.319  1.00  0.00    -0.744 OA
ENDBRANCH  89  93
ENDBRANCH  62  86
BRANCH  74  97
ATOM     97  C   UNL A   1      43.727  32.645  36.215  1.00  0.00     0.023 A 
ATOM     98  C   UNL A   1      45.040  32.767  35.700  1.00  0.00     0.031 A 
ATOM     99  C   UNL A   1      43.417  33.376  37.374  1.00  0.00     0.131 A 
ATOM    100  C   UNL A   1      45.980  33.597  36.348  1.00  0.00     0.055 A 
ATOM    101  C   UNL A   1      44.342  34.215  37.996  1.00  0.00     0.041 A 
ATOM    102  F   UNL A   1      42.180  33.328  37.898  1.00  0.00    -0.206 F 
ATOM    103  C   UNL A   1      45.629  34.327  37.486  1.00  0.00     0.022 A 
BRANCH 100 104
ATOM    104  S   UNL A   1      47.686  33.737  35.718  1.00  0.00     0.124 S 
ATOM    105  O   UNL A   1      47.807  32.601  34.812  1.00  0.00    -0.237 OA
ATOM    106  O   UNL A   1      47.683  35.058  35.095  1.00  0.00    -0.237 OA
ATOM    107  O   UNL A   1      48.503  33.638  36.929  1.00  0.00    -0.744 OA
ENDBRANCH 100 104
ENDBRANCH  74  97
ENDBRANCH  48  49
ENDBRANCH  41  43
ENDBRANCH  40  41
ENDBRANCH  39  40
ENDBRANCH  38  39
ENDBRANCH  37  38
ENDBRANCH  36  37
ENDBRANCH  35  36
ENDBRANCH  34  35
ENDBRANCH   1  34
TORSDOF 27
ENDMDL
