MODEL 1
REMARK VINA RESULT:      -8.5      0.000      0.000
REMARK SMILES CCc1cc(OC[C@@H]2C[N@@H+](CC)CCO2)c(C(=O)OCCOCCOCCOCCOC(=O)c2ccc(-c3c4nc(c(-c5cc(S(=O)(=O)[O-])ccc5F)c5ccc([nH]5)c(-c5cc(S(=O)(=O)[O-])ccc5F)c5nc(c(-c6cc(S(=O)(=O)[O-])ccc6F)c6ccc3[nH]6)C=C5)C=C4)cc2)s1
REMARK SMILES IDX 24 1 23 2 22 3 21 4 20 5 19 6 17 7 18 8 16 9 3 10 4 11 97 12
REMARK SMILES IDX 5 13 2 14 1 15 6 16 7 17 8 18 9 19 15 20 10 21 14 22 13 23
REMARK SMILES IDX 11 25 12 26 25 27 26 28 27 29 28 30 29 31 30 32 31 33 32 34
REMARK SMILES IDX 33 35 34 36 35 37 96 38 36 39 95 40 37 41 38 42 39 43 89 44
REMARK SMILES IDX 40 45 94 46 88 47 90 48 41 49 93 50 87 51 86 52 42 54 74 55
REMARK SMILES IDX 54 56 73 57 55 58 58 59 72 60 91 61 56 62 57 63 71 65 92 66
REMARK SMILES IDX 59 67 43 68 44 69 52 70 45 71 51 72 53 73 50 74 46 75 47 76
REMARK SMILES IDX 48 77 49 78 75 79 76 80 84 81 77 82 83 83 85 84 82 85 78 86
REMARK SMILES IDX 79 87 80 88 81 89 60 90 61 91 69 92 62 93 68 94 70 95 67 96
REMARK SMILES IDX 63 97 64 98 65 99 66 100
REMARK H PARENT 10 24 90 53 58 64
REMARK Flexibility Score: inf
ROOT
ATOM      1  C   UNL A   1      40.389  20.799  26.664  1.00  0.00     0.188 C 
ENDROOT
BRANCH   1   2
ATOM      2  C   UNL A   1      39.456  21.910  26.160  1.00  0.00     0.188 C 
BRANCH   2   3
ATOM      3  O   UNL A   1      38.241  21.423  25.600  1.00  0.00    -0.376 OA
BRANCH   3   4
ATOM      4  C   UNL A   1      37.120  22.297  25.675  1.00  0.00     0.202 C 
BRANCH   4   5
ATOM      5  C   UNL A   1      36.170  22.281  24.469  1.00  0.00     0.261 C 
BRANCH   5   6
ATOM      6  O   UNL A   1      35.456  23.507  24.265  1.00  0.00    -0.459 OA
BRANCH   6   7
ATOM      7  C   UNL A   1      34.496  23.557  23.308  1.00  0.00     0.352 C 
ATOM      8  O   UNL A   1      34.669  23.194  22.147  1.00  0.00    -0.245 OA
BRANCH   7   9
ATOM      9  C   UNL A   1      33.236  23.934  23.921  1.00  0.00     0.155 A 
ATOM     10  C   UNL A   1      31.394  25.275  24.905  1.00  0.00     0.009 A 
ATOM     11  C   UNL A   1      30.967  24.048  24.446  1.00  0.00     0.062 A 
ATOM     12  S   UNL A   1      33.062  25.506  24.596  1.00  0.00    -0.130 S 
ATOM     13  C   UNL A   1      32.059  23.221  24.055  1.00  0.00     0.145 A 
BRANCH  10  14
ATOM     14  C   UNL A   1      30.589  26.276  25.676  1.00  0.00     0.043 C 
ATOM     15  C   UNL A   1      31.357  26.925  26.813  1.00  0.00     0.010 C 
ENDBRANCH  10  14
BRANCH  13  16
ATOM     16  O   UNL A   1      32.007  21.888  23.805  1.00  0.00    -0.489 OA
BRANCH  16  17
ATOM     17  C   UNL A   1      32.579  21.068  24.847  1.00  0.00     0.267 C 
BRANCH  17  18
ATOM     18  C   UNL A   1      32.674  19.576  24.454  1.00  0.00     0.210 C 
ATOM     19  C   UNL A   1      34.081  18.997  24.707  1.00  0.00     0.298 C 
ATOM     20  O   UNL A   1      32.387  19.444  23.045  1.00  0.00    -0.363 OA
ATOM     21  N   UNL A   1      34.275  17.615  24.218  1.00  0.00    -0.331 N 
ATOM     22  C   UNL A   1      32.320  18.071  22.672  1.00  0.00     0.222 C 
ATOM     23  C   UNL A   1      33.683  17.412  22.886  1.00  0.00     0.291 C 
ATOM     24  H   UNL A   1      35.283  17.515  24.091  1.00  0.00     0.348 HD
BRANCH  21  25
ATOM     25  C   UNL A   1      33.996  16.559  25.187  1.00  0.00     0.258 C 
ATOM     26  C   UNL A   1      32.552  16.328  25.608  1.00  0.00     0.071 C 
ENDBRANCH  21  25
ENDBRANCH  17  18
ENDBRANCH  16  17
ENDBRANCH  13  16
ENDBRANCH   7   9
ENDBRANCH   6   7
ENDBRANCH   5   6
ENDBRANCH   4   5
ENDBRANCH   3   4
ENDBRANCH   2   3
ENDBRANCH   1   2
BRANCH   1  27
ATOM     27  O   UNL A   1      41.391  20.390  25.756  1.00  0.00    -0.377 OA
BRANCH  27  28
ATOM     28  C   UNL A   1      42.749  20.730  26.020  1.00  0.00     0.188 C 
BRANCH  28  29
ATOM     29  C   UNL A   1      43.160  22.039  26.733  1.00  0.00     0.188 C 
BRANCH  29  30
ATOM     30  O   UNL A   1      43.019  23.228  25.961  1.00  0.00    -0.376 OA
BRANCH  30  31
ATOM     31  C   UNL A   1      43.318  23.125  24.575  1.00  0.00     0.202 C 
BRANCH  31  32
ATOM     32  C   UNL A   1      44.818  23.156  24.257  1.00  0.00     0.261 C 
BRANCH  32  33
ATOM     33  O   UNL A   1      45.468  24.405  24.530  1.00  0.00    -0.460 OA
BRANCH  33  34
ATOM     34  C   UNL A   1      46.097  24.520  25.723  1.00  0.00     0.338 C 
ATOM     35  O   UNL A   1      47.026  23.853  26.134  1.00  0.00    -0.246 OA
BRANCH  34  36
ATOM     36  C   UNL A   1      45.565  25.722  26.391  1.00  0.00     0.060 A 
ATOM     37  C   UNL A   1      45.044  26.761  25.611  1.00  0.00     0.016 A 
ATOM     38  C   UNL A   1      45.592  25.816  27.783  1.00  0.00     0.016 A 
ATOM     39  C   UNL A   1      44.582  27.925  26.227  1.00  0.00     0.010 A 
ATOM     40  C   UNL A   1      45.147  26.986  28.396  1.00  0.00     0.010 A 
ATOM     41  C   UNL A   1      44.673  28.056  27.619  1.00  0.00    -0.014 A 
BRANCH  41  42
ATOM     42  C   UNL A   1      44.485  29.379  28.261  1.00  0.00     0.031 A 
ATOM     43  C   UNL A   1      45.663  30.312  28.303  1.00  0.00     0.074 A 
ATOM     44  C   UNL A   1      43.313  29.727  28.821  1.00  0.00     0.049 A 
ATOM     45  N   UNL A   1      45.793  31.461  28.911  1.00  0.00    -0.248 NA
ATOM     46  C   UNL A   1      46.859  29.878  27.564  1.00  0.00     0.031 C 
ATOM     47  C   UNL A   1      42.094  28.921  28.802  1.00  0.00     0.029 A 
ATOM     48  N   UNL A   1      42.967  30.847  29.534  1.00  0.00    -0.354 N 
ATOM     49  C   UNL A   1      47.088  31.887  28.633  1.00  0.00     0.074 A 
ATOM     50  C   UNL A   1      47.710  30.855  27.831  1.00  0.00     0.031 C 
ATOM     51  C   UNL A   1      41.138  29.566  29.494  1.00  0.00     0.029 A 
ATOM     52  C   UNL A   1      41.689  30.806  30.037  1.00  0.00     0.049 A 
ATOM     53  H   UNL A   1      43.577  31.608  29.671  1.00  0.00     0.167 HD
ATOM     54  C   UNL A   1      47.701  33.035  29.011  1.00  0.00     0.034 A 
ATOM     55  C   UNL A   1      41.055  31.658  30.870  1.00  0.00     0.034 A 
ATOM     56  C   UNL A   1      47.075  34.039  29.834  1.00  0.00     0.049 A 
ATOM     57  C   UNL A   1      41.787  32.887  31.357  1.00  0.00     0.074 A 
ATOM     58  C   UNL A   1      47.600  35.237  30.284  1.00  0.00     0.029 A 
ATOM     59  N   UNL A   1      45.786  33.953  30.346  1.00  0.00    -0.354 N 
ATOM     60  N   UNL A   1      43.012  33.281  31.091  1.00  0.00    -0.248 NA
ATOM     61  C   UNL A   1      41.049  33.789  32.254  1.00  0.00     0.031 C 
ATOM     62  C   UNL A   1      46.655  35.843  31.119  1.00  0.00     0.029 A 
ATOM     63  C   UNL A   1      45.510  35.062  31.127  1.00  0.00     0.049 A 
ATOM     64  H   UNL A   1      45.160  33.211  30.176  1.00  0.00     0.167 HD
ATOM     65  C   UNL A   1      43.174  34.496  31.756  1.00  0.00     0.074 A 
ATOM     66  C   UNL A   1      41.924  34.768  32.433  1.00  0.00     0.031 C 
ATOM     67  C   UNL A   1      44.254  35.317  31.794  1.00  0.00     0.034 A 
BRANCH  54  68
ATOM     68  C   UNL A   1      49.136  33.221  28.585  1.00  0.00     0.023 A 
ATOM     69  C   UNL A   1      49.469  33.680  27.297  1.00  0.00     0.031 A 
ATOM     70  C   UNL A   1      50.185  32.889  29.458  1.00  0.00     0.131 A 
ATOM     71  C   UNL A   1      50.813  33.724  26.898  1.00  0.00     0.055 A 
ATOM     72  C   UNL A   1      51.524  33.011  29.082  1.00  0.00     0.041 A 
ATOM     73  F   UNL A   1      49.926  32.419  30.689  1.00  0.00    -0.206 F 
ATOM     74  C   UNL A   1      51.844  33.416  27.789  1.00  0.00     0.022 A 
BRANCH  71  75
ATOM     75  S   UNL A   1      51.189  34.050  25.153  1.00  0.00     0.124 S 
ATOM     76  O   UNL A   1      49.989  34.763  24.721  1.00  0.00    -0.237 OA
ATOM     77  O   UNL A   1      52.408  34.844  25.236  1.00  0.00    -0.237 OA
ATOM     78  O   UNL A   1      51.351  32.714  24.583  1.00  0.00    -0.744 OA
ENDBRANCH  71  75
ENDBRANCH  54  68
BRANCH  55  79
ATOM     79  C   UNL A   1      39.671  31.364  31.342  1.00  0.00     0.023 A 
ATOM     80  C   UNL A   1      38.549  31.861  30.659  1.00  0.00     0.031 A 
ATOM     81  C   UNL A   1      39.451  30.632  32.523  1.00  0.00     0.131 A 
ATOM     82  C   UNL A   1      37.263  31.659  31.184  1.00  0.00     0.055 A 
ATOM     83  C   UNL A   1      38.167  30.390  33.014  1.00  0.00     0.041 A 
ATOM     84  F   UNL A   1      40.488  30.136  33.217  1.00  0.00    -0.206 F 
ATOM     85  C   UNL A   1      37.065  30.917  32.350  1.00  0.00     0.022 A 
BRANCH  82  86
ATOM     86  S   UNL A   1      35.854  32.456  30.366  1.00  0.00     0.124 S 
ATOM     87  O   UNL A   1      36.313  33.837  30.262  1.00  0.00    -0.237 OA
ATOM     88  O   UNL A   1      35.771  31.712  29.114  1.00  0.00    -0.237 OA
ATOM     89  O   UNL A   1      34.750  32.233  31.296  1.00  0.00    -0.744 OA
ENDBRANCH  82  86
ENDBRANCH  55  79
BRANCH  67  90
ATOM     90  C   UNL A   1      44.106  36.622  32.537  1.00  0.00     0.023 A 
ATOM     91  C   UNL A   1      43.787  37.823  31.880  1.00  0.00     0.031 A 
ATOM     92  C   UNL A   1      44.275  36.655  33.934  1.00  0.00     0.131 A 
ATOM     93  C   UNL A   1      43.688  39.015  32.615  1.00  0.00     0.055 A 
ATOM     94  C   UNL A   1      44.122  37.832  34.666  1.00  0.00     0.041 A 
ATOM     95  F   UNL A   1      44.580  35.536  34.611  1.00  0.00    -0.206 F 
ATOM     96  C   UNL A   1      43.837  39.023  34.006  1.00  0.00     0.022 A 
BRANCH  93  97
ATOM     97  S   UNL A   1      43.428  40.573  31.725  1.00  0.00     0.124 S 
ATOM     98  O   UNL A   1      42.052  40.902  32.079  1.00  0.00    -0.237 OA
ATOM     99  O   UNL A   1      44.457  41.436  32.298  1.00  0.00    -0.237 OA
ATOM    100  O   UNL A   1      43.638  40.208  30.325  1.00  0.00    -0.744 OA
ENDBRANCH  93  97
ENDBRANCH  67  90
ENDBRANCH  41  42
ENDBRANCH  34  36
ENDBRANCH  33  34
ENDBRANCH  32  33
ENDBRANCH  31  32
ENDBRANCH  30  31
ENDBRANCH  29  30
ENDBRANCH  28  29
ENDBRANCH  27  28
ENDBRANCH   1  27
TORSDOF 28
ENDMDL
MODEL 2
REMARK VINA RESULT:      -8.1      8.428     14.445
REMARK SMILES CCc1cc(OC[C@@H]2C[N@@H+](CC)CCO2)c(C(=O)OCCOCCOCCOCCOC(=O)c2ccc(-c3c4nc(c(-c5cc(S(=O)(=O)[O-])ccc5F)c5ccc([nH]5)c(-c5cc(S(=O)(=O)[O-])ccc5F)c5nc(c(-c6cc(S(=O)(=O)[O-])ccc6F)c6ccc3[nH]6)C=C5)C=C4)cc2)s1
REMARK SMILES IDX 24 1 23 2 22 3 21 4 20 5 19 6 17 7 18 8 16 9 3 10 4 11 97 12
REMARK SMILES IDX 5 13 2 14 1 15 6 16 7 17 8 18 9 19 15 20 10 21 14 22 13 23
REMARK SMILES IDX 11 25 12 26 25 27 26 28 27 29 28 30 29 31 30 32 31 33 32 34
REMARK SMILES IDX 33 35 34 36 35 37 96 38 36 39 95 40 37 41 38 42 39 43 89 44
REMARK SMILES IDX 40 45 94 46 88 47 90 48 41 49 93 50 87 51 86 52 42 54 74 55
REMARK SMILES IDX 54 56 73 57 55 58 58 59 72 60 91 61 56 62 57 63 71 65 92 66
REMARK SMILES IDX 59 67 43 68 44 69 52 70 45 71 51 72 53 73 50 74 46 75 47 76
REMARK SMILES IDX 48 77 49 78 75 79 76 80 84 81 77 82 83 83 85 84 82 85 78 86
REMARK SMILES IDX 79 87 80 88 81 89 60 90 61 91 69 92 62 93 68 94 70 95 67 96
REMARK SMILES IDX 63 97 64 98 65 99 66 100
REMARK H PARENT 10 24 90 53 58 64
REMARK Flexibility Score: inf
ROOT
ATOM      1  C   UNL A   1      53.008  21.678  32.449  1.00  0.00     0.188 C 
ENDROOT
BRANCH   1   2
ATOM      2  C   UNL A   1      53.110  20.390  33.279  1.00  0.00     0.188 C 
BRANCH   2   3
ATOM      3  O   UNL A   1      51.898  20.039  33.939  1.00  0.00    -0.376 OA
BRANCH   3   4
ATOM      4  C   UNL A   1      52.008  19.698  35.316  1.00  0.00     0.202 C 
BRANCH   4   5
ATOM      5  C   UNL A   1      50.824  18.926  35.916  1.00  0.00     0.261 C 
BRANCH   5   6
ATOM      6  O   UNL A   1      50.586  19.198  37.303  1.00  0.00    -0.459 OA
BRANCH   6   7
ATOM      7  C   UNL A   1      50.029  20.384  37.654  1.00  0.00     0.352 C 
ATOM      8  O   UNL A   1      50.669  21.337  38.092  1.00  0.00    -0.245 OA
BRANCH   7   9
ATOM      9  C   UNL A   1      48.630  20.382  37.270  1.00  0.00     0.155 A 
ATOM     10  C   UNL A   1      46.527  20.725  35.997  1.00  0.00     0.009 A 
ATOM     11  C   UNL A   1      46.420  19.719  36.933  1.00  0.00     0.062 A 
ATOM     12  S   UNL A   1      48.108  21.383  35.974  1.00  0.00    -0.130 S 
ATOM     13  C   UNL A   1      47.567  19.657  37.777  1.00  0.00     0.145 A 
BRANCH  10  14
ATOM     14  C   UNL A   1      45.424  21.292  35.157  1.00  0.00     0.043 C 
ATOM     15  C   UNL A   1      45.837  22.517  34.362  1.00  0.00     0.010 C 
ENDBRANCH  10  14
BRANCH  13  16
ATOM     16  O   UNL A   1      47.670  18.966  38.940  1.00  0.00    -0.489 OA
BRANCH  16  17
ATOM     17  C   UNL A   1      46.448  18.319  39.355  1.00  0.00     0.267 C 
BRANCH  17  18
ATOM     18  C   UNL A   1      46.112  18.566  40.843  1.00  0.00     0.210 C 
ATOM     19  C   UNL A   1      46.727  17.492  41.763  1.00  0.00     0.298 C 
ATOM     20  O   UNL A   1      44.679  18.527  41.013  1.00  0.00    -0.363 OA
ATOM     21  N   UNL A   1      46.323  17.592  43.182  1.00  0.00    -0.331 N 
ATOM     22  C   UNL A   1      44.319  18.895  42.340  1.00  0.00     0.222 C 
ATOM     23  C   UNL A   1      44.886  17.874  43.329  1.00  0.00     0.291 C 
ATOM     24  H   UNL A   1      46.462  16.657  43.566  1.00  0.00     0.348 HD
BRANCH  21  25
ATOM     25  C   UNL A   1      47.201  18.391  44.031  1.00  0.00     0.258 C 
ATOM     26  C   UNL A   1      46.800  18.610  45.483  1.00  0.00     0.071 C 
ENDBRANCH  21  25
ENDBRANCH  17  18
ENDBRANCH  16  17
ENDBRANCH  13  16
ENDBRANCH   7   9
ENDBRANCH   6   7
ENDBRANCH   5   6
ENDBRANCH   4   5
ENDBRANCH   3   4
ENDBRANCH   2   3
ENDBRANCH   1   2
BRANCH   1  27
ATOM     27  O   UNL A   1      52.000  22.582  32.854  1.00  0.00    -0.377 OA
BRANCH  27  28
ATOM     28  C   UNL A   1      52.318  23.606  33.791  1.00  0.00     0.188 C 
BRANCH  28  29
ATOM     29  C   UNL A   1      51.247  24.304  34.661  1.00  0.00     0.188 C 
BRANCH  29  30
ATOM     30  O   UNL A   1      51.741  25.265  35.589  1.00  0.00    -0.376 OA
BRANCH  30  31
ATOM     31  C   UNL A   1      50.809  26.230  36.059  1.00  0.00     0.202 C 
BRANCH  31  32
ATOM     32  C   UNL A   1      49.540  25.624  36.671  1.00  0.00     0.261 C 
BRANCH  32  33
ATOM     33  O   UNL A   1      48.311  26.072  36.081  1.00  0.00    -0.460 OA
BRANCH  33  34
ATOM     34  C   UNL A   1      47.164  25.657  36.665  1.00  0.00     0.338 C 
ATOM     35  O   UNL A   1      47.051  24.931  37.634  1.00  0.00    -0.246 OA
BRANCH  34  36
ATOM     36  C   UNL A   1      46.052  26.378  36.021  1.00  0.00     0.060 A 
ATOM     37  C   UNL A   1      44.758  25.848  36.104  1.00  0.00     0.016 A 
ATOM     38  C   UNL A   1      46.295  27.568  35.333  1.00  0.00     0.016 A 
ATOM     39  C   UNL A   1      43.703  26.494  35.459  1.00  0.00     0.010 A 
ATOM     40  C   UNL A   1      45.244  28.202  34.675  1.00  0.00     0.010 A 
ATOM     41  C   UNL A   1      43.952  27.649  34.706  1.00  0.00    -0.014 A 
BRANCH  41  42
ATOM     42  C   UNL A   1      42.927  28.170  33.770  1.00  0.00     0.031 A 
ATOM     43  C   UNL A   1      41.873  29.087  34.325  1.00  0.00     0.074 A 
ATOM     44  C   UNL A   1      42.913  27.813  32.474  1.00  0.00     0.049 A 
ATOM     45  N   UNL A   1      40.805  29.571  33.749  1.00  0.00    -0.248 NA
ATOM     46  C   UNL A   1      42.047  29.501  35.726  1.00  0.00     0.031 C 
ATOM     47  C   UNL A   1      43.909  26.965  31.820  1.00  0.00     0.029 A 
ATOM     48  N   UNL A   1      42.012  28.105  31.482  1.00  0.00    -0.354 N 
ATOM     49  C   UNL A   1      40.175  30.345  34.719  1.00  0.00     0.074 A 
ATOM     50  C   UNL A   1      40.964  30.234  35.927  1.00  0.00     0.031 C 
ATOM     51  C   UNL A   1      43.550  26.789  30.536  1.00  0.00     0.029 A 
ATOM     52  C   UNL A   1      42.282  27.473  30.291  1.00  0.00     0.049 A 
ATOM     53  H   UNL A   1      41.247  28.709  31.611  1.00  0.00     0.167 HD
ATOM     54  C   UNL A   1      39.042  31.081  34.610  1.00  0.00     0.034 A 
ATOM     55  C   UNL A   1      41.564  27.428  29.149  1.00  0.00     0.034 A 
ATOM     56  C   UNL A   1      38.253  31.156  33.406  1.00  0.00     0.049 A 
ATOM     57  C   UNL A   1      40.255  28.180  29.076  1.00  0.00     0.074 A 
ATOM     58  C   UNL A   1      37.085  31.863  33.182  1.00  0.00     0.029 A 
ATOM     59  N   UNL A   1      38.543  30.484  32.226  1.00  0.00    -0.354 N 
ATOM     60  N   UNL A   1      39.666  28.908  29.998  1.00  0.00    -0.248 NA
ATOM     61  C   UNL A   1      39.516  28.109  27.808  1.00  0.00     0.031 C 
ATOM     62  C   UNL A   1      36.636  31.569  31.890  1.00  0.00     0.029 A 
ATOM     63  C   UNL A   1      37.564  30.740  31.280  1.00  0.00     0.049 A 
ATOM     64  H   UNL A   1      39.331  29.911  32.082  1.00  0.00     0.167 HD
ATOM     65  C   UNL A   1      38.509  29.411  29.405  1.00  0.00     0.074 A 
ATOM     66  C   UNL A   1      38.485  28.905  28.049  1.00  0.00     0.031 C 
ATOM     67  C   UNL A   1      37.558  30.226  29.929  1.00  0.00     0.034 A 
BRANCH  54  68
ATOM     68  C   UNL A   1      38.571  31.803  35.847  1.00  0.00     0.023 A 
ATOM     69  C   UNL A   1      38.027  31.111  36.944  1.00  0.00     0.031 A 
ATOM     70  C   UNL A   1      38.619  33.206  35.912  1.00  0.00     0.131 A 
ATOM     71  C   UNL A   1      37.489  31.826  38.024  1.00  0.00     0.055 A 
ATOM     72  C   UNL A   1      38.155  33.909  37.025  1.00  0.00     0.041 A 
ATOM     73  F   UNL A   1      39.102  33.920  34.883  1.00  0.00    -0.206 F 
ATOM     74  C   UNL A   1      37.571  33.219  38.083  1.00  0.00     0.022 A 
BRANCH  71  75
ATOM     75  S   UNL A   1      36.550  30.918  39.284  1.00  0.00     0.124 S 
ATOM     76  O   UNL A   1      35.445  31.837  39.547  1.00  0.00    -0.237 OA
ATOM     77  O   UNL A   1      36.203  29.683  38.590  1.00  0.00    -0.237 OA
ATOM     78  O   UNL A   1      37.504  30.770  40.381  1.00  0.00    -0.744 OA
ENDBRANCH  71  75
ENDBRANCH  54  68
BRANCH  55  79
ATOM     79  C   UNL A   1      42.031  26.608  27.994  1.00  0.00     0.023 A 
ATOM     80  C   UNL A   1      41.836  25.218  27.964  1.00  0.00     0.031 A 
ATOM     81  C   UNL A   1      42.735  27.197  26.928  1.00  0.00     0.131 A 
ATOM     82  C   UNL A   1      42.379  24.457  26.916  1.00  0.00     0.055 A 
ATOM     83  C   UNL A   1      43.228  26.443  25.862  1.00  0.00     0.041 A 
ATOM     84  F   UNL A   1      42.951  28.522  26.907  1.00  0.00    -0.206 F 
ATOM     85  C   UNL A   1      43.062  25.063  25.859  1.00  0.00     0.022 A 
BRANCH  82  86
ATOM     86  S   UNL A   1      42.252  22.650  26.997  1.00  0.00     0.124 S 
ATOM     87  O   UNL A   1      41.054  22.400  26.203  1.00  0.00    -0.237 OA
ATOM     88  O   UNL A   1      43.516  22.231  26.401  1.00  0.00    -0.237 OA
ATOM     89  O   UNL A   1      42.121  22.382  28.428  1.00  0.00    -0.744 OA
ENDBRANCH  82  86
ENDBRANCH  55  79
BRANCH  67  90
ATOM     90  C   UNL A   1      36.450  30.679  29.011  1.00  0.00     0.023 A 
ATOM     91  C   UNL A   1      35.531  29.776  28.450  1.00  0.00     0.031 A 
ATOM     92  C   UNL A   1      36.308  32.045  28.707  1.00  0.00     0.131 A 
ATOM     93  C   UNL A   1      34.535  30.246  27.579  1.00  0.00     0.055 A 
ATOM     94  C   UNL A   1      35.283  32.513  27.884  1.00  0.00     0.041 A 
ATOM     95  F   UNL A   1      37.158  32.950  29.217  1.00  0.00    -0.206 F 
ATOM     96  C   UNL A   1      34.396  31.610  27.307  1.00  0.00     0.022 A 
BRANCH  93  97
ATOM     97  S   UNL A   1      33.461  29.044  26.748  1.00  0.00     0.124 S 
ATOM     98  O   UNL A   1      34.299  27.850  26.726  1.00  0.00    -0.237 OA
ATOM     99  O   UNL A   1      32.303  28.993  27.635  1.00  0.00    -0.237 OA
ATOM    100  O   UNL A   1      33.212  29.651  25.442  1.00  0.00    -0.744 OA
ENDBRANCH  93  97
ENDBRANCH  67  90
ENDBRANCH  41  42
ENDBRANCH  34  36
ENDBRANCH  33  34
ENDBRANCH  32  33
ENDBRANCH  31  32
ENDBRANCH  30  31
ENDBRANCH  29  30
ENDBRANCH  28  29
ENDBRANCH  27  28
ENDBRANCH   1  27
TORSDOF 28
ENDMDL
MODEL 3
REMARK VINA RESULT:      -8.1      7.770     13.713
REMARK SMILES CCc1cc(OC[C@@H]2C[N@@H+](CC)CCO2)c(C(=O)OCCOCCOCCOCCOC(=O)c2ccc(-c3c4nc(c(-c5cc(S(=O)(=O)[O-])ccc5F)c5ccc([nH]5)c(-c5cc(S(=O)(=O)[O-])ccc5F)c5nc(c(-c6cc(S(=O)(=O)[O-])ccc6F)c6ccc3[nH]6)C=C5)C=C4)cc2)s1
REMARK SMILES IDX 24 1 23 2 22 3 21 4 20 5 19 6 17 7 18 8 16 9 3 10 4 11 97 12
REMARK SMILES IDX 5 13 2 14 1 15 6 16 7 17 8 18 9 19 15 20 10 21 14 22 13 23
REMARK SMILES IDX 11 25 12 26 25 27 26 28 27 29 28 30 29 31 30 32 31 33 32 34
REMARK SMILES IDX 33 35 34 36 35 37 96 38 36 39 95 40 37 41 38 42 39 43 89 44
REMARK SMILES IDX 40 45 94 46 88 47 90 48 41 49 93 50 87 51 86 52 42 54 74 55
REMARK SMILES IDX 54 56 73 57 55 58 58 59 72 60 91 61 56 62 57 63 71 65 92 66
REMARK SMILES IDX 59 67 43 68 44 69 52 70 45 71 51 72 53 73 50 74 46 75 47 76
REMARK SMILES IDX 48 77 49 78 75 79 76 80 84 81 77 82 83 83 85 84 82 85 78 86
REMARK SMILES IDX 79 87 80 88 81 89 60 90 61 91 69 92 62 93 68 94 70 95 67 96
REMARK SMILES IDX 63 97 64 98 65 99 66 100
REMARK H PARENT 10 24 90 53 58 64
REMARK Flexibility Score: inf
ROOT
ATOM      1  C   UNL A   1      52.812  21.691  32.469  1.00  0.00     0.188 C 
ENDROOT
BRANCH   1   2
ATOM      2  C   UNL A   1      52.497  20.407  33.250  1.00  0.00     0.188 C 
BRANCH   2   3
ATOM      3  O   UNL A   1      51.134  20.305  33.653  1.00  0.00    -0.376 OA
BRANCH   3   4
ATOM      4  C   UNL A   1      50.907  19.996  35.024  1.00  0.00     0.202 C 
BRANCH   4   5
ATOM      5  C   UNL A   1      49.494  19.512  35.380  1.00  0.00     0.261 C 
BRANCH   5   6
ATOM      6  O   UNL A   1      49.014  19.977  36.647  1.00  0.00    -0.459 OA
BRANCH   6   7
ATOM      7  C   UNL A   1      48.797  21.305  36.821  1.00  0.00     0.352 C 
ATOM      8  O   UNL A   1      49.623  22.074  37.306  1.00  0.00    -0.245 OA
BRANCH   7   9
ATOM      9  C   UNL A   1      47.538  21.665  36.197  1.00  0.00     0.155 A 
ATOM     10  C   UNL A   1      45.860  22.556  34.600  1.00  0.00     0.009 A 
ATOM     11  C   UNL A   1      45.337  21.591  35.433  1.00  0.00     0.062 A 
ATOM     12  S   UNL A   1      47.530  22.792  34.899  1.00  0.00    -0.130 S 
ATOM     13  C   UNL A   1      46.254  21.224  36.459  1.00  0.00     0.145 A 
BRANCH  10  14
ATOM     14  C   UNL A   1      45.108  23.401  33.618  1.00  0.00     0.043 C 
ATOM     15  C   UNL A   1      43.609  23.165  33.639  1.00  0.00     0.010 C 
ENDBRANCH  10  14
BRANCH  13  16
ATOM     16  O   UNL A   1      45.965  20.506  37.573  1.00  0.00    -0.489 OA
BRANCH  16  17
ATOM     17  C   UNL A   1      46.412  21.116  38.804  1.00  0.00     0.267 C 
BRANCH  17  18
ATOM     18  C   UNL A   1      46.597  20.095  39.949  1.00  0.00     0.210 C 
ATOM     19  C   UNL A   1      48.041  19.559  40.022  1.00  0.00     0.298 C 
ATOM     20  O   UNL A   1      45.718  18.973  39.723  1.00  0.00    -0.363 OA
ATOM     21  N   UNL A   1      48.247  18.473  41.003  1.00  0.00    -0.331 N 
ATOM     22  C   UNL A   1      45.750  18.078  40.830  1.00  0.00     0.222 C 
ATOM     23  C   UNL A   1      47.154  17.488  40.975  1.00  0.00     0.291 C 
ATOM     24  H   UNL A   1      49.077  17.975  40.682  1.00  0.00     0.348 HD
BRANCH  21  25
ATOM     25  C   UNL A   1      48.660  18.901  42.337  1.00  0.00     0.258 C 
ATOM     26  C   UNL A   1      50.107  19.325  42.544  1.00  0.00     0.071 C 
ENDBRANCH  21  25
ENDBRANCH  17  18
ENDBRANCH  16  17
ENDBRANCH  13  16
ENDBRANCH   7   9
ENDBRANCH   6   7
ENDBRANCH   5   6
ENDBRANCH   4   5
ENDBRANCH   3   4
ENDBRANCH   2   3
ENDBRANCH   1   2
BRANCH   1  27
ATOM     27  O   UNL A   1      51.945  22.779  32.715  1.00  0.00    -0.377 OA
BRANCH  27  28
ATOM     28  C   UNL A   1      52.268  23.707  33.746  1.00  0.00     0.188 C 
BRANCH  28  29
ATOM     29  C   UNL A   1      51.192  24.503  34.521  1.00  0.00     0.188 C 
BRANCH  29  30
ATOM     30  O   UNL A   1      51.684  25.368  35.541  1.00  0.00    -0.376 OA
BRANCH  30  31
ATOM     31  C   UNL A   1      50.771  26.333  36.048  1.00  0.00     0.202 C 
BRANCH  31  32
ATOM     32  C   UNL A   1      49.489  25.730  36.636  1.00  0.00     0.261 C 
BRANCH  32  33
ATOM     33  O   UNL A   1      48.272  26.200  36.041  1.00  0.00    -0.460 OA
BRANCH  33  34
ATOM     34  C   UNL A   1      47.115  25.798  36.614  1.00  0.00     0.338 C 
ATOM     35  O   UNL A   1      46.984  25.061  37.572  1.00  0.00    -0.246 OA
BRANCH  34  36
ATOM     36  C   UNL A   1      46.018  26.547  35.975  1.00  0.00     0.060 A 
ATOM     37  C   UNL A   1      44.710  26.061  36.080  1.00  0.00     0.016 A 
ATOM     38  C   UNL A   1      46.292  27.721  35.270  1.00  0.00     0.016 A 
ATOM     39  C   UNL A   1      43.668  26.733  35.439  1.00  0.00     0.010 A 
ATOM     40  C   UNL A   1      45.254  28.381  34.616  1.00  0.00     0.010 A 
ATOM     41  C   UNL A   1      43.945  27.870  34.669  1.00  0.00    -0.014 A 
BRANCH  41  42
ATOM     42  C   UNL A   1      42.926  28.413  33.739  1.00  0.00     0.031 A 
ATOM     43  C   UNL A   1      41.969  29.442  34.272  1.00  0.00     0.074 A 
ATOM     44  C   UNL A   1      42.833  27.980  32.470  1.00  0.00     0.049 A 
ATOM     45  N   UNL A   1      40.919  29.974  33.705  1.00  0.00    -0.248 NA
ATOM     46  C   UNL A   1      42.231  29.925  35.637  1.00  0.00     0.031 C 
ATOM     47  C   UNL A   1      43.733  27.019  31.836  1.00  0.00     0.029 A 
ATOM     48  N   UNL A   1      41.917  28.282  31.494  1.00  0.00    -0.354 N 
ATOM     49  C   UNL A   1      40.390  30.852  34.646  1.00  0.00     0.074 A 
ATOM     50  C   UNL A   1      41.216  30.753  35.830  1.00  0.00     0.031 C 
ATOM     51  C   UNL A   1      43.310  26.794  30.579  1.00  0.00     0.029 A 
ATOM     52  C   UNL A   1      42.089  27.561  30.336  1.00  0.00     0.049 A 
ATOM     53  H   UNL A   1      41.206  28.953  31.611  1.00  0.00     0.167 HD
ATOM     54  C   UNL A   1      39.313  31.668  34.531  1.00  0.00     0.034 A 
ATOM     55  C   UNL A   1      41.324  27.504  29.226  1.00  0.00     0.034 A 
ATOM     56  C   UNL A   1      38.484  31.732  33.354  1.00  0.00     0.049 A 
ATOM     57  C   UNL A   1      40.075  28.352  29.152  1.00  0.00     0.074 A 
ATOM     58  C   UNL A   1      37.366  32.516  33.127  1.00  0.00     0.029 A 
ATOM     59  N   UNL A   1      38.674  30.970  32.208  1.00  0.00    -0.354 N 
ATOM     60  N   UNL A   1      39.581  29.178  30.047  1.00  0.00    -0.248 NA
ATOM     61  C   UNL A   1      39.282  28.263  27.918  1.00  0.00     0.031 C 
ATOM     62  C   UNL A   1      36.844  32.180  31.873  1.00  0.00     0.029 A 
ATOM     63  C   UNL A   1      37.681  31.244  31.284  1.00  0.00     0.049 A 
ATOM     64  H   UNL A   1      39.409  30.328  32.073  1.00  0.00     0.167 HD
ATOM     65  C   UNL A   1      38.444  29.735  29.464  1.00  0.00     0.074 A 
ATOM     66  C   UNL A   1      38.326  29.151  28.145  1.00  0.00     0.031 C 
ATOM     67  C   UNL A   1      37.580  30.653  29.970  1.00  0.00     0.034 A 
BRANCH  54  68
ATOM     68  C   UNL A   1      38.949  32.499  35.736  1.00  0.00     0.023 A 
ATOM     69  C   UNL A   1      39.400  33.823  35.882  1.00  0.00     0.031 A 
ATOM     70  C   UNL A   1      38.183  31.945  36.775  1.00  0.00     0.131 A 
ATOM     71  C   UNL A   1      39.142  34.522  37.070  1.00  0.00     0.055 A 
ATOM     72  C   UNL A   1      37.861  32.673  37.922  1.00  0.00     0.041 A 
ATOM     73  F   UNL A   1      37.749  30.677  36.702  1.00  0.00    -0.206 F 
ATOM     74  C   UNL A   1      38.355  33.965  38.082  1.00  0.00     0.022 A 
BRANCH  71  75
ATOM     75  S   UNL A   1      39.970  36.113  37.338  1.00  0.00     0.124 S 
ATOM     76  O   UNL A   1      41.324  35.686  37.684  1.00  0.00    -0.237 OA
ATOM     77  O   UNL A   1      39.819  36.770  36.046  1.00  0.00    -0.237 OA
ATOM     78  O   UNL A   1      39.214  36.712  38.436  1.00  0.00    -0.744 OA
ENDBRANCH  71  75
ENDBRANCH  54  68
BRANCH  55  79
ATOM     79  C   UNL A   1      41.680  26.581  28.109  1.00  0.00     0.023 A 
ATOM     80  C   UNL A   1      41.491  25.195  28.224  1.00  0.00     0.031 A 
ATOM     81  C   UNL A   1      42.272  27.069  26.930  1.00  0.00     0.131 A 
ATOM     82  C   UNL A   1      41.932  24.341  27.201  1.00  0.00     0.055 A 
ATOM     83  C   UNL A   1      42.662  26.220  25.893  1.00  0.00     0.041 A 
ATOM     84  F   UNL A   1      42.477  28.386  26.768  1.00  0.00    -0.206 F 
ATOM     85  C   UNL A   1      42.505  24.846  26.031  1.00  0.00     0.022 A 
BRANCH  82  86
ATOM     86  S   UNL A   1      41.824  22.548  27.457  1.00  0.00     0.124 S 
ATOM     87  O   UNL A   1      42.435  22.036  26.236  1.00  0.00    -0.237 OA
ATOM     88  O   UNL A   1      42.594  22.371  28.683  1.00  0.00    -0.237 OA
ATOM     89  O   UNL A   1      40.388  22.309  27.586  1.00  0.00    -0.744 OA
ENDBRANCH  82  86
ENDBRANCH  55  79
BRANCH  67  90
ATOM     90  C   UNL A   1      36.474  31.135  29.064  1.00  0.00     0.023 A 
ATOM     91  C   UNL A   1      35.467  30.275  28.593  1.00  0.00     0.031 A 
ATOM     92  C   UNL A   1      36.424  32.488  28.681  1.00  0.00     0.131 A 
ATOM     93  C   UNL A   1      34.475  30.769  27.731  1.00  0.00     0.055 A 
ATOM     94  C   UNL A   1      35.406  32.985  27.867  1.00  0.00     0.041 A 
ATOM     95  F   UNL A   1      37.361  33.352  29.103  1.00  0.00    -0.206 F 
ATOM     96  C   UNL A   1      34.430  32.122  27.379  1.00  0.00     0.022 A 
BRANCH  93  97
ATOM     97  S   UNL A   1      33.280  29.608  27.015  1.00  0.00     0.124 S 
ATOM     98  O   UNL A   1      33.494  28.413  27.825  1.00  0.00    -0.237 OA
ATOM     99  O   UNL A   1      32.011  30.299  27.221  1.00  0.00    -0.237 OA
ATOM    100  O   UNL A   1      33.703  29.496  25.620  1.00  0.00    -0.744 OA
ENDBRANCH  93  97
ENDBRANCH  67  90
ENDBRANCH  41  42
ENDBRANCH  34  36
ENDBRANCH  33  34
ENDBRANCH  32  33
ENDBRANCH  31  32
ENDBRANCH  30  31
ENDBRANCH  29  30
ENDBRANCH  28  29
ENDBRANCH  27  28
ENDBRANCH   1  27
TORSDOF 28
ENDMDL
