MODEL 1
REMARK VINA RESULT:      -8.9      0.000      0.000
REMARK SMILES C[C@H]1C[N@@H+]2CCC[C@@H]2CN1C(=O)NCC(=O)OCCOCCOCCOCCOC(=O)c1ccc(-c2c3nc(c(-c4cc(S(=O)(=O)[O-])ccc4F)c4ccc([nH]4)c(-c4cc(S(=O)(=O)[O-])ccc4F)c4nc(c(-c5cc(S(=O)(=O)[O-])ccc5F)c5ccc2[nH]5)C=C4)C=C3)cc1
REMARK SMILES IDX 24 1 23 2 22 3 21 4 20 5 19 6 18 7 17 8 15 9 16 10 14 11
REMARK SMILES IDX 13 12 11 13 12 14 10 16 1 17 2 18 3 19 4 20 9 21 5 22 8 23
REMARK SMILES IDX 6 25 7 26 25 27 26 28 27 29 28 30 29 31 30 32 31 33 32 34
REMARK SMILES IDX 33 35 94 36 34 37 93 38 35 39 36 40 37 41 87 42 38 43 92 44
REMARK SMILES IDX 86 45 88 46 39 47 91 48 85 49 84 50 40 52 72 53 52 54 71 55
REMARK SMILES IDX 53 56 56 57 70 58 89 59 54 60 55 61 69 63 90 64 57 65 41 66
REMARK SMILES IDX 42 67 50 68 43 69 49 70 51 71 48 72 44 73 45 74 46 75 47 76
REMARK SMILES IDX 73 77 74 78 82 79 75 80 81 81 83 82 80 83 76 84 77 85 78 86
REMARK SMILES IDX 79 87 58 88 59 89 67 90 60 91 66 92 68 93 65 94 61 95 62 96
REMARK SMILES IDX 63 97 64 98
REMARK H PARENT 13 15 4 24 88 51 56 62
REMARK Flexibility Score: inf
ROOT
ATOM      1  C   UNL A   1      41.737  21.003  26.624  1.00  0.00     0.188 C 
ENDROOT
BRANCH   1   2
ATOM      2  O   UNL A   1      40.526  21.175  25.889  1.00  0.00    -0.377 OA
BRANCH   2   3
ATOM      3  C   UNL A   1      39.472  21.856  26.525  1.00  0.00     0.188 C 
BRANCH   3   4
ATOM      4  C   UNL A   1      38.295  22.231  25.605  1.00  0.00     0.188 C 
BRANCH   4   5
ATOM      5  O   UNL A   1      37.395  21.257  25.103  1.00  0.00    -0.376 OA
BRANCH   5   6
ATOM      6  C   UNL A   1      36.045  21.111  25.533  1.00  0.00     0.202 C 
BRANCH   6   7
ATOM      7  C   UNL A   1      34.821  21.015  24.610  1.00  0.00     0.261 C 
BRANCH   7   8
ATOM      8  O   UNL A   1      34.068  22.218  24.491  1.00  0.00    -0.462 OA
BRANCH   8   9
ATOM      9  C   UNL A   1      34.344  22.955  23.390  1.00  0.00     0.325 C 
ATOM     10  O   UNL A   1      35.361  22.855  22.710  1.00  0.00    -0.250 OA
BRANCH   9  11
ATOM     11  C   UNL A   1      33.138  23.737  22.907  1.00  0.00     0.240 C 
BRANCH  11  12
ATOM     12  N   UNL A   1      33.356  24.988  22.200  1.00  0.00    -0.327 N 
ATOM     13  C   UNL A   1      33.383  26.290  22.544  1.00  0.00     0.318 C 
ATOM     14  O   UNL A   1      33.710  27.079  21.654  1.00  0.00    -0.249 OA
ATOM     15  H   UNL A   1      33.523  24.851  21.240  1.00  0.00     0.166 HD
BRANCH  13  16
ATOM     16  N   UNL A   1      33.050  26.719  23.802  1.00  0.00    -0.310 N 
ATOM     17  C   UNL A   1      34.359  25.644  25.615  1.00  0.00     0.037 C 
ATOM     18  C   UNL A   1      32.956  25.903  25.023  1.00  0.00     0.139 C 
ATOM     19  C   UNL A   1      32.039  26.520  26.093  1.00  0.00     0.287 C 
ATOM     20  N   UNL A   1      32.548  27.827  26.495  1.00  0.00    -0.329 N 
ATOM     21  C   UNL A   1      32.556  28.099  23.931  1.00  0.00     0.186 C 
ATOM     22  C   UNL A   1      31.676  28.502  27.448  1.00  0.00     0.262 C 
ATOM     23  C   UNL A   1      32.798  28.711  25.329  1.00  0.00     0.204 C 
ATOM     24  H   UNL A   1      33.437  27.641  26.961  1.00  0.00     0.348 HD
ATOM     25  C   UNL A   1      31.847  29.969  27.112  1.00  0.00     0.068 C 
ATOM     26  C   UNL A   1      31.949  29.948  25.598  1.00  0.00     0.073 C 
ENDBRANCH  13  16
ENDBRANCH  11  12
ENDBRANCH   9  11
ENDBRANCH   8   9
ENDBRANCH   7   8
ENDBRANCH   6   7
ENDBRANCH   5   6
ENDBRANCH   4   5
ENDBRANCH   3   4
ENDBRANCH   2   3
ENDBRANCH   1   2
BRANCH   1  27
ATOM     27  C   UNL A   1      43.062  21.627  26.115  1.00  0.00     0.188 C 
BRANCH  27  28
ATOM     28  O   UNL A   1      42.933  22.582  25.073  1.00  0.00    -0.376 OA
BRANCH  28  29
ATOM     29  C   UNL A   1      42.728  23.947  25.404  1.00  0.00     0.202 C 
BRANCH  29  30
ATOM     30  C   UNL A   1      42.889  24.386  26.869  1.00  0.00     0.261 C 
BRANCH  30  31
ATOM     31  O   UNL A   1      42.558  25.748  27.177  1.00  0.00    -0.460 OA
BRANCH  31  32
ATOM     32  C   UNL A   1      41.265  26.055  27.409  1.00  0.00     0.338 C 
ATOM     33  O   UNL A   1      40.291  25.372  27.136  1.00  0.00    -0.246 OA
BRANCH  32  34
ATOM     34  C   UNL A   1      41.240  27.268  28.253  1.00  0.00     0.060 A 
ATOM     35  C   UNL A   1      40.604  28.423  27.775  1.00  0.00     0.016 A 
ATOM     36  C   UNL A   1      41.834  27.261  29.516  1.00  0.00     0.016 A 
ATOM     37  C   UNL A   1      40.595  29.587  28.543  1.00  0.00     0.010 A 
ATOM     38  C   UNL A   1      41.850  28.434  30.273  1.00  0.00     0.010 A 
ATOM     39  C   UNL A   1      41.264  29.613  29.773  1.00  0.00    -0.014 A 
BRANCH  39  40
ATOM     40  C   UNL A   1      41.564  30.912  30.423  1.00  0.00     0.031 A 
ATOM     41  C   UNL A   1      42.860  31.588  30.071  1.00  0.00     0.074 A 
ATOM     42  C   UNL A   1      40.714  31.484  31.293  1.00  0.00     0.049 A 
ATOM     43  N   UNL A   1      43.409  32.658  30.582  1.00  0.00    -0.248 NA
ATOM     44  C   UNL A   1      43.646  30.956  29.000  1.00  0.00     0.031 C 
ATOM     45  C   UNL A   1      39.404  30.956  31.665  1.00  0.00     0.029 A 
ATOM     46  N   UNL A   1      40.841  32.632  32.036  1.00  0.00    -0.354 N 
ATOM     47  C   UNL A   1      44.609  32.826  29.900  1.00  0.00     0.074 A 
ATOM     48  C   UNL A   1      44.726  31.720  28.973  1.00  0.00     0.031 C 
ATOM     49  C   UNL A   1      38.857  31.766  32.590  1.00  0.00     0.029 A 
ATOM     50  C   UNL A   1      39.799  32.839  32.909  1.00  0.00     0.049 A 
ATOM     51  H   UNL A   1      41.604  33.248  31.951  1.00  0.00     0.167 HD
ATOM     52  C   UNL A   1      45.525  33.817  30.027  1.00  0.00     0.034 A 
ATOM     53  C   UNL A   1      39.646  33.761  33.883  1.00  0.00     0.034 A 
ATOM     54  C   UNL A   1      45.405  34.895  30.976  1.00  0.00     0.049 A 
ATOM     55  C   UNL A   1      40.731  34.792  34.095  1.00  0.00     0.074 A 
ATOM     56  C   UNL A   1      46.273  35.948  31.201  1.00  0.00     0.029 A 
ATOM     57  N   UNL A   1      44.354  35.049  31.874  1.00  0.00    -0.354 N 
ATOM     58  N   UNL A   1      41.869  34.940  33.454  1.00  0.00    -0.248 NA
ATOM     59  C   UNL A   1      40.513  35.781  35.159  1.00  0.00     0.031 C 
ATOM     60  C   UNL A   1      45.792  36.688  32.286  1.00  0.00     0.029 A 
ATOM     61  C   UNL A   1      44.572  36.158  32.676  1.00  0.00     0.049 A 
ATOM     62  H   UNL A   1      43.570  34.456  31.931  1.00  0.00     0.167 HD
ATOM     63  C   UNL A   1      42.481  36.061  34.013  1.00  0.00     0.074 A 
ATOM     64  C   UNL A   1      41.585  36.551  35.039  1.00  0.00     0.031 C 
ATOM     65  C   UNL A   1      43.671  36.637  33.700  1.00  0.00     0.034 A 
BRANCH  52  66
ATOM     66  C   UNL A   1      46.759  33.731  29.158  1.00  0.00     0.023 A 
ATOM     67  C   UNL A   1      46.894  34.504  27.992  1.00  0.00     0.031 A 
ATOM     68  C   UNL A   1      47.786  32.823  29.467  1.00  0.00     0.131 A 
ATOM     69  C   UNL A   1      47.981  34.290  27.132  1.00  0.00     0.055 A 
ATOM     70  C   UNL A   1      48.914  32.683  28.656  1.00  0.00     0.041 A 
ATOM     71  F   UNL A   1      47.703  32.037  30.552  1.00  0.00    -0.206 F 
ATOM     72  C   UNL A   1      49.008  33.404  27.470  1.00  0.00     0.022 A 
BRANCH  69  73
ATOM     73  S   UNL A   1      47.942  35.048  25.484  1.00  0.00     0.124 S 
ATOM     74  O   UNL A   1      49.246  34.660  24.950  1.00  0.00    -0.237 OA
ATOM     75  O   UNL A   1      46.785  34.407  24.870  1.00  0.00    -0.237 OA
ATOM     76  O   UNL A   1      47.792  36.474  25.765  1.00  0.00    -0.744 OA
ENDBRANCH  69  73
ENDBRANCH  52  66
BRANCH  53  77
ATOM     77  C   UNL A   1      38.452  33.717  34.777  1.00  0.00     0.023 A 
ATOM     78  C   UNL A   1      38.500  33.102  36.038  1.00  0.00     0.031 A 
ATOM     79  C   UNL A   1      37.221  34.257  34.356  1.00  0.00     0.131 A 
ATOM     80  C   UNL A   1      37.335  33.007  36.815  1.00  0.00     0.055 A 
ATOM     81  C   UNL A   1      36.080  34.212  35.158  1.00  0.00     0.041 A 
ATOM     82  F   UNL A   1      37.114  34.848  33.155  1.00  0.00    -0.206 F 
ATOM     83  C   UNL A   1      36.130  33.573  36.392  1.00  0.00     0.022 A 
BRANCH  80  84
ATOM     84  S   UNL A   1      37.393  32.054  38.358  1.00  0.00     0.124 S 
ATOM     85  O   UNL A   1      38.646  32.513  38.944  1.00  0.00    -0.237 OA
ATOM     86  O   UNL A   1      36.172  32.489  39.029  1.00  0.00    -0.237 OA
ATOM     87  O   UNL A   1      37.388  30.666  37.901  1.00  0.00    -0.744 OA
ENDBRANCH  80  84
ENDBRANCH  53  77
BRANCH  65  88
ATOM     88  C   UNL A   1      44.048  37.905  34.432  1.00  0.00     0.023 A 
ATOM     89  C   UNL A   1      43.513  39.158  34.086  1.00  0.00     0.031 A 
ATOM     90  C   UNL A   1      44.944  37.847  35.515  1.00  0.00     0.131 A 
ATOM     91  C   UNL A   1      43.914  40.306  34.787  1.00  0.00     0.055 A 
ATOM     92  C   UNL A   1      45.288  38.981  36.250  1.00  0.00     0.041 A 
ATOM     93  F   UNL A   1      45.490  36.678  35.889  1.00  0.00    -0.206 F 
ATOM     94  C   UNL A   1      44.780  40.223  35.880  1.00  0.00     0.022 A 
BRANCH  91  95
ATOM     95  S   UNL A   1      43.354  41.929  34.201  1.00  0.00     0.124 S 
ATOM     96  O   UNL A   1      42.124  41.588  33.493  1.00  0.00    -0.237 OA
ATOM     97  O   UNL A   1      43.189  42.672  35.446  1.00  0.00    -0.237 OA
ATOM     98  O   UNL A   1      44.453  42.385  33.350  1.00  0.00    -0.744 OA
ENDBRANCH  91  95
ENDBRANCH  65  88
ENDBRANCH  39  40
ENDBRANCH  32  34
ENDBRANCH  31  32
ENDBRANCH  30  31
ENDBRANCH  29  30
ENDBRANCH  28  29
ENDBRANCH  27  28
ENDBRANCH   1  27
TORSDOF 25
ENDMDL
MODEL 2
REMARK VINA RESULT:      -8.9      7.810     15.592
REMARK SMILES C[C@H]1C[N@@H+]2CCC[C@@H]2CN1C(=O)NCC(=O)OCCOCCOCCOCCOC(=O)c1ccc(-c2c3nc(c(-c4cc(S(=O)(=O)[O-])ccc4F)c4ccc([nH]4)c(-c4cc(S(=O)(=O)[O-])ccc4F)c4nc(c(-c5cc(S(=O)(=O)[O-])ccc5F)c5ccc2[nH]5)C=C4)C=C3)cc1
REMARK SMILES IDX 24 1 23 2 22 3 21 4 20 5 19 6 18 7 17 8 15 9 16 10 14 11
REMARK SMILES IDX 13 12 11 13 12 14 10 16 1 17 2 18 3 19 4 20 9 21 5 22 8 23
REMARK SMILES IDX 6 25 7 26 25 27 26 28 27 29 28 30 29 31 30 32 31 33 32 34
REMARK SMILES IDX 33 35 94 36 34 37 93 38 35 39 36 40 37 41 87 42 38 43 92 44
REMARK SMILES IDX 86 45 88 46 39 47 91 48 85 49 84 50 40 52 72 53 52 54 71 55
REMARK SMILES IDX 53 56 56 57 70 58 89 59 54 60 55 61 69 63 90 64 57 65 41 66
REMARK SMILES IDX 42 67 50 68 43 69 49 70 51 71 48 72 44 73 45 74 46 75 47 76
REMARK SMILES IDX 73 77 74 78 82 79 75 80 81 81 83 82 80 83 76 84 77 85 78 86
REMARK SMILES IDX 79 87 58 88 59 89 67 90 60 91 66 92 68 93 65 94 61 95 62 96
REMARK SMILES IDX 63 97 64 98
REMARK H PARENT 13 15 4 24 88 51 56 62
REMARK Flexibility Score: inf
ROOT
ATOM      1  C   UNL A   1      46.283  42.925  29.448  1.00  0.00     0.188 C 
ENDROOT
BRANCH   1   2
ATOM      2  O   UNL A   1      46.708  44.082  28.728  1.00  0.00    -0.377 OA
BRANCH   2   3
ATOM      3  C   UNL A   1      45.721  44.827  28.056  1.00  0.00     0.188 C 
BRANCH   3   4
ATOM      4  C   UNL A   1      46.223  45.606  26.826  1.00  0.00     0.188 C 
BRANCH   4   5
ATOM      5  O   UNL A   1      45.951  45.175  25.503  1.00  0.00    -0.376 OA
BRANCH   5   6
ATOM      6  C   UNL A   1      45.040  44.135  25.166  1.00  0.00     0.202 C 
BRANCH   6   7
ATOM      7  C   UNL A   1      43.881  44.254  24.165  1.00  0.00     0.261 C 
BRANCH   7   8
ATOM      8  O   UNL A   1      43.721  43.134  23.300  1.00  0.00    -0.462 OA
BRANCH   8   9
ATOM      9  C   UNL A   1      44.791  42.863  22.516  1.00  0.00     0.325 C 
ATOM     10  O   UNL A   1      45.617  41.981  22.730  1.00  0.00    -0.250 OA
BRANCH   9  11
ATOM     11  C   UNL A   1      44.720  43.580  21.183  1.00  0.00     0.240 C 
BRANCH  11  12
ATOM     12  N   UNL A   1      45.913  43.633  20.355  1.00  0.00    -0.327 N 
ATOM     13  C   UNL A   1      46.447  44.527  19.500  1.00  0.00     0.318 C 
ATOM     14  O   UNL A   1      47.561  44.248  19.051  1.00  0.00    -0.249 OA
ATOM     15  H   UNL A   1      46.464  42.821  20.440  1.00  0.00     0.166 HD
BRANCH  13  16
ATOM     16  N   UNL A   1      45.786  45.670  19.134  1.00  0.00    -0.310 N 
ATOM     17  C   UNL A   1      47.205  47.705  19.144  1.00  0.00     0.037 C 
ATOM     18  C   UNL A   1      45.947  47.013  19.714  1.00  0.00     0.139 C 
ATOM     19  C   UNL A   1      44.714  47.910  19.508  1.00  0.00     0.287 C 
ATOM     20  N   UNL A   1      44.459  48.092  18.083  1.00  0.00    -0.329 N 
ATOM     21  C   UNL A   1      44.666  45.524  18.191  1.00  0.00     0.186 C 
ATOM     22  C   UNL A   1      43.252  48.866  17.821  1.00  0.00     0.262 C 
ATOM     23  C   UNL A   1      44.392  46.798  17.360  1.00  0.00     0.204 C 
ATOM     24  H   UNL A   1      45.254  48.624  17.729  1.00  0.00     0.348 HD
ATOM     25  C   UNL A   1      42.723  48.278  16.530  1.00  0.00     0.068 C 
ATOM     26  C   UNL A   1      43.018  46.798  16.699  1.00  0.00     0.073 C 
ENDBRANCH  13  16
ENDBRANCH  11  12
ENDBRANCH   9  11
ENDBRANCH   8   9
ENDBRANCH   7   8
ENDBRANCH   6   7
ENDBRANCH   5   6
ENDBRANCH   4   5
ENDBRANCH   3   4
ENDBRANCH   2   3
ENDBRANCH   1   2
BRANCH   1  27
ATOM     27  C   UNL A   1      44.865  42.862  30.070  1.00  0.00     0.188 C 
BRANCH  27  28
ATOM     28  O   UNL A   1      44.564  41.684  30.801  1.00  0.00    -0.376 OA
BRANCH  28  29
ATOM     29  C   UNL A   1      44.331  40.472  30.099  1.00  0.00     0.202 C 
BRANCH  29  30
ATOM     30  C   UNL A   1      45.233  39.261  30.391  1.00  0.00     0.261 C 
BRANCH  30  31
ATOM     31  O   UNL A   1      44.921  38.040  29.706  1.00  0.00    -0.460 OA
BRANCH  31  32
ATOM     32  C   UNL A   1      45.840  37.529  28.859  1.00  0.00     0.338 C 
ATOM     33  O   UNL A   1      46.821  38.101  28.414  1.00  0.00    -0.246 OA
BRANCH  32  34
ATOM     34  C   UNL A   1      45.573  36.081  28.736  1.00  0.00     0.060 A 
ATOM     35  C   UNL A   1      45.210  35.554  27.488  1.00  0.00     0.016 A 
ATOM     36  C   UNL A   1      45.692  35.244  29.848  1.00  0.00     0.016 A 
ATOM     37  C   UNL A   1      44.925  34.195  27.357  1.00  0.00     0.010 A 
ATOM     38  C   UNL A   1      45.380  33.889  29.722  1.00  0.00     0.010 A 
ATOM     39  C   UNL A   1      44.958  33.366  28.485  1.00  0.00    -0.014 A 
BRANCH  39  40
ATOM     40  C   UNL A   1      44.327  32.025  28.435  1.00  0.00     0.031 A 
ATOM     41  C   UNL A   1      45.037  30.945  27.667  1.00  0.00     0.074 A 
ATOM     42  C   UNL A   1      43.164  31.763  29.056  1.00  0.00     0.049 A 
ATOM     43  N   UNL A   1      44.645  29.734  27.371  1.00  0.00    -0.248 NA
ATOM     44  C   UNL A   1      46.372  31.292  27.152  1.00  0.00     0.031 C 
ATOM     45  C   UNL A   1      42.416  32.708  29.881  1.00  0.00     0.029 A 
ATOM     46  N   UNL A   1      42.402  30.621  29.072  1.00  0.00    -0.354 N 
ATOM     47  C   UNL A   1      45.680  29.174  26.631  1.00  0.00     0.074 A 
ATOM     48  C   UNL A   1      46.695  30.196  26.484  1.00  0.00     0.031 C 
ATOM     49  C   UNL A   1      41.284  32.115  30.301  1.00  0.00     0.029 A 
ATOM     50  C   UNL A   1      41.205  30.768  29.735  1.00  0.00     0.049 A 
ATOM     51  H   UNL A   1      42.684  29.778  28.650  1.00  0.00     0.167 HD
ATOM     52  C   UNL A   1      45.781  27.920  26.128  1.00  0.00     0.034 A 
ATOM     53  C   UNL A   1      40.153  29.929  29.833  1.00  0.00     0.034 A 
ATOM     54  C   UNL A   1      44.747  26.924  26.261  1.00  0.00     0.049 A 
ATOM     55  C   UNL A   1      40.229  28.575  29.166  1.00  0.00     0.074 A 
ATOM     56  C   UNL A   1      44.734  25.625  25.785  1.00  0.00     0.029 A 
ATOM     57  N   UNL A   1      43.530  27.123  26.904  1.00  0.00    -0.354 N 
ATOM     58  N   UNL A   1      41.206  28.054  28.458  1.00  0.00    -0.248 NA
ATOM     59  C   UNL A   1      39.063  27.693  29.312  1.00  0.00     0.031 C 
ATOM     60  C   UNL A   1      43.482  25.069  26.066  1.00  0.00     0.029 A 
ATOM     61  C   UNL A   1      42.748  25.983  26.805  1.00  0.00     0.049 A 
ATOM     62  H   UNL A   1      43.264  27.953  27.361  1.00  0.00     0.167 HD
ATOM     63  C   UNL A   1      40.785  26.772  28.108  1.00  0.00     0.074 A 
ATOM     64  C   UNL A   1      39.470  26.598  28.686  1.00  0.00     0.031 C 
ATOM     65  C   UNL A   1      41.433  25.822  27.384  1.00  0.00     0.034 A 
BRANCH  52  66
ATOM     66  C   UNL A   1      47.027  27.591  25.339  1.00  0.00     0.023 A 
ATOM     67  C   UNL A   1      47.177  27.988  23.999  1.00  0.00     0.031 A 
ATOM     68  C   UNL A   1      48.054  26.823  25.915  1.00  0.00     0.131 A 
ATOM     69  C   UNL A   1      48.277  27.538  23.255  1.00  0.00     0.055 A 
ATOM     70  C   UNL A   1      49.194  26.460  25.197  1.00  0.00     0.041 A 
ATOM     71  F   UNL A   1      47.958  26.391  27.183  1.00  0.00    -0.206 F 
ATOM     72  C   UNL A   1      49.302  26.799  23.852  1.00  0.00     0.022 A 
BRANCH  69  73
ATOM     73  S   UNL A   1      48.259  27.776  21.456  1.00  0.00     0.124 S 
ATOM     74  O   UNL A   1      49.348  28.733  21.274  1.00  0.00    -0.237 OA
ATOM     75  O   UNL A   1      48.504  26.429  20.957  1.00  0.00    -0.237 OA
ATOM     76  O   UNL A   1      46.923  28.307  21.193  1.00  0.00    -0.744 OA
ENDBRANCH  69  73
ENDBRANCH  52  66
BRANCH  53  77
ATOM     77  C   UNL A   1      38.909  30.365  30.534  1.00  0.00     0.023 A 
ATOM     78  C   UNL A   1      37.879  31.035  29.856  1.00  0.00     0.031 A 
ATOM     79  C   UNL A   1      38.755  30.151  31.918  1.00  0.00     0.131 A 
ATOM     80  C   UNL A   1      36.762  31.503  30.567  1.00  0.00     0.055 A 
ATOM     81  C   UNL A   1      37.615  30.566  32.608  1.00  0.00     0.041 A 
ATOM     82  F   UNL A   1      39.713  29.525  32.619  1.00  0.00    -0.206 F 
ATOM     83  C   UNL A   1      36.615  31.258  31.934  1.00  0.00     0.022 A 
BRANCH  80  84
ATOM     84  S   UNL A   1      35.537  32.517  29.693  1.00  0.00     0.124 S 
ATOM     85  O   UNL A   1      36.261  33.769  29.515  1.00  0.00    -0.237 OA
ATOM     86  O   UNL A   1      35.300  31.732  28.486  1.00  0.00    -0.237 OA
ATOM     87  O   UNL A   1      34.413  32.572  30.627  1.00  0.00    -0.744 OA
ENDBRANCH  80  84
ENDBRANCH  53  77
BRANCH  65  88
ATOM     88  C   UNL A   1      40.755  24.480  27.227  1.00  0.00     0.023 A 
ATOM     89  C   UNL A   1      39.587  24.313  26.462  1.00  0.00     0.031 A 
ATOM     90  C   UNL A   1      41.311  23.341  27.840  1.00  0.00     0.131 A 
ATOM     91  C   UNL A   1      38.990  23.047  26.368  1.00  0.00     0.055 A 
ATOM     92  C   UNL A   1      40.749  22.073  27.688  1.00  0.00     0.041 A 
ATOM     93  F   UNL A   1      42.423  23.439  28.586  1.00  0.00    -0.206 F 
ATOM     94  C   UNL A   1      39.574  21.922  26.957  1.00  0.00     0.022 A 
BRANCH  91  95
ATOM     95  S   UNL A   1      37.386  22.897  25.532  1.00  0.00     0.124 S 
ATOM     96  O   UNL A   1      36.490  23.557  26.475  1.00  0.00    -0.237 OA
ATOM     97  O   UNL A   1      37.621  23.600  24.275  1.00  0.00    -0.237 OA
ATOM     98  O   UNL A   1      37.199  21.451  25.406  1.00  0.00    -0.744 OA
ENDBRANCH  91  95
ENDBRANCH  65  88
ENDBRANCH  39  40
ENDBRANCH  32  34
ENDBRANCH  31  32
ENDBRANCH  30  31
ENDBRANCH  29  30
ENDBRANCH  28  29
ENDBRANCH  27  28
ENDBRANCH   1  27
TORSDOF 25
ENDMDL
MODEL 3
REMARK VINA RESULT:      -8.8      1.344      1.964
REMARK SMILES C[C@H]1C[N@@H+]2CCC[C@@H]2CN1C(=O)NCC(=O)OCCOCCOCCOCCOC(=O)c1ccc(-c2c3nc(c(-c4cc(S(=O)(=O)[O-])ccc4F)c4ccc([nH]4)c(-c4cc(S(=O)(=O)[O-])ccc4F)c4nc(c(-c5cc(S(=O)(=O)[O-])ccc5F)c5ccc2[nH]5)C=C4)C=C3)cc1
REMARK SMILES IDX 24 1 23 2 22 3 21 4 20 5 19 6 18 7 17 8 15 9 16 10 14 11
REMARK SMILES IDX 13 12 11 13 12 14 10 16 1 17 2 18 3 19 4 20 9 21 5 22 8 23
REMARK SMILES IDX 6 25 7 26 25 27 26 28 27 29 28 30 29 31 30 32 31 33 32 34
REMARK SMILES IDX 33 35 94 36 34 37 93 38 35 39 36 40 37 41 87 42 38 43 92 44
REMARK SMILES IDX 86 45 88 46 39 47 91 48 85 49 84 50 40 52 72 53 52 54 71 55
REMARK SMILES IDX 53 56 56 57 70 58 89 59 54 60 55 61 69 63 90 64 57 65 41 66
REMARK SMILES IDX 42 67 50 68 43 69 49 70 51 71 48 72 44 73 45 74 46 75 47 76
REMARK SMILES IDX 73 77 74 78 82 79 75 80 81 81 83 82 80 83 76 84 77 85 78 86
REMARK SMILES IDX 79 87 58 88 59 89 67 90 60 91 66 92 68 93 65 94 61 95 62 96
REMARK SMILES IDX 63 97 64 98
REMARK H PARENT 13 15 4 24 88 51 56 62
REMARK Flexibility Score: inf
ROOT
ATOM      1  C   UNL A   1      42.925  21.434  26.092  1.00  0.00     0.188 C 
ENDROOT
BRANCH   1   2
ATOM      2  O   UNL A   1      41.515  21.363  25.882  1.00  0.00    -0.377 OA
BRANCH   2   3
ATOM      3  C   UNL A   1      40.681  21.839  26.910  1.00  0.00     0.188 C 
BRANCH   3   4
ATOM      4  C   UNL A   1      39.250  22.200  26.468  1.00  0.00     0.188 C 
BRANCH   4   5
ATOM      5  O   UNL A   1      38.657  21.633  25.311  1.00  0.00    -0.376 OA
BRANCH   5   6
ATOM      6  C   UNL A   1      37.316  21.159  25.244  1.00  0.00     0.202 C 
BRANCH   6   7
ATOM      7  C   UNL A   1      36.086  21.878  25.818  1.00  0.00     0.261 C 
BRANCH   7   8
ATOM      8  O   UNL A   1      34.837  21.422  25.309  1.00  0.00    -0.462 OA
BRANCH   8   9
ATOM      9  C   UNL A   1      33.860  21.287  26.236  1.00  0.00     0.325 C 
ATOM     10  O   UNL A   1      34.037  21.263  27.450  1.00  0.00    -0.250 OA
BRANCH   9  11
ATOM     11  C   UNL A   1      32.476  21.445  25.637  1.00  0.00     0.240 C 
BRANCH  11  12
ATOM     12  N   UNL A   1      31.458  22.138  26.408  1.00  0.00    -0.327 N 
ATOM     13  C   UNL A   1      30.971  23.394  26.440  1.00  0.00     0.318 C 
ATOM     14  O   UNL A   1      30.006  23.582  27.186  1.00  0.00    -0.249 OA
ATOM     15  H   UNL A   1      31.019  21.549  27.063  1.00  0.00     0.166 HD
BRANCH  13  16
ATOM     16  N   UNL A   1      31.522  24.409  25.704  1.00  0.00    -0.310 N 
ATOM     17  C   UNL A   1      30.512  24.691  23.456  1.00  0.00     0.037 C 
ATOM     18  C   UNL A   1      31.801  24.409  24.259  1.00  0.00     0.139 C 
ATOM     19  C   UNL A   1      32.902  25.406  23.857  1.00  0.00     0.287 C 
ATOM     20  N   UNL A   1      32.501  26.763  24.210  1.00  0.00    -0.329 N 
ATOM     21  C   UNL A   1      32.066  25.558  26.448  1.00  0.00     0.186 C 
ATOM     22  C   UNL A   1      33.538  27.748  23.930  1.00  0.00     0.262 C 
ATOM     23  C   UNL A   1      32.080  26.868  25.629  1.00  0.00     0.204 C 
ATOM     24  H   UNL A   1      31.700  26.975  23.615  1.00  0.00     0.348 HD
ATOM     25  C   UNL A   1      33.350  28.786  25.017  1.00  0.00     0.068 C 
ATOM     26  C   UNL A   1      32.993  27.935  26.222  1.00  0.00     0.073 C 
ENDBRANCH  13  16
ENDBRANCH  11  12
ENDBRANCH   9  11
ENDBRANCH   8   9
ENDBRANCH   7   8
ENDBRANCH   6   7
ENDBRANCH   5   6
ENDBRANCH   4   5
ENDBRANCH   3   4
ENDBRANCH   2   3
ENDBRANCH   1   2
BRANCH   1  27
ATOM     27  C   UNL A   1      43.819  22.281  25.151  1.00  0.00     0.188 C 
BRANCH  27  28
ATOM     28  O   UNL A   1      43.198  23.417  24.569  1.00  0.00    -0.376 OA
BRANCH  28  29
ATOM     29  C   UNL A   1      42.910  24.544  25.382  1.00  0.00     0.202 C 
BRANCH  29  30
ATOM     30  C   UNL A   1      43.858  24.880  26.546  1.00  0.00     0.261 C 
BRANCH  30  31
ATOM     31  O   UNL A   1      43.500  25.998  27.371  1.00  0.00    -0.460 OA
BRANCH  31  32
ATOM     32  C   UNL A   1      42.491  25.844  28.253  1.00  0.00     0.338 C 
ATOM     33  O   UNL A   1      41.943  24.799  28.562  1.00  0.00    -0.246 OA
BRANCH  32  34
ATOM     34  C   UNL A   1      42.308  27.135  28.949  1.00  0.00     0.060 A 
ATOM     35  C   UNL A   1      41.838  28.242  28.228  1.00  0.00     0.016 A 
ATOM     36  C   UNL A   1      42.590  27.248  30.312  1.00  0.00     0.016 A 
ATOM     37  C   UNL A   1      41.687  29.477  28.859  1.00  0.00     0.010 A 
ATOM     38  C   UNL A   1      42.466  28.491  30.936  1.00  0.00     0.010 A 
ATOM     39  C   UNL A   1      42.051  29.619  30.204  1.00  0.00    -0.014 A 
BRANCH  39  40
ATOM     40  C   UNL A   1      42.232  30.974  30.781  1.00  0.00     0.031 A 
ATOM     41  C   UNL A   1      43.517  31.695  30.483  1.00  0.00     0.074 A 
ATOM     42  C   UNL A   1      41.286  31.555  31.538  1.00  0.00     0.049 A 
ATOM     43  N   UNL A   1      43.969  32.826  30.957  1.00  0.00    -0.248 NA
ATOM     44  C   UNL A   1      44.419  31.037  29.525  1.00  0.00     0.031 C 
ATOM     45  C   UNL A   1      39.978  30.983  31.843  1.00  0.00     0.029 A 
ATOM     46  N   UNL A   1      41.294  32.756  32.203  1.00  0.00    -0.354 N 
ATOM     47  C   UNL A   1      45.211  33.013  30.361  1.00  0.00     0.074 A 
ATOM     48  C   UNL A   1      45.458  31.855  29.528  1.00  0.00     0.031 C 
ATOM     49  C   UNL A   1      39.317  31.822  32.661  1.00  0.00     0.029 A 
ATOM     50  C   UNL A   1      40.175  32.964  32.976  1.00  0.00     0.049 A 
ATOM     51  H   UNL A   1      42.030  33.406  32.135  1.00  0.00     0.167 HD
ATOM     52  C   UNL A   1      46.063  34.060  30.488  1.00  0.00     0.034 A 
ATOM     53  C   UNL A   1      39.898  33.940  33.865  1.00  0.00     0.034 A 
ATOM     54  C   UNL A   1      45.812  35.191  31.345  1.00  0.00     0.049 A 
ATOM     55  C   UNL A   1      40.910  35.041  34.087  1.00  0.00     0.074 A 
ATOM     56  C   UNL A   1      46.606  36.304  31.560  1.00  0.00     0.029 A 
ATOM     57  N   UNL A   1      44.685  35.347  32.144  1.00  0.00    -0.354 N 
ATOM     58  N   UNL A   1      42.087  35.209  33.528  1.00  0.00    -0.248 NA
ATOM     59  C   UNL A   1      40.556  36.087  35.057  1.00  0.00     0.031 C 
ATOM     60  C   UNL A   1      46.001  37.087  32.548  1.00  0.00     0.029 A 
ATOM     61  C   UNL A   1      44.781  36.519  32.879  1.00  0.00     0.049 A 
ATOM     62  H   UNL A   1      43.929  34.718  32.182  1.00  0.00     0.167 HD
ATOM     63  C   UNL A   1      42.595  36.396  34.052  1.00  0.00     0.074 A 
ATOM     64  C   UNL A   1      41.595  36.905  34.966  1.00  0.00     0.031 C 
ATOM     65  C   UNL A   1      43.776  37.015  33.792  1.00  0.00     0.034 A 
BRANCH  52  66
ATOM     66  C   UNL A   1      47.366  33.983  29.726  1.00  0.00     0.023 A 
ATOM     67  C   UNL A   1      47.489  34.492  28.421  1.00  0.00     0.031 A 
ATOM     68  C   UNL A   1      48.484  33.343  30.289  1.00  0.00     0.131 A 
ATOM     69  C   UNL A   1      48.666  34.270  27.691  1.00  0.00     0.055 A 
ATOM     70  C   UNL A   1      49.686  33.211  29.592  1.00  0.00     0.041 A 
ATOM     71  F   UNL A   1      48.422  32.813  31.521  1.00  0.00    -0.206 F 
ATOM     72  C   UNL A   1      49.777  33.658  28.277  1.00  0.00     0.022 A 
BRANCH  69  73
ATOM     73  S   UNL A   1      48.659  34.629  25.912  1.00  0.00     0.124 S 
ATOM     74  O   UNL A   1      47.363  34.090  25.508  1.00  0.00    -0.237 OA
ATOM     75  O   UNL A   1      48.784  36.081  25.884  1.00  0.00    -0.237 OA
ATOM     76  O   UNL A   1      49.816  33.891  25.409  1.00  0.00    -0.744 OA
ENDBRANCH  69  73
ENDBRANCH  52  66
BRANCH  53  77
ATOM     77  C   UNL A   1      38.638  33.891  34.664  1.00  0.00     0.023 A 
ATOM     78  C   UNL A   1      38.627  33.434  35.992  1.00  0.00     0.031 A 
ATOM     79  C   UNL A   1      37.408  34.263  34.087  1.00  0.00     0.131 A 
ATOM     80  C   UNL A   1      37.410  33.324  36.683  1.00  0.00     0.055 A 
ATOM     81  C   UNL A   1      36.209  34.207  34.799  1.00  0.00     0.041 A 
ATOM     82  F   UNL A   1      37.358  34.697  32.818  1.00  0.00    -0.206 F 
ATOM     83  C   UNL A   1      36.204  33.723  36.102  1.00  0.00     0.022 A 
BRANCH  80  84
ATOM     84  S   UNL A   1      37.411  32.566  38.332  1.00  0.00     0.124 S 
ATOM     85  O   UNL A   1      38.150  33.553  39.111  1.00  0.00    -0.237 OA
ATOM     86  O   UNL A   1      35.984  32.459  38.617  1.00  0.00    -0.237 OA
ATOM     87  O   UNL A   1      38.099  31.294  38.121  1.00  0.00    -0.744 OA
ENDBRANCH  80  84
ENDBRANCH  53  77
BRANCH  65  88
ATOM     88  C   UNL A   1      44.029  38.349  34.458  1.00  0.00     0.023 A 
ATOM     89  C   UNL A   1      43.452  39.542  33.990  1.00  0.00     0.031 A 
ATOM     90  C   UNL A   1      44.847  38.415  35.601  1.00  0.00     0.131 A 
ATOM     91  C   UNL A   1      43.737  40.755  34.636  1.00  0.00     0.055 A 
ATOM     92  C   UNL A   1      45.074  39.614  36.278  1.00  0.00     0.041 A 
ATOM     93  F   UNL A   1      45.429  37.309  36.092  1.00  0.00    -0.206 F 
ATOM     94  C   UNL A   1      44.525  40.796  35.789  1.00  0.00     0.022 A 
BRANCH  91  95
ATOM     95  S   UNL A   1      43.131  42.300  33.902  1.00  0.00     0.124 S 
ATOM     96  O   UNL A   1      44.142  42.569  32.885  1.00  0.00    -0.237 OA
ATOM     97  O   UNL A   1      41.813  41.916  33.407  1.00  0.00    -0.237 OA
ATOM     98  O   UNL A   1      43.120  43.234  35.028  1.00  0.00    -0.744 OA
ENDBRANCH  91  95
ENDBRANCH  65  88
ENDBRANCH  39  40
ENDBRANCH  32  34
ENDBRANCH  31  32
ENDBRANCH  30  31
ENDBRANCH  29  30
ENDBRANCH  28  29
ENDBRANCH  27  28
ENDBRANCH   1  27
TORSDOF 25
ENDMDL
