MODEL 1
REMARK VINA RESULT:      -7.8      0.000      0.000
REMARK SMILES O=C(OCCOCCOCCOCCOC(=O)[C@@H]1CCn2c(C(=O)c3ccccc3)ccc21)c1ccc(-c2c3nc(c(-c4cc(S(=O)(=O)[O-])ccc4F)c4ccc([nH]4)c(-c4cc(S(=O)(=O)[O-])ccc4F)c4nc(c(-c5cc(S(=O)(=O)[O-])ccc5F)c5ccc2[nH]5)C=C4)C=C3)cc1
REMARK SMILES IDX 8 1 7 2 6 3 5 4 4 5 3 6 2 7 1 8 34 9 35 10 96 11 36 12 95 13
REMARK SMILES IDX 37 14 38 15 39 16 89 17 40 18 94 19 88 20 90 21 41 22 93 23
REMARK SMILES IDX 87 24 86 25 42 27 74 28 54 29 73 30 55 31 58 32 72 33 91 34
REMARK SMILES IDX 56 35 57 36 71 38 92 39 59 40 43 41 44 42 52 43 45 44 51 45
REMARK SMILES IDX 53 46 50 47 46 48 47 49 48 50 49 51 75 52 76 53 84 54 77 55
REMARK SMILES IDX 83 56 85 57 82 58 78 59 79 60 80 61 81 62 60 63 61 64 69 65
REMARK SMILES IDX 62 66 68 67 70 68 67 69 63 70 64 71 65 72 66 73 9 74 10 75
REMARK SMILES IDX 11 76 12 77 13 78 14 79 15 80 16 81 17 82 18 83 19 84 33 85
REMARK SMILES IDX 20 86 21 87 32 88 22 89 31 90 23 91 24 92 25 93 26 94 30 95
REMARK SMILES IDX 27 96 29 97 28 98
REMARK H PARENT 90 26 58 37
REMARK Flexibility Score: inf
ROOT
ATOM      1  C   UNL A   1      43.721  24.326  25.444  1.00  0.00     0.188 C 
ENDROOT
BRANCH   1   2
ATOM      2  C   UNL A   1      44.106  23.319  24.358  1.00  0.00     0.188 C 
BRANCH   2   3
ATOM      3  O   UNL A   1      45.488  23.436  24.024  1.00  0.00    -0.376 OA
BRANCH   3   4
ATOM      4  C   UNL A   1      46.314  24.123  24.966  1.00  0.00     0.202 C 
BRANCH   4   5
ATOM      5  C   UNL A   1      47.514  24.837  24.348  1.00  0.00     0.261 C 
BRANCH   5   6
ATOM      6  O   UNL A   1      47.688  26.166  24.863  1.00  0.00    -0.460 OA
BRANCH   6   7
ATOM      7  C   UNL A   1      46.777  27.173  24.858  1.00  0.00     0.338 C 
ATOM      8  O   UNL A   1      46.494  27.700  23.781  1.00  0.00    -0.246 OA
BRANCH   7   9
ATOM      9  C   UNL A   1      46.073  27.663  26.081  1.00  0.00     0.060 A 
ATOM     10  C   UNL A   1      44.692  27.653  26.269  1.00  0.00     0.016 A 
ATOM     11  C   UNL A   1      46.872  28.098  27.151  1.00  0.00     0.016 A 
ATOM     12  C   UNL A   1      44.104  28.144  27.417  1.00  0.00     0.010 A 
ATOM     13  C   UNL A   1      46.291  28.559  28.338  1.00  0.00     0.010 A 
ATOM     14  C   UNL A   1      44.897  28.615  28.453  1.00  0.00    -0.014 A 
BRANCH  14  15
ATOM     15  C   UNL A   1      44.207  29.350  29.525  1.00  0.00     0.031 A 
ATOM     16  C   UNL A   1      43.983  28.627  30.819  1.00  0.00     0.074 A 
ATOM     17  C   UNL A   1      44.005  30.676  29.405  1.00  0.00     0.049 A 
ATOM     18  N   UNL A   1      43.370  29.022  31.897  1.00  0.00    -0.248 NA
ATOM     19  C   UNL A   1      44.550  27.268  30.911  1.00  0.00     0.031 C 
ATOM     20  C   UNL A   1      44.380  31.482  28.237  1.00  0.00     0.029 A 
ATOM     21  N   UNL A   1      43.485  31.587  30.282  1.00  0.00    -0.354 N 
ATOM     22  C   UNL A   1      43.454  27.957  32.786  1.00  0.00     0.074 A 
ATOM     23  C   UNL A   1      44.158  26.889  32.115  1.00  0.00     0.031 C 
ATOM     24  C   UNL A   1      44.096  32.770  28.485  1.00  0.00     0.029 A 
ATOM     25  C   UNL A   1      43.436  32.868  29.780  1.00  0.00     0.049 A 
ATOM     26  H   UNL A   1      43.175  31.350  31.186  1.00  0.00     0.167 HD
ATOM     27  C   UNL A   1      42.981  27.889  34.053  1.00  0.00     0.034 A 
ATOM     28  C   UNL A   1      42.867  33.973  30.299  1.00  0.00     0.034 A 
ATOM     29  C   UNL A   1      42.272  28.982  34.665  1.00  0.00     0.049 A 
ATOM     30  C   UNL A   1      42.209  33.830  31.651  1.00  0.00     0.074 A 
ATOM     31  C   UNL A   1      41.610  29.023  35.876  1.00  0.00     0.029 A 
ATOM     32  N   UNL A   1      42.140  30.244  34.092  1.00  0.00    -0.354 N 
ATOM     33  N   UNL A   1      42.164  32.776  32.439  1.00  0.00    -0.248 NA
ATOM     34  C   UNL A   1      41.519  35.009  32.180  1.00  0.00     0.031 C 
ATOM     35  C   UNL A   1      41.033  30.292  36.009  1.00  0.00     0.029 A 
ATOM     36  C   UNL A   1      41.397  31.068  34.917  1.00  0.00     0.049 A 
ATOM     37  H   UNL A   1      42.521  30.511  33.224  1.00  0.00     0.167 HD
ATOM     38  C   UNL A   1      41.455  33.173  33.567  1.00  0.00     0.074 A 
ATOM     39  C   UNL A   1      41.123  34.572  33.367  1.00  0.00     0.031 C 
ATOM     40  C   UNL A   1      41.096  32.458  34.666  1.00  0.00     0.034 A 
BRANCH  27  41
ATOM     41  C   UNL A   1      43.135  26.569  34.764  1.00  0.00     0.023 A 
ATOM     42  C   UNL A   1      44.398  26.057  35.113  1.00  0.00     0.031 A 
ATOM     43  C   UNL A   1      42.011  25.755  34.988  1.00  0.00     0.131 A 
ATOM     44  C   UNL A   1      44.514  24.738  35.582  1.00  0.00     0.055 A 
ATOM     45  C   UNL A   1      42.125  24.475  35.534  1.00  0.00     0.041 A 
ATOM     46  F   UNL A   1      40.784  26.174  34.640  1.00  0.00    -0.206 F 
ATOM     47  C   UNL A   1      43.384  23.952  35.817  1.00  0.00     0.022 A 
BRANCH  44  48
ATOM     48  S   UNL A   1      46.169  24.006  35.719  1.00  0.00     0.124 S 
ATOM     49  O   UNL A   1      45.854  22.582  35.808  1.00  0.00    -0.237 OA
ATOM     50  O   UNL A   1      46.813  24.440  34.484  1.00  0.00    -0.237 OA
ATOM     51  O   UNL A   1      46.707  24.596  36.943  1.00  0.00    -0.744 OA
ENDBRANCH  44  48
ENDBRANCH  27  41
BRANCH  28  52
ATOM     52  C   UNL A   1      42.798  35.249  29.522  1.00  0.00     0.023 A 
ATOM     53  C   UNL A   1      43.804  36.223  29.612  1.00  0.00     0.031 A 
ATOM     54  C   UNL A   1      41.671  35.552  28.732  1.00  0.00     0.131 A 
ATOM     55  C   UNL A   1      43.639  37.466  28.975  1.00  0.00     0.055 A 
ATOM     56  C   UNL A   1      41.543  36.760  28.045  1.00  0.00     0.041 A 
ATOM     57  F   UNL A   1      40.664  34.670  28.615  1.00  0.00    -0.206 F 
ATOM     58  C   UNL A   1      42.524  37.735  28.180  1.00  0.00     0.022 A 
BRANCH  55  59
ATOM     59  S   UNL A   1      44.848  38.781  29.304  1.00  0.00     0.124 S 
ATOM     60  O   UNL A   1      44.742  39.591  28.095  1.00  0.00    -0.237 OA
ATOM     61  O   UNL A   1      44.317  39.377  30.526  1.00  0.00    -0.237 OA
ATOM     62  O   UNL A   1      46.106  38.054  29.461  1.00  0.00    -0.744 OA
ENDBRANCH  55  59
ENDBRANCH  28  52
BRANCH  40  63
ATOM     63  C   UNL A   1      40.349  33.210  35.735  1.00  0.00     0.023 A 
ATOM     64  C   UNL A   1      41.023  33.967  36.706  1.00  0.00     0.031 A 
ATOM     65  C   UNL A   1      38.946  33.150  35.786  1.00  0.00     0.131 A 
ATOM     66  C   UNL A   1      40.295  34.583  37.732  1.00  0.00     0.055 A 
ATOM     67  C   UNL A   1      38.222  33.825  36.769  1.00  0.00     0.041 A 
ATOM     68  F   UNL A   1      38.257  32.439  34.880  1.00  0.00    -0.206 F 
ATOM     69  C   UNL A   1      38.899  34.533  37.758  1.00  0.00     0.022 A 
BRANCH  66  70
ATOM     70  S   UNL A   1      41.208  35.359  39.092  1.00  0.00     0.124 S 
ATOM     71  O   UNL A   1      40.245  36.339  39.582  1.00  0.00    -0.237 OA
ATOM     72  O   UNL A   1      41.472  34.228  39.975  1.00  0.00    -0.237 OA
ATOM     73  O   UNL A   1      42.386  35.920  38.434  1.00  0.00    -0.744 OA
ENDBRANCH  66  70
ENDBRANCH  40  63
ENDBRANCH  14  15
ENDBRANCH   7   9
ENDBRANCH   6   7
ENDBRANCH   5   6
ENDBRANCH   4   5
ENDBRANCH   3   4
ENDBRANCH   2   3
ENDBRANCH   1   2
BRANCH   1  74
ATOM     74  O   UNL A   1      42.449  24.952  25.257  1.00  0.00    -0.377 OA
BRANCH  74  75
ATOM     75  C   UNL A   1      41.727  25.254  26.448  1.00  0.00     0.188 C 
BRANCH  75  76
ATOM     76  C   UNL A   1      40.838  26.516  26.490  1.00  0.00     0.188 C 
BRANCH  76  77
ATOM     77  O   UNL A   1      40.785  27.126  27.770  1.00  0.00    -0.376 OA
BRANCH  77  78
ATOM     78  C   UNL A   1      39.490  27.265  28.342  1.00  0.00     0.202 C 
BRANCH  78  79
ATOM     79  C   UNL A   1      39.156  28.609  29.022  1.00  0.00     0.261 C 
BRANCH  79  80
ATOM     80  O   UNL A   1      39.289  28.603  30.451  1.00  0.00    -0.463 OA
BRANCH  80  81
ATOM     81  C   UNL A   1      39.381  29.799  31.099  1.00  0.00     0.315 C 
ATOM     82  O   UNL A   1      40.135  30.038  32.019  1.00  0.00    -0.251 OA
BRANCH  81  83
ATOM     83  C   UNL A   1      38.502  30.823  30.385  1.00  0.00     0.148 C 
ATOM     84  C   UNL A   1      39.296  32.139  30.134  1.00  0.00     0.043 C 
ATOM     85  C   UNL A   1      37.370  31.275  31.216  1.00  0.00     0.033 A 
ATOM     86  C   UNL A   1      38.460  33.286  30.697  1.00  0.00     0.124 C 
ATOM     87  N   UNL A   1      37.374  32.626  31.390  1.00  0.00    -0.341 N 
ATOM     88  C   UNL A   1      36.270  30.753  31.833  1.00  0.00     0.025 A 
ATOM     89  C   UNL A   1      36.359  33.025  32.202  1.00  0.00     0.090 A 
ATOM     90  C   UNL A   1      35.643  31.855  32.473  1.00  0.00     0.032 A 
BRANCH  89  91
ATOM     91  C   UNL A   1      36.083  34.347  32.734  1.00  0.00     0.209 C 
ATOM     92  O   UNL A   1      36.817  34.913  33.544  1.00  0.00    -0.287 OA
BRANCH  91  93
ATOM     93  C   UNL A   1      34.888  35.094  32.292  1.00  0.00     0.024 A 
ATOM     94  C   UNL A   1      34.341  34.807  31.039  1.00  0.00     0.012 A 
ATOM     95  C   UNL A   1      34.327  36.087  33.103  1.00  0.00     0.012 A 
ATOM     96  C   UNL A   1      33.210  35.497  30.606  1.00  0.00     0.001 A 
ATOM     97  C   UNL A   1      33.189  36.768  32.668  1.00  0.00     0.001 A 
ATOM     98  C   UNL A   1      32.633  36.473  31.422  1.00  0.00     0.000 A 
ENDBRANCH  91  93
ENDBRANCH  89  91
ENDBRANCH  81  83
ENDBRANCH  80  81
ENDBRANCH  79  80
ENDBRANCH  78  79
ENDBRANCH  77  78
ENDBRANCH  76  77
ENDBRANCH  75  76
ENDBRANCH  74  75
ENDBRANCH   1  74
TORSDOF 25
ENDMDL
MODEL 2
REMARK VINA RESULT:      -7.1      6.638     13.705
REMARK SMILES O=C(OCCOCCOCCOCCOC(=O)[C@@H]1CCn2c(C(=O)c3ccccc3)ccc21)c1ccc(-c2c3nc(c(-c4cc(S(=O)(=O)[O-])ccc4F)c4ccc([nH]4)c(-c4cc(S(=O)(=O)[O-])ccc4F)c4nc(c(-c5cc(S(=O)(=O)[O-])ccc5F)c5ccc2[nH]5)C=C4)C=C3)cc1
REMARK SMILES IDX 8 1 7 2 6 3 5 4 4 5 3 6 2 7 1 8 34 9 35 10 96 11 36 12 95 13
REMARK SMILES IDX 37 14 38 15 39 16 89 17 40 18 94 19 88 20 90 21 41 22 93 23
REMARK SMILES IDX 87 24 86 25 42 27 74 28 54 29 73 30 55 31 58 32 72 33 91 34
REMARK SMILES IDX 56 35 57 36 71 38 92 39 59 40 43 41 44 42 52 43 45 44 51 45
REMARK SMILES IDX 53 46 50 47 46 48 47 49 48 50 49 51 75 52 76 53 84 54 77 55
REMARK SMILES IDX 83 56 85 57 82 58 78 59 79 60 80 61 81 62 60 63 61 64 69 65
REMARK SMILES IDX 62 66 68 67 70 68 67 69 63 70 64 71 65 72 66 73 9 74 10 75
REMARK SMILES IDX 11 76 12 77 13 78 14 79 15 80 16 81 17 82 18 83 19 84 33 85
REMARK SMILES IDX 20 86 21 87 32 88 22 89 31 90 23 91 24 92 25 93 26 94 30 95
REMARK SMILES IDX 27 96 29 97 28 98
REMARK H PARENT 90 26 58 37
REMARK Flexibility Score: inf
ROOT
ATOM      1  C   UNL A   1      42.168  38.565  26.643  1.00  0.00     0.188 C 
ENDROOT
BRANCH   1   2
ATOM      2  C   UNL A   1      41.799  37.264  27.359  1.00  0.00     0.188 C 
BRANCH   2   3
ATOM      3  O   UNL A   1      41.824  37.439  28.775  1.00  0.00    -0.376 OA
BRANCH   3   4
ATOM      4  C   UNL A   1      42.942  36.878  29.466  1.00  0.00     0.202 C 
BRANCH   4   5
ATOM      5  C   UNL A   1      43.777  37.896  30.239  1.00  0.00     0.261 C 
BRANCH   5   6
ATOM      6  O   UNL A   1      45.181  37.592  30.207  1.00  0.00    -0.460 OA
BRANCH   6   7
ATOM      7  C   UNL A   1      45.831  36.814  29.305  1.00  0.00     0.338 C 
ATOM      8  O   UNL A   1      46.824  37.277  28.742  1.00  0.00    -0.246 OA
BRANCH   7   9
ATOM      9  C   UNL A   1      45.430  35.414  28.973  1.00  0.00     0.060 A 
ATOM     10  C   UNL A   1      44.835  35.014  27.777  1.00  0.00     0.016 A 
ATOM     11  C   UNL A   1      45.744  34.417  29.909  1.00  0.00     0.016 A 
ATOM     12  C   UNL A   1      44.465  33.704  27.544  1.00  0.00     0.010 A 
ATOM     13  C   UNL A   1      45.415  33.077  29.668  1.00  0.00     0.010 A 
ATOM     14  C   UNL A   1      44.738  32.730  28.493  1.00  0.00    -0.014 A 
BRANCH  14  15
ATOM     15  C   UNL A   1      44.096  31.421  28.292  1.00  0.00     0.031 A 
ATOM     16  C   UNL A   1      44.873  30.384  27.538  1.00  0.00     0.074 A 
ATOM     17  C   UNL A   1      42.965  31.120  28.958  1.00  0.00     0.049 A 
ATOM     18  N   UNL A   1      44.528  29.178  27.188  1.00  0.00    -0.248 NA
ATOM     19  C   UNL A   1      46.242  30.760  27.140  1.00  0.00     0.031 C 
ATOM     20  C   UNL A   1      42.258  32.029  29.868  1.00  0.00     0.029 A 
ATOM     21  N   UNL A   1      42.241  29.963  29.019  1.00  0.00    -0.354 N 
ATOM     22  C   UNL A   1      45.624  28.659  26.508  1.00  0.00     0.074 A 
ATOM     23  C   UNL A   1      46.638  29.688  26.474  1.00  0.00     0.031 C 
ATOM     24  C   UNL A   1      41.214  31.382  30.410  1.00  0.00     0.029 A 
ATOM     25  C   UNL A   1      41.123  30.054  29.818  1.00  0.00     0.049 A 
ATOM     26  H   UNL A   1      42.494  29.142  28.537  1.00  0.00     0.167 HD
ATOM     27  C   UNL A   1      45.760  27.427  25.964  1.00  0.00     0.034 A 
ATOM     28  C   UNL A   1      40.120  29.172  29.996  1.00  0.00     0.034 A 
ATOM     29  C   UNL A   1      44.708  26.446  26.015  1.00  0.00     0.049 A 
ATOM     30  C   UNL A   1      40.223  27.862  29.252  1.00  0.00     0.074 A 
ATOM     31  C   UNL A   1      44.633  25.215  25.396  1.00  0.00     0.029 A 
ATOM     32  N   UNL A   1      43.533  26.602  26.745  1.00  0.00    -0.354 N 
ATOM     33  N   UNL A   1      41.202  27.422  28.488  1.00  0.00    -0.248 NA
ATOM     34  C   UNL A   1      39.095  26.937  29.379  1.00  0.00     0.031 C 
ATOM     35  C   UNL A   1      43.389  24.651  25.708  1.00  0.00     0.029 A 
ATOM     36  C   UNL A   1      42.720  25.496  26.583  1.00  0.00     0.049 A 
ATOM     37  H   UNL A   1      43.312  27.387  27.298  1.00  0.00     0.167 HD
ATOM     38  C   UNL A   1      40.813  26.158  28.060  1.00  0.00     0.074 A 
ATOM     39  C   UNL A   1      39.525  25.898  28.678  1.00  0.00     0.031 C 
ATOM     40  C   UNL A   1      41.442  25.290  27.226  1.00  0.00     0.034 A 
BRANCH  27  41
ATOM     41  C   UNL A   1      47.033  27.160  25.201  1.00  0.00     0.023 A 
ATOM     42  C   UNL A   1      47.239  27.664  23.903  1.00  0.00     0.031 A 
ATOM     43  C   UNL A   1      48.001  26.289  25.729  1.00  0.00     0.131 A 
ATOM     44  C   UNL A   1      48.338  27.224  23.148  1.00  0.00     0.055 A 
ATOM     45  C   UNL A   1      49.136  25.921  25.005  1.00  0.00     0.041 A 
ATOM     46  F   UNL A   1      47.840  25.747  26.947  1.00  0.00    -0.206 F 
ATOM     47  C   UNL A   1      49.301  26.374  23.698  1.00  0.00     0.022 A 
BRANCH  44  48
ATOM     48  S   UNL A   1      48.404  27.640  21.382  1.00  0.00     0.124 S 
ATOM     49  O   UNL A   1      49.496  28.609  21.348  1.00  0.00    -0.237 OA
ATOM     50  O   UNL A   1      48.677  26.349  20.761  1.00  0.00    -0.237 OA
ATOM     51  O   UNL A   1      47.079  28.194  21.110  1.00  0.00    -0.744 OA
ENDBRANCH  44  48
ENDBRANCH  27  41
BRANCH  28  52
ATOM     52  C   UNL A   1      38.913  29.524  30.805  1.00  0.00     0.023 A 
ATOM     53  C   UNL A   1      37.895  30.344  30.294  1.00  0.00     0.031 A 
ATOM     54  C   UNL A   1      38.797  29.107  32.147  1.00  0.00     0.131 A 
ATOM     55  C   UNL A   1      36.844  30.764  31.129  1.00  0.00     0.055 A 
ATOM     56  C   UNL A   1      37.717  29.470  32.951  1.00  0.00     0.041 A 
ATOM     57  F   UNL A   1      39.744  28.333  32.704  1.00  0.00    -0.206 F 
ATOM     58  C   UNL A   1      36.740  30.321  32.448  1.00  0.00     0.022 A 
BRANCH  55  59
ATOM     59  S   UNL A   1      35.678  32.007  30.502  1.00  0.00     0.124 S 
ATOM     60  O   UNL A   1      35.177  31.361  29.294  1.00  0.00    -0.237 OA
ATOM     61  O   UNL A   1      34.735  32.120  31.610  1.00  0.00    -0.237 OA
ATOM     62  O   UNL A   1      36.521  33.180  30.279  1.00  0.00    -0.744 OA
ENDBRANCH  55  59
ENDBRANCH  28  52
BRANCH  40  63
ATOM     63  C   UNL A   1      40.753  23.973  26.990  1.00  0.00     0.023 A 
ATOM     64  C   UNL A   1      39.588  23.884  26.212  1.00  0.00     0.031 A 
ATOM     65  C   UNL A   1      41.264  22.798  27.567  1.00  0.00     0.131 A 
ATOM     66  C   UNL A   1      38.931  22.653  26.086  1.00  0.00     0.055 A 
ATOM     67  C   UNL A   1      40.645  21.563  27.378  1.00  0.00     0.041 A 
ATOM     68  F   UNL A   1      42.376  22.832  28.319  1.00  0.00    -0.206 F 
ATOM     69  C   UNL A   1      39.463  21.490  26.647  1.00  0.00     0.022 A 
BRANCH  66  70
ATOM     70  S   UNL A   1      37.314  22.618  25.268  1.00  0.00     0.124 S 
ATOM     71  O   UNL A   1      37.338  21.317  24.607  1.00  0.00    -0.237 OA
ATOM     72  O   UNL A   1      36.393  22.744  26.392  1.00  0.00    -0.237 OA
ATOM     73  O   UNL A   1      37.360  23.771  24.371  1.00  0.00    -0.744 OA
ENDBRANCH  66  70
ENDBRANCH  40  63
ENDBRANCH  14  15
ENDBRANCH   7   9
ENDBRANCH   6   7
ENDBRANCH   5   6
ENDBRANCH   4   5
ENDBRANCH   3   4
ENDBRANCH   2   3
ENDBRANCH   1   2
BRANCH   1  74
ATOM     74  O   UNL A   1      43.551  38.923  26.725  1.00  0.00    -0.377 OA
BRANCH  74  75
ATOM     75  C   UNL A   1      43.876  40.236  26.281  1.00  0.00     0.188 C 
BRANCH  75  76
ATOM     76  C   UNL A   1      44.142  41.340  27.328  1.00  0.00     0.188 C 
BRANCH  76  77
ATOM     77  O   UNL A   1      45.139  42.269  26.928  1.00  0.00    -0.376 OA
BRANCH  77  78
ATOM     78  C   UNL A   1      44.668  43.536  26.482  1.00  0.00     0.202 C 
BRANCH  78  79
ATOM     79  C   UNL A   1      45.709  44.664  26.328  1.00  0.00     0.261 C 
BRANCH  79  80
ATOM     80  O   UNL A   1      46.266  44.784  25.011  1.00  0.00    -0.463 OA
BRANCH  80  81
ATOM     81  C   UNL A   1      45.483  44.462  23.942  1.00  0.00     0.315 C 
ATOM     82  O   UNL A   1      44.271  44.415  23.954  1.00  0.00    -0.251 OA
BRANCH  81  83
ATOM     83  C   UNL A   1      46.364  44.322  22.703  1.00  0.00     0.148 C 
ATOM     84  C   UNL A   1      47.423  45.462  22.659  1.00  0.00     0.043 C 
ATOM     85  C   UNL A   1      45.612  44.524  21.449  1.00  0.00     0.033 A 
ATOM     86  C   UNL A   1      47.314  46.130  21.290  1.00  0.00     0.124 C 
ATOM     87  N   UNL A   1      46.138  45.530  20.697  1.00  0.00    -0.341 N 
ATOM     88  C   UNL A   1      44.564  43.968  20.773  1.00  0.00     0.025 A 
ATOM     89  C   UNL A   1      45.406  45.742  19.571  1.00  0.00     0.090 A 
ATOM     90  C   UNL A   1      44.421  44.750  19.597  1.00  0.00     0.032 A 
BRANCH  89  91
ATOM     91  C   UNL A   1      45.549  46.788  18.575  1.00  0.00     0.209 C 
ATOM     92  O   UNL A   1      46.316  46.704  17.616  1.00  0.00    -0.287 OA
BRANCH  91  93
ATOM     93  C   UNL A   1      44.738  48.020  18.664  1.00  0.00     0.024 A 
ATOM     94  C   UNL A   1      44.983  48.911  19.712  1.00  0.00     0.012 A 
ATOM     95  C   UNL A   1      43.729  48.280  17.730  1.00  0.00     0.012 A 
ATOM     96  C   UNL A   1      44.233  50.082  19.811  1.00  0.00     0.001 A 
ATOM     97  C   UNL A   1      42.988  49.458  17.829  1.00  0.00     0.001 A 
ATOM     98  C   UNL A   1      43.240  50.356  18.868  1.00  0.00     0.000 A 
ENDBRANCH  91  93
ENDBRANCH  89  91
ENDBRANCH  81  83
ENDBRANCH  80  81
ENDBRANCH  79  80
ENDBRANCH  78  79
ENDBRANCH  77  78
ENDBRANCH  76  77
ENDBRANCH  75  76
ENDBRANCH  74  75
ENDBRANCH   1  74
TORSDOF 25
ENDMDL
MODEL 3
REMARK VINA RESULT:      -6.7      3.615      7.186
REMARK SMILES O=C(OCCOCCOCCOCCOC(=O)[C@@H]1CCn2c(C(=O)c3ccccc3)ccc21)c1ccc(-c2c3nc(c(-c4cc(S(=O)(=O)[O-])ccc4F)c4ccc([nH]4)c(-c4cc(S(=O)(=O)[O-])ccc4F)c4nc(c(-c5cc(S(=O)(=O)[O-])ccc5F)c5ccc2[nH]5)C=C4)C=C3)cc1
REMARK SMILES IDX 8 1 7 2 6 3 5 4 4 5 3 6 2 7 1 8 34 9 35 10 96 11 36 12 95 13
REMARK SMILES IDX 37 14 38 15 39 16 89 17 40 18 94 19 88 20 90 21 41 22 93 23
REMARK SMILES IDX 87 24 86 25 42 27 74 28 54 29 73 30 55 31 58 32 72 33 91 34
REMARK SMILES IDX 56 35 57 36 71 38 92 39 59 40 43 41 44 42 52 43 45 44 51 45
REMARK SMILES IDX 53 46 50 47 46 48 47 49 48 50 49 51 75 52 76 53 84 54 77 55
REMARK SMILES IDX 83 56 85 57 82 58 78 59 79 60 80 61 81 62 60 63 61 64 69 65
REMARK SMILES IDX 62 66 68 67 70 68 67 69 63 70 64 71 65 72 66 73 9 74 10 75
REMARK SMILES IDX 11 76 12 77 13 78 14 79 15 80 16 81 17 82 18 83 19 84 33 85
REMARK SMILES IDX 20 86 21 87 32 88 22 89 31 90 23 91 24 92 25 93 26 94 30 95
REMARK SMILES IDX 27 96 29 97 28 98
REMARK H PARENT 90 26 58 37
REMARK Flexibility Score: inf
ROOT
ATOM      1  C   UNL A   1      53.518  27.360  29.949  1.00  0.00     0.188 C 
ENDROOT
BRANCH   1   2
ATOM      2  C   UNL A   1      54.427  27.349  28.718  1.00  0.00     0.188 C 
BRANCH   2   3
ATOM      3  O   UNL A   1      53.667  27.151  27.527  1.00  0.00    -0.376 OA
BRANCH   3   4
ATOM      4  C   UNL A   1      53.220  28.330  26.855  1.00  0.00     0.202 C 
BRANCH   4   5
ATOM      5  C   UNL A   1      53.806  29.628  27.405  1.00  0.00     0.261 C 
BRANCH   5   6
ATOM      6  O   UNL A   1      53.330  30.787  26.703  1.00  0.00    -0.460 OA
BRANCH   6   7
ATOM      7  C   UNL A   1      52.602  31.813  27.213  1.00  0.00     0.338 C 
ATOM      8  O   UNL A   1      53.137  32.918  27.310  1.00  0.00    -0.246 OA
BRANCH   7   9
ATOM      9  C   UNL A   1      51.176  31.688  27.640  1.00  0.00     0.060 A 
ATOM     10  C   UNL A   1      50.143  31.193  26.845  1.00  0.00     0.016 A 
ATOM     11  C   UNL A   1      50.870  32.027  28.967  1.00  0.00     0.016 A 
ATOM     12  C   UNL A   1      48.839  31.126  27.294  1.00  0.00     0.010 A 
ATOM     13  C   UNL A   1      49.560  31.924  29.451  1.00  0.00     0.010 A 
ATOM     14  C   UNL A   1      48.535  31.506  28.593  1.00  0.00    -0.014 A 
BRANCH  14  15
ATOM     15  C   UNL A   1      47.107  31.650  28.917  1.00  0.00     0.031 A 
ATOM     16  C   UNL A   1      46.432  30.485  29.575  1.00  0.00     0.074 A 
ATOM     17  C   UNL A   1      46.518  32.858  28.827  1.00  0.00     0.049 A 
ATOM     18  N   UNL A   1      45.186  30.334  29.923  1.00  0.00    -0.248 NA
ATOM     19  C   UNL A   1      47.293  29.334  29.903  1.00  0.00     0.031 C 
ATOM     20  C   UNL A   1      47.182  34.085  28.372  1.00  0.00     0.029 A 
ATOM     21  N   UNL A   1      45.256  33.268  29.156  1.00  0.00    -0.354 N 
ATOM     22  C   UNL A   1      45.107  29.065  30.487  1.00  0.00     0.074 A 
ATOM     23  C   UNL A   1      46.425  28.479  30.415  1.00  0.00     0.031 C 
ATOM     24  C   UNL A   1      46.323  35.112  28.474  1.00  0.00     0.029 A 
ATOM     25  C   UNL A   1      45.028  34.602  28.907  1.00  0.00     0.049 A 
ATOM     26  H   UNL A   1      44.575  32.665  29.534  1.00  0.00     0.167 HD
ATOM     27  C   UNL A   1      44.021  28.455  31.016  1.00  0.00     0.034 A 
ATOM     28  C   UNL A   1      43.881  35.305  28.974  1.00  0.00     0.034 A 
ATOM     29  C   UNL A   1      42.726  29.084  31.046  1.00  0.00     0.049 A 
ATOM     30  C   UNL A   1      42.648  34.557  29.422  1.00  0.00     0.074 A 
ATOM     31  C   UNL A   1      41.507  28.553  31.414  1.00  0.00     0.029 A 
ATOM     32  N   UNL A   1      42.496  30.409  30.686  1.00  0.00    -0.354 N 
ATOM     33  N   UNL A   1      42.542  33.307  29.825  1.00  0.00    -0.248 NA
ATOM     34  C   UNL A   1      41.385  35.298  29.417  1.00  0.00     0.031 C 
ATOM     35  C   UNL A   1      40.532  29.540  31.224  1.00  0.00     0.029 A 
ATOM     36  C   UNL A   1      41.152  30.711  30.811  1.00  0.00     0.049 A 
ATOM     37  H   UNL A   1      43.190  31.041  30.387  1.00  0.00     0.167 HD
ATOM     38  C   UNL A   1      41.201  33.120  30.139  1.00  0.00     0.074 A 
ATOM     39  C   UNL A   1      40.548  34.396  29.908  1.00  0.00     0.031 C 
ATOM     40  C   UNL A   1      40.555  32.004  30.566  1.00  0.00     0.034 A 
BRANCH  27  41
ATOM     41  C   UNL A   1      44.202  27.032  31.481  1.00  0.00     0.023 A 
ATOM     42  C   UNL A   1      44.613  26.726  32.792  1.00  0.00     0.031 A 
ATOM     43  C   UNL A   1      44.080  25.972  30.566  1.00  0.00     0.131 A 
ATOM     44  C   UNL A   1      44.971  25.410  33.123  1.00  0.00     0.055 A 
ATOM     45  C   UNL A   1      44.358  24.652  30.926  1.00  0.00     0.041 A 
ATOM     46  F   UNL A   1      43.729  26.207  29.292  1.00  0.00    -0.206 F 
ATOM     47  C   UNL A   1      44.824  24.367  32.206  1.00  0.00     0.022 A 
BRANCH  44  48
ATOM     48  S   UNL A   1      45.793  25.106  34.713  1.00  0.00     0.124 S 
ATOM     49  O   UNL A   1      45.318  26.233  35.511  1.00  0.00    -0.237 OA
ATOM     50  O   UNL A   1      45.279  23.795  35.092  1.00  0.00    -0.237 OA
ATOM     51  O   UNL A   1      47.215  25.144  34.378  1.00  0.00    -0.744 OA
ENDBRANCH  44  48
ENDBRANCH  27  41
BRANCH  28  52
ATOM     52  C   UNL A   1      43.815  36.729  28.520  1.00  0.00     0.023 A 
ATOM     53  C   UNL A   1      44.128  37.793  29.380  1.00  0.00     0.031 A 
ATOM     54  C   UNL A   1      43.353  37.053  27.228  1.00  0.00     0.131 A 
ATOM     55  C   UNL A   1      43.923  39.119  28.961  1.00  0.00     0.055 A 
ATOM     56  C   UNL A   1      43.217  38.372  26.793  1.00  0.00     0.041 A 
ATOM     57  F   UNL A   1      43.022  36.083  26.359  1.00  0.00    -0.206 F 
ATOM     58  C   UNL A   1      43.485  39.416  27.670  1.00  0.00     0.022 A 
BRANCH  55  59
ATOM     59  S   UNL A   1      44.116  40.456  30.176  1.00  0.00     0.124 S 
ATOM     60  O   UNL A   1      45.502  40.279  30.595  1.00  0.00    -0.237 OA
ATOM     61  O   UNL A   1      43.834  41.638  29.369  1.00  0.00    -0.237 OA
ATOM     62  O   UNL A   1      43.112  40.139  31.190  1.00  0.00    -0.744 OA
ENDBRANCH  55  59
ENDBRANCH  28  52
BRANCH  40  63
ATOM     63  C   UNL A   1      39.084  32.152  30.849  1.00  0.00     0.023 A 
ATOM     64  C   UNL A   1      38.131  32.101  29.820  1.00  0.00     0.031 A 
ATOM     65  C   UNL A   1      38.639  32.361  32.165  1.00  0.00     0.131 A 
ATOM     66  C   UNL A   1      36.781  32.325  30.115  1.00  0.00     0.055 A 
ATOM     67  C   UNL A   1      37.285  32.513  32.462  1.00  0.00     0.041 A 
ATOM     68  F   UNL A   1      39.512  32.418  33.183  1.00  0.00    -0.206 F 
ATOM     69  C   UNL A   1      36.349  32.511  31.431  1.00  0.00     0.022 A 
BRANCH  66  70
ATOM     70  S   UNL A   1      35.610  32.479  28.739  1.00  0.00     0.124 S 
ATOM     71  O   UNL A   1      36.279  31.720  27.688  1.00  0.00    -0.237 OA
ATOM     72  O   UNL A   1      34.401  31.876  29.290  1.00  0.00    -0.237 OA
ATOM     73  O   UNL A   1      35.537  33.921  28.514  1.00  0.00    -0.744 OA
ENDBRANCH  66  70
ENDBRANCH  40  63
ENDBRANCH  14  15
ENDBRANCH   7   9
ENDBRANCH   6   7
ENDBRANCH   5   6
ENDBRANCH   4   5
ENDBRANCH   3   4
ENDBRANCH   2   3
ENDBRANCH   1   2
BRANCH   1  74
ATOM     74  O   UNL A   1      52.227  26.779  29.746  1.00  0.00    -0.377 OA
BRANCH  74  75
ATOM     75  C   UNL A   1      51.666  26.111  30.872  1.00  0.00     0.188 C 
BRANCH  75  76
ATOM     76  C   UNL A   1      50.377  25.279  30.688  1.00  0.00     0.188 C 
BRANCH  76  77
ATOM     77  O   UNL A   1      50.159  24.866  29.347  1.00  0.00    -0.376 OA
BRANCH  77  78
ATOM     78  C   UNL A   1      49.252  25.660  28.590  1.00  0.00     0.202 C 
BRANCH  78  79
ATOM     79  C   UNL A   1      48.626  25.017  27.335  1.00  0.00     0.261 C 
BRANCH  79  80
ATOM     80  O   UNL A   1      47.267  25.406  27.082  1.00  0.00    -0.463 OA
BRANCH  80  81
ATOM     81  C   UNL A   1      46.765  25.229  25.827  1.00  0.00     0.315 C 
ATOM     82  O   UNL A   1      46.655  24.160  25.264  1.00  0.00    -0.251 OA
BRANCH  81  83
ATOM     83  C   UNL A   1      46.225  26.561  25.313  1.00  0.00     0.148 C 
ATOM     84  C   UNL A   1      46.785  27.738  26.166  1.00  0.00     0.043 C 
ATOM     85  C   UNL A   1      44.766  26.689  25.496  1.00  0.00     0.033 A 
ATOM     86  C   UNL A   1      45.591  28.566  26.636  1.00  0.00     0.124 C 
ATOM     87  N   UNL A   1      44.440  27.784  26.238  1.00  0.00    -0.341 N 
ATOM     88  C   UNL A   1      43.618  26.065  25.100  1.00  0.00     0.025 A 
ATOM     89  C   UNL A   1      43.099  27.861  26.445  1.00  0.00     0.090 A 
ATOM     90  C   UNL A   1      42.566  26.794  25.716  1.00  0.00     0.032 A 
BRANCH  89  91
ATOM     91  C   UNL A   1      42.357  28.792  27.275  1.00  0.00     0.209 C 
ATOM     92  O   UNL A   1      42.807  29.880  27.635  1.00  0.00    -0.287 OA
BRANCH  91  93
ATOM     93  C   UNL A   1      40.983  28.470  27.714  1.00  0.00     0.024 A 
ATOM     94  C   UNL A   1      40.733  27.213  28.270  1.00  0.00     0.012 A 
ATOM     95  C   UNL A   1      39.947  29.397  27.555  1.00  0.00     0.012 A 
ATOM     96  C   UNL A   1      39.445  26.891  28.696  1.00  0.00     0.001 A 
ATOM     97  C   UNL A   1      38.662  29.073  27.991  1.00  0.00     0.001 A 
ATOM     98  C   UNL A   1      38.413  27.822  28.560  1.00  0.00     0.000 A 
ENDBRANCH  91  93
ENDBRANCH  89  91
ENDBRANCH  81  83
ENDBRANCH  80  81
ENDBRANCH  79  80
ENDBRANCH  78  79
ENDBRANCH  77  78
ENDBRANCH  76  77
ENDBRANCH  75  76
ENDBRANCH  74  75
ENDBRANCH   1  74
TORSDOF 25
ENDMDL
