MODEL 1
REMARK VINA RESULT:      -9.2      0.000      0.000
REMARK SMILES C[C@H]1CC[C@@](C[C@@H]2CCCc3ccccc32)(C(=O)OCCOCCOCCOCCOC(=O)c2ccc(-c3c4nc(c(-c5cc(S(=O)(=O)[O-])ccc5F)c5ccc([nH]5)c(-c5cc(S(=O)(=O)[O-])ccc5F)c5nc(c(-c6cc(S(=O)(=O)[O-])ccc6F)c6ccc3[nH]6)C=C5)C=C4)cc2)C1
REMARK SMILES IDX 26 1 25 2 24 3 23 4 22 5 21 6 20 7 19 8 17 9 18 10 5 11 1 12
REMARK SMILES IDX 2 13 3 14 97 15 4 16 6 17 7 18 8 19 16 20 9 21 11 22 15 23
REMARK SMILES IDX 10 24 12 25 14 26 13 27 27 28 28 29 29 30 30 31 31 32 32 33
REMARK SMILES IDX 33 34 34 35 35 36 96 37 36 38 95 39 37 40 38 41 39 42 89 43
REMARK SMILES IDX 40 44 94 45 88 46 90 47 41 48 93 49 87 50 86 51 42 53 74 54
REMARK SMILES IDX 54 55 73 56 55 57 58 58 72 59 91 60 56 61 57 62 71 64 92 65
REMARK SMILES IDX 59 66 43 67 44 68 52 69 45 70 51 71 53 72 50 73 46 74 47 75
REMARK SMILES IDX 48 76 49 77 75 78 76 79 84 80 77 81 83 82 85 83 82 84 78 85
REMARK SMILES IDX 79 86 80 87 81 88 60 89 61 90 69 91 62 92 68 93 70 94 67 95
REMARK SMILES IDX 63 96 64 97 65 98 66 99
REMARK H PARENT 90 52 58 63
REMARK Flexibility Score: inf
ROOT
ATOM      1  C   UNL A   1      32.495  36.173  31.078  1.00  0.00     0.188 C 
ENDROOT
BRANCH   1   2
ATOM      2  O   UNL A   1      32.643  35.430  29.883  1.00  0.00    -0.377 OA
BRANCH   2   3
ATOM      3  C   UNL A   1      33.772  35.622  29.066  1.00  0.00     0.188 C 
BRANCH   3   4
ATOM      4  C   UNL A   1      34.435  34.433  28.361  1.00  0.00     0.188 C 
BRANCH   4   5
ATOM      5  O   UNL A   1      33.624  33.435  27.778  1.00  0.00    -0.376 OA
BRANCH   5   6
ATOM      6  C   UNL A   1      34.070  32.088  27.728  1.00  0.00     0.202 C 
BRANCH   6   7
ATOM      7  C   UNL A   1      33.130  30.907  27.454  1.00  0.00     0.261 C 
BRANCH   7   8
ATOM      8  O   UNL A   1      33.490  30.077  26.336  1.00  0.00    -0.463 OA
BRANCH   8   9
ATOM      9  C   UNL A   1      33.279  28.754  26.476  1.00  0.00     0.312 C 
ATOM     10  O   UNL A   1      33.231  28.203  27.577  1.00  0.00    -0.252 OA
BRANCH   9  11
ATOM     11  C   UNL A   1      33.183  27.938  25.167  1.00  0.00     0.069 C 
ATOM     12  C   UNL A   1      30.739  29.331  22.504  1.00  0.00     0.007 C 
ATOM     13  C   UNL A   1      31.783  28.407  23.125  1.00  0.00    -0.013 C 
ATOM     14  C   UNL A   1      33.183  28.928  22.867  1.00  0.00     0.004 C 
ATOM     15  C   UNL A   1      31.739  28.318  24.653  1.00  0.00     0.022 C 
ATOM     16  C   UNL A   1      34.020  28.177  23.893  1.00  0.00     0.019 C 
BRANCH  11  17
ATOM     17  C   UNL A   1      33.365  26.449  25.616  1.00  0.00     0.027 C 
BRANCH  17  18
ATOM     18  C   UNL A   1      32.193  25.390  25.420  1.00  0.00     0.020 C 
ATOM     19  C   UNL A   1      31.675  24.690  26.693  1.00  0.00     0.009 C 
ATOM     20  C   UNL A   1      32.390  24.405  24.273  1.00  0.00    -0.042 A 
ATOM     21  C   UNL A   1      32.305  23.330  26.973  1.00  0.00     0.005 C 
ATOM     22  C   UNL A   1      32.501  23.014  24.483  1.00  0.00    -0.045 A 
ATOM     23  C   UNL A   1      32.537  24.900  22.965  1.00  0.00     0.004 A 
ATOM     24  C   UNL A   1      32.197  22.368  25.808  1.00  0.00     0.036 C 
ATOM     25  C   UNL A   1      32.856  22.173  23.415  1.00  0.00     0.004 A 
ATOM     26  C   UNL A   1      32.871  24.050  21.910  1.00  0.00     0.000 A 
ATOM     27  C   UNL A   1      33.058  22.691  22.139  1.00  0.00     0.000 A 
ENDBRANCH  17  18
ENDBRANCH  11  17
ENDBRANCH   9  11
ENDBRANCH   8   9
ENDBRANCH   7   8
ENDBRANCH   6   7
ENDBRANCH   5   6
ENDBRANCH   4   5
ENDBRANCH   3   4
ENDBRANCH   2   3
ENDBRANCH   1   2
BRANCH   1  28
ATOM     28  C   UNL A   1      33.707  36.513  31.964  1.00  0.00     0.188 C 
BRANCH  28  29
ATOM     29  O   UNL A   1      33.952  35.620  33.038  1.00  0.00    -0.376 OA
BRANCH  29  30
ATOM     30  C   UNL A   1      33.951  34.227  32.758  1.00  0.00     0.202 C 
BRANCH  30  31
ATOM     31  C   UNL A   1      35.157  33.649  31.999  1.00  0.00     0.261 C 
BRANCH  31  32
ATOM     32  O   UNL A   1      35.609  32.357  32.420  1.00  0.00    -0.460 OA
BRANCH  32  33
ATOM     33  C   UNL A   1      36.490  32.329  33.447  1.00  0.00     0.338 C 
ATOM     34  O   UNL A   1      36.317  32.753  34.569  1.00  0.00    -0.246 OA
BRANCH  33  35
ATOM     35  C   UNL A   1      37.659  31.541  33.011  1.00  0.00     0.060 A 
ATOM     36  C   UNL A   1      37.744  30.192  33.379  1.00  0.00     0.016 A 
ATOM     37  C   UNL A   1      38.669  32.142  32.259  1.00  0.00     0.016 A 
ATOM     38  C   UNL A   1      38.864  29.444  33.021  1.00  0.00     0.010 A 
ATOM     39  C   UNL A   1      39.802  31.398  31.924  1.00  0.00     0.010 A 
ATOM     40  C   UNL A   1      39.920  30.057  32.335  1.00  0.00    -0.014 A 
BRANCH  40  41
ATOM     41  C   UNL A   1      41.232  29.372  32.248  1.00  0.00     0.031 A 
ATOM     42  C   UNL A   1      42.259  29.679  33.301  1.00  0.00     0.074 A 
ATOM     43  C   UNL A   1      41.504  28.497  31.266  1.00  0.00     0.049 A 
ATOM     44  N   UNL A   1      43.501  29.280  33.398  1.00  0.00    -0.248 NA
ATOM     45  C   UNL A   1      41.823  30.571  34.385  1.00  0.00     0.031 C 
ATOM     46  C   UNL A   1      40.573  28.088  30.218  1.00  0.00     0.029 A 
ATOM     47  N   UNL A   1      42.659  27.810  30.983  1.00  0.00    -0.354 N 
ATOM     48  C   UNL A   1      44.001  29.885  34.546  1.00  0.00     0.074 A 
ATOM     49  C   UNL A   1      42.938  30.707  35.084  1.00  0.00     0.031 C 
ATOM     50  C   UNL A   1      41.203  27.240  29.387  1.00  0.00     0.029 A 
ATOM     51  C   UNL A   1      42.592  27.083  29.819  1.00  0.00     0.049 A 
ATOM     52  H   UNL A   1      43.458  27.837  31.558  1.00  0.00     0.167 HD
ATOM     53  C   UNL A   1      45.232  29.762  35.100  1.00  0.00     0.034 A 
ATOM     54  C   UNL A   1      43.552  26.406  29.156  1.00  0.00     0.034 A 
ATOM     55  C   UNL A   1      46.283  28.954  34.531  1.00  0.00     0.049 A 
ATOM     56  C   UNL A   1      44.946  26.352  29.734  1.00  0.00     0.074 A 
ATOM     57  C   UNL A   1      47.558  28.731  35.017  1.00  0.00     0.029 A 
ATOM     58  N   UNL A   1      46.192  28.258  33.330  1.00  0.00    -0.354 N 
ATOM     59  N   UNL A   1      45.409  26.907  30.831  1.00  0.00    -0.248 NA
ATOM     60  C   UNL A   1      45.945  25.574  28.988  1.00  0.00     0.031 C 
ATOM     61  C   UNL A   1      48.266  27.985  34.068  1.00  0.00     0.029 A 
ATOM     62  C   UNL A   1      47.403  27.648  33.037  1.00  0.00     0.049 A 
ATOM     63  H   UNL A   1      45.384  28.205  32.770  1.00  0.00     0.167 HD
ATOM     64  C   UNL A   1      46.746  26.523  30.921  1.00  0.00     0.074 A 
ATOM     65  C   UNL A   1      47.010  25.683  29.770  1.00  0.00     0.031 C 
ATOM     66  C   UNL A   1      47.665  26.826  31.875  1.00  0.00     0.034 A 
BRANCH  53  67
ATOM     67  C   UNL A   1      45.518  30.587  36.334  1.00  0.00     0.023 A 
ATOM     68  C   UNL A   1      45.516  30.022  37.624  1.00  0.00     0.031 A 
ATOM     69  C   UNL A   1      45.717  31.975  36.228  1.00  0.00     0.131 A 
ATOM     70  C   UNL A   1      45.602  30.853  38.752  1.00  0.00     0.055 A 
ATOM     71  C   UNL A   1      45.905  32.782  37.352  1.00  0.00     0.041 A 
ATOM     72  F   UNL A   1      45.704  32.579  35.030  1.00  0.00    -0.206 F 
ATOM     73  C   UNL A   1      45.824  32.225  38.624  1.00  0.00     0.022 A 
BRANCH  70  74
ATOM     74  S   UNL A   1      45.210  30.144  40.376  1.00  0.00     0.124 S 
ATOM     75  O   UNL A   1      44.879  28.765  40.024  1.00  0.00    -0.237 OA
ATOM     76  O   UNL A   1      46.454  30.335  41.111  1.00  0.00    -0.237 OA
ATOM     77  O   UNL A   1      44.080  30.949  40.837  1.00  0.00    -0.744 OA
ENDBRANCH  70  74
ENDBRANCH  53  67
BRANCH  54  78
ATOM     78  C   UNL A   1      43.239  25.783  27.838  1.00  0.00     0.023 A 
ATOM     79  C   UNL A   1      42.874  24.434  27.727  1.00  0.00     0.031 A 
ATOM     80  C   UNL A   1      43.310  26.547  26.657  1.00  0.00     0.131 A 
ATOM     81  C   UNL A   1      42.612  23.882  26.462  1.00  0.00     0.055 A 
ATOM     82  C   UNL A   1      43.001  26.008  25.408  1.00  0.00     0.041 A 
ATOM     83  F   UNL A   1      43.660  27.843  26.707  1.00  0.00    -0.206 F 
ATOM     84  C   UNL A   1      42.656  24.665  25.305  1.00  0.00     0.022 A 
BRANCH  81  85
ATOM     85  S   UNL A   1      42.263  22.106  26.338  1.00  0.00     0.124 S 
ATOM     86  O   UNL A   1      42.471  21.666  27.712  1.00  0.00    -0.237 OA
ATOM     87  O   UNL A   1      40.883  22.101  25.863  1.00  0.00    -0.237 OA
ATOM     88  O   UNL A   1      43.252  21.632  25.373  1.00  0.00    -0.744 OA
ENDBRANCH  81  85
ENDBRANCH  54  78
BRANCH  66  89
ATOM     89  C   UNL A   1      49.039  26.207  31.743  1.00  0.00     0.023 A 
ATOM     90  C   UNL A   1      49.372  24.987  32.360  1.00  0.00     0.031 A 
ATOM     91  C   UNL A   1      50.026  26.844  30.971  1.00  0.00     0.131 A 
ATOM     92  C   UNL A   1      50.672  24.471  32.231  1.00  0.00     0.055 A 
ATOM     93  C   UNL A   1      51.296  26.292  30.791  1.00  0.00     0.041 A 
ATOM     94  F   UNL A   1      49.769  28.015  30.364  1.00  0.00    -0.206 F 
ATOM     95  C   UNL A   1      51.628  25.104  31.434  1.00  0.00     0.022 A 
BRANCH  92  96
ATOM     96  S   UNL A   1      51.132  23.007  33.199  1.00  0.00     0.124 S 
ATOM     97  O   UNL A   1      49.850  22.327  33.347  1.00  0.00    -0.237 OA
ATOM     98  O   UNL A   1      52.106  22.352  32.332  1.00  0.00    -0.237 OA
ATOM     99  O   UNL A   1      51.680  23.568  34.433  1.00  0.00    -0.744 OA
ENDBRANCH  92  96
ENDBRANCH  66  89
ENDBRANCH  40  41
ENDBRANCH  33  35
ENDBRANCH  32  33
ENDBRANCH  31  32
ENDBRANCH  30  31
ENDBRANCH  29  30
ENDBRANCH  28  29
ENDBRANCH   1  28
TORSDOF 25
ENDMDL
MODEL 2
REMARK VINA RESULT:      -9.2      4.337      5.617
REMARK SMILES C[C@H]1CC[C@@](C[C@@H]2CCCc3ccccc32)(C(=O)OCCOCCOCCOCCOC(=O)c2ccc(-c3c4nc(c(-c5cc(S(=O)(=O)[O-])ccc5F)c5ccc([nH]5)c(-c5cc(S(=O)(=O)[O-])ccc5F)c5nc(c(-c6cc(S(=O)(=O)[O-])ccc6F)c6ccc3[nH]6)C=C5)C=C4)cc2)C1
REMARK SMILES IDX 26 1 25 2 24 3 23 4 22 5 21 6 20 7 19 8 17 9 18 10 5 11 1 12
REMARK SMILES IDX 2 13 3 14 97 15 4 16 6 17 7 18 8 19 16 20 9 21 11 22 15 23
REMARK SMILES IDX 10 24 12 25 14 26 13 27 27 28 28 29 29 30 30 31 31 32 32 33
REMARK SMILES IDX 33 34 34 35 35 36 96 37 36 38 95 39 37 40 38 41 39 42 89 43
REMARK SMILES IDX 40 44 94 45 88 46 90 47 41 48 93 49 87 50 86 51 42 53 74 54
REMARK SMILES IDX 54 55 73 56 55 57 58 58 72 59 91 60 56 61 57 62 71 64 92 65
REMARK SMILES IDX 59 66 43 67 44 68 52 69 45 70 51 71 53 72 50 73 46 74 47 75
REMARK SMILES IDX 48 76 49 77 75 78 76 79 84 80 77 81 83 82 85 83 82 84 78 85
REMARK SMILES IDX 79 86 80 87 81 88 60 89 61 90 69 91 62 92 68 93 70 94 67 95
REMARK SMILES IDX 63 96 64 97 65 98 66 99
REMARK H PARENT 90 52 58 63
REMARK Flexibility Score: inf
ROOT
ATOM      1  C   UNL A   1      32.699  35.824  31.948  1.00  0.00     0.188 C 
ENDROOT
BRANCH   1   2
ATOM      2  O   UNL A   1      32.585  35.317  30.632  1.00  0.00    -0.377 OA
BRANCH   2   3
ATOM      3  C   UNL A   1      33.676  35.397  29.746  1.00  0.00     0.188 C 
BRANCH   3   4
ATOM      4  C   UNL A   1      34.320  34.124  29.186  1.00  0.00     0.188 C 
BRANCH   4   5
ATOM      5  O   UNL A   1      33.622  33.361  28.226  1.00  0.00    -0.376 OA
BRANCH   5   6
ATOM      6  C   UNL A   1      33.931  31.988  28.038  1.00  0.00     0.202 C 
BRANCH   6   7
ATOM      7  C   UNL A   1      33.033  31.030  27.245  1.00  0.00     0.261 C 
BRANCH   7   8
ATOM      8  O   UNL A   1      33.506  29.676  27.150  1.00  0.00    -0.463 OA
BRANCH   8   9
ATOM      9  C   UNL A   1      32.576  28.728  26.926  1.00  0.00     0.312 C 
ATOM     10  O   UNL A   1      31.677  28.477  27.729  1.00  0.00    -0.252 OA
BRANCH   9  11
ATOM     11  C   UNL A   1      32.744  27.902  25.630  1.00  0.00     0.069 C 
ATOM     12  C   UNL A   1      30.801  29.216  22.547  1.00  0.00     0.007 C 
ATOM     13  C   UNL A   1      31.735  28.323  23.360  1.00  0.00    -0.013 C 
ATOM     14  C   UNL A   1      33.145  28.880  23.359  1.00  0.00     0.004 C 
ATOM     15  C   UNL A   1      31.410  28.241  24.854  1.00  0.00     0.022 C 
ATOM     16  C   UNL A   1      33.796  28.157  24.530  1.00  0.00     0.019 C 
BRANCH  11  17
ATOM     17  C   UNL A   1      32.876  26.421  26.120  1.00  0.00     0.027 C 
BRANCH  17  18
ATOM     18  C   UNL A   1      32.228  25.228  25.291  1.00  0.00     0.020 C 
ATOM     19  C   UNL A   1      30.943  24.603  25.870  1.00  0.00     0.009 C 
ATOM     20  C   UNL A   1      33.208  24.162  24.808  1.00  0.00    -0.042 A 
ATOM     21  C   UNL A   1      31.167  23.353  26.714  1.00  0.00     0.005 C 
ATOM     22  C   UNL A   1      33.131  22.818  25.233  1.00  0.00    -0.045 A 
ATOM     23  C   UNL A   1      34.268  24.541  23.965  1.00  0.00     0.004 A 
ATOM     24  C   UNL A   1      31.952  22.275  25.995  1.00  0.00     0.036 C 
ATOM     25  C   UNL A   1      34.158  21.922  24.896  1.00  0.00     0.004 A 
ATOM     26  C   UNL A   1      35.271  23.633  23.624  1.00  0.00     0.000 A 
ATOM     27  C   UNL A   1      35.232  22.332  24.112  1.00  0.00     0.000 A 
ENDBRANCH  17  18
ENDBRANCH  11  17
ENDBRANCH   9  11
ENDBRANCH   8   9
ENDBRANCH   7   8
ENDBRANCH   6   7
ENDBRANCH   5   6
ENDBRANCH   4   5
ENDBRANCH   3   4
ENDBRANCH   2   3
ENDBRANCH   1   2
BRANCH   1  28
ATOM     28  C   UNL A   1      33.925  36.645  32.386  1.00  0.00     0.188 C 
BRANCH  28  29
ATOM     29  O   UNL A   1      34.978  35.904  32.980  1.00  0.00    -0.376 OA
BRANCH  29  30
ATOM     30  C   UNL A   1      34.681  34.609  33.483  1.00  0.00     0.202 C 
BRANCH  30  31
ATOM     31  C   UNL A   1      35.254  33.400  32.726  1.00  0.00     0.261 C 
BRANCH  31  32
ATOM     32  O   UNL A   1      35.731  32.317  33.534  1.00  0.00    -0.460 OA
BRANCH  32  33
ATOM     33  C   UNL A   1      36.740  32.600  34.390  1.00  0.00     0.338 C 
ATOM     34  O   UNL A   1      36.665  33.223  35.427  1.00  0.00    -0.246 OA
BRANCH  33  35
ATOM     35  C   UNL A   1      37.937  31.875  33.923  1.00  0.00     0.060 A 
ATOM     36  C   UNL A   1      39.144  32.039  34.616  1.00  0.00     0.016 A 
ATOM     37  C   UNL A   1      37.865  31.054  32.797  1.00  0.00     0.016 A 
ATOM     38  C   UNL A   1      40.298  31.404  34.160  1.00  0.00     0.010 A 
ATOM     39  C   UNL A   1      39.028  30.440  32.327  1.00  0.00     0.010 A 
ATOM     40  C   UNL A   1      40.255  30.642  32.985  1.00  0.00    -0.014 A 
BRANCH  40  41
ATOM     41  C   UNL A   1      41.521  30.248  32.323  1.00  0.00     0.031 A 
ATOM     42  C   UNL A   1      42.191  28.981  32.777  1.00  0.00     0.074 A 
ATOM     43  C   UNL A   1      42.062  30.989  31.342  1.00  0.00     0.049 A 
ATOM     44  N   UNL A   1      43.340  28.469  32.419  1.00  0.00    -0.248 NA
ATOM     45  C   UNL A   1      41.464  28.194  33.784  1.00  0.00     0.031 C 
ATOM     46  C   UNL A   1      41.481  32.210  30.789  1.00  0.00     0.029 A 
ATOM     47  N   UNL A   1      43.237  30.828  30.650  1.00  0.00    -0.354 N 
ATOM     48  C   UNL A   1      43.482  27.307  33.170  1.00  0.00     0.074 A 
ATOM     49  C   UNL A   1      42.320  27.216  34.027  1.00  0.00     0.031 C 
ATOM     50  C   UNL A   1      42.317  32.705  29.860  1.00  0.00     0.029 A 
ATOM     51  C   UNL A   1      43.510  31.861  29.786  1.00  0.00     0.049 A 
ATOM     52  H   UNL A   1      43.827  30.048  30.763  1.00  0.00     0.167 HD
ATOM     53  C   UNL A   1      44.489  26.399  33.141  1.00  0.00     0.034 A 
ATOM     54  C   UNL A   1      44.614  32.118  29.055  1.00  0.00     0.034 A 
ATOM     55  C   UNL A   1      45.649  26.524  32.292  1.00  0.00     0.049 A 
ATOM     56  C   UNL A   1      45.769  31.147  29.101  1.00  0.00     0.074 A 
ATOM     57  C   UNL A   1      46.716  25.655  32.157  1.00  0.00     0.029 A 
ATOM     58  N   UNL A   1      45.911  27.604  31.454  1.00  0.00    -0.354 N 
ATOM     59  N   UNL A   1      45.891  30.037  29.794  1.00  0.00    -0.248 NA
ATOM     60  C   UNL A   1      46.933  31.459  28.260  1.00  0.00     0.031 C 
ATOM     61  C   UNL A   1      47.663  26.250  31.316  1.00  0.00     0.029 A 
ATOM     62  C   UNL A   1      47.144  27.443  30.839  1.00  0.00     0.049 A 
ATOM     63  H   UNL A   1      45.307  28.369  31.316  1.00  0.00     0.167 HD
ATOM     64  C   UNL A   1      47.133  29.505  29.452  1.00  0.00     0.074 A 
ATOM     65  C   UNL A   1      47.717  30.413  28.485  1.00  0.00     0.031 C 
ATOM     66  C   UNL A   1      47.729  28.365  29.889  1.00  0.00     0.034 A 
BRANCH  53  67
ATOM     67  C   UNL A   1      44.405  25.246  34.115  1.00  0.00     0.023 A 
ATOM     68  C   UNL A   1      44.729  25.395  35.476  1.00  0.00     0.031 A 
ATOM     69  C   UNL A   1      44.071  23.958  33.659  1.00  0.00     0.131 A 
ATOM     70  C   UNL A   1      44.816  24.265  36.303  1.00  0.00     0.055 A 
ATOM     71  C   UNL A   1      44.061  22.853  34.512  1.00  0.00     0.041 A 
ATOM     72  F   UNL A   1      43.778  23.743  32.367  1.00  0.00    -0.206 F 
ATOM     73  C   UNL A   1      44.458  22.998  35.837  1.00  0.00     0.022 A 
BRANCH  70  74
ATOM     74  S   UNL A   1      45.603  24.444  37.929  1.00  0.00     0.124 S 
ATOM     75  O   UNL A   1      46.924  24.951  37.562  1.00  0.00    -0.237 OA
ATOM     76  O   UNL A   1      44.721  25.389  38.603  1.00  0.00    -0.237 OA
ATOM     77  O   UNL A   1      45.594  23.085  38.466  1.00  0.00    -0.744 OA
ENDBRANCH  70  74
ENDBRANCH  53  67
BRANCH  54  78
ATOM     78  C   UNL A   1      44.701  33.383  28.270  1.00  0.00     0.023 A 
ATOM     79  C   UNL A   1      45.148  34.581  28.847  1.00  0.00     0.031 A 
ATOM     80  C   UNL A   1      44.324  33.404  26.914  1.00  0.00     0.131 A 
ATOM     81  C   UNL A   1      45.189  35.754  28.076  1.00  0.00     0.055 A 
ATOM     82  C   UNL A   1      44.413  34.561  26.139  1.00  0.00     0.041 A 
ATOM     83  F   UNL A   1      43.883  32.285  26.315  1.00  0.00    -0.206 F 
ATOM     84  C   UNL A   1      44.842  35.747  26.723  1.00  0.00     0.022 A 
BRANCH  81  85
ATOM     85  S   UNL A   1      45.654  37.313  28.881  1.00  0.00     0.124 S 
ATOM     86  O   UNL A   1      45.779  38.211  27.740  1.00  0.00    -0.237 OA
ATOM     87  O   UNL A   1      44.516  37.549  29.764  1.00  0.00    -0.237 OA
ATOM     88  O   UNL A   1      46.906  36.984  29.559  1.00  0.00    -0.744 OA
ENDBRANCH  81  85
ENDBRANCH  54  78
BRANCH  66  89
ATOM     89  C   UNL A   1      49.069  28.002  29.287  1.00  0.00     0.023 A 
ATOM     90  C   UNL A   1      49.181  27.343  28.050  1.00  0.00     0.031 A 
ATOM     91  C   UNL A   1      50.256  28.340  29.961  1.00  0.00     0.131 A 
ATOM     92  C   UNL A   1      50.448  27.002  27.551  1.00  0.00     0.055 A 
ATOM     93  C   UNL A   1      51.515  28.059  29.428  1.00  0.00     0.041 A 
ATOM     94  F   UNL A   1      50.214  28.964  31.150  1.00  0.00    -0.206 F 
ATOM     95  C   UNL A   1      51.616  27.375  28.221  1.00  0.00     0.022 A 
BRANCH  92  96
ATOM     96  S   UNL A   1      50.554  25.976  26.058  1.00  0.00     0.124 S 
ATOM     97  O   UNL A   1      49.155  25.634  25.826  1.00  0.00    -0.237 OA
ATOM     98  O   UNL A   1      51.156  26.890  25.092  1.00  0.00    -0.237 OA
ATOM     99  O   UNL A   1      51.405  24.860  26.467  1.00  0.00    -0.744 OA
ENDBRANCH  92  96
ENDBRANCH  66  89
ENDBRANCH  40  41
ENDBRANCH  33  35
ENDBRANCH  32  33
ENDBRANCH  31  32
ENDBRANCH  30  31
ENDBRANCH  29  30
ENDBRANCH  28  29
ENDBRANCH   1  28
TORSDOF 25
ENDMDL
MODEL 3
REMARK VINA RESULT:      -9.1      2.515      7.795
REMARK SMILES C[C@H]1CC[C@@](C[C@@H]2CCCc3ccccc32)(C(=O)OCCOCCOCCOCCOC(=O)c2ccc(-c3c4nc(c(-c5cc(S(=O)(=O)[O-])ccc5F)c5ccc([nH]5)c(-c5cc(S(=O)(=O)[O-])ccc5F)c5nc(c(-c6cc(S(=O)(=O)[O-])ccc6F)c6ccc3[nH]6)C=C5)C=C4)cc2)C1
REMARK SMILES IDX 26 1 25 2 24 3 23 4 22 5 21 6 20 7 19 8 17 9 18 10 5 11 1 12
REMARK SMILES IDX 2 13 3 14 97 15 4 16 6 17 7 18 8 19 16 20 9 21 11 22 15 23
REMARK SMILES IDX 10 24 12 25 14 26 13 27 27 28 28 29 29 30 30 31 31 32 32 33
REMARK SMILES IDX 33 34 34 35 35 36 96 37 36 38 95 39 37 40 38 41 39 42 89 43
REMARK SMILES IDX 40 44 94 45 88 46 90 47 41 48 93 49 87 50 86 51 42 53 74 54
REMARK SMILES IDX 54 55 73 56 55 57 58 58 72 59 91 60 56 61 57 62 71 64 92 65
REMARK SMILES IDX 59 66 43 67 44 68 52 69 45 70 51 71 53 72 50 73 46 74 47 75
REMARK SMILES IDX 48 76 49 77 75 78 76 79 84 80 77 81 83 82 85 83 82 84 78 85
REMARK SMILES IDX 79 86 80 87 81 88 60 89 61 90 69 91 62 92 68 93 70 94 67 95
REMARK SMILES IDX 63 96 64 97 65 98 66 99
REMARK H PARENT 90 52 58 63
REMARK Flexibility Score: inf
ROOT
ATOM      1  C   UNL A   1      34.891  32.904  28.781  1.00  0.00     0.188 C 
ENDROOT
BRANCH   1   2
ATOM      2  O   UNL A   1      34.344  31.599  28.728  1.00  0.00    -0.377 OA
BRANCH   2   3
ATOM      3  C   UNL A   1      33.726  31.140  27.550  1.00  0.00     0.188 C 
BRANCH   3   4
ATOM      4  C   UNL A   1      34.092  29.772  26.962  1.00  0.00     0.188 C 
BRANCH   4   5
ATOM      5  O   UNL A   1      33.098  28.774  26.863  1.00  0.00    -0.376 OA
BRANCH   5   6
ATOM      6  C   UNL A   1      33.450  27.445  26.512  1.00  0.00     0.202 C 
BRANCH   6   7
ATOM      7  C   UNL A   1      32.441  26.432  25.955  1.00  0.00     0.261 C 
BRANCH   7   8
ATOM      8  O   UNL A   1      32.721  25.053  26.252  1.00  0.00    -0.463 OA
BRANCH   8   9
ATOM      9  C   UNL A   1      32.109  24.135  25.480  1.00  0.00     0.312 C 
ATOM     10  O   UNL A   1      31.119  23.506  25.856  1.00  0.00    -0.252 OA
BRANCH   9  11
ATOM     11  C   UNL A   1      32.769  23.847  24.112  1.00  0.00     0.069 C 
ATOM     12  C   UNL A   1      31.781  26.252  21.240  1.00  0.00     0.007 C 
ATOM     13  C   UNL A   1      32.497  25.102  21.944  1.00  0.00    -0.013 C 
ATOM     14  C   UNL A   1      33.765  25.589  22.615  1.00  0.00     0.004 C 
ATOM     15  C   UNL A   1      31.724  24.477  23.109  1.00  0.00     0.022 C 
ATOM     16  C   UNL A   1      34.083  24.470  23.596  1.00  0.00     0.019 C 
BRANCH  11  17
ATOM     17  C   UNL A   1      32.895  22.287  24.056  1.00  0.00     0.027 C 
BRANCH  17  18
ATOM     18  C   UNL A   1      33.734  21.498  25.153  1.00  0.00     0.020 C 
ATOM     19  C   UNL A   1      35.120  22.073  25.509  1.00  0.00     0.009 C 
ATOM     20  C   UNL A   1      33.779  19.983  24.974  1.00  0.00    -0.042 A 
ATOM     21  C   UNL A   1      36.284  21.441  24.752  1.00  0.00     0.005 C 
ATOM     22  C   UNL A   1      34.983  19.286  24.738  1.00  0.00    -0.045 A 
ATOM     23  C   UNL A   1      32.573  19.260  24.974  1.00  0.00     0.004 A 
ATOM     24  C   UNL A   1      36.335  19.933  24.881  1.00  0.00     0.036 C 
ATOM     25  C   UNL A   1      34.945  17.922  24.407  1.00  0.00     0.004 A 
ATOM     26  C   UNL A   1      32.553  17.900  24.663  1.00  0.00     0.000 A 
ATOM     27  C   UNL A   1      33.735  17.236  24.352  1.00  0.00     0.000 A 
ENDBRANCH  17  18
ENDBRANCH  11  17
ENDBRANCH   9  11
ENDBRANCH   8   9
ENDBRANCH   7   8
ENDBRANCH   6   7
ENDBRANCH   5   6
ENDBRANCH   4   5
ENDBRANCH   3   4
ENDBRANCH   2   3
ENDBRANCH   1   2
BRANCH   1  28
ATOM     28  C   UNL A   1      34.284  33.989  29.689  1.00  0.00     0.188 C 
BRANCH  28  29
ATOM     29  O   UNL A   1      34.968  34.219  30.910  1.00  0.00    -0.376 OA
BRANCH  29  30
ATOM     30  C   UNL A   1      35.918  33.252  31.334  1.00  0.00     0.202 C 
BRANCH  30  31
ATOM     31  C   UNL A   1      35.425  32.115  32.244  1.00  0.00     0.261 C 
BRANCH  31  32
ATOM     32  O   UNL A   1      36.432  31.240  32.765  1.00  0.00    -0.460 OA
BRANCH  32  33
ATOM     33  C   UNL A   1      36.727  30.148  32.022  1.00  0.00     0.338 C 
ATOM     34  O   UNL A   1      36.103  29.717  31.077  1.00  0.00    -0.246 OA
BRANCH  33  35
ATOM     35  C   UNL A   1      38.046  29.652  32.462  1.00  0.00     0.060 A 
ATOM     36  C   UNL A   1      39.022  30.576  32.856  1.00  0.00     0.016 A 
ATOM     37  C   UNL A   1      38.314  28.282  32.465  1.00  0.00     0.016 A 
ATOM     38  C   UNL A   1      40.291  30.130  33.225  1.00  0.00     0.010 A 
ATOM     39  C   UNL A   1      39.593  27.840  32.810  1.00  0.00     0.010 A 
ATOM     40  C   UNL A   1      40.596  28.765  33.156  1.00  0.00    -0.014 A 
BRANCH  40  41
ATOM     41  C   UNL A   1      42.011  28.328  33.222  1.00  0.00     0.031 A 
ATOM     42  C   UNL A   1      42.712  28.012  31.930  1.00  0.00     0.074 A 
ATOM     43  C   UNL A   1      42.660  28.219  34.392  1.00  0.00     0.049 A 
ATOM     44  N   UNL A   1      43.912  27.532  31.727  1.00  0.00    -0.248 NA
ATOM     45  C   UNL A   1      41.944  28.262  30.702  1.00  0.00     0.031 C 
ATOM     46  C   UNL A   1      42.098  28.541  35.702  1.00  0.00     0.029 A 
ATOM     47  N   UNL A   1      43.933  27.785  34.666  1.00  0.00    -0.354 N 
ATOM     48  C   UNL A   1      44.036  27.407  30.347  1.00  0.00     0.074 A 
ATOM     49  C   UNL A   1      42.776  27.824  29.773  1.00  0.00     0.031 C 
ATOM     50  C   UNL A   1      43.015  28.266  36.645  1.00  0.00     0.029 A 
ATOM     51  C   UNL A   1      44.209  27.708  36.010  1.00  0.00     0.049 A 
ATOM     52  H   UNL A   1      44.586  27.551  33.966  1.00  0.00     0.167 HD
ATOM     53  C   UNL A   1      45.106  26.985  29.630  1.00  0.00     0.034 A 
ATOM     54  C   UNL A   1      45.282  27.204  36.653  1.00  0.00     0.034 A 
ATOM     55  C   UNL A   1      46.346  26.552  30.229  1.00  0.00     0.049 A 
ATOM     56  C   UNL A   1      46.432  26.652  35.846  1.00  0.00     0.074 A 
ATOM     57  C   UNL A   1      47.505  26.132  29.602  1.00  0.00     0.029 A 
ATOM     58  N   UNL A   1      46.578  26.453  31.597  1.00  0.00    -0.354 N 
ATOM     59  N   UNL A   1      46.556  26.556  34.541  1.00  0.00    -0.248 NA
ATOM     60  C   UNL A   1      47.589  26.146  36.596  1.00  0.00     0.031 C 
ATOM     61  C   UNL A   1      48.398  25.690  30.584  1.00  0.00     0.029 A 
ATOM     62  C   UNL A   1      47.842  25.932  31.830  1.00  0.00     0.049 A 
ATOM     63  H   UNL A   1      45.938  26.716  32.296  1.00  0.00     0.167 HD
ATOM     64  C   UNL A   1      47.815  26.004  34.314  1.00  0.00     0.074 A 
ATOM     65  C   UNL A   1      48.414  25.797  35.618  1.00  0.00     0.031 C 
ATOM     66  C   UNL A   1      48.425  25.709  33.136  1.00  0.00     0.034 A 
BRANCH  53  67
ATOM     67  C   UNL A   1      44.939  26.901  28.129  1.00  0.00     0.023 A 
ATOM     68  C   UNL A   1      44.695  25.679  27.475  1.00  0.00     0.031 A 
ATOM     69  C   UNL A   1      45.106  28.047  27.333  1.00  0.00     0.131 A 
ATOM     70  C   UNL A   1      44.732  25.616  26.073  1.00  0.00     0.055 A 
ATOM     71  C   UNL A   1      45.039  27.995  25.939  1.00  0.00     0.041 A 
ATOM     72  F   UNL A   1      45.367  29.239  27.894  1.00  0.00    -0.206 F 
ATOM     73  C   UNL A   1      44.874  26.770  25.301  1.00  0.00     0.022 A 
BRANCH  70  74
ATOM     74  S   UNL A   1      44.800  23.982  25.285  1.00  0.00     0.124 S 
ATOM     75  O   UNL A   1      45.960  24.126  24.408  1.00  0.00    -0.237 OA
ATOM     76  O   UNL A   1      44.967  23.089  26.425  1.00  0.00    -0.237 OA
ATOM     77  O   UNL A   1      43.516  23.882  24.593  1.00  0.00    -0.744 OA
ENDBRANCH  70  74
ENDBRANCH  53  67
BRANCH  54  78
ATOM     78  C   UNL A   1      45.287  27.142  38.143  1.00  0.00     0.023 A 
ATOM     79  C   UNL A   1      45.794  28.190  38.925  1.00  0.00     0.031 A 
ATOM     80  C   UNL A   1      44.779  26.009  38.807  1.00  0.00     0.131 A 
ATOM     81  C   UNL A   1      45.801  28.077  40.325  1.00  0.00     0.055 A 
ATOM     82  C   UNL A   1      44.742  25.922  40.199  1.00  0.00     0.041 A 
ATOM     83  F   UNL A   1      44.285  24.975  38.106  1.00  0.00    -0.206 F 
ATOM     84  C   UNL A   1      45.262  26.958  40.966  1.00  0.00     0.022 A 
BRANCH  81  85
ATOM     85  S   UNL A   1      46.575  29.393  41.304  1.00  0.00     0.124 S 
ATOM     86  O   UNL A   1      45.521  30.399  41.337  1.00  0.00    -0.237 OA
ATOM     87  O   UNL A   1      46.852  28.711  42.564  1.00  0.00    -0.237 OA
ATOM     88  O   UNL A   1      47.756  29.750  40.521  1.00  0.00    -0.744 OA
ENDBRANCH  81  85
ENDBRANCH  54  78
BRANCH  66  89
ATOM     89  C   UNL A   1      49.838  25.172  33.196  1.00  0.00     0.023 A 
ATOM     90  C   UNL A   1      50.119  23.795  33.136  1.00  0.00     0.031 A 
ATOM     91  C   UNL A   1      50.924  26.060  33.299  1.00  0.00     0.131 A 
ATOM     92  C   UNL A   1      51.446  23.347  33.227  1.00  0.00     0.055 A 
ATOM     93  C   UNL A   1      52.246  25.613  33.320  1.00  0.00     0.041 A 
ATOM     94  F   UNL A   1      50.718  27.386  33.367  1.00  0.00    -0.206 F 
ATOM     95  C   UNL A   1      52.512  24.248  33.296  1.00  0.00     0.022 A 
BRANCH  92  96
ATOM     96  S   UNL A   1      51.762  21.565  33.350  1.00  0.00     0.124 S 
ATOM     97  O   UNL A   1      52.146  21.230  31.984  1.00  0.00    -0.237 OA
ATOM     98  O   UNL A   1      52.828  21.504  34.346  1.00  0.00    -0.237 OA
ATOM     99  O   UNL A   1      50.478  21.017  33.785  1.00  0.00    -0.744 OA
ENDBRANCH  92  96
ENDBRANCH  66  89
ENDBRANCH  40  41
ENDBRANCH  33  35
ENDBRANCH  32  33
ENDBRANCH  31  32
ENDBRANCH  30  31
ENDBRANCH  29  30
ENDBRANCH  28  29
ENDBRANCH   1  28
TORSDOF 25
ENDMDL
