MODEL 1
REMARK VINA RESULT:      -9.4      0.000      0.000
REMARK SMILES Cc1cc(C[NH+]2C[C@@H](C)[C@H](C)C2)oc1C(=O)OCCOCCOCCOCCOC(=O)c1ccc(-c2c3nc(c(-c4cc(S(=O)(=O)[O-])ccc4F)c4ccc([nH]4)c(-c4cc(S(=O)(=O)[O-])ccc4F)c4nc(c(-c5cc(S(=O)(=O)[O-])ccc5F)c5ccc2[nH]5)C=C4)C=C3)cc1
REMARK SMILES IDX 24 1 23 2 22 3 21 4 20 5 19 6 18 7 17 8 15 9 16 10 14 11
REMARK SMILES IDX 1 12 2 13 3 14 4 15 13 16 5 17 6 18 7 19 12 20 8 22 10 23
REMARK SMILES IDX 9 24 11 25 25 26 26 27 27 28 28 29 29 30 30 31 31 32 32 33
REMARK SMILES IDX 33 34 94 35 34 36 93 37 35 38 36 39 37 40 87 41 38 42 92 43
REMARK SMILES IDX 86 44 88 45 39 46 91 47 85 48 84 49 40 51 72 52 52 53 71 54
REMARK SMILES IDX 53 55 56 56 70 57 89 58 54 59 55 60 69 62 90 63 57 64 41 65
REMARK SMILES IDX 42 66 50 67 43 68 49 69 51 70 48 71 44 72 45 73 46 74 47 75
REMARK SMILES IDX 73 76 74 77 82 78 75 79 81 80 83 81 80 82 76 83 77 84 78 85
REMARK SMILES IDX 79 86 58 87 59 88 67 89 60 90 66 91 68 92 65 93 61 94 62 95
REMARK SMILES IDX 63 96 64 97
REMARK H PARENT 6 21 88 50 56 61
REMARK Flexibility Score: inf
ROOT
ATOM      1  C   UNL A   1      35.280  21.175  25.365  1.00  0.00     0.188 C 
ENDROOT
BRANCH   1   2
ATOM      2  O   UNL A   1      35.013  21.694  26.665  1.00  0.00    -0.377 OA
BRANCH   2   3
ATOM      3  C   UNL A   1      33.674  22.097  26.885  1.00  0.00     0.188 C 
BRANCH   3   4
ATOM      4  C   UNL A   1      32.871  22.397  25.603  1.00  0.00     0.188 C 
BRANCH   4   5
ATOM      5  O   UNL A   1      31.655  23.138  25.618  1.00  0.00    -0.376 OA
BRANCH   5   6
ATOM      6  C   UNL A   1      31.504  24.300  26.420  1.00  0.00     0.202 C 
BRANCH   6   7
ATOM      7  C   UNL A   1      30.585  25.445  25.966  1.00  0.00     0.261 C 
BRANCH   7   8
ATOM      8  O   UNL A   1      30.894  26.726  26.525  1.00  0.00    -0.457 OA
BRANCH   8   9
ATOM      9  C   UNL A   1      31.246  27.704  25.643  1.00  0.00     0.374 C 
ATOM     10  O   UNL A   1      30.553  28.088  24.712  1.00  0.00    -0.242 OA
BRANCH   9  11
ATOM     11  C   UNL A   1      32.489  28.315  26.075  1.00  0.00     0.215 A 
ATOM     12  C   UNL A   1      34.357  26.527  25.866  1.00  0.00     0.049 C 
ATOM     13  C   UNL A   1      33.793  27.856  26.221  1.00  0.00     0.003 A 
ATOM     14  C   UNL A   1      34.518  28.927  26.817  1.00  0.00     0.056 A 
ATOM     15  C   UNL A   1      33.625  29.951  27.048  1.00  0.00     0.159 A 
ATOM     16  O   UNL A   1      32.405  29.597  26.553  1.00  0.00    -0.448 OA
BRANCH  15  17
ATOM     17  C   UNL A   1      33.691  31.301  27.689  1.00  0.00     0.338 C 
BRANCH  17  18
ATOM     18  N   UNL A   1      34.807  31.545  28.603  1.00  0.00    -0.328 N 
ATOM     19  C   UNL A   1      36.002  32.143  28.009  1.00  0.00     0.266 C 
ATOM     20  C   UNL A   1      34.481  32.224  29.856  1.00  0.00     0.266 C 
ATOM     21  H   UNL A   1      35.038  30.581  28.840  1.00  0.00     0.348 HD
ATOM     22  C   UNL A   1      36.734  32.723  29.220  1.00  0.00     0.049 C 
ATOM     23  C   UNL A   1      35.570  33.286  30.037  1.00  0.00     0.049 C 
ATOM     24  C   UNL A   1      37.782  33.756  28.838  1.00  0.00     0.014 C 
ATOM     25  C   UNL A   1      35.892  33.557  31.497  1.00  0.00     0.014 C 
ENDBRANCH  17  18
ENDBRANCH  15  17
ENDBRANCH   9  11
ENDBRANCH   8   9
ENDBRANCH   7   8
ENDBRANCH   6   7
ENDBRANCH   5   6
ENDBRANCH   4   5
ENDBRANCH   3   4
ENDBRANCH   2   3
ENDBRANCH   1   2
BRANCH   1  26
ATOM     26  C   UNL A   1      36.446  21.838  24.615  1.00  0.00     0.188 C 
BRANCH  26  27
ATOM     27  O   UNL A   1      37.712  21.256  24.947  1.00  0.00    -0.376 OA
BRANCH  27  28
ATOM     28  C   UNL A   1      37.736  19.830  25.009  1.00  0.00     0.202 C 
BRANCH  28  29
ATOM     29  C   UNL A   1      39.069  19.258  25.514  1.00  0.00     0.261 C 
BRANCH  29  30
ATOM     30  O   UNL A   1      39.998  20.238  26.005  1.00  0.00    -0.460 OA
BRANCH  30  31
ATOM     31  C   UNL A   1      41.279  19.835  26.160  1.00  0.00     0.338 C 
ATOM     32  O   UNL A   1      41.716  18.712  25.996  1.00  0.00    -0.246 OA
BRANCH  31  33
ATOM     33  C   UNL A   1      42.111  21.034  26.389  1.00  0.00     0.060 A 
ATOM     34  C   UNL A   1      42.535  21.315  27.692  1.00  0.00     0.016 A 
ATOM     35  C   UNL A   1      42.447  21.883  25.330  1.00  0.00     0.016 A 
ATOM     36  C   UNL A   1      43.265  22.475  27.948  1.00  0.00     0.010 A 
ATOM     37  C   UNL A   1      43.165  23.051  25.592  1.00  0.00     0.010 A 
ATOM     38  C   UNL A   1      43.546  23.369  26.906  1.00  0.00    -0.014 A 
BRANCH  38  39
ATOM     39  C   UNL A   1      44.059  24.727  27.213  1.00  0.00     0.031 A 
ATOM     40  C   UNL A   1      43.088  25.751  27.734  1.00  0.00     0.074 A 
ATOM     41  C   UNL A   1      45.352  25.042  27.029  1.00  0.00     0.049 A 
ATOM     42  N   UNL A   1      43.284  27.011  28.025  1.00  0.00    -0.248 NA
ATOM     43  C   UNL A   1      41.708  25.288  27.948  1.00  0.00     0.031 C 
ATOM     44  C   UNL A   1      46.388  24.125  26.557  1.00  0.00     0.029 A 
ATOM     45  N   UNL A   1      46.011  26.232  27.207  1.00  0.00    -0.354 N 
ATOM     46  C   UNL A   1      42.055  27.490  28.463  1.00  0.00     0.074 A 
ATOM     47  C   UNL A   1      41.113  26.396  28.358  1.00  0.00     0.031 C 
ATOM     48  C   UNL A   1      47.552  24.794  26.465  1.00  0.00     0.029 A 
ATOM     49  C   UNL A   1      47.336  26.190  26.843  1.00  0.00     0.049 A 
ATOM     50  H   UNL A   1      45.576  27.041  27.561  1.00  0.00     0.167 HD
ATOM     51  C   UNL A   1      41.741  28.728  28.919  1.00  0.00     0.034 A 
ATOM     52  C   UNL A   1      48.259  27.172  26.800  1.00  0.00     0.034 A 
ATOM     53  C   UNL A   1      42.681  29.819  28.988  1.00  0.00     0.049 A 
ATOM     54  C   UNL A   1      47.866  28.567  27.227  1.00  0.00     0.074 A 
ATOM     55  C   UNL A   1      42.474  31.112  29.433  1.00  0.00     0.029 A 
ATOM     56  N   UNL A   1      44.008  29.747  28.581  1.00  0.00    -0.354 N 
ATOM     57  N   UNL A   1      46.705  29.005  27.658  1.00  0.00    -0.248 NA
ATOM     58  C   UNL A   1      48.913  29.597  27.171  1.00  0.00     0.031 C 
ATOM     59  C   UNL A   1      43.655  31.838  29.238  1.00  0.00     0.029 A 
ATOM     60  C   UNL A   1      44.621  30.980  28.736  1.00  0.00     0.049 A 
ATOM     61  H   UNL A   1      44.448  28.938  28.233  1.00  0.00     0.167 HD
ATOM     62  C   UNL A   1      46.892  30.354  27.950  1.00  0.00     0.074 A 
ATOM     63  C   UNL A   1      48.279  30.654  27.657  1.00  0.00     0.031 C 
ATOM     64  C   UNL A   1      46.003  31.263  28.426  1.00  0.00     0.034 A 
BRANCH  51  65
ATOM     65  C   UNL A   1      40.308  28.964  29.325  1.00  0.00     0.023 A 
ATOM     66  C   UNL A   1      39.912  28.935  30.673  1.00  0.00     0.031 A 
ATOM     67  C   UNL A   1      39.318  29.170  28.350  1.00  0.00     0.131 A 
ATOM     68  C   UNL A   1      38.552  29.034  31.004  1.00  0.00     0.055 A 
ATOM     69  C   UNL A   1      37.975  29.344  28.691  1.00  0.00     0.041 A 
ATOM     70  F   UNL A   1      39.635  29.183  27.045  1.00  0.00    -0.206 F 
ATOM     71  C   UNL A   1      37.583  29.261  30.025  1.00  0.00     0.022 A 
BRANCH  68  72
ATOM     72  S   UNL A   1      38.051  28.716  32.720  1.00  0.00     0.124 S 
ATOM     73  O   UNL A   1      38.038  27.255  32.757  1.00  0.00    -0.237 OA
ATOM     74  O   UNL A   1      39.112  29.366  33.483  1.00  0.00    -0.237 OA
ATOM     75  O   UNL A   1      36.738  29.347  32.815  1.00  0.00    -0.744 OA
ENDBRANCH  68  72
ENDBRANCH  51  65
BRANCH  52  76
ATOM     76  C   UNL A   1      49.633  26.897  26.293  1.00  0.00     0.023 A 
ATOM     77  C   UNL A   1      50.015  27.261  24.992  1.00  0.00     0.031 A 
ATOM     78  C   UNL A   1      50.567  26.207  27.086  1.00  0.00     0.131 A 
ATOM     79  C   UNL A   1      51.280  26.894  24.507  1.00  0.00     0.055 A 
ATOM     80  C   UNL A   1      51.841  25.886  26.616  1.00  0.00     0.041 A 
ATOM     81  F   UNL A   1      50.251  25.836  28.338  1.00  0.00    -0.206 F 
ATOM     82  C   UNL A   1      52.200  26.219  25.314  1.00  0.00     0.022 A 
BRANCH  79  83
ATOM     83  S   UNL A   1      51.682  27.246  22.773  1.00  0.00     0.124 S 
ATOM     84  O   UNL A   1      52.012  28.666  22.827  1.00  0.00    -0.237 OA
ATOM     85  O   UNL A   1      52.796  26.336  22.530  1.00  0.00    -0.237 OA
ATOM     86  O   UNL A   1      50.447  26.918  22.065  1.00  0.00    -0.744 OA
ENDBRANCH  79  83
ENDBRANCH  52  76
BRANCH  64  87
ATOM     87  C   UNL A   1      46.521  32.653  28.700  1.00  0.00     0.023 A 
ATOM     88  C   UNL A   1      46.565  33.639  27.698  1.00  0.00     0.031 A 
ATOM     89  C   UNL A   1      46.980  32.993  29.985  1.00  0.00     0.131 A 
ATOM     90  C   UNL A   1      47.103  34.903  27.985  1.00  0.00     0.055 A 
ATOM     91  C   UNL A   1      47.465  34.268  30.278  1.00  0.00     0.041 A 
ATOM     92  F   UNL A   1      46.960  32.090  30.978  1.00  0.00    -0.206 F 
ATOM     93  C   UNL A   1      47.540  35.228  29.273  1.00  0.00     0.022 A 
BRANCH  90  94
ATOM     94  S   UNL A   1      47.298  36.095  26.634  1.00  0.00     0.124 S 
ATOM     95  O   UNL A   1      46.187  37.012  26.874  1.00  0.00    -0.237 OA
ATOM     96  O   UNL A   1      48.632  36.633  26.880  1.00  0.00    -0.237 OA
ATOM     97  O   UNL A   1      47.174  35.274  25.431  1.00  0.00    -0.744 OA
ENDBRANCH  90  94
ENDBRANCH  64  87
ENDBRANCH  38  39
ENDBRANCH  31  33
ENDBRANCH  30  31
ENDBRANCH  29  30
ENDBRANCH  28  29
ENDBRANCH  27  28
ENDBRANCH  26  27
ENDBRANCH   1  26
TORSDOF 25
ENDMDL
MODEL 2
REMARK VINA RESULT:      -9.2      2.936      8.431
REMARK SMILES Cc1cc(C[NH+]2C[C@@H](C)[C@H](C)C2)oc1C(=O)OCCOCCOCCOCCOC(=O)c1ccc(-c2c3nc(c(-c4cc(S(=O)(=O)[O-])ccc4F)c4ccc([nH]4)c(-c4cc(S(=O)(=O)[O-])ccc4F)c4nc(c(-c5cc(S(=O)(=O)[O-])ccc5F)c5ccc2[nH]5)C=C4)C=C3)cc1
REMARK SMILES IDX 24 1 23 2 22 3 21 4 20 5 19 6 18 7 17 8 15 9 16 10 14 11
REMARK SMILES IDX 1 12 2 13 3 14 4 15 13 16 5 17 6 18 7 19 12 20 8 22 10 23
REMARK SMILES IDX 9 24 11 25 25 26 26 27 27 28 28 29 29 30 30 31 31 32 32 33
REMARK SMILES IDX 33 34 94 35 34 36 93 37 35 38 36 39 37 40 87 41 38 42 92 43
REMARK SMILES IDX 86 44 88 45 39 46 91 47 85 48 84 49 40 51 72 52 52 53 71 54
REMARK SMILES IDX 53 55 56 56 70 57 89 58 54 59 55 60 69 62 90 63 57 64 41 65
REMARK SMILES IDX 42 66 50 67 43 68 49 69 51 70 48 71 44 72 45 73 46 74 47 75
REMARK SMILES IDX 73 76 74 77 82 78 75 79 81 80 83 81 80 82 76 83 77 84 78 85
REMARK SMILES IDX 79 86 58 87 59 88 67 89 60 90 66 91 68 92 65 93 61 94 62 95
REMARK SMILES IDX 63 96 64 97
REMARK H PARENT 6 21 88 50 56 61
REMARK Flexibility Score: inf
ROOT
ATOM      1  C   UNL A   1      34.757  19.932  24.860  1.00  0.00     0.188 C 
ENDROOT
BRANCH   1   2
ATOM      2  O   UNL A   1      33.565  20.070  25.630  1.00  0.00    -0.377 OA
BRANCH   2   3
ATOM      3  C   UNL A   1      32.367  19.773  24.937  1.00  0.00     0.188 C 
BRANCH   3   4
ATOM      4  C   UNL A   1      32.315  20.290  23.485  1.00  0.00     0.188 C 
BRANCH   4   5
ATOM      5  O   UNL A   1      31.972  21.634  23.163  1.00  0.00    -0.376 OA
BRANCH   5   6
ATOM      6  C   UNL A   1      32.956  22.656  23.100  1.00  0.00     0.202 C 
BRANCH   6   7
ATOM      7  C   UNL A   1      33.152  23.468  21.809  1.00  0.00     0.261 C 
BRANCH   7   8
ATOM      8  O   UNL A   1      33.773  24.746  21.987  1.00  0.00    -0.457 OA
BRANCH   8   9
ATOM      9  C   UNL A   1      33.169  25.805  21.377  1.00  0.00     0.374 C 
ATOM     10  O   UNL A   1      33.004  25.915  20.171  1.00  0.00    -0.242 OA
BRANCH   9  11
ATOM     11  C   UNL A   1      32.624  26.692  22.386  1.00  0.00     0.215 A 
ATOM     12  C   UNL A   1      34.225  28.722  22.596  1.00  0.00     0.049 C 
ATOM     13  C   UNL A   1      33.045  27.891  22.950  1.00  0.00     0.003 A 
ATOM     14  C   UNL A   1      32.115  28.180  23.990  1.00  0.00     0.056 A 
ATOM     15  C   UNL A   1      31.216  27.136  24.040  1.00  0.00     0.159 A 
ATOM     16  O   UNL A   1      31.496  26.259  23.035  1.00  0.00    -0.448 OA
BRANCH  15  17
ATOM     17  C   UNL A   1      30.055  26.768  24.909  1.00  0.00     0.338 C 
BRANCH  17  18
ATOM     18  N   UNL A   1      30.324  25.854  26.020  1.00  0.00    -0.328 N 
ATOM     19  C   UNL A   1      29.277  24.877  26.313  1.00  0.00     0.266 C 
ATOM     20  C   UNL A   1      31.630  25.198  26.016  1.00  0.00     0.266 C 
ATOM     21  H   UNL A   1      30.332  26.527  26.786  1.00  0.00     0.348 HD
ATOM     22  C   UNL A   1      30.021  23.806  27.111  1.00  0.00     0.049 C 
ATOM     23  C   UNL A   1      31.348  23.732  26.354  1.00  0.00     0.049 C 
ATOM     24  C   UNL A   1      29.268  22.487  27.174  1.00  0.00     0.014 C 
ATOM     25  C   UNL A   1      32.482  23.076  27.125  1.00  0.00     0.014 C 
ENDBRANCH  17  18
ENDBRANCH  15  17
ENDBRANCH   9  11
ENDBRANCH   8   9
ENDBRANCH   7   8
ENDBRANCH   6   7
ENDBRANCH   5   6
ENDBRANCH   4   5
ENDBRANCH   3   4
ENDBRANCH   2   3
ENDBRANCH   1   2
BRANCH   1  26
ATOM     26  C   UNL A   1      35.743  21.107  24.950  1.00  0.00     0.188 C 
BRANCH  26  27
ATOM     27  O   UNL A   1      36.944  20.761  25.649  1.00  0.00    -0.376 OA
BRANCH  27  28
ATOM     28  C   UNL A   1      38.005  20.258  24.837  1.00  0.00     0.202 C 
BRANCH  28  29
ATOM     29  C   UNL A   1      39.086  19.509  25.631  1.00  0.00     0.261 C 
BRANCH  29  30
ATOM     30  O   UNL A   1      40.345  20.195  25.730  1.00  0.00    -0.460 OA
BRANCH  30  31
ATOM     31  C   UNL A   1      40.917  20.239  26.953  1.00  0.00     0.338 C 
ATOM     32  O   UNL A   1      41.377  19.302  27.578  1.00  0.00    -0.246 OA
BRANCH  31  33
ATOM     33  C   UNL A   1      41.063  21.656  27.340  1.00  0.00     0.060 A 
ATOM     34  C   UNL A   1      40.417  22.629  26.569  1.00  0.00     0.016 A 
ATOM     35  C   UNL A   1      41.849  22.021  28.437  1.00  0.00     0.016 A 
ATOM     36  C   UNL A   1      40.591  23.980  26.870  1.00  0.00     0.010 A 
ATOM     37  C   UNL A   1      42.034  23.374  28.726  1.00  0.00     0.010 A 
ATOM     38  C   UNL A   1      41.434  24.359  27.923  1.00  0.00    -0.014 A 
BRANCH  38  39
ATOM     39  C   UNL A   1      41.851  25.775  28.066  1.00  0.00     0.031 A 
ATOM     40  C   UNL A   1      43.212  26.168  27.560  1.00  0.00     0.074 A 
ATOM     41  C   UNL A   1      41.044  26.687  28.634  1.00  0.00     0.049 A 
ATOM     42  N   UNL A   1      43.818  27.325  27.615  1.00  0.00    -0.248 NA
ATOM     43  C   UNL A   1      43.994  25.106  26.908  1.00  0.00     0.031 C 
ATOM     44  C   UNL A   1      39.695  26.428  29.133  1.00  0.00     0.029 A 
ATOM     45  N   UNL A   1      41.251  28.017  28.897  1.00  0.00    -0.354 N 
ATOM     46  C   UNL A   1      45.050  27.134  27.001  1.00  0.00     0.074 A 
ATOM     47  C   UNL A   1      45.120  25.739  26.620  1.00  0.00     0.031 C 
ATOM     48  C   UNL A   1      39.201  27.562  29.661  1.00  0.00     0.029 A 
ATOM     49  C   UNL A   1      40.209  28.618  29.562  1.00  0.00     0.049 A 
ATOM     50  H   UNL A   1      42.070  28.497  28.634  1.00  0.00     0.167 HD
ATOM     51  C   UNL A   1      46.033  28.039  26.768  1.00  0.00     0.034 A 
ATOM     52  C   UNL A   1      40.095  29.869  30.053  1.00  0.00     0.034 A 
ATOM     53  C   UNL A   1      45.965  29.418  27.182  1.00  0.00     0.049 A 
ATOM     54  C   UNL A   1      41.238  30.838  29.862  1.00  0.00     0.074 A 
ATOM     55  C   UNL A   1      46.899  30.423  26.999  1.00  0.00     0.029 A 
ATOM     56  N   UNL A   1      44.906  29.983  27.882  1.00  0.00    -0.354 N 
ATOM     57  N   UNL A   1      42.391  30.651  29.263  1.00  0.00    -0.248 NA
ATOM     58  C   UNL A   1      41.057  32.191  30.407  1.00  0.00     0.031 C 
ATOM     59  C   UNL A   1      46.433  31.577  27.641  1.00  0.00     0.029 A 
ATOM     60  C   UNL A   1      45.177  31.313  28.165  1.00  0.00     0.049 A 
ATOM     61  H   UNL A   1      44.083  29.508  28.141  1.00  0.00     0.167 HD
ATOM     62  C   UNL A   1      43.060  31.871  29.335  1.00  0.00     0.074 A 
ATOM     63  C   UNL A   1      42.176  32.789  30.027  1.00  0.00     0.031 C 
ATOM     64  C   UNL A   1      44.288  32.209  28.866  1.00  0.00     0.034 A 
BRANCH  51  65
ATOM     65  C   UNL A   1      47.276  27.537  26.079  1.00  0.00     0.023 A 
ATOM     66  C   UNL A   1      48.349  26.990  26.805  1.00  0.00     0.031 A 
ATOM     67  C   UNL A   1      47.414  27.654  24.686  1.00  0.00     0.131 A 
ATOM     68  C   UNL A   1      49.539  26.650  26.144  1.00  0.00     0.055 A 
ATOM     69  C   UNL A   1      48.573  27.242  24.024  1.00  0.00     0.041 A 
ATOM     70  F   UNL A   1      46.431  28.192  23.944  1.00  0.00    -0.206 F 
ATOM     71  C   UNL A   1      49.650  26.750  24.756  1.00  0.00     0.022 A 
BRANCH  68  72
ATOM     72  S   UNL A   1      50.989  26.210  27.142  1.00  0.00     0.124 S 
ATOM     73  O   UNL A   1      50.402  26.080  28.474  1.00  0.00    -0.237 OA
ATOM     74  O   UNL A   1      51.438  24.971  26.518  1.00  0.00    -0.237 OA
ATOM     75  O   UNL A   1      51.882  27.354  26.972  1.00  0.00    -0.744 OA
ENDBRANCH  68  72
ENDBRANCH  51  65
BRANCH  52  76
ATOM     76  C   UNL A   1      38.880  30.274  30.814  1.00  0.00     0.023 A 
ATOM     77  C   UNL A   1      37.861  31.027  30.209  1.00  0.00     0.031 A 
ATOM     78  C   UNL A   1      38.750  29.964  32.179  1.00  0.00     0.131 A 
ATOM     79  C   UNL A   1      36.779  31.484  30.980  1.00  0.00     0.055 A 
ATOM     80  C   UNL A   1      37.649  30.380  32.930  1.00  0.00     0.041 A 
ATOM     81  F   UNL A   1      39.696  29.245  32.805  1.00  0.00    -0.206 F 
ATOM     82  C   UNL A   1      36.661  31.157  32.332  1.00  0.00     0.022 A 
BRANCH  79  83
ATOM     83  S   UNL A   1      35.563  32.583  30.202  1.00  0.00     0.124 S 
ATOM     84  O   UNL A   1      35.459  32.011  28.864  1.00  0.00    -0.237 OA
ATOM     85  O   UNL A   1      34.401  32.408  31.068  1.00  0.00    -0.237 OA
ATOM     86  O   UNL A   1      36.197  33.897  30.273  1.00  0.00    -0.744 OA
ENDBRANCH  79  83
ENDBRANCH  52  76
BRANCH  64  87
ATOM     87  C   UNL A   1      44.723  33.642  29.048  1.00  0.00     0.023 A 
ATOM     88  C   UNL A   1      45.455  34.057  30.175  1.00  0.00     0.031 A 
ATOM     89  C   UNL A   1      44.397  34.605  28.077  1.00  0.00     0.131 A 
ATOM     90  C   UNL A   1      45.793  35.411  30.327  1.00  0.00     0.055 A 
ATOM     91  C   UNL A   1      44.783  35.940  28.208  1.00  0.00     0.041 A 
ATOM     92  F   UNL A   1      43.701  34.262  26.982  1.00  0.00    -0.206 F 
ATOM     93  C   UNL A   1      45.474  36.351  29.343  1.00  0.00     0.022 A 
BRANCH  90  94
ATOM     94  S   UNL A   1      46.590  35.943  31.866  1.00  0.00     0.124 S 
ATOM     95  O   UNL A   1      47.394  37.075  31.417  1.00  0.00    -0.237 OA
ATOM     96  O   UNL A   1      45.448  36.269  32.714  1.00  0.00    -0.237 OA
ATOM     97  O   UNL A   1      47.353  34.767  32.282  1.00  0.00    -0.744 OA
ENDBRANCH  90  94
ENDBRANCH  64  87
ENDBRANCH  38  39
ENDBRANCH  31  33
ENDBRANCH  30  31
ENDBRANCH  29  30
ENDBRANCH  28  29
ENDBRANCH  27  28
ENDBRANCH  26  27
ENDBRANCH   1  26
TORSDOF 25
ENDMDL
MODEL 3
REMARK VINA RESULT:      -8.5      4.141      9.823
REMARK SMILES Cc1cc(C[NH+]2C[C@@H](C)[C@H](C)C2)oc1C(=O)OCCOCCOCCOCCOC(=O)c1ccc(-c2c3nc(c(-c4cc(S(=O)(=O)[O-])ccc4F)c4ccc([nH]4)c(-c4cc(S(=O)(=O)[O-])ccc4F)c4nc(c(-c5cc(S(=O)(=O)[O-])ccc5F)c5ccc2[nH]5)C=C4)C=C3)cc1
REMARK SMILES IDX 24 1 23 2 22 3 21 4 20 5 19 6 18 7 17 8 15 9 16 10 14 11
REMARK SMILES IDX 1 12 2 13 3 14 4 15 13 16 5 17 6 18 7 19 12 20 8 22 10 23
REMARK SMILES IDX 9 24 11 25 25 26 26 27 27 28 28 29 29 30 30 31 31 32 32 33
REMARK SMILES IDX 33 34 94 35 34 36 93 37 35 38 36 39 37 40 87 41 38 42 92 43
REMARK SMILES IDX 86 44 88 45 39 46 91 47 85 48 84 49 40 51 72 52 52 53 71 54
REMARK SMILES IDX 53 55 56 56 70 57 89 58 54 59 55 60 69 62 90 63 57 64 41 65
REMARK SMILES IDX 42 66 50 67 43 68 49 69 51 70 48 71 44 72 45 73 46 74 47 75
REMARK SMILES IDX 73 76 74 77 82 78 75 79 81 80 83 81 80 82 76 83 77 84 78 85
REMARK SMILES IDX 79 86 58 87 59 88 67 89 60 90 66 91 68 92 65 93 61 94 62 95
REMARK SMILES IDX 63 96 64 97
REMARK H PARENT 6 21 88 50 56 61
REMARK Flexibility Score: inf
ROOT
ATOM      1  C   UNL A   1      38.120  23.520  26.117  1.00  0.00     0.188 C 
ENDROOT
BRANCH   1   2
ATOM      2  O   UNL A   1      36.752  23.181  25.906  1.00  0.00    -0.377 OA
BRANCH   2   3
ATOM      3  C   UNL A   1      36.504  21.806  25.681  1.00  0.00     0.188 C 
BRANCH   3   4
ATOM      4  C   UNL A   1      35.127  21.491  25.062  1.00  0.00     0.188 C 
BRANCH   4   5
ATOM      5  O   UNL A   1      33.952  21.336  25.852  1.00  0.00    -0.376 OA
BRANCH   5   6
ATOM      6  C   UNL A   1      32.701  21.011  25.263  1.00  0.00     0.202 C 
BRANCH   6   7
ATOM      7  C   UNL A   1      31.506  21.968  25.400  1.00  0.00     0.261 C 
BRANCH   7   8
ATOM      8  O   UNL A   1      31.825  23.264  25.919  1.00  0.00    -0.457 OA
BRANCH   8   9
ATOM      9  C   UNL A   1      30.791  23.979  26.445  1.00  0.00     0.374 C 
ATOM     10  O   UNL A   1      29.978  23.545  27.249  1.00  0.00    -0.242 OA
BRANCH   9  11
ATOM     11  C   UNL A   1      30.901  25.362  26.022  1.00  0.00     0.215 A 
ATOM     12  C   UNL A   1      30.627  25.420  23.444  1.00  0.00     0.049 C 
ATOM     13  C   UNL A   1      30.878  26.002  24.788  1.00  0.00     0.003 A 
ATOM     14  C   UNL A   1      31.172  27.370  25.054  1.00  0.00     0.056 A 
ATOM     15  C   UNL A   1      31.406  27.486  26.407  1.00  0.00     0.159 A 
ATOM     16  O   UNL A   1      31.192  26.277  27.001  1.00  0.00    -0.448 OA
BRANCH  15  17
ATOM     17  C   UNL A   1      31.819  28.590  27.328  1.00  0.00     0.338 C 
BRANCH  17  18
ATOM     18  N   UNL A   1      33.008  29.356  26.951  1.00  0.00    -0.328 N 
ATOM     19  C   UNL A   1      32.995  30.774  27.304  1.00  0.00     0.266 C 
ATOM     20  C   UNL A   1      34.297  28.765  27.306  1.00  0.00     0.266 C 
ATOM     21  H   UNL A   1      32.925  29.296  25.936  1.00  0.00     0.348 HD
ATOM     22  C   UNL A   1      34.477  31.151  27.262  1.00  0.00     0.049 C 
ATOM     23  C   UNL A   1      35.122  29.916  27.891  1.00  0.00     0.049 C 
ATOM     24  C   UNL A   1      34.776  32.449  27.995  1.00  0.00     0.014 C 
ATOM     25  C   UNL A   1      36.611  29.770  27.621  1.00  0.00     0.014 C 
ENDBRANCH  17  18
ENDBRANCH  15  17
ENDBRANCH   9  11
ENDBRANCH   8   9
ENDBRANCH   7   8
ENDBRANCH   6   7
ENDBRANCH   5   6
ENDBRANCH   4   5
ENDBRANCH   3   4
ENDBRANCH   2   3
ENDBRANCH   1   2
BRANCH   1  26
ATOM     26  C   UNL A   1      39.084  22.331  26.256  1.00  0.00     0.188 C 
BRANCH  26  27
ATOM     27  O   UNL A   1      40.453  22.743  26.344  1.00  0.00    -0.376 OA
BRANCH  27  28
ATOM     28  C   UNL A   1      40.921  23.043  27.658  1.00  0.00     0.202 C 
BRANCH  28  29
ATOM     29  C   UNL A   1      41.008  24.549  27.952  1.00  0.00     0.261 C 
BRANCH  29  30
ATOM     30  O   UNL A   1      42.119  25.220  27.335  1.00  0.00    -0.460 OA
BRANCH  30  31
ATOM     31  C   UNL A   1      41.822  26.217  26.472  1.00  0.00     0.338 C 
ATOM     32  O   UNL A   1      41.197  26.122  25.434  1.00  0.00    -0.246 OA
BRANCH  31  33
ATOM     33  C   UNL A   1      42.228  27.494  27.092  1.00  0.00     0.060 A 
ATOM     34  C   UNL A   1      43.034  27.456  28.236  1.00  0.00     0.016 A 
ATOM     35  C   UNL A   1      41.799  28.715  26.562  1.00  0.00     0.016 A 
ATOM     36  C   UNL A   1      43.377  28.644  28.881  1.00  0.00     0.010 A 
ATOM     37  C   UNL A   1      42.132  29.901  27.219  1.00  0.00     0.010 A 
ATOM     38  C   UNL A   1      42.893  29.867  28.400  1.00  0.00    -0.014 A 
BRANCH  38  39
ATOM     39  C   UNL A   1      43.008  31.089  29.233  1.00  0.00     0.031 A 
ATOM     40  C   UNL A   1      44.262  31.912  29.115  1.00  0.00     0.074 A 
ATOM     41  C   UNL A   1      42.027  31.455  30.074  1.00  0.00     0.049 A 
ATOM     42  N   UNL A   1      44.616  32.986  29.770  1.00  0.00    -0.248 NA
ATOM     43  C   UNL A   1      45.250  31.452  28.127  1.00  0.00     0.031 C 
ATOM     44  C   UNL A   1      40.757  30.753  30.250  1.00  0.00     0.029 A 
ATOM     45  N   UNL A   1      41.954  32.509  30.951  1.00  0.00    -0.354 N 
ATOM     46  C   UNL A   1      45.865  33.336  29.270  1.00  0.00     0.074 A 
ATOM     47  C   UNL A   1      46.223  32.334  28.289  1.00  0.00     0.031 C 
ATOM     48  C   UNL A   1      40.037  31.387  31.194  1.00  0.00     0.029 A 
ATOM     49  C   UNL A   1      40.806  32.519  31.707  1.00  0.00     0.049 A 
ATOM     50  H   UNL A   1      42.658  33.192  31.031  1.00  0.00     0.167 HD
ATOM     51  C   UNL A   1      46.641  34.400  29.593  1.00  0.00     0.034 A 
ATOM     52  C   UNL A   1      40.434  33.337  32.713  1.00  0.00     0.034 A 
ATOM     53  C   UNL A   1      46.288  35.373  30.596  1.00  0.00     0.049 A 
ATOM     54  C   UNL A   1      41.354  34.465  33.119  1.00  0.00     0.074 A 
ATOM     55  C   UNL A   1      46.997  36.490  31.004  1.00  0.00     0.029 A 
ATOM     56  N   UNL A   1      45.132  35.334  31.365  1.00  0.00    -0.354 N 
ATOM     57  N   UNL A   1      42.525  34.797  32.627  1.00  0.00    -0.248 NA
ATOM     58  C   UNL A   1      40.895  35.332  34.213  1.00  0.00     0.031 C 
ATOM     59  C   UNL A   1      46.299  37.090  32.060  1.00  0.00     0.029 A 
ATOM     60  C   UNL A   1      45.122  36.388  32.265  1.00  0.00     0.049 A 
ATOM     61  H   UNL A   1      44.422  34.656  31.283  1.00  0.00     0.167 HD
ATOM     62  C   UNL A   1      42.927  35.929  33.332  1.00  0.00     0.074 A 
ATOM     63  C   UNL A   1      41.869  36.228  34.276  1.00  0.00     0.031 C 
ATOM     64  C   UNL A   1      44.063  36.663  33.207  1.00  0.00     0.034 A 
BRANCH  51  65
ATOM     65  C   UNL A   1      47.966  34.521  28.883  1.00  0.00     0.023 A 
ATOM     66  C   UNL A   1      48.074  35.149  27.630  1.00  0.00     0.031 A 
ATOM     67  C   UNL A   1      49.126  33.958  29.441  1.00  0.00     0.131 A 
ATOM     68  C   UNL A   1      49.297  35.132  26.943  1.00  0.00     0.055 A 
ATOM     69  C   UNL A   1      50.358  34.012  28.786  1.00  0.00     0.041 A 
ATOM     70  F   UNL A   1      49.077  33.324  30.624  1.00  0.00    -0.206 F 
ATOM     71  C   UNL A   1      50.445  34.588  27.521  1.00  0.00     0.022 A 
BRANCH  68  72
ATOM     72  S   UNL A   1      49.332  35.703  25.220  1.00  0.00     0.124 S 
ATOM     73  O   UNL A   1      48.245  34.925  24.630  1.00  0.00    -0.237 OA
ATOM     74  O   UNL A   1      49.092  37.135  25.358  1.00  0.00    -0.237 OA
ATOM     75  O   UNL A   1      50.670  35.336  24.765  1.00  0.00    -0.744 OA
ENDBRANCH  68  72
ENDBRANCH  51  65
BRANCH  52  76
ATOM     76  C   UNL A   1      39.157  33.104  33.443  1.00  0.00     0.023 A 
ATOM     77  C   UNL A   1      37.942  33.623  32.968  1.00  0.00     0.031 A 
ATOM     78  C   UNL A   1      39.144  32.408  34.665  1.00  0.00     0.131 A 
ATOM     79  C   UNL A   1      36.773  33.477  33.733  1.00  0.00     0.055 A 
ATOM     80  C   UNL A   1      37.971  32.223  35.398  1.00  0.00     0.041 A 
ATOM     81  F   UNL A   1      40.279  31.890  35.163  1.00  0.00    -0.206 F 
ATOM     82  C   UNL A   1      36.777  32.772  34.939  1.00  0.00     0.022 A 
BRANCH  79  83
ATOM     83  S   UNL A   1      35.256  34.292  33.164  1.00  0.00     0.124 S 
ATOM     84  O   UNL A   1      35.228  35.486  34.002  1.00  0.00    -0.237 OA
ATOM     85  O   UNL A   1      35.540  34.507  31.749  1.00  0.00    -0.237 OA
ATOM     86  O   UNL A   1      34.215  33.307  33.445  1.00  0.00    -0.744 OA
ENDBRANCH  79  83
ENDBRANCH  52  76
BRANCH  64  87
ATOM     87  C   UNL A   1      44.192  37.883  34.084  1.00  0.00     0.023 A 
ATOM     88  C   UNL A   1      43.595  39.109  33.741  1.00  0.00     0.031 A 
ATOM     89  C   UNL A   1      44.927  37.816  35.281  1.00  0.00     0.131 A 
ATOM     90  C   UNL A   1      43.786  40.232  34.562  1.00  0.00     0.055 A 
ATOM     91  C   UNL A   1      45.068  38.922  36.120  1.00  0.00     0.041 A 
ATOM     92  F   UNL A   1      45.517  36.670  35.656  1.00  0.00    -0.206 F 
ATOM     93  C   UNL A   1      44.506  40.141  35.756  1.00  0.00     0.022 A 
BRANCH  90  94
ATOM     94  S   UNL A   1      43.143  41.835  34.009  1.00  0.00     0.124 S 
ATOM     95  O   UNL A   1      44.194  42.289  33.105  1.00  0.00    -0.237 OA
ATOM     96  O   UNL A   1      41.878  41.466  33.382  1.00  0.00    -0.237 OA
ATOM     97  O   UNL A   1      43.018  42.601  35.248  1.00  0.00    -0.744 OA
ENDBRANCH  90  94
ENDBRANCH  64  87
ENDBRANCH  38  39
ENDBRANCH  31  33
ENDBRANCH  30  31
ENDBRANCH  29  30
ENDBRANCH  28  29
ENDBRANCH  27  28
ENDBRANCH  26  27
ENDBRANCH   1  26
TORSDOF 25
ENDMDL
