MODEL 1
REMARK VINA RESULT:      -7.1      0.000      0.000
REMARK SMILES COc1ccc(OC)c(C[NH2+][C@@H](C(=O)OCCOCCOCCOCCOC(=O)c2ccc(-c3c4nc(c(-c5cc(S(=O)(=O)[O-])ccc5F)c5ccc([nH]5)c(-c5cc(S(=O)(=O)[O-])ccc5F)c5nc(c(-c6cc(S(=O)(=O)[O-])ccc6F)c6ccc3[nH]6)C=C5)C=C4)cc2)C(C)C)c1
REMARK SMILES IDX 20 1 19 2 18 3 17 4 16 5 15 6 13 7 14 8 12 9 11 10 10 13
REMARK SMILES IDX 9 14 3 15 4 16 96 17 5 18 6 19 2 20 1 21 7 22 8 23 93 24
REMARK SMILES IDX 94 25 95 26 21 27 22 28 23 29 24 30 25 31 26 32 27 33 28 34
REMARK SMILES IDX 29 35 30 36 31 37 92 38 32 39 91 40 33 41 34 42 35 43 85 44
REMARK SMILES IDX 36 45 90 46 84 47 86 48 37 49 89 50 83 51 82 52 38 54 70 55
REMARK SMILES IDX 50 56 69 57 51 58 54 59 68 60 87 61 52 62 53 63 67 65 88 66
REMARK SMILES IDX 55 67 39 68 40 69 48 70 41 71 47 72 49 73 46 74 42 75 43 76
REMARK SMILES IDX 44 77 45 78 71 79 72 80 80 81 73 82 79 83 81 84 78 85 74 86
REMARK SMILES IDX 75 87 76 88 77 89 56 90 57 91 65 92 58 93 64 94 66 95 63 96
REMARK SMILES IDX 59 97 60 98 61 99 62 100
REMARK H PARENT 11 11 11 12 86 53 54 64
REMARK Flexibility Score: inf
ROOT
ATOM      1  C   UNL A   1      39.647  23.376  26.379  1.00  0.00     0.188 C 
ENDROOT
BRANCH   1   2
ATOM      2  C   UNL A   1      38.243  23.989  26.500  1.00  0.00     0.188 C 
BRANCH   2   3
ATOM      3  O   UNL A   1      37.328  23.891  25.420  1.00  0.00    -0.376 OA
BRANCH   3   4
ATOM      4  C   UNL A   1      35.930  23.750  25.658  1.00  0.00     0.202 C 
BRANCH   4   5
ATOM      5  C   UNL A   1      35.219  22.396  25.851  1.00  0.00     0.261 C 
BRANCH   5   6
ATOM      6  O   UNL A   1      34.195  22.105  24.898  1.00  0.00    -0.459 OA
BRANCH   6   7
ATOM      7  C   UNL A   1      33.081  21.467  25.325  1.00  0.00     0.365 C 
ATOM      8  O   UNL A   1      33.075  20.325  25.775  1.00  0.00    -0.245 OA
BRANCH   7   9
ATOM      9  C   UNL A   1      31.801  22.343  25.269  1.00  0.00     0.296 C 
BRANCH   9  10
ATOM     10  N   UNL A   1      31.836  23.435  24.272  1.00  0.00    -0.330 N 
ATOM     11  H   UNL A   1      32.107  24.287  24.763  1.00  0.00     0.347 HD
ATOM     12  H   UNL A   1      32.488  23.109  23.559  1.00  0.00     0.347 HD
BRANCH  10  13
ATOM     13  C   UNL A   1      30.615  23.728  23.540  1.00  0.00     0.302 C 
BRANCH  13  14
ATOM     14  C   UNL A   1      30.530  25.216  23.234  1.00  0.00     0.052 A 
ATOM     15  C   UNL A   1      29.151  27.245  23.318  1.00  0.00     0.119 A 
ATOM     16  C   UNL A   1      30.119  27.952  22.623  1.00  0.00     0.050 A 
ATOM     17  C   UNL A   1      29.336  25.887  23.594  1.00  0.00     0.059 A 
ATOM     18  C   UNL A   1      31.297  27.310  22.247  1.00  0.00     0.051 A 
ATOM     19  C   UNL A   1      31.521  25.957  22.558  1.00  0.00     0.127 A 
BRANCH  15  20
ATOM     20  O   UNL A   1      28.023  27.937  23.661  1.00  0.00    -0.497 OA
ATOM     21  C   UNL A   1      27.936  29.195  22.992  1.00  0.00     0.278 C 
ENDBRANCH  15  20
BRANCH  19  22
ATOM     22  O   UNL A   1      32.686  25.483  22.014  1.00  0.00    -0.496 OA
ATOM     23  C   UNL A   1      33.869  25.566  22.795  1.00  0.00     0.278 C 
ENDBRANCH  19  22
ENDBRANCH  13  14
ENDBRANCH  10  13
ENDBRANCH   9  10
BRANCH   9  24
ATOM     24  C   UNL A   1      31.492  23.014  26.653  1.00  0.00     0.053 C 
ATOM     25  C   UNL A   1      32.005  24.463  26.711  1.00  0.00     0.014 C 
ATOM     26  C   UNL A   1      30.013  23.002  27.052  1.00  0.00     0.014 C 
ENDBRANCH   9  24
ENDBRANCH   7   9
ENDBRANCH   6   7
ENDBRANCH   5   6
ENDBRANCH   4   5
ENDBRANCH   3   4
ENDBRANCH   2   3
ENDBRANCH   1   2
BRANCH   1  27
ATOM     27  O   UNL A   1      40.070  22.650  27.513  1.00  0.00    -0.377 OA
BRANCH  27  28
ATOM     28  C   UNL A   1      41.323  21.985  27.447  1.00  0.00     0.188 C 
BRANCH  28  29
ATOM     29  C   UNL A   1      42.606  22.704  27.919  1.00  0.00     0.188 C 
BRANCH  29  30
ATOM     30  O   UNL A   1      43.598  22.917  26.923  1.00  0.00    -0.376 OA
BRANCH  30  31
ATOM     31  C   UNL A   1      44.175  24.210  26.801  1.00  0.00     0.202 C 
BRANCH  31  32
ATOM     32  C   UNL A   1      45.314  24.585  27.765  1.00  0.00     0.261 C 
BRANCH  32  33
ATOM     33  O   UNL A   1      45.122  25.776  28.542  1.00  0.00    -0.460 OA
BRANCH  33  34
ATOM     34  C   UNL A   1      46.124  26.175  29.350  1.00  0.00     0.338 C 
ATOM     35  O   UNL A   1      47.233  25.670  29.454  1.00  0.00    -0.246 OA
BRANCH  34  36
ATOM     36  C   UNL A   1      45.725  27.454  29.962  1.00  0.00     0.060 A 
ATOM     37  C   UNL A   1      44.726  28.228  29.357  1.00  0.00     0.016 A 
ATOM     38  C   UNL A   1      46.351  27.894  31.127  1.00  0.00     0.016 A 
ATOM     39  C   UNL A   1      44.372  29.463  29.900  1.00  0.00     0.010 A 
ATOM     40  C   UNL A   1      46.009  29.142  31.653  1.00  0.00     0.010 A 
ATOM     41  C   UNL A   1      45.039  29.949  31.031  1.00  0.00    -0.014 A 
BRANCH  41  42
ATOM     42  C   UNL A   1      44.887  31.375  31.426  1.00  0.00     0.031 A 
ATOM     43  C   UNL A   1      45.816  32.384  30.801  1.00  0.00     0.074 A 
ATOM     44  C   UNL A   1      43.930  31.779  32.284  1.00  0.00     0.049 A 
ATOM     45  N   UNL A   1      45.910  33.672  31.006  1.00  0.00    -0.248 NA
ATOM     46  C   UNL A   1      46.787  31.859  29.828  1.00  0.00     0.031 C 
ATOM     47  C   UNL A   1      42.953  30.908  32.937  1.00  0.00     0.029 A 
ATOM     48  N   UNL A   1      43.620  33.035  32.749  1.00  0.00    -0.354 N 
ATOM     49  C   UNL A   1      46.959  34.105  30.201  1.00  0.00     0.074 A 
ATOM     50  C   UNL A   1      47.512  32.931  29.561  1.00  0.00     0.031 C 
ATOM     51  C   UNL A   1      42.143  31.659  33.706  1.00  0.00     0.029 A 
ATOM     52  C   UNL A   1      42.564  33.058  33.631  1.00  0.00     0.049 A 
ATOM     53  H   UNL A   1      44.110  33.844  32.476  1.00  0.00     0.167 HD
ATOM     54  C   UNL A   1      47.406  35.367  29.987  1.00  0.00     0.034 A 
ATOM     55  C   UNL A   1      42.011  34.088  34.307  1.00  0.00     0.034 A 
ATOM     56  C   UNL A   1      46.838  36.531  30.617  1.00  0.00     0.049 A 
ATOM     57  C   UNL A   1      42.566  35.481  34.102  1.00  0.00     0.074 A 
ATOM     58  C   UNL A   1      47.198  37.858  30.459  1.00  0.00     0.029 A 
ATOM     59  N   UNL A   1      45.791  36.510  31.531  1.00  0.00    -0.354 N 
ATOM     60  N   UNL A   1      43.549  35.877  33.325  1.00  0.00    -0.248 NA
ATOM     61  C   UNL A   1      41.925  36.566  34.858  1.00  0.00     0.031 C 
ATOM     62  C   UNL A   1      46.425  38.629  31.333  1.00  0.00     0.029 A 
ATOM     63  C   UNL A   1      45.516  37.797  31.968  1.00  0.00     0.049 A 
ATOM     64  H   UNL A   1      45.316  35.700  31.826  1.00  0.00     0.167 HD
ATOM     65  C   UNL A   1      43.614  37.263  33.471  1.00  0.00     0.074 A 
ATOM     66  C   UNL A   1      42.561  37.630  34.393  1.00  0.00     0.031 C 
ATOM     67  C   UNL A   1      44.465  38.152  32.893  1.00  0.00     0.034 A 
BRANCH  54  68
ATOM     68  C   UNL A   1      48.590  35.533  29.064  1.00  0.00     0.023 A 
ATOM     69  C   UNL A   1      48.432  35.671  27.673  1.00  0.00     0.031 A 
ATOM     70  C   UNL A   1      49.899  35.499  29.576  1.00  0.00     0.131 A 
ATOM     71  C   UNL A   1      49.558  35.680  26.838  1.00  0.00     0.055 A 
ATOM     72  C   UNL A   1      51.016  35.605  28.746  1.00  0.00     0.041 A 
ATOM     73  F   UNL A   1      50.115  35.343  30.891  1.00  0.00    -0.206 F 
ATOM     74  C   UNL A   1      50.850  35.678  27.367  1.00  0.00     0.022 A 
BRANCH  71  75
ATOM     75  S   UNL A   1      49.309  35.522  25.048  1.00  0.00     0.124 S 
ATOM     76  O   UNL A   1      48.158  34.622  24.991  1.00  0.00    -0.237 OA
ATOM     77  O   UNL A   1      49.062  36.900  24.641  1.00  0.00    -0.237 OA
ATOM     78  O   UNL A   1      50.566  34.946  24.577  1.00  0.00    -0.744 OA
ENDBRANCH  71  75
ENDBRANCH  54  68
BRANCH  55  79
ATOM     79  C   UNL A   1      40.883  33.861  35.263  1.00  0.00     0.023 A 
ATOM     80  C   UNL A   1      39.562  33.709  34.809  1.00  0.00     0.031 A 
ATOM     81  C   UNL A   1      41.100  33.874  36.653  1.00  0.00     0.131 A 
ATOM     82  C   UNL A   1      38.506  33.635  35.733  1.00  0.00     0.055 A 
ATOM     83  C   UNL A   1      40.054  33.738  37.567  1.00  0.00     0.041 A 
ATOM     84  F   UNL A   1      42.341  34.021  37.144  1.00  0.00    -0.206 F 
ATOM     85  C   UNL A   1      38.745  33.633  37.109  1.00  0.00     0.022 A 
BRANCH  82  86
ATOM     86  S   UNL A   1      36.801  33.646  35.111  1.00  0.00     0.124 S 
ATOM     87  O   UNL A   1      36.818  34.801  34.222  1.00  0.00    -0.237 OA
ATOM     88  O   UNL A   1      36.706  32.340  34.466  1.00  0.00    -0.237 OA
ATOM     89  O   UNL A   1      35.998  33.800  36.322  1.00  0.00    -0.744 OA
ENDBRANCH  82  86
ENDBRANCH  55  79
BRANCH  67  90
ATOM     90  C   UNL A   1      44.249  39.617  33.200  1.00  0.00     0.023 A 
ATOM     91  C   UNL A   1      44.767  40.220  34.359  1.00  0.00     0.031 A 
ATOM     92  C   UNL A   1      43.495  40.419  32.323  1.00  0.00     0.131 A 
ATOM     93  C   UNL A   1      44.461  41.559  34.648  1.00  0.00     0.055 A 
ATOM     94  C   UNL A   1      43.260  41.771  32.577  1.00  0.00     0.041 A 
ATOM     95  F   UNL A   1      42.972  39.900  31.200  1.00  0.00    -0.206 F 
ATOM     96  C   UNL A   1      43.729  42.344  33.755  1.00  0.00     0.022 A 
BRANCH  93  97
ATOM     97  S   UNL A   1      44.924  42.225  36.271  1.00  0.00     0.124 S 
ATOM     98  O   UNL A   1      43.623  42.400  36.908  1.00  0.00    -0.237 OA
ATOM     99  O   UNL A   1      45.762  41.163  36.816  1.00  0.00    -0.237 OA
ATOM    100  O   UNL A   1      45.626  43.465  35.945  1.00  0.00    -0.744 OA
ENDBRANCH  93  97
ENDBRANCH  67  90
ENDBRANCH  41  42
ENDBRANCH  34  36
ENDBRANCH  33  34
ENDBRANCH  32  33
ENDBRANCH  31  32
ENDBRANCH  30  31
ENDBRANCH  29  30
ENDBRANCH  28  29
ENDBRANCH  27  28
ENDBRANCH   1  27
TORSDOF 29
ENDMDL
MODEL 2
REMARK VINA RESULT:      -6.9      7.434     17.410
REMARK SMILES COc1ccc(OC)c(C[NH2+][C@@H](C(=O)OCCOCCOCCOCCOC(=O)c2ccc(-c3c4nc(c(-c5cc(S(=O)(=O)[O-])ccc5F)c5ccc([nH]5)c(-c5cc(S(=O)(=O)[O-])ccc5F)c5nc(c(-c6cc(S(=O)(=O)[O-])ccc6F)c6ccc3[nH]6)C=C5)C=C4)cc2)C(C)C)c1
REMARK SMILES IDX 20 1 19 2 18 3 17 4 16 5 15 6 13 7 14 8 12 9 11 10 10 13
REMARK SMILES IDX 9 14 3 15 4 16 96 17 5 18 6 19 2 20 1 21 7 22 8 23 93 24
REMARK SMILES IDX 94 25 95 26 21 27 22 28 23 29 24 30 25 31 26 32 27 33 28 34
REMARK SMILES IDX 29 35 30 36 31 37 92 38 32 39 91 40 33 41 34 42 35 43 85 44
REMARK SMILES IDX 36 45 90 46 84 47 86 48 37 49 89 50 83 51 82 52 38 54 70 55
REMARK SMILES IDX 50 56 69 57 51 58 54 59 68 60 87 61 52 62 53 63 67 65 88 66
REMARK SMILES IDX 55 67 39 68 40 69 48 70 41 71 47 72 49 73 46 74 42 75 43 76
REMARK SMILES IDX 44 77 45 78 71 79 72 80 80 81 73 82 79 83 81 84 78 85 74 86
REMARK SMILES IDX 75 87 76 88 77 89 56 90 57 91 65 92 58 93 64 94 66 95 63 96
REMARK SMILES IDX 59 97 60 98 61 99 62 100
REMARK H PARENT 11 11 11 12 86 53 54 64
REMARK Flexibility Score: inf
ROOT
ATOM      1  C   UNL A   1      41.963  40.696  40.588  1.00  0.00     0.188 C 
ENDROOT
BRANCH   1   2
ATOM      2  C   UNL A   1      42.315  42.116  40.117  1.00  0.00     0.188 C 
BRANCH   2   3
ATOM      3  O   UNL A   1      41.427  43.193  40.372  1.00  0.00    -0.376 OA
BRANCH   3   4
ATOM      4  C   UNL A   1      41.840  44.310  41.154  1.00  0.00     0.202 C 
BRANCH   4   5
ATOM      5  C   UNL A   1      40.867  45.285  41.847  1.00  0.00     0.261 C 
BRANCH   5   6
ATOM      6  O   UNL A   1      40.759  46.573  41.237  1.00  0.00    -0.459 OA
BRANCH   6   7
ATOM      7  C   UNL A   1      40.342  47.612  41.997  1.00  0.00     0.365 C 
ATOM      8  O   UNL A   1      40.654  48.781  41.790  1.00  0.00    -0.245 OA
BRANCH   7   9
ATOM      9  C   UNL A   1      39.357  47.203  43.125  1.00  0.00     0.296 C 
BRANCH   9  10
ATOM     10  N   UNL A   1      37.972  47.690  42.949  1.00  0.00    -0.330 N 
ATOM     11  H   UNL A   1      37.650  48.027  43.856  1.00  0.00     0.347 HD
ATOM     12  H   UNL A   1      38.039  48.394  42.214  1.00  0.00     0.347 HD
BRANCH  10  13
ATOM     13  C   UNL A   1      36.977  46.750  42.460  1.00  0.00     0.302 C 
BRANCH  13  14
ATOM     14  C   UNL A   1      35.961  46.444  43.551  1.00  0.00     0.052 A 
ATOM     15  C   UNL A   1      34.205  47.333  45.016  1.00  0.00     0.119 A 
ATOM     16  C   UNL A   1      34.106  46.113  45.667  1.00  0.00     0.050 A 
ATOM     17  C   UNL A   1      35.141  47.509  43.993  1.00  0.00     0.059 A 
ATOM     18  C   UNL A   1      34.912  45.053  45.257  1.00  0.00     0.051 A 
ATOM     19  C   UNL A   1      35.825  45.199  44.199  1.00  0.00     0.127 A 
BRANCH  15  20
ATOM     20  O   UNL A   1      33.380  48.328  45.465  1.00  0.00    -0.497 OA
ATOM     21  C   UNL A   1      32.202  47.816  46.084  1.00  0.00     0.278 C 
ENDBRANCH  15  20
BRANCH  19  22
ATOM     22  O   UNL A   1      36.596  44.080  44.016  1.00  0.00    -0.496 OA
ATOM     23  C   UNL A   1      35.954  42.892  43.580  1.00  0.00     0.278 C 
ENDBRANCH  19  22
ENDBRANCH  13  14
ENDBRANCH  10  13
ENDBRANCH   9  10
BRANCH   9  24
ATOM     24  C   UNL A   1      39.834  47.715  44.529  1.00  0.00     0.053 C 
ATOM     25  C   UNL A   1      38.649  47.956  45.480  1.00  0.00     0.014 C 
ATOM     26  C   UNL A   1      40.847  46.805  45.231  1.00  0.00     0.014 C 
ENDBRANCH   9  24
ENDBRANCH   7   9
ENDBRANCH   6   7
ENDBRANCH   5   6
ENDBRANCH   4   5
ENDBRANCH   3   4
ENDBRANCH   2   3
ENDBRANCH   1   2
BRANCH   1  27
ATOM     27  O   UNL A   1      40.659  40.273  40.252  1.00  0.00    -0.377 OA
BRANCH  27  28
ATOM     28  C   UNL A   1      39.902  39.600  41.247  1.00  0.00     0.188 C 
BRANCH  28  29
ATOM     29  C   UNL A   1      40.466  39.442  42.676  1.00  0.00     0.188 C 
BRANCH  29  30
ATOM     30  O   UNL A   1      39.636  38.748  43.597  1.00  0.00    -0.376 OA
BRANCH  30  31
ATOM     31  C   UNL A   1      40.105  37.525  44.150  1.00  0.00     0.202 C 
BRANCH  31  32
ATOM     32  C   UNL A   1      40.541  36.415  43.179  1.00  0.00     0.261 C 
BRANCH  32  33
ATOM     33  O   UNL A   1      39.683  35.267  43.099  1.00  0.00    -0.460 OA
BRANCH  33  34
ATOM     34  C   UNL A   1      38.697  35.274  42.182  1.00  0.00     0.338 C 
ATOM     35  O   UNL A   1      37.494  35.351  42.393  1.00  0.00    -0.246 OA
BRANCH  34  36
ATOM     36  C   UNL A   1      39.322  35.364  40.852  1.00  0.00     0.060 A 
ATOM     37  C   UNL A   1      39.080  36.486  40.049  1.00  0.00     0.016 A 
ATOM     38  C   UNL A   1      40.135  34.330  40.393  1.00  0.00     0.016 A 
ATOM     39  C   UNL A   1      39.628  36.563  38.768  1.00  0.00     0.010 A 
ATOM     40  C   UNL A   1      40.661  34.399  39.101  1.00  0.00     0.010 A 
ATOM     41  C   UNL A   1      40.390  35.501  38.267  1.00  0.00    -0.014 A 
BRANCH  41  42
ATOM     42  C   UNL A   1      40.712  35.438  36.817  1.00  0.00     0.031 A 
ATOM     43  C   UNL A   1      42.089  35.869  36.379  1.00  0.00     0.074 A 
ATOM     44  C   UNL A   1      39.830  34.975  35.910  1.00  0.00     0.049 A 
ATOM     45  N   UNL A   1      42.599  35.941  35.178  1.00  0.00    -0.248 NA
ATOM     46  C   UNL A   1      43.006  36.297  37.448  1.00  0.00     0.031 C 
ATOM     47  C   UNL A   1      38.477  34.504  36.205  1.00  0.00     0.029 A 
ATOM     48  N   UNL A   1      39.946  34.821  34.549  1.00  0.00    -0.354 N 
ATOM     49  C   UNL A   1      43.888  36.439  35.346  1.00  0.00     0.074 A 
ATOM     50  C   UNL A   1      44.051  36.716  36.756  1.00  0.00     0.031 C 
ATOM     51  C   UNL A   1      37.896  34.100  35.061  1.00  0.00     0.029 A 
ATOM     52  C   UNL A   1      38.817  34.315  33.946  1.00  0.00     0.049 A 
ATOM     53  H   UNL A   1      40.764  35.052  34.050  1.00  0.00     0.167 HD
ATOM     54  C   UNL A   1      44.859  36.622  34.418  1.00  0.00     0.034 A 
ATOM     55  C   UNL A   1      38.556  34.068  32.645  1.00  0.00     0.034 A 
ATOM     56  C   UNL A   1      44.690  36.329  33.018  1.00  0.00     0.049 A 
ATOM     57  C   UNL A   1      39.633  34.340  31.617  1.00  0.00     0.074 A 
ATOM     58  C   UNL A   1      45.612  36.458  31.994  1.00  0.00     0.029 A 
ATOM     59  N   UNL A   1      43.520  35.851  32.442  1.00  0.00    -0.354 N 
ATOM     60  N   UNL A   1      40.852  34.796  31.793  1.00  0.00    -0.248 NA
ATOM     61  C   UNL A   1      39.299  34.049  30.216  1.00  0.00     0.031 C 
ATOM     62  C   UNL A   1      44.978  36.134  30.791  1.00  0.00     0.029 A 
ATOM     63  C   UNL A   1      43.688  35.711  31.072  1.00  0.00     0.049 A 
ATOM     64  H   UNL A   1      42.693  35.643  32.933  1.00  0.00     0.167 HD
ATOM     65  C   UNL A   1      41.441  34.807  30.529  1.00  0.00     0.074 A 
ATOM     66  C   UNL A   1      40.449  34.295  29.608  1.00  0.00     0.031 C 
ATOM     67  C   UNL A   1      42.689  35.202  30.161  1.00  0.00     0.034 A 
BRANCH  54  68
ATOM     68  C   UNL A   1      46.169  37.205  34.896  1.00  0.00     0.023 A 
ATOM     69  C   UNL A   1      47.226  36.389  35.337  1.00  0.00     0.031 A 
ATOM     70  C   UNL A   1      46.343  38.598  34.962  1.00  0.00     0.131 A 
ATOM     71  C   UNL A   1      48.369  36.969  35.905  1.00  0.00     0.055 A 
ATOM     72  C   UNL A   1      47.523  39.170  35.440  1.00  0.00     0.041 A 
ATOM     73  F   UNL A   1      45.361  39.430  34.581  1.00  0.00    -0.206 F 
ATOM     74  C   UNL A   1      48.538  38.355  35.932  1.00  0.00     0.022 A 
BRANCH  71  75
ATOM     75  S   UNL A   1      49.552  35.892  36.760  1.00  0.00     0.124 S 
ATOM     76  O   UNL A   1      49.266  34.597  36.147  1.00  0.00    -0.237 OA
ATOM     77  O   UNL A   1      50.834  36.493  36.412  1.00  0.00    -0.237 OA
ATOM     78  O   UNL A   1      49.167  36.008  38.165  1.00  0.00    -0.744 OA
ENDBRANCH  71  75
ENDBRANCH  54  68
BRANCH  55  79
ATOM     79  C   UNL A   1      37.219  33.556  32.214  1.00  0.00     0.023 A 
ATOM     80  C   UNL A   1      36.137  34.428  32.004  1.00  0.00     0.031 A 
ATOM     81  C   UNL A   1      36.980  32.175  32.086  1.00  0.00     0.131 A 
ATOM     82  C   UNL A   1      34.859  33.910  31.735  1.00  0.00     0.055 A 
ATOM     83  C   UNL A   1      35.721  31.668  31.758  1.00  0.00     0.041 A 
ATOM     84  F   UNL A   1      37.974  31.294  32.281  1.00  0.00    -0.206 F 
ATOM     85  C   UNL A   1      34.647  32.537  31.595  1.00  0.00     0.022 A 
BRANCH  82  86
ATOM     86  S   UNL A   1      33.450  35.054  31.672  1.00  0.00     0.124 S 
ATOM     87  O   UNL A   1      32.585  34.514  32.713  1.00  0.00    -0.237 OA
ATOM     88  O   UNL A   1      34.088  36.334  31.966  1.00  0.00    -0.237 OA
ATOM     89  O   UNL A   1      32.953  34.907  30.306  1.00  0.00    -0.744 OA
ENDBRANCH  82  86
ENDBRANCH  55  79
BRANCH  67  90
ATOM     90  C   UNL A   1      43.067  35.037  28.706  1.00  0.00     0.023 A 
ATOM     91  C   UNL A   1      43.910  34.001  28.268  1.00  0.00     0.031 A 
ATOM     92  C   UNL A   1      42.588  35.946  27.744  1.00  0.00     0.131 A 
ATOM     93  C   UNL A   1      44.309  33.944  26.924  1.00  0.00     0.055 A 
ATOM     94  C   UNL A   1      42.926  35.837  26.395  1.00  0.00     0.041 A 
ATOM     95  F   UNL A   1      41.781  36.958  28.101  1.00  0.00    -0.206 F 
ATOM     96  C   UNL A   1      43.806  34.842  25.981  1.00  0.00     0.022 A 
BRANCH  93  97
ATOM     97  S   UNL A   1      45.597  32.757  26.449  1.00  0.00     0.124 S 
ATOM     98  O   UNL A   1      44.865  31.856  25.566  1.00  0.00    -0.237 OA
ATOM     99  O   UNL A   1      46.588  33.614  25.806  1.00  0.00    -0.237 OA
ATOM    100  O   UNL A   1      46.013  32.175  27.724  1.00  0.00    -0.744 OA
ENDBRANCH  93  97
ENDBRANCH  67  90
ENDBRANCH  41  42
ENDBRANCH  34  36
ENDBRANCH  33  34
ENDBRANCH  32  33
ENDBRANCH  31  32
ENDBRANCH  30  31
ENDBRANCH  29  30
ENDBRANCH  28  29
ENDBRANCH  27  28
ENDBRANCH   1  27
TORSDOF 29
ENDMDL
MODEL 3
REMARK VINA RESULT:      -6.9      5.305     11.372
REMARK SMILES COc1ccc(OC)c(C[NH2+][C@@H](C(=O)OCCOCCOCCOCCOC(=O)c2ccc(-c3c4nc(c(-c5cc(S(=O)(=O)[O-])ccc5F)c5ccc([nH]5)c(-c5cc(S(=O)(=O)[O-])ccc5F)c5nc(c(-c6cc(S(=O)(=O)[O-])ccc6F)c6ccc3[nH]6)C=C5)C=C4)cc2)C(C)C)c1
REMARK SMILES IDX 20 1 19 2 18 3 17 4 16 5 15 6 13 7 14 8 12 9 11 10 10 13
REMARK SMILES IDX 9 14 3 15 4 16 96 17 5 18 6 19 2 20 1 21 7 22 8 23 93 24
REMARK SMILES IDX 94 25 95 26 21 27 22 28 23 29 24 30 25 31 26 32 27 33 28 34
REMARK SMILES IDX 29 35 30 36 31 37 92 38 32 39 91 40 33 41 34 42 35 43 85 44
REMARK SMILES IDX 36 45 90 46 84 47 86 48 37 49 89 50 83 51 82 52 38 54 70 55
REMARK SMILES IDX 50 56 69 57 51 58 54 59 68 60 87 61 52 62 53 63 67 65 88 66
REMARK SMILES IDX 55 67 39 68 40 69 48 70 41 71 47 72 49 73 46 74 42 75 43 76
REMARK SMILES IDX 44 77 45 78 71 79 72 80 80 81 73 82 79 83 81 84 78 85 74 86
REMARK SMILES IDX 75 87 76 88 77 89 56 90 57 91 65 92 58 93 64 94 66 95 63 96
REMARK SMILES IDX 59 97 60 98 61 99 62 100
REMARK H PARENT 11 11 11 12 86 53 54 64
REMARK Flexibility Score: inf
ROOT
ATOM      1  C   UNL A   1      35.678  22.023  26.233  1.00  0.00     0.188 C 
ENDROOT
BRANCH   1   2
ATOM      2  C   UNL A   1      35.554  23.491  25.795  1.00  0.00     0.188 C 
BRANCH   2   3
ATOM      3  O   UNL A   1      36.707  24.314  25.728  1.00  0.00    -0.376 OA
BRANCH   3   4
ATOM      4  C   UNL A   1      37.997  23.793  26.035  1.00  0.00     0.202 C 
BRANCH   4   5
ATOM      5  C   UNL A   1      38.766  24.101  27.335  1.00  0.00     0.261 C 
BRANCH   5   6
ATOM      6  O   UNL A   1      40.142  24.446  27.160  1.00  0.00    -0.459 OA
BRANCH   6   7
ATOM      7  C   UNL A   1      40.439  25.635  26.587  1.00  0.00     0.365 C 
ATOM      8  O   UNL A   1      40.524  25.808  25.374  1.00  0.00    -0.245 OA
BRANCH   7   9
ATOM      9  C   UNL A   1      40.591  26.797  27.603  1.00  0.00     0.296 C 
BRANCH   9  10
ATOM     10  N   UNL A   1      39.318  27.342  28.122  1.00  0.00    -0.330 N 
ATOM     11  H   UNL A   1      39.390  28.359  28.097  1.00  0.00     0.347 HD
ATOM     12  H   UNL A   1      38.602  26.934  27.521  1.00  0.00     0.347 HD
BRANCH  10  13
ATOM     13  C   UNL A   1      38.917  26.971  29.468  1.00  0.00     0.302 C 
BRANCH  13  14
ATOM     14  C   UNL A   1      38.888  28.198  30.367  1.00  0.00     0.052 A 
ATOM     15  C   UNL A   1      39.301  29.099  32.612  1.00  0.00     0.119 A 
ATOM     16  C   UNL A   1      38.779  30.326  32.234  1.00  0.00     0.050 A 
ATOM     17  C   UNL A   1      39.327  28.037  31.702  1.00  0.00     0.059 A 
ATOM     18  C   UNL A   1      38.329  30.504  30.928  1.00  0.00     0.051 A 
ATOM     19  C   UNL A   1      38.391  29.462  29.987  1.00  0.00     0.127 A 
BRANCH  15  20
ATOM     20  O   UNL A   1      39.731  28.995  33.906  1.00  0.00    -0.497 OA
ATOM     21  C   UNL A   1      40.055  30.263  34.472  1.00  0.00     0.278 C 
ENDBRANCH  15  20
BRANCH  19  22
ATOM     22  O   UNL A   1      37.806  29.801  28.794  1.00  0.00    -0.496 OA
ATOM     23  C   UNL A   1      36.407  29.605  28.658  1.00  0.00     0.278 C 
ENDBRANCH  19  22
ENDBRANCH  13  14
ENDBRANCH  10  13
ENDBRANCH   9  10
BRANCH   9  24
ATOM     24  C   UNL A   1      41.378  28.009  26.992  1.00  0.00     0.053 C 
ATOM     25  C   UNL A   1      41.958  27.671  25.608  1.00  0.00     0.014 C 
ATOM     26  C   UNL A   1      40.568  29.305  26.880  1.00  0.00     0.014 C 
ENDBRANCH   9  24
ENDBRANCH   7   9
ENDBRANCH   6   7
ENDBRANCH   5   6
ENDBRANCH   4   5
ENDBRANCH   3   4
ENDBRANCH   2   3
ENDBRANCH   1   2
BRANCH   1  27
ATOM     27  O   UNL A   1      35.557  21.086  25.186  1.00  0.00    -0.377 OA
BRANCH  27  28
ATOM     28  C   UNL A   1      36.617  20.160  24.996  1.00  0.00     0.188 C 
BRANCH  28  29
ATOM     29  C   UNL A   1      38.067  20.666  24.837  1.00  0.00     0.188 C 
BRANCH  29  30
ATOM     30  O   UNL A   1      39.071  19.881  25.468  1.00  0.00    -0.376 OA
BRANCH  30  31
ATOM     31  C   UNL A   1      39.969  20.516  26.367  1.00  0.00     0.202 C 
BRANCH  31  32
ATOM     32  C   UNL A   1      41.476  20.415  26.071  1.00  0.00     0.261 C 
BRANCH  32  33
ATOM     33  O   UNL A   1      42.174  21.657  25.899  1.00  0.00    -0.460 OA
BRANCH  33  34
ATOM     34  C   UNL A   1      43.474  21.611  25.548  1.00  0.00     0.338 C 
ATOM     35  O   UNL A   1      44.030  20.742  24.890  1.00  0.00    -0.246 OA
BRANCH  34  36
ATOM     36  C   UNL A   1      44.088  22.893  25.932  1.00  0.00     0.060 A 
ATOM     37  C   UNL A   1      43.866  24.030  25.145  1.00  0.00     0.016 A 
ATOM     38  C   UNL A   1      44.898  22.965  27.064  1.00  0.00     0.016 A 
ATOM     39  C   UNL A   1      44.480  25.240  25.471  1.00  0.00     0.010 A 
ATOM     40  C   UNL A   1      45.529  24.173  27.374  1.00  0.00     0.010 A 
ATOM     41  C   UNL A   1      45.350  25.311  26.566  1.00  0.00    -0.014 A 
BRANCH  41  42
ATOM     42  C   UNL A   1      46.235  26.494  26.735  1.00  0.00     0.031 A 
ATOM     43  C   UNL A   1      45.795  27.575  27.689  1.00  0.00     0.074 A 
ATOM     44  C   UNL A   1      47.415  26.599  26.094  1.00  0.00     0.049 A 
ATOM     45  N   UNL A   1      46.366  28.714  27.981  1.00  0.00    -0.248 NA
ATOM     46  C   UNL A   1      44.522  27.344  28.391  1.00  0.00     0.031 C 
ATOM     47  C   UNL A   1      47.968  25.612  25.166  1.00  0.00     0.029 A 
ATOM     48  N   UNL A   1      48.369  27.588  26.135  1.00  0.00    -0.354 N 
ATOM     49  C   UNL A   1      45.515  29.340  28.887  1.00  0.00     0.074 A 
ATOM     50  C   UNL A   1      44.358  28.485  29.037  1.00  0.00     0.031 C 
ATOM     51  C   UNL A   1      49.169  26.040  24.738  1.00  0.00     0.029 A 
ATOM     52  C   UNL A   1      49.459  27.346  25.330  1.00  0.00     0.049 A 
ATOM     53  H   UNL A   1      48.280  28.396  26.690  1.00  0.00     0.167 HD
ATOM     54  C   UNL A   1      45.689  30.506  29.557  1.00  0.00     0.034 A 
ATOM     55  C   UNL A   1      50.555  28.098  25.092  1.00  0.00     0.034 A 
ATOM     56  C   UNL A   1      46.853  31.342  29.411  1.00  0.00     0.049 A 
ATOM     57  C   UNL A   1      50.700  29.426  25.802  1.00  0.00     0.074 A 
ATOM     58  C   UNL A   1      47.144  32.532  30.054  1.00  0.00     0.029 A 
ATOM     59  N   UNL A   1      47.919  31.080  28.560  1.00  0.00    -0.354 N 
ATOM     60  N   UNL A   1      49.893  29.998  26.667  1.00  0.00    -0.248 NA
ATOM     61  C   UNL A   1      51.913  30.203  25.511  1.00  0.00     0.031 C 
ATOM     62  C   UNL A   1      48.344  33.029  29.535  1.00  0.00     0.029 A 
ATOM     63  C   UNL A   1      48.852  32.103  28.638  1.00  0.00     0.049 A 
ATOM     64  H   UNL A   1      48.000  30.285  27.984  1.00  0.00     0.167 HD
ATOM     65  C   UNL A   1      50.524  31.181  27.051  1.00  0.00     0.074 A 
ATOM     66  C   UNL A   1      51.783  31.228  26.338  1.00  0.00     0.031 C 
ATOM     67  C   UNL A   1      50.104  32.141  27.917  1.00  0.00     0.034 A 
BRANCH  54  68
ATOM     68  C   UNL A   1      44.572  30.951  30.470  1.00  0.00     0.023 A 
ATOM     69  C   UNL A   1      43.638  31.926  30.078  1.00  0.00     0.031 A 
ATOM     70  C   UNL A   1      44.471  30.431  31.773  1.00  0.00     0.131 A 
ATOM     71  C   UNL A   1      42.704  32.415  31.003  1.00  0.00     0.055 A 
ATOM     72  C   UNL A   1      43.478  30.853  32.658  1.00  0.00     0.041 A 
ATOM     73  F   UNL A   1      45.349  29.518  32.215  1.00  0.00    -0.206 F 
ATOM     74  C   UNL A   1      42.598  31.864  32.282  1.00  0.00     0.022 A 
BRANCH  71  75
ATOM     75  S   UNL A   1      41.747  33.893  30.569  1.00  0.00     0.124 S 
ATOM     76  O   UNL A   1      42.276  34.205  29.243  1.00  0.00    -0.237 OA
ATOM     77  O   UNL A   1      40.375  33.403  30.610  1.00  0.00    -0.237 OA
ATOM     78  O   UNL A   1      42.102  34.850  31.614  1.00  0.00    -0.744 OA
ENDBRANCH  71  75
ENDBRANCH  54  68
BRANCH  55  79
ATOM     79  C   UNL A   1      51.601  27.644  24.125  1.00  0.00     0.023 A 
ATOM     80  C   UNL A   1      51.411  27.759  22.737  1.00  0.00     0.031 A 
ATOM     81  C   UNL A   1      52.774  27.011  24.574  1.00  0.00     0.131 A 
ATOM     82  C   UNL A   1      52.347  27.201  21.851  1.00  0.00     0.055 A 
ATOM     83  C   UNL A   1      53.732  26.512  23.688  1.00  0.00     0.041 A 
ATOM     84  F   UNL A   1      53.007  26.867  25.888  1.00  0.00    -0.206 F 
ATOM     85  C   UNL A   1      53.514  26.592  22.317  1.00  0.00     0.022 A 
BRANCH  82  86
ATOM     86  S   UNL A   1      51.967  27.189  20.075  1.00  0.00     0.124 S 
ATOM     87  O   UNL A   1      52.093  25.773  19.756  1.00  0.00    -0.237 OA
ATOM     88  O   UNL A   1      50.615  27.736  20.052  1.00  0.00    -0.237 OA
ATOM     89  O   UNL A   1      52.997  28.054  19.502  1.00  0.00    -0.744 OA
ENDBRANCH  82  86
ENDBRANCH  55  79
BRANCH  67  90
ATOM     90  C   UNL A   1      51.045  33.295  28.183  1.00  0.00     0.023 A 
ATOM     91  C   UNL A   1      51.006  34.478  27.426  1.00  0.00     0.031 A 
ATOM     92  C   UNL A   1      52.011  33.198  29.202  1.00  0.00     0.131 A 
ATOM     93  C   UNL A   1      51.961  35.483  27.647  1.00  0.00     0.055 A 
ATOM     94  C   UNL A   1      52.908  34.233  29.469  1.00  0.00     0.041 A 
ATOM     95  F   UNL A   1      52.100  32.092  29.958  1.00  0.00    -0.206 F 
ATOM     96  C   UNL A   1      52.897  35.378  28.677  1.00  0.00     0.022 A 
BRANCH  93  97
ATOM     97  S   UNL A   1      52.044  36.874  26.486  1.00  0.00     0.124 S 
ATOM     98  O   UNL A   1      52.569  36.233  25.284  1.00  0.00    -0.237 OA
ATOM     99  O   UNL A   1      50.652  37.308  26.419  1.00  0.00    -0.237 OA
ATOM    100  O   UNL A   1      52.956  37.812  27.138  1.00  0.00    -0.744 OA
ENDBRANCH  93  97
ENDBRANCH  67  90
ENDBRANCH  41  42
ENDBRANCH  34  36
ENDBRANCH  33  34
ENDBRANCH  32  33
ENDBRANCH  31  32
ENDBRANCH  30  31
ENDBRANCH  29  30
ENDBRANCH  28  29
ENDBRANCH  27  28
ENDBRANCH   1  27
TORSDOF 29
ENDMDL
