MODEL 1
REMARK VINA RESULT:      -9.8      0.000      0.000
REMARK SMILES O=C(OCCOCCOCCOCCOC(=O)c1ccc(N2C(=O)/C(=C/C3=c4ccccc4=NC3)SC2=S)cc1O)c1ccc(-c2c3nc(c(-c4cc(S(=O)(=O)[O-])ccc4F)c4ccc([nH]4)c(-c4cc(S(=O)(=O)[O-])ccc4F)c4nc(c(-c5cc(S(=O)(=O)[O-])ccc5F)c5ccc2[nH]5)C=C4)C=C3)cc1
REMARK SMILES IDX 8 1 7 2 6 3 5 4 4 5 3 6 2 7 1 8 42 9 43 10 104 11 44 12
REMARK SMILES IDX 103 13 45 14 46 15 47 16 97 17 48 18 102 19 96 20 98 21
REMARK SMILES IDX 49 22 101 23 95 24 94 25 50 27 82 28 62 29 81 30 63 31 66 32
REMARK SMILES IDX 80 33 99 34 64 35 65 36 79 38 100 39 67 40 51 41 52 42 60 43
REMARK SMILES IDX 53 44 59 45 61 46 58 47 54 48 55 49 56 50 57 51 83 52 84 53
REMARK SMILES IDX 92 54 85 55 91 56 93 57 90 58 86 59 87 60 88 61 89 62 68 63
REMARK SMILES IDX 69 64 77 65 70 66 76 67 78 68 75 69 71 70 72 71 73 72 74 73
REMARK SMILES IDX 9 74 10 75 11 76 12 77 13 78 14 79 15 80 16 81 17 82 18 83
REMARK SMILES IDX 19 84 40 85 20 86 39 87 21 88 41 89 22 91 23 92 37 93 24 94
REMARK SMILES IDX 25 95 36 96 38 97 26 98 27 99 28 100 35 101 29 102 33 103
REMARK SMILES IDX 34 104 30 105 32 106 31 107
REMARK H PARENT 98 26 66 37 41 90
REMARK Flexibility Score: inf
ROOT
ATOM      1  C   UNL A   1      33.905  31.601  27.981  1.00  0.00     0.188 C 
ENDROOT
BRANCH   1   2
ATOM      2  C   UNL A   1      34.434  32.779  28.786  1.00  0.00     0.188 C 
BRANCH   2   3
ATOM      3  O   UNL A   1      34.138  32.857  30.173  1.00  0.00    -0.376 OA
BRANCH   3   4
ATOM      4  C   UNL A   1      35.159  32.918  31.157  1.00  0.00     0.202 C 
BRANCH   4   5
ATOM      5  C   UNL A   1      35.075  32.084  32.439  1.00  0.00     0.261 C 
BRANCH   5   6
ATOM      6  O   UNL A   1      36.195  31.261  32.798  1.00  0.00    -0.460 OA
BRANCH   6   7
ATOM      7  C   UNL A   1      36.836  30.421  31.938  1.00  0.00     0.338 C 
ATOM      8  O   UNL A   1      36.556  29.229  31.890  1.00  0.00    -0.246 OA
BRANCH   7   9
ATOM      9  C   UNL A   1      38.118  30.913  31.379  1.00  0.00     0.060 A 
ATOM     10  C   UNL A   1      39.117  31.294  32.292  1.00  0.00     0.016 A 
ATOM     11  C   UNL A   1      38.304  31.126  30.016  1.00  0.00     0.016 A 
ATOM     12  C   UNL A   1      40.254  31.971  31.846  1.00  0.00     0.010 A 
ATOM     13  C   UNL A   1      39.385  31.890  29.580  1.00  0.00     0.010 A 
ATOM     14  C   UNL A   1      40.383  32.290  30.486  1.00  0.00    -0.014 A 
BRANCH  14  15
ATOM     15  C   UNL A   1      41.704  32.640  29.923  1.00  0.00     0.031 A 
ATOM     16  C   UNL A   1      42.159  34.032  29.633  1.00  0.00     0.074 A 
ATOM     17  C   UNL A   1      42.452  31.574  29.579  1.00  0.00     0.049 A 
ATOM     18  N   UNL A   1      43.333  34.422  29.205  1.00  0.00    -0.248 NA
ATOM     19  C   UNL A   1      41.196  35.124  29.831  1.00  0.00     0.031 C 
ATOM     20  C   UNL A   1      42.033  30.180  29.765  1.00  0.00     0.029 A 
ATOM     21  N   UNL A   1      43.664  31.479  28.960  1.00  0.00    -0.354 N 
ATOM     22  C   UNL A   1      43.278  35.808  29.127  1.00  0.00     0.074 A 
ATOM     23  C   UNL A   1      41.925  36.186  29.491  1.00  0.00     0.031 C 
ATOM     24  C   UNL A   1      42.936  29.372  29.208  1.00  0.00     0.029 A 
ATOM     25  C   UNL A   1      44.018  30.184  28.671  1.00  0.00     0.049 A 
ATOM     26  H   UNL A   1      44.227  32.256  28.743  1.00  0.00     0.167 HD
ATOM     27  C   UNL A   1      44.283  36.662  28.801  1.00  0.00     0.034 A 
ATOM     28  C   UNL A   1      45.107  29.689  28.061  1.00  0.00     0.034 A 
ATOM     29  C   UNL A   1      45.598  36.215  28.382  1.00  0.00     0.049 A 
ATOM     30  C   UNL A   1      46.213  30.643  27.741  1.00  0.00     0.074 A 
ATOM     31  C   UNL A   1      46.718  36.980  28.105  1.00  0.00     0.029 A 
ATOM     32  N   UNL A   1      45.965  34.892  28.156  1.00  0.00    -0.354 N 
ATOM     33  N   UNL A   1      46.221  31.952  27.848  1.00  0.00    -0.248 NA
ATOM     34  C   UNL A   1      47.476  30.062  27.284  1.00  0.00     0.031 C 
ATOM     35  C   UNL A   1      47.727  36.133  27.635  1.00  0.00     0.029 A 
ATOM     36  C   UNL A   1      47.275  34.824  27.701  1.00  0.00     0.049 A 
ATOM     37  H   UNL A   1      45.378  34.114  28.298  1.00  0.00     0.167 HD
ATOM     38  C   UNL A   1      47.496  32.356  27.477  1.00  0.00     0.074 A 
ATOM     39  C   UNL A   1      48.241  31.142  27.195  1.00  0.00     0.031 C 
ATOM     40  C   UNL A   1      47.997  33.613  27.372  1.00  0.00     0.034 A 
BRANCH  27  41
ATOM     41  C   UNL A   1      44.055  38.157  28.923  1.00  0.00     0.023 A 
ATOM     42  C   UNL A   1      44.013  38.784  30.186  1.00  0.00     0.031 A 
ATOM     43  C   UNL A   1      43.697  38.927  27.800  1.00  0.00     0.131 A 
ATOM     44  C   UNL A   1      43.580  40.115  30.296  1.00  0.00     0.055 A 
ATOM     45  C   UNL A   1      43.313  40.266  27.910  1.00  0.00     0.041 A 
ATOM     46  F   UNL A   1      43.697  38.384  26.571  1.00  0.00    -0.206 F 
ATOM     47  C   UNL A   1      43.238  40.861  29.164  1.00  0.00     0.022 A 
BRANCH  44  48
ATOM     48  S   UNL A   1      43.352  40.910  31.913  1.00  0.00     0.124 S 
ATOM     49  O   UNL A   1      43.004  39.771  32.762  1.00  0.00    -0.237 OA
ATOM     50  O   UNL A   1      44.672  41.486  32.159  1.00  0.00    -0.237 OA
ATOM     51  O   UNL A   1      42.277  41.868  31.686  1.00  0.00    -0.744 OA
ENDBRANCH  44  48
ENDBRANCH  27  41
BRANCH  28  52
ATOM     52  C   UNL A   1      45.199  28.213  27.910  1.00  0.00     0.023 A 
ATOM     53  C   UNL A   1      44.671  27.584  26.765  1.00  0.00     0.031 A 
ATOM     54  C   UNL A   1      45.573  27.411  28.999  1.00  0.00     0.131 A 
ATOM     55  C   UNL A   1      44.450  26.201  26.776  1.00  0.00     0.055 A 
ATOM     56  C   UNL A   1      45.421  26.026  28.975  1.00  0.00     0.041 A 
ATOM     57  F   UNL A   1      46.036  27.976  30.126  1.00  0.00    -0.206 F 
ATOM     58  C   UNL A   1      44.835  25.416  27.869  1.00  0.00     0.022 A 
BRANCH  55  59
ATOM     59  S   UNL A   1      43.478  25.406  25.465  1.00  0.00     0.124 S 
ATOM     60  O   UNL A   1      42.680  24.445  26.218  1.00  0.00    -0.237 OA
ATOM     61  O   UNL A   1      42.742  26.539  24.908  1.00  0.00    -0.237 OA
ATOM     62  O   UNL A   1      44.489  24.833  24.582  1.00  0.00    -0.744 OA
ENDBRANCH  55  59
ENDBRANCH  28  52
BRANCH  40  63
ATOM     63  C   UNL A   1      49.414  33.750  26.862  1.00  0.00     0.023 A 
ATOM     64  C   UNL A   1      50.507  33.399  27.677  1.00  0.00     0.031 A 
ATOM     65  C   UNL A   1      49.683  34.307  25.598  1.00  0.00     0.131 A 
ATOM     66  C   UNL A   1      51.814  33.628  27.226  1.00  0.00     0.055 A 
ATOM     67  C   UNL A   1      50.985  34.476  25.130  1.00  0.00     0.041 A 
ATOM     68  F   UNL A   1      48.677  34.671  24.786  1.00  0.00    -0.206 F 
ATOM     69  C   UNL A   1      52.058  34.148  25.951  1.00  0.00     0.022 A 
BRANCH  66  70
ATOM     70  S   UNL A   1      53.243  33.338  28.303  1.00  0.00     0.124 S 
ATOM     71  O   UNL A   1      53.955  34.611  28.209  1.00  0.00    -0.237 OA
ATOM     72  O   UNL A   1      52.608  33.074  29.592  1.00  0.00    -0.237 OA
ATOM     73  O   UNL A   1      53.921  32.200  27.693  1.00  0.00    -0.744 OA
ENDBRANCH  66  70
ENDBRANCH  40  63
ENDBRANCH  14  15
ENDBRANCH   7   9
ENDBRANCH   6   7
ENDBRANCH   5   6
ENDBRANCH   4   5
ENDBRANCH   3   4
ENDBRANCH   2   3
ENDBRANCH   1   2
BRANCH   1  74
ATOM     74  O   UNL A   1      32.864  31.961  27.097  1.00  0.00    -0.377 OA
BRANCH  74  75
ATOM     75  C   UNL A   1      31.923  30.914  26.876  1.00  0.00     0.188 C 
BRANCH  75  76
ATOM     76  C   UNL A   1      31.243  30.794  25.488  1.00  0.00     0.188 C 
BRANCH  76  77
ATOM     77  O   UNL A   1      30.496  31.901  25.036  1.00  0.00    -0.376 OA
BRANCH  77  78
ATOM     78  C   UNL A   1      29.178  31.820  24.535  1.00  0.00     0.202 C 
BRANCH  78  79
ATOM     79  C   UNL A   1      28.726  32.146  23.100  1.00  0.00     0.261 C 
BRANCH  79  80
ATOM     80  O   UNL A   1      27.745  31.299  22.506  1.00  0.00    -0.460 OA
BRANCH  80  81
ATOM     81  C   UNL A   1      28.195  30.414  21.577  1.00  0.00     0.341 C 
ATOM     82  O   UNL A   1      28.170  30.532  20.374  1.00  0.00    -0.246 OA
BRANCH  81  83
ATOM     83  C   UNL A   1      28.958  29.361  22.283  1.00  0.00     0.101 A 
ATOM     84  C   UNL A   1      30.361  29.381  22.206  1.00  0.00     0.022 A 
ATOM     85  C   UNL A   1      28.318  28.371  23.023  1.00  0.00     0.132 A 
ATOM     86  C   UNL A   1      31.121  28.426  22.886  1.00  0.00     0.028 A 
ATOM     87  C   UNL A   1      29.071  27.373  23.642  1.00  0.00     0.073 A 
ATOM     88  C   UNL A   1      30.475  27.383  23.552  1.00  0.00     0.054 A 
BRANCH  85  89
ATOM     89  O   UNL A   1      26.956  28.353  23.105  1.00  0.00    -0.507 OA
ATOM     90  H   UNL A   1      26.471  27.664  22.695  1.00  0.00     0.293 HD
ENDBRANCH  85  89
BRANCH  88  91
ATOM     91  N   UNL A   1      31.224  26.259  23.988  1.00  0.00    -0.261 N 
ATOM     92  C   UNL A   1      31.487  25.195  23.133  1.00  0.00     0.270 C 
ATOM     93  C   UNL A   1      31.647  26.125  25.304  1.00  0.00     0.152 C 
ATOM     94  O   UNL A   1      31.170  25.090  21.956  1.00  0.00    -0.268 OA
ATOM     95  C   UNL A   1      32.277  24.151  23.855  1.00  0.00     0.081 C 
ATOM     96  S   UNL A   1      32.534  24.623  25.487  1.00  0.00    -0.054 SA
ATOM     97  S   UNL A   1      31.364  27.114  26.623  1.00  0.00    -0.051 S 
ATOM     98  C   UNL A   1      32.749  23.047  23.262  1.00  0.00     0.027 C 
BRANCH  98  99
ATOM     99  C   UNL A   1      33.523  22.001  23.895  1.00  0.00    -0.016 C 
ATOM    100  C   UNL A   1      34.841  21.991  24.080  1.00  0.00     0.005 A 
ATOM    101  C   UNL A   1      32.911  20.732  24.426  1.00  0.00     0.179 C 
ATOM    102  C   UNL A   1      35.917  22.886  23.797  1.00  0.00     0.011 A 
ATOM    103  C   UNL A   1      35.068  20.700  24.753  1.00  0.00     0.065 A 
ATOM    104  N   UNL A   1      34.042  19.937  24.971  1.00  0.00    -0.280 NA
ATOM    105  C   UNL A   1      37.162  22.535  24.161  1.00  0.00     0.001 A 
ATOM    106  C   UNL A   1      36.465  20.385  25.123  1.00  0.00     0.028 A 
ATOM    107  C   UNL A   1      37.430  21.272  24.830  1.00  0.00     0.002 A 
ENDBRANCH  98  99
ENDBRANCH  88  91
ENDBRANCH  81  83
ENDBRANCH  80  81
ENDBRANCH  79  80
ENDBRANCH  78  79
ENDBRANCH  77  78
ENDBRANCH  76  77
ENDBRANCH  75  76
ENDBRANCH  74  75
ENDBRANCH   1  74
TORSDOF 26
ENDMDL
MODEL 2
REMARK VINA RESULT:      -9.3      1.815      7.291
REMARK SMILES O=C(OCCOCCOCCOCCOC(=O)c1ccc(N2C(=O)/C(=C/C3=c4ccccc4=NC3)SC2=S)cc1O)c1ccc(-c2c3nc(c(-c4cc(S(=O)(=O)[O-])ccc4F)c4ccc([nH]4)c(-c4cc(S(=O)(=O)[O-])ccc4F)c4nc(c(-c5cc(S(=O)(=O)[O-])ccc5F)c5ccc2[nH]5)C=C4)C=C3)cc1
REMARK SMILES IDX 8 1 7 2 6 3 5 4 4 5 3 6 2 7 1 8 42 9 43 10 104 11 44 12
REMARK SMILES IDX 103 13 45 14 46 15 47 16 97 17 48 18 102 19 96 20 98 21
REMARK SMILES IDX 49 22 101 23 95 24 94 25 50 27 82 28 62 29 81 30 63 31 66 32
REMARK SMILES IDX 80 33 99 34 64 35 65 36 79 38 100 39 67 40 51 41 52 42 60 43
REMARK SMILES IDX 53 44 59 45 61 46 58 47 54 48 55 49 56 50 57 51 83 52 84 53
REMARK SMILES IDX 92 54 85 55 91 56 93 57 90 58 86 59 87 60 88 61 89 62 68 63
REMARK SMILES IDX 69 64 77 65 70 66 76 67 78 68 75 69 71 70 72 71 73 72 74 73
REMARK SMILES IDX 9 74 10 75 11 76 12 77 13 78 14 79 15 80 16 81 17 82 18 83
REMARK SMILES IDX 19 84 40 85 20 86 39 87 21 88 41 89 22 91 23 92 37 93 24 94
REMARK SMILES IDX 25 95 36 96 38 97 26 98 27 99 28 100 35 101 29 102 33 103
REMARK SMILES IDX 34 104 30 105 32 106 31 107
REMARK H PARENT 98 26 66 37 41 90
REMARK Flexibility Score: inf
ROOT
ATOM      1  C   UNL A   1      33.656  31.749  27.892  1.00  0.00     0.188 C 
ENDROOT
BRANCH   1   2
ATOM      2  C   UNL A   1      34.405  32.984  28.371  1.00  0.00     0.188 C 
BRANCH   2   3
ATOM      3  O   UNL A   1      34.242  33.415  29.714  1.00  0.00    -0.376 OA
BRANCH   3   4
ATOM      4  C   UNL A   1      35.343  33.810  30.516  1.00  0.00     0.202 C 
BRANCH   4   5
ATOM      5  C   UNL A   1      35.455  33.374  31.981  1.00  0.00     0.261 C 
BRANCH   5   6
ATOM      6  O   UNL A   1      36.698  32.822  32.441  1.00  0.00    -0.460 OA
BRANCH   6   7
ATOM      7  C   UNL A   1      37.318  31.750  31.873  1.00  0.00     0.338 C 
ATOM      8  O   UNL A   1      36.862  30.619  31.992  1.00  0.00    -0.246 OA
BRANCH   7   9
ATOM      9  C   UNL A   1      38.731  31.952  31.470  1.00  0.00     0.060 A 
ATOM     10  C   UNL A   1      39.047  31.772  30.113  1.00  0.00     0.016 A 
ATOM     11  C   UNL A   1      39.745  32.178  32.397  1.00  0.00     0.016 A 
ATOM     12  C   UNL A   1      40.382  31.724  29.704  1.00  0.00     0.010 A 
ATOM     13  C   UNL A   1      41.075  32.029  32.010  1.00  0.00     0.010 A 
ATOM     14  C   UNL A   1      41.404  31.834  30.657  1.00  0.00    -0.014 A 
BRANCH  14  15
ATOM     15  C   UNL A   1      42.780  32.177  30.242  1.00  0.00     0.031 A 
ATOM     16  C   UNL A   1      43.927  31.221  30.239  1.00  0.00     0.074 A 
ATOM     17  C   UNL A   1      42.957  33.482  29.959  1.00  0.00     0.049 A 
ATOM     18  N   UNL A   1      45.148  31.432  29.818  1.00  0.00    -0.248 NA
ATOM     19  C   UNL A   1      43.698  29.872  30.773  1.00  0.00     0.031 C 
ATOM     20  C   UNL A   1      41.891  34.488  30.018  1.00  0.00     0.029 A 
ATOM     21  N   UNL A   1      44.073  34.196  29.633  1.00  0.00    -0.354 N 
ATOM     22  C   UNL A   1      45.830  30.233  29.985  1.00  0.00     0.074 A 
ATOM     23  C   UNL A   1      44.897  29.315  30.611  1.00  0.00     0.031 C 
ATOM     24  C   UNL A   1      42.416  35.697  29.809  1.00  0.00     0.029 A 
ATOM     25  C   UNL A   1      43.840  35.547  29.554  1.00  0.00     0.049 A 
ATOM     26  H   UNL A   1      44.953  33.787  29.472  1.00  0.00     0.167 HD
ATOM     27  C   UNL A   1      47.108  29.946  29.622  1.00  0.00     0.034 A 
ATOM     28  C   UNL A   1      44.673  36.565  29.279  1.00  0.00     0.034 A 
ATOM     29  C   UNL A   1      48.012  30.931  29.060  1.00  0.00     0.049 A 
ATOM     30  C   UNL A   1      46.064  36.222  28.852  1.00  0.00     0.074 A 
ATOM     31  C   UNL A   1      49.297  30.744  28.580  1.00  0.00     0.029 A 
ATOM     32  N   UNL A   1      47.740  32.289  28.922  1.00  0.00    -0.354 N 
ATOM     33  N   UNL A   1      46.649  35.046  28.834  1.00  0.00    -0.248 NA
ATOM     34  C   UNL A   1      46.889  37.320  28.345  1.00  0.00     0.031 C 
ATOM     35  C   UNL A   1      49.826  31.991  28.234  1.00  0.00     0.029 A 
ATOM     36  C   UNL A   1      48.846  32.955  28.410  1.00  0.00     0.049 A 
ATOM     37  H   UNL A   1      46.884  32.717  29.157  1.00  0.00     0.167 HD
ATOM     38  C   UNL A   1      47.914  35.259  28.306  1.00  0.00     0.074 A 
ATOM     39  C   UNL A   1      47.983  36.671  27.970  1.00  0.00     0.031 C 
ATOM     40  C   UNL A   1      48.925  34.372  28.125  1.00  0.00     0.034 A 
BRANCH  27  41
ATOM     41  C   UNL A   1      47.615  28.523  29.756  1.00  0.00     0.023 A 
ATOM     42  C   UNL A   1      47.506  27.609  28.688  1.00  0.00     0.031 A 
ATOM     43  C   UNL A   1      48.038  28.021  31.003  1.00  0.00     0.131 A 
ATOM     44  C   UNL A   1      47.769  26.246  28.897  1.00  0.00     0.055 A 
ATOM     45  C   UNL A   1      48.345  26.671  31.195  1.00  0.00     0.041 A 
ATOM     46  F   UNL A   1      48.143  28.835  32.067  1.00  0.00    -0.206 F 
ATOM     47  C   UNL A   1      48.195  25.774  30.142  1.00  0.00     0.022 A 
BRANCH  44  48
ATOM     48  S   UNL A   1      47.482  25.011  27.596  1.00  0.00     0.124 S 
ATOM     49  O   UNL A   1      48.774  24.328  27.540  1.00  0.00    -0.237 OA
ATOM     50  O   UNL A   1      46.387  24.225  28.158  1.00  0.00    -0.237 OA
ATOM     51  O   UNL A   1      47.150  25.810  26.422  1.00  0.00    -0.744 OA
ENDBRANCH  44  48
ENDBRANCH  27  41
BRANCH  28  52
ATOM     52  C   UNL A   1      44.098  37.936  29.257  1.00  0.00     0.023 A 
ATOM     53  C   UNL A   1      44.080  38.715  30.430  1.00  0.00     0.031 A 
ATOM     54  C   UNL A   1      43.347  38.370  28.155  1.00  0.00     0.131 A 
ATOM     55  C   UNL A   1      43.250  39.842  30.498  1.00  0.00     0.055 A 
ATOM     56  C   UNL A   1      42.583  39.535  28.203  1.00  0.00     0.041 A 
ATOM     57  F   UNL A   1      43.301  37.631  27.035  1.00  0.00    -0.206 F 
ATOM     58  C   UNL A   1      42.513  40.265  29.387  1.00  0.00     0.022 A 
BRANCH  55  59
ATOM     59  S   UNL A   1      42.948  40.677  32.082  1.00  0.00     0.124 S 
ATOM     60  O   UNL A   1      42.991  39.565  33.025  1.00  0.00    -0.237 OA
ATOM     61  O   UNL A   1      44.073  41.607  32.151  1.00  0.00    -0.237 OA
ATOM     62  O   UNL A   1      41.641  41.301  31.901  1.00  0.00    -0.744 OA
ENDBRANCH  55  59
ENDBRANCH  28  52
BRANCH  40  63
ATOM     63  C   UNL A   1      50.233  34.915  27.595  1.00  0.00     0.023 A 
ATOM     64  C   UNL A   1      50.575  34.767  26.237  1.00  0.00     0.031 A 
ATOM     65  C   UNL A   1      51.178  35.505  28.455  1.00  0.00     0.131 A 
ATOM     66  C   UNL A   1      51.833  35.186  25.786  1.00  0.00     0.055 A 
ATOM     67  C   UNL A   1      52.405  35.975  27.988  1.00  0.00     0.041 A 
ATOM     68  F   UNL A   1      50.909  35.658  29.762  1.00  0.00    -0.206 F 
ATOM     69  C   UNL A   1      52.743  35.804  26.650  1.00  0.00     0.022 A 
BRANCH  66  70
ATOM     70  S   UNL A   1      52.372  34.872  24.083  1.00  0.00     0.124 S 
ATOM     71  O   UNL A   1      51.872  36.055  23.387  1.00  0.00    -0.237 OA
ATOM     72  O   UNL A   1      53.824  34.803  24.229  1.00  0.00    -0.237 OA
ATOM     73  O   UNL A   1      51.717  33.618  23.730  1.00  0.00    -0.744 OA
ENDBRANCH  66  70
ENDBRANCH  40  63
ENDBRANCH  14  15
ENDBRANCH   7   9
ENDBRANCH   6   7
ENDBRANCH   5   6
ENDBRANCH   4   5
ENDBRANCH   3   4
ENDBRANCH   2   3
ENDBRANCH   1   2
BRANCH   1  74
ATOM     74  O   UNL A   1      32.733  32.031  26.861  1.00  0.00    -0.377 OA
BRANCH  74  75
ATOM     75  C   UNL A   1      31.715  31.043  26.729  1.00  0.00     0.188 C 
BRANCH  75  76
ATOM     76  C   UNL A   1      31.037  30.840  25.349  1.00  0.00     0.188 C 
BRANCH  76  77
ATOM     77  O   UNL A   1      30.293  31.919  24.829  1.00  0.00    -0.376 OA
BRANCH  77  78
ATOM     78  C   UNL A   1      28.942  31.834  24.428  1.00  0.00     0.202 C 
BRANCH  78  79
ATOM     79  C   UNL A   1      28.378  32.190  23.041  1.00  0.00     0.261 C 
BRANCH  79  80
ATOM     80  O   UNL A   1      27.556  31.223  22.391  1.00  0.00    -0.460 OA
BRANCH  80  81
ATOM     81  C   UNL A   1      28.166  30.439  21.464  1.00  0.00     0.341 C 
ATOM     82  O   UNL A   1      28.257  30.639  20.274  1.00  0.00    -0.246 OA
BRANCH  81  83
ATOM     83  C   UNL A   1      28.930  29.394  22.181  1.00  0.00     0.101 A 
ATOM     84  C   UNL A   1      30.332  29.407  22.095  1.00  0.00     0.022 A 
ATOM     85  C   UNL A   1      28.291  28.419  22.942  1.00  0.00     0.132 A 
ATOM     86  C   UNL A   1      31.093  28.460  22.785  1.00  0.00     0.028 A 
ATOM     87  C   UNL A   1      29.044  27.428  23.572  1.00  0.00     0.073 A 
ATOM     88  C   UNL A   1      30.447  27.431  23.473  1.00  0.00     0.054 A 
BRANCH  85  89
ATOM     89  O   UNL A   1      26.929  28.408  23.033  1.00  0.00    -0.507 OA
ATOM     90  H   UNL A   1      26.484  29.096  23.488  1.00  0.00     0.293 HD
ENDBRANCH  85  89
BRANCH  88  91
ATOM     91  N   UNL A   1      31.195  26.311  23.922  1.00  0.00    -0.261 N 
ATOM     92  C   UNL A   1      31.473  25.246  23.073  1.00  0.00     0.270 C 
ATOM     93  C   UNL A   1      31.600  26.182  25.244  1.00  0.00     0.152 C 
ATOM     94  O   UNL A   1      31.173  25.136  21.893  1.00  0.00    -0.268 OA
ATOM     95  C   UNL A   1      32.257  24.207  23.809  1.00  0.00     0.081 C 
ATOM     96  S   UNL A   1      32.491  24.684  25.443  1.00  0.00    -0.054 SA
ATOM     97  S   UNL A   1      31.296  27.174  26.556  1.00  0.00    -0.051 S 
ATOM     98  C   UNL A   1      32.742  23.103  23.225  1.00  0.00     0.027 C 
BRANCH  98  99
ATOM     99  C   UNL A   1      33.511  22.062  23.872  1.00  0.00    -0.016 C 
ATOM    100  C   UNL A   1      34.828  22.053  24.065  1.00  0.00     0.005 A 
ATOM    101  C   UNL A   1      32.896  20.797  24.409  1.00  0.00     0.179 C 
ATOM    102  C   UNL A   1      35.906  22.945  23.783  1.00  0.00     0.011 A 
ATOM    103  C   UNL A   1      35.051  20.767  24.750  1.00  0.00     0.065 A 
ATOM    104  N   UNL A   1      34.022  20.006  24.969  1.00  0.00    -0.280 NA
ATOM    105  C   UNL A   1      37.149  22.597  24.157  1.00  0.00     0.001 A 
ATOM    106  C   UNL A   1      36.445  20.455  25.132  1.00  0.00     0.028 A 
ATOM    107  C   UNL A   1      37.412  21.339  24.838  1.00  0.00     0.002 A 
ENDBRANCH  98  99
ENDBRANCH  88  91
ENDBRANCH  81  83
ENDBRANCH  80  81
ENDBRANCH  79  80
ENDBRANCH  78  79
ENDBRANCH  77  78
ENDBRANCH  76  77
ENDBRANCH  75  76
ENDBRANCH  74  75
ENDBRANCH   1  74
TORSDOF 26
ENDMDL
MODEL 3
REMARK VINA RESULT:      -9.3      2.536      3.208
REMARK SMILES O=C(OCCOCCOCCOCCOC(=O)c1ccc(N2C(=O)/C(=C/C3=c4ccccc4=NC3)SC2=S)cc1O)c1ccc(-c2c3nc(c(-c4cc(S(=O)(=O)[O-])ccc4F)c4ccc([nH]4)c(-c4cc(S(=O)(=O)[O-])ccc4F)c4nc(c(-c5cc(S(=O)(=O)[O-])ccc5F)c5ccc2[nH]5)C=C4)C=C3)cc1
REMARK SMILES IDX 8 1 7 2 6 3 5 4 4 5 3 6 2 7 1 8 42 9 43 10 104 11 44 12
REMARK SMILES IDX 103 13 45 14 46 15 47 16 97 17 48 18 102 19 96 20 98 21
REMARK SMILES IDX 49 22 101 23 95 24 94 25 50 27 82 28 62 29 81 30 63 31 66 32
REMARK SMILES IDX 80 33 99 34 64 35 65 36 79 38 100 39 67 40 51 41 52 42 60 43
REMARK SMILES IDX 53 44 59 45 61 46 58 47 54 48 55 49 56 50 57 51 83 52 84 53
REMARK SMILES IDX 92 54 85 55 91 56 93 57 90 58 86 59 87 60 88 61 89 62 68 63
REMARK SMILES IDX 69 64 77 65 70 66 76 67 78 68 75 69 71 70 72 71 73 72 74 73
REMARK SMILES IDX 9 74 10 75 11 76 12 77 13 78 14 79 15 80 16 81 17 82 18 83
REMARK SMILES IDX 19 84 40 85 20 86 39 87 21 88 41 89 22 91 23 92 37 93 24 94
REMARK SMILES IDX 25 95 36 96 38 97 26 98 27 99 28 100 35 101 29 102 33 103
REMARK SMILES IDX 34 104 30 105 32 106 31 107
REMARK H PARENT 98 26 66 37 41 90
REMARK Flexibility Score: inf
ROOT
ATOM      1  C   UNL A   1      34.033  30.891  27.840  1.00  0.00     0.188 C 
ENDROOT
BRANCH   1   2
ATOM      2  C   UNL A   1      35.199  31.784  28.241  1.00  0.00     0.188 C 
BRANCH   2   3
ATOM      3  O   UNL A   1      35.501  31.951  29.618  1.00  0.00    -0.376 OA
BRANCH   3   4
ATOM      4  C   UNL A   1      36.594  32.741  30.058  1.00  0.00     0.202 C 
BRANCH   4   5
ATOM      5  C   UNL A   1      36.482  33.626  31.303  1.00  0.00     0.261 C 
BRANCH   5   6
ATOM      6  O   UNL A   1      37.598  33.689  32.205  1.00  0.00    -0.460 OA
BRANCH   6   7
ATOM      7  C   UNL A   1      38.654  32.829  32.179  1.00  0.00     0.338 C 
ATOM      8  O   UNL A   1      38.704  31.865  32.934  1.00  0.00    -0.246 OA
BRANCH   7   9
ATOM      9  C   UNL A   1      39.881  33.324  31.510  1.00  0.00     0.060 A 
ATOM     10  C   UNL A   1      40.844  33.958  32.314  1.00  0.00     0.016 A 
ATOM     11  C   UNL A   1      40.040  33.293  30.127  1.00  0.00     0.016 A 
ATOM     12  C   UNL A   1      41.910  34.642  31.724  1.00  0.00     0.010 A 
ATOM     13  C   UNL A   1      41.043  34.058  29.533  1.00  0.00     0.010 A 
ATOM     14  C   UNL A   1      42.003  34.710  30.327  1.00  0.00    -0.014 A 
BRANCH  14  15
ATOM     15  C   UNL A   1      43.281  35.068  29.679  1.00  0.00     0.031 A 
ATOM     16  C   UNL A   1      43.558  36.377  29.016  1.00  0.00     0.074 A 
ATOM     17  C   UNL A   1      44.173  34.060  29.634  1.00  0.00     0.049 A 
ATOM     18  N   UNL A   1      44.683  36.790  28.489  1.00  0.00    -0.248 NA
ATOM     19  C   UNL A   1      42.455  37.342  28.916  1.00  0.00     0.031 C 
ATOM     20  C   UNL A   1      43.936  32.726  30.197  1.00  0.00     0.029 A 
ATOM     21  N   UNL A   1      45.405  33.964  29.056  1.00  0.00    -0.354 N 
ATOM     22  C   UNL A   1      44.449  38.083  28.036  1.00  0.00     0.074 A 
ATOM     23  C   UNL A   1      43.048  38.359  28.293  1.00  0.00     0.031 C 
ATOM     24  C   UNL A   1      44.954  31.926  29.875  1.00  0.00     0.029 A 
ATOM     25  C   UNL A   1      45.934  32.699  29.129  1.00  0.00     0.049 A 
ATOM     26  H   UNL A   1      45.867  34.722  28.630  1.00  0.00     0.167 HD
ATOM     27  C   UNL A   1      45.342  38.943  27.481  1.00  0.00     0.034 A 
ATOM     28  C   UNL A   1      47.097  32.208  28.670  1.00  0.00     0.034 A 
ATOM     29  C   UNL A   1      46.716  38.580  27.191  1.00  0.00     0.049 A 
ATOM     30  C   UNL A   1      48.077  33.179  28.092  1.00  0.00     0.074 A 
ATOM     31  C   UNL A   1      47.734  39.384  26.706  1.00  0.00     0.029 A 
ATOM     32  N   UNL A   1      47.260  37.307  27.332  1.00  0.00    -0.354 N 
ATOM     33  N   UNL A   1      47.909  34.457  27.838  1.00  0.00    -0.248 NA
ATOM     34  C   UNL A   1      49.418  32.671  27.802  1.00  0.00     0.031 C 
ATOM     35  C   UNL A   1      48.859  38.585  26.478  1.00  0.00     0.029 A 
ATOM     36  C   UNL A   1      48.581  37.295  26.903  1.00  0.00     0.049 A 
ATOM     37  H   UNL A   1      46.777  36.525  27.685  1.00  0.00     0.167 HD
ATOM     38  C   UNL A   1      49.130  34.912  27.361  1.00  0.00     0.074 A 
ATOM     39  C   UNL A   1      50.037  33.779  27.415  1.00  0.00     0.031 C 
ATOM     40  C   UNL A   1      49.465  36.149  26.912  1.00  0.00     0.034 A 
BRANCH  27  41
ATOM     41  C   UNL A   1      44.916  40.370  27.192  1.00  0.00     0.023 A 
ATOM     42  C   UNL A   1      44.464  40.748  25.911  1.00  0.00     0.031 A 
ATOM     43  C   UNL A   1      45.134  41.394  28.135  1.00  0.00     0.131 A 
ATOM     44  C   UNL A   1      44.291  42.105  25.597  1.00  0.00     0.055 A 
ATOM     45  C   UNL A   1      44.915  42.741  27.832  1.00  0.00     0.041 A 
ATOM     46  F   UNL A   1      45.584  41.104  29.367  1.00  0.00    -0.206 F 
ATOM     47  C   UNL A   1      44.507  43.102  26.553  1.00  0.00     0.022 A 
BRANCH  44  48
ATOM     48  S   UNL A   1      43.871  42.646  23.915  1.00  0.00     0.124 S 
ATOM     49  O   UNL A   1      42.667  41.864  23.639  1.00  0.00    -0.237 OA
ATOM     50  O   UNL A   1      43.652  44.078  24.100  1.00  0.00    -0.237 OA
ATOM     51  O   UNL A   1      45.043  42.282  23.126  1.00  0.00    -0.744 OA
ENDBRANCH  44  48
ENDBRANCH  27  41
BRANCH  28  52
ATOM     52  C   UNL A   1      47.386  30.773  28.926  1.00  0.00     0.023 A 
ATOM     53  C   UNL A   1      46.871  29.782  28.068  1.00  0.00     0.031 A 
ATOM     54  C   UNL A   1      47.949  30.372  30.148  1.00  0.00     0.131 A 
ATOM     55  C   UNL A   1      46.850  28.446  28.489  1.00  0.00     0.055 A 
ATOM     56  C   UNL A   1      47.995  29.032  30.527  1.00  0.00     0.041 A 
ATOM     57  F   UNL A   1      48.408  31.289  31.013  1.00  0.00    -0.206 F 
ATOM     58  C   UNL A   1      47.422  28.063  29.707  1.00  0.00     0.022 A 
BRANCH  55  59
ATOM     59  S   UNL A   1      45.908  27.197  27.567  1.00  0.00     0.124 S 
ATOM     60  O   UNL A   1      46.303  27.473  26.191  1.00  0.00    -0.237 OA
ATOM     61  O   UNL A   1      46.423  25.953  28.135  1.00  0.00    -0.237 OA
ATOM     62  O   UNL A   1      44.518  27.496  27.898  1.00  0.00    -0.744 OA
ENDBRANCH  55  59
ENDBRANCH  28  52
BRANCH  40  63
ATOM     63  C   UNL A   1      50.867  36.331  26.374  1.00  0.00     0.023 A 
ATOM     64  C   UNL A   1      51.924  36.692  27.231  1.00  0.00     0.031 A 
ATOM     65  C   UNL A   1      51.136  36.229  24.996  1.00  0.00     0.131 A 
ATOM     66  C   UNL A   1      53.192  36.955  26.698  1.00  0.00     0.055 A 
ATOM     67  C   UNL A   1      52.415  36.433  24.479  1.00  0.00     0.041 A 
ATOM     68  F   UNL A   1      50.160  35.901  24.133  1.00  0.00    -0.206 F 
ATOM     69  C   UNL A   1      53.448  36.811  25.331  1.00  0.00     0.022 A 
BRANCH  66  70
ATOM     70  S   UNL A   1      54.539  37.572  27.744  1.00  0.00     0.124 S 
ATOM     71  O   UNL A   1      55.719  37.207  26.962  1.00  0.00    -0.237 OA
ATOM     72  O   UNL A   1      54.251  39.003  27.803  1.00  0.00    -0.237 OA
ATOM     73  O   UNL A   1      54.374  36.847  28.998  1.00  0.00    -0.744 OA
ENDBRANCH  66  70
ENDBRANCH  40  63
ENDBRANCH  14  15
ENDBRANCH   7   9
ENDBRANCH   6   7
ENDBRANCH   5   6
ENDBRANCH   4   5
ENDBRANCH   3   4
ENDBRANCH   2   3
ENDBRANCH   1   2
BRANCH   1  74
ATOM     74  O   UNL A   1      33.137  31.522  26.950  1.00  0.00    -0.377 OA
BRANCH  74  75
ATOM     75  C   UNL A   1      31.894  30.838  26.821  1.00  0.00     0.188 C 
BRANCH  75  76
ATOM     76  C   UNL A   1      31.202  30.790  25.434  1.00  0.00     0.188 C 
BRANCH  76  77
ATOM     77  O   UNL A   1      30.442  31.914  25.050  1.00  0.00    -0.376 OA
BRANCH  77  78
ATOM     78  C   UNL A   1      29.151  31.847  24.484  1.00  0.00     0.202 C 
BRANCH  78  79
ATOM     79  C   UNL A   1      28.785  32.105  23.013  1.00  0.00     0.261 C 
BRANCH  79  80
ATOM     80  O   UNL A   1      27.756  31.305  22.435  1.00  0.00    -0.460 OA
BRANCH  80  81
ATOM     81  C   UNL A   1      28.153  30.378  21.523  1.00  0.00     0.341 C 
ATOM     82  O   UNL A   1      28.079  30.450  20.318  1.00  0.00    -0.246 OA
BRANCH  81  83
ATOM     83  C   UNL A   1      28.932  29.342  22.237  1.00  0.00     0.101 A 
ATOM     84  C   UNL A   1      30.333  29.368  22.143  1.00  0.00     0.022 A 
ATOM     85  C   UNL A   1      28.306  28.361  23.002  1.00  0.00     0.132 A 
ATOM     86  C   UNL A   1      31.107  28.429  22.829  1.00  0.00     0.028 A 
ATOM     87  C   UNL A   1      29.073  27.377  23.628  1.00  0.00     0.073 A 
ATOM     88  C   UNL A   1      30.475  27.394  23.520  1.00  0.00     0.054 A 
BRANCH  85  89
ATOM     89  O   UNL A   1      26.945  28.336  23.100  1.00  0.00    -0.507 OA
ATOM     90  H   UNL A   1      26.455  27.675  22.653  1.00  0.00     0.293 HD
ENDBRANCH  85  89
BRANCH  88  91
ATOM     91  N   UNL A   1      31.236  26.281  23.966  1.00  0.00    -0.261 N 
ATOM     92  C   UNL A   1      31.522  25.219  23.116  1.00  0.00     0.270 C 
ATOM     93  C   UNL A   1      31.649  26.156  25.287  1.00  0.00     0.152 C 
ATOM     94  O   UNL A   1      31.217  25.107  21.936  1.00  0.00    -0.268 OA
ATOM     95  C   UNL A   1      32.320  24.189  23.848  1.00  0.00     0.081 C 
ATOM     96  S   UNL A   1      32.556  24.668  25.481  1.00  0.00    -0.054 SA
ATOM     97  S   UNL A   1      31.340  27.145  26.600  1.00  0.00    -0.051 S 
ATOM     98  C   UNL A   1      32.813  23.089  23.261  1.00  0.00     0.027 C 
BRANCH  98  99
ATOM     99  C   UNL A   1      33.596  22.057  23.904  1.00  0.00    -0.016 C 
ATOM    100  C   UNL A   1      34.913  22.062  24.095  1.00  0.00     0.005 A 
ATOM    101  C   UNL A   1      32.996  20.784  24.441  1.00  0.00     0.179 C 
ATOM    102  C   UNL A   1      35.981  22.967  23.811  1.00  0.00     0.011 A 
ATOM    103  C   UNL A   1      35.152  20.778  24.777  1.00  0.00     0.065 A 
ATOM    104  N   UNL A   1      34.133  20.005  24.996  1.00  0.00    -0.280 NA
ATOM    105  C   UNL A   1      37.228  22.632  24.181  1.00  0.00     0.001 A 
ATOM    106  C   UNL A   1      36.550  20.481  25.154  1.00  0.00     0.028 A 
ATOM    107  C   UNL A   1      37.507  21.377  24.859  1.00  0.00     0.002 A 
ENDBRANCH  98  99
ENDBRANCH  88  91
ENDBRANCH  81  83
ENDBRANCH  80  81
ENDBRANCH  79  80
ENDBRANCH  78  79
ENDBRANCH  77  78
ENDBRANCH  76  77
ENDBRANCH  75  76
ENDBRANCH  74  75
ENDBRANCH   1  74
TORSDOF 26
ENDMDL
