MODEL 1
REMARK VINA RESULT:      -7.1      0.000      0.000
REMARK SMILES CCC(=O)Nc1ccc(NC(=O)[C@@H]2CC=CC[C@@H]2C(=O)OCCOCCOCCOCCOC(=O)c2ccc(-c3c4nc(c(-c5cc(S(=O)(=O)[O-])ccc5F)c5ccc([nH]5)c(-c5cc(S(=O)(=O)[O-])ccc5F)c5nc(c(-c6cc(S(=O)(=O)[O-])ccc6F)c6ccc3[nH]6)C=C5)C=C4)cc2)cc1
REMARK SMILES IDX 26 1 25 2 24 3 23 4 22 5 21 6 19 7 20 8 18 9 13 10 14 11
REMARK SMILES IDX 15 12 17 13 16 14 11 15 10 16 12 18 9 19 6 20 7 21 100 22
REMARK SMILES IDX 8 23 99 24 5 25 3 26 4 27 2 29 1 30 27 31 28 32 29 33 30 34
REMARK SMILES IDX 31 35 32 36 33 37 34 38 35 39 36 40 37 41 98 42 38 43 97 44
REMARK SMILES IDX 39 45 40 46 41 47 91 48 42 49 96 50 90 51 92 52 43 53 95 54
REMARK SMILES IDX 89 55 88 56 44 58 76 59 56 60 75 61 57 62 60 63 74 64 93 65
REMARK SMILES IDX 58 66 59 67 73 69 94 70 61 71 45 72 46 73 54 74 47 75 53 76
REMARK SMILES IDX 55 77 52 78 48 79 49 80 50 81 51 82 77 83 78 84 86 85 79 86
REMARK SMILES IDX 85 87 87 88 84 89 80 90 81 91 82 92 83 93 62 94 63 95 71 96
REMARK SMILES IDX 64 97 70 98 72 99 69 100 65 101 66 102 67 103 68 104
REMARK H PARENT 10 17 5 28 92 57 60 68
REMARK Flexibility Score: inf
ROOT
ATOM      1  C   UNL A   1      37.365  31.640  38.242  1.00  0.00     0.188 C 
ENDROOT
BRANCH   1   2
ATOM      2  C   UNL A   1      37.348  32.742  37.159  1.00  0.00     0.188 C 
BRANCH   2   3
ATOM      3  O   UNL A   1      37.379  32.432  35.770  1.00  0.00    -0.376 OA
BRANCH   3   4
ATOM      4  C   UNL A   1      38.275  31.449  35.280  1.00  0.00     0.202 C 
BRANCH   4   5
ATOM      5  C   UNL A   1      38.299  31.140  33.777  1.00  0.00     0.261 C 
BRANCH   5   6
ATOM      6  O   UNL A   1      37.035  31.150  33.099  1.00  0.00    -0.463 OA
BRANCH   6   7
ATOM      7  C   UNL A   1      36.928  31.938  32.005  1.00  0.00     0.310 C 
ATOM      8  O   UNL A   1      36.617  33.124  32.018  1.00  0.00    -0.252 OA
BRANCH   7   9
ATOM      9  C   UNL A   1      37.241  31.198  30.710  1.00  0.00     0.116 C 
ATOM     10  C   UNL A   1      38.159  31.967  29.764  1.00  0.00     0.097 C 
ATOM     11  C   UNL A   1      37.471  33.105  29.009  1.00  0.00     0.041 C 
ATOM     12  C   UNL A   1      36.243  32.583  28.320  1.00  0.00    -0.030 C 
ATOM     13  C   UNL A   1      36.059  30.621  29.896  1.00  0.00     0.043 C 
ATOM     14  C   UNL A   1      35.636  31.443  28.692  1.00  0.00    -0.030 C 
BRANCH  10  15
ATOM     15  C   UNL A   1      39.450  32.399  30.422  1.00  0.00     0.228 C 
ATOM     16  N   UNL A   1      40.406  31.454  30.683  1.00  0.00    -0.326 N 
ATOM     17  H   UNL A   1      41.113  31.745  31.303  1.00  0.00     0.169 HD
ATOM     18  O   UNL A   1      39.624  33.544  30.836  1.00  0.00    -0.274 OA
BRANCH  16  19
ATOM     19  C   UNL A   1      40.545  30.138  30.214  1.00  0.00     0.041 A 
ATOM     20  C   UNL A   1      41.101  27.575  29.205  1.00  0.00     0.041 A 
ATOM     21  C   UNL A   1      40.639  27.721  30.506  1.00  0.00     0.028 A 
ATOM     22  C   UNL A   1      41.138  28.694  28.377  1.00  0.00     0.028 A 
ATOM     23  C   UNL A   1      40.340  28.994  30.993  1.00  0.00     0.028 A 
ATOM     24  C   UNL A   1      40.882  29.972  28.877  1.00  0.00     0.028 A 
BRANCH  20  25
ATOM     25  N   UNL A   1      41.402  26.287  28.753  1.00  0.00    -0.326 N 
ATOM     26  C   UNL A   1      40.576  25.283  28.334  1.00  0.00     0.224 C 
ATOM     27  O   UNL A   1      41.026  24.136  28.261  1.00  0.00    -0.275 OA
ATOM     28  H   UNL A   1      42.362  26.070  28.734  1.00  0.00     0.169 HD
BRANCH  26  29
ATOM     29  C   UNL A   1      39.191  25.603  27.793  1.00  0.00     0.097 C 
ATOM     30  C   UNL A   1      38.632  24.637  26.770  1.00  0.00     0.014 C 
ENDBRANCH  26  29
ENDBRANCH  20  25
ENDBRANCH  16  19
ENDBRANCH  10  15
ENDBRANCH   7   9
ENDBRANCH   6   7
ENDBRANCH   5   6
ENDBRANCH   4   5
ENDBRANCH   3   4
ENDBRANCH   2   3
ENDBRANCH   1   2
BRANCH   1  31
ATOM     31  O   UNL A   1      36.276  31.633  39.143  1.00  0.00    -0.377 OA
BRANCH  31  32
ATOM     32  C   UNL A   1      36.513  32.285  40.377  1.00  0.00     0.188 C 
BRANCH  32  33
ATOM     33  C   UNL A   1      37.984  32.313  40.829  1.00  0.00     0.188 C 
BRANCH  33  34
ATOM     34  O   UNL A   1      38.234  33.255  41.865  1.00  0.00    -0.376 OA
BRANCH  34  35
ATOM     35  C   UNL A   1      39.049  34.386  41.618  1.00  0.00     0.202 C 
BRANCH  35  36
ATOM     36  C   UNL A   1      38.837  35.173  40.313  1.00  0.00     0.261 C 
BRANCH  36  37
ATOM     37  O   UNL A   1      39.870  35.072  39.327  1.00  0.00    -0.460 OA
BRANCH  37  38
ATOM     38  C   UNL A   1      39.876  36.011  38.356  1.00  0.00     0.338 C 
ATOM     39  O   UNL A   1      39.576  37.187  38.485  1.00  0.00    -0.246 OA
BRANCH  38  40
ATOM     40  C   UNL A   1      40.530  35.432  37.163  1.00  0.00     0.060 A 
ATOM     41  C   UNL A   1      39.723  35.050  36.084  1.00  0.00     0.016 A 
ATOM     42  C   UNL A   1      41.918  35.284  37.097  1.00  0.00     0.016 A 
ATOM     43  C   UNL A   1      40.296  34.478  34.952  1.00  0.00     0.010 A 
ATOM     44  C   UNL A   1      42.490  34.675  35.976  1.00  0.00     0.010 A 
ATOM     45  C   UNL A   1      41.672  34.231  34.920  1.00  0.00    -0.014 A 
BRANCH  45  46
ATOM     46  C   UNL A   1      42.189  33.271  33.916  1.00  0.00     0.031 A 
ATOM     47  C   UNL A   1      42.539  33.808  32.553  1.00  0.00     0.074 A 
ATOM     48  C   UNL A   1      42.419  31.984  34.223  1.00  0.00     0.049 A 
ATOM     49  N   UNL A   1      43.011  33.186  31.507  1.00  0.00    -0.248 NA
ATOM     50  C   UNL A   1      42.322  35.250  32.350  1.00  0.00     0.031 C 
ATOM     51  C   UNL A   1      42.176  31.371  35.527  1.00  0.00     0.029 A 
ATOM     52  N   UNL A   1      42.913  30.961  33.455  1.00  0.00    -0.354 N 
ATOM     53  C   UNL A   1      43.145  34.157  30.520  1.00  0.00     0.074 A 
ATOM     54  C   UNL A   1      42.660  35.399  31.081  1.00  0.00     0.031 C 
ATOM     55  C   UNL A   1      42.511  30.070  35.465  1.00  0.00     0.029 A 
ATOM     56  C   UNL A   1      42.956  29.752  34.108  1.00  0.00     0.049 A 
ATOM     57  H   UNL A   1      43.209  31.079  32.524  1.00  0.00     0.167 HD
ATOM     58  C   UNL A   1      43.639  34.027  29.265  1.00  0.00     0.034 A 
ATOM     59  C   UNL A   1      43.287  28.527  33.652  1.00  0.00     0.034 A 
ATOM     60  C   UNL A   1      44.101  32.774  28.719  1.00  0.00     0.049 A 
ATOM     61  C   UNL A   1      43.744  28.382  32.218  1.00  0.00     0.074 A 
ATOM     62  C   UNL A   1      44.625  32.521  27.465  1.00  0.00     0.029 A 
ATOM     63  N   UNL A   1      44.076  31.558  29.392  1.00  0.00    -0.354 N 
ATOM     64  N   UNL A   1      43.875  29.308  31.293  1.00  0.00    -0.248 NA
ATOM     65  C   UNL A   1      44.110  27.033  31.772  1.00  0.00     0.031 C 
ATOM     66  C   UNL A   1      44.831  31.143  27.347  1.00  0.00     0.029 A 
ATOM     67  C   UNL A   1      44.535  30.545  28.562  1.00  0.00     0.049 A 
ATOM     68  H   UNL A   1      43.776  31.432  30.321  1.00  0.00     0.167 HD
ATOM     69  C   UNL A   1      44.369  28.653  30.166  1.00  0.00     0.074 A 
ATOM     70  C   UNL A   1      44.527  27.261  30.536  1.00  0.00     0.031 C 
ATOM     71  C   UNL A   1      44.673  29.156  28.940  1.00  0.00     0.034 A 
BRANCH  58  72
ATOM     72  C   UNL A   1      43.633  35.257  28.389  1.00  0.00     0.023 A 
ATOM     73  C   UNL A   1      44.798  36.009  28.150  1.00  0.00     0.031 A 
ATOM     74  C   UNL A   1      42.429  35.720  27.830  1.00  0.00     0.131 A 
ATOM     75  C   UNL A   1      44.717  37.222  27.450  1.00  0.00     0.055 A 
ATOM     76  C   UNL A   1      42.372  36.879  27.054  1.00  0.00     0.041 A 
ATOM     77  F   UNL A   1      41.277  35.065  28.047  1.00  0.00    -0.206 F 
ATOM     78  C   UNL A   1      43.517  37.648  26.875  1.00  0.00     0.022 A 
BRANCH  75  79
ATOM     79  S   UNL A   1      46.161  38.321  27.452  1.00  0.00     0.124 S 
ATOM     80  O   UNL A   1      47.218  37.418  27.900  1.00  0.00    -0.237 OA
ATOM     81  O   UNL A   1      46.233  38.751  26.061  1.00  0.00    -0.237 OA
ATOM     82  O   UNL A   1      45.795  39.364  28.410  1.00  0.00    -0.744 OA
ENDBRANCH  75  79
ENDBRANCH  58  72
BRANCH  59  83
ATOM     83  C   UNL A   1      43.151  27.332  34.536  1.00  0.00     0.023 A 
ATOM     84  C   UNL A   1      44.250  26.797  35.226  1.00  0.00     0.031 A 
ATOM     85  C   UNL A   1      41.914  26.672  34.657  1.00  0.00     0.131 A 
ATOM     86  C   UNL A   1      44.100  25.615  35.972  1.00  0.00     0.055 A 
ATOM     87  C   UNL A   1      41.757  25.533  35.448  1.00  0.00     0.041 A 
ATOM     88  F   UNL A   1      40.831  27.135  34.011  1.00  0.00    -0.206 F 
ATOM     89  C   UNL A   1      42.857  24.990  36.100  1.00  0.00     0.022 A 
BRANCH  86  90
ATOM     90  S   UNL A   1      45.576  24.852  36.699  1.00  0.00     0.124 S 
ATOM     91  O   UNL A   1      45.003  24.102  37.812  1.00  0.00    -0.237 OA
ATOM     92  O   UNL A   1      46.088  24.060  35.587  1.00  0.00    -0.237 OA
ATOM     93  O   UNL A   1      46.400  25.999  37.078  1.00  0.00    -0.744 OA
ENDBRANCH  86  90
ENDBRANCH  59  83
BRANCH  71  94
ATOM     94  C   UNL A   1      45.255  28.198  27.925  1.00  0.00     0.023 A 
ATOM     95  C   UNL A   1      44.443  27.377  27.123  1.00  0.00     0.031 A 
ATOM     96  C   UNL A   1      46.650  28.099  27.767  1.00  0.00     0.131 A 
ATOM     97  C   UNL A   1      45.032  26.447  26.253  1.00  0.00     0.055 A 
ATOM     98  C   UNL A   1      47.228  27.225  26.845  1.00  0.00     0.041 A 
ATOM     99  F   UNL A   1      47.478  28.854  28.507  1.00  0.00    -0.206 F 
ATOM    100  C   UNL A   1      46.418  26.380  26.093  1.00  0.00     0.022 A 
BRANCH  97 101
ATOM    101  S   UNL A   1      43.965  25.237  25.421  1.00  0.00     0.124 S 
ATOM    102  O   UNL A   1      43.521  24.409  26.536  1.00  0.00    -0.237 OA
ATOM    103  O   UNL A   1      42.947  26.086  24.812  1.00  0.00    -0.237 OA
ATOM    104  O   UNL A   1      44.867  24.577  24.479  1.00  0.00    -0.744 OA
ENDBRANCH  97 101
ENDBRANCH  71  94
ENDBRANCH  45  46
ENDBRANCH  38  40
ENDBRANCH  37  38
ENDBRANCH  36  37
ENDBRANCH  35  36
ENDBRANCH  34  35
ENDBRANCH  33  34
ENDBRANCH  32  33
ENDBRANCH  31  32
ENDBRANCH   1  31
TORSDOF 27
ENDMDL
MODEL 2
REMARK VINA RESULT:      -6.7      2.472      9.799
REMARK SMILES CCC(=O)Nc1ccc(NC(=O)[C@@H]2CC=CC[C@@H]2C(=O)OCCOCCOCCOCCOC(=O)c2ccc(-c3c4nc(c(-c5cc(S(=O)(=O)[O-])ccc5F)c5ccc([nH]5)c(-c5cc(S(=O)(=O)[O-])ccc5F)c5nc(c(-c6cc(S(=O)(=O)[O-])ccc6F)c6ccc3[nH]6)C=C5)C=C4)cc2)cc1
REMARK SMILES IDX 26 1 25 2 24 3 23 4 22 5 21 6 19 7 20 8 18 9 13 10 14 11
REMARK SMILES IDX 15 12 17 13 16 14 11 15 10 16 12 18 9 19 6 20 7 21 100 22
REMARK SMILES IDX 8 23 99 24 5 25 3 26 4 27 2 29 1 30 27 31 28 32 29 33 30 34
REMARK SMILES IDX 31 35 32 36 33 37 34 38 35 39 36 40 37 41 98 42 38 43 97 44
REMARK SMILES IDX 39 45 40 46 41 47 91 48 42 49 96 50 90 51 92 52 43 53 95 54
REMARK SMILES IDX 89 55 88 56 44 58 76 59 56 60 75 61 57 62 60 63 74 64 93 65
REMARK SMILES IDX 58 66 59 67 73 69 94 70 61 71 45 72 46 73 54 74 47 75 53 76
REMARK SMILES IDX 55 77 52 78 48 79 49 80 50 81 51 82 77 83 78 84 86 85 79 86
REMARK SMILES IDX 85 87 87 88 84 89 80 90 81 91 82 92 83 93 62 94 63 95 71 96
REMARK SMILES IDX 64 97 70 98 72 99 69 100 65 101 66 102 67 103 68 104
REMARK H PARENT 10 17 5 28 92 57 60 68
REMARK Flexibility Score: inf
ROOT
ATOM      1  C   UNL A   1      42.837  22.708  26.232  1.00  0.00     0.188 C 
ENDROOT
BRANCH   1   2
ATOM      2  C   UNL A   1      42.506  24.209  26.396  1.00  0.00     0.188 C 
BRANCH   2   3
ATOM      3  O   UNL A   1      43.179  25.027  27.347  1.00  0.00    -0.376 OA
BRANCH   3   4
ATOM      4  C   UNL A   1      42.451  25.650  28.391  1.00  0.00     0.202 C 
BRANCH   4   5
ATOM      5  C   UNL A   1      41.221  26.500  28.043  1.00  0.00     0.261 C 
BRANCH   5   6
ATOM      6  O   UNL A   1      40.221  26.632  29.063  1.00  0.00    -0.463 OA
BRANCH   6   7
ATOM      7  C   UNL A   1      40.155  27.817  29.711  1.00  0.00     0.310 C 
ATOM      8  O   UNL A   1      41.098  28.584  29.877  1.00  0.00    -0.252 OA
BRANCH   7   9
ATOM      9  C   UNL A   1      38.757  28.128  30.233  1.00  0.00     0.116 C 
ATOM     10  C   UNL A   1      38.246  29.514  29.844  1.00  0.00     0.097 C 
ATOM     11  C   UNL A   1      38.860  30.658  30.652  1.00  0.00     0.041 C 
ATOM     12  C   UNL A   1      38.705  30.378  32.120  1.00  0.00    -0.030 C 
ATOM     13  C   UNL A   1      38.471  27.896  31.734  1.00  0.00     0.043 C 
ATOM     14  C   UNL A   1      38.486  29.142  32.600  1.00  0.00    -0.030 C 
BRANCH  10  15
ATOM     15  C   UNL A   1      38.294  29.760  28.353  1.00  0.00     0.228 C 
ATOM     16  N   UNL A   1      37.409  30.647  27.802  1.00  0.00    -0.326 N 
ATOM     17  H   UNL A   1      37.335  30.599  26.822  1.00  0.00     0.169 HD
ATOM     18  O   UNL A   1      39.018  29.105  27.604  1.00  0.00    -0.274 OA
BRANCH  16  19
ATOM     19  C   UNL A   1      36.589  31.616  28.403  1.00  0.00     0.041 A 
ATOM     20  C   UNL A   1      34.904  33.359  29.822  1.00  0.00     0.041 A 
ATOM     21  C   UNL A   1      36.187  33.763  29.478  1.00  0.00     0.028 A 
ATOM     22  C   UNL A   1      34.427  32.150  29.324  1.00  0.00     0.028 A 
ATOM     23  C   UNL A   1      37.010  32.903  28.751  1.00  0.00     0.028 A 
ATOM     24  C   UNL A   1      35.264  31.271  28.635  1.00  0.00     0.028 A 
BRANCH  20  25
ATOM     25  N   UNL A   1      34.110  34.242  30.561  1.00  0.00    -0.326 N 
ATOM     26  C   UNL A   1      33.873  34.301  31.905  1.00  0.00     0.224 C 
ATOM     27  O   UNL A   1      32.916  34.966  32.310  1.00  0.00    -0.275 OA
ATOM     28  H   UNL A   1      33.649  34.929  30.028  1.00  0.00     0.169 HD
BRANCH  26  29
ATOM     29  C   UNL A   1      34.874  33.714  32.888  1.00  0.00     0.097 C 
ATOM     30  C   UNL A   1      36.006  34.625  33.316  1.00  0.00     0.014 C 
ENDBRANCH  26  29
ENDBRANCH  20  25
ENDBRANCH  16  19
ENDBRANCH  10  15
ENDBRANCH   7   9
ENDBRANCH   6   7
ENDBRANCH   5   6
ENDBRANCH   4   5
ENDBRANCH   3   4
ENDBRANCH   2   3
ENDBRANCH   1   2
BRANCH   1  31
ATOM     31  O   UNL A   1      44.209  22.368  26.237  1.00  0.00    -0.377 OA
BRANCH  31  32
ATOM     32  C   UNL A   1      44.662  21.685  25.081  1.00  0.00     0.188 C 
BRANCH  32  33
ATOM     33  C   UNL A   1      44.992  22.585  23.877  1.00  0.00     0.188 C 
BRANCH  33  34
ATOM     34  O   UNL A   1      45.361  23.907  24.251  1.00  0.00    -0.376 OA
BRANCH  34  35
ATOM     35  C   UNL A   1      46.620  24.153  24.849  1.00  0.00     0.202 C 
BRANCH  35  36
ATOM     36  C   UNL A   1      47.514  25.253  24.249  1.00  0.00     0.261 C 
BRANCH  36  37
ATOM     37  O   UNL A   1      47.532  26.511  24.933  1.00  0.00    -0.460 OA
BRANCH  37  38
ATOM     38  C   UNL A   1      47.990  26.504  26.204  1.00  0.00     0.338 C 
ATOM     39  O   UNL A   1      49.044  26.025  26.590  1.00  0.00    -0.246 OA
BRANCH  38  40
ATOM     40  C   UNL A   1      47.111  27.377  27.010  1.00  0.00     0.060 A 
ATOM     41  C   UNL A   1      47.691  28.139  28.033  1.00  0.00     0.016 A 
ATOM     42  C   UNL A   1      45.741  27.463  26.752  1.00  0.00     0.016 A 
ATOM     43  C   UNL A   1      46.895  28.956  28.832  1.00  0.00     0.010 A 
ATOM     44  C   UNL A   1      44.936  28.255  27.578  1.00  0.00     0.010 A 
ATOM     45  C   UNL A   1      45.509  28.968  28.648  1.00  0.00    -0.014 A 
BRANCH  45  46
ATOM     46  C   UNL A   1      44.662  29.501  29.741  1.00  0.00     0.031 A 
ATOM     47  C   UNL A   1      44.170  30.918  29.614  1.00  0.00     0.074 A 
ATOM     48  C   UNL A   1      44.272  28.732  30.770  1.00  0.00     0.049 A 
ATOM     49  N   UNL A   1      43.417  31.616  30.421  1.00  0.00    -0.248 NA
ATOM     50  C   UNL A   1      44.593  31.645  28.405  1.00  0.00     0.031 C 
ATOM     51  C   UNL A   1      44.636  27.329  30.962  1.00  0.00     0.029 A 
ATOM     52  N   UNL A   1      43.479  29.026  31.850  1.00  0.00    -0.354 N 
ATOM     53  C   UNL A   1      43.277  32.864  29.821  1.00  0.00     0.074 A 
ATOM     54  C   UNL A   1      44.062  32.839  28.607  1.00  0.00     0.031 C 
ATOM     55  C   UNL A   1      44.076  26.887  32.102  1.00  0.00     0.029 A 
ATOM     56  C   UNL A   1      43.346  27.984  32.737  1.00  0.00     0.049 A 
ATOM     57  H   UNL A   1      43.044  29.900  31.979  1.00  0.00     0.167 HD
ATOM     58  C   UNL A   1      42.549  33.928  30.240  1.00  0.00     0.034 A 
ATOM     59  C   UNL A   1      42.731  27.935  33.936  1.00  0.00     0.034 A 
ATOM     60  C   UNL A   1      41.788  33.937  31.464  1.00  0.00     0.049 A 
ATOM     61  C   UNL A   1      42.005  29.164  34.434  1.00  0.00     0.074 A 
ATOM     62  C   UNL A   1      41.010  34.953  31.988  1.00  0.00     0.029 A 
ATOM     63  N   UNL A   1      41.723  32.882  32.367  1.00  0.00    -0.354 N 
ATOM     64  N   UNL A   1      41.871  30.338  33.857  1.00  0.00    -0.248 NA
ATOM     65  C   UNL A   1      41.338  29.057  35.737  1.00  0.00     0.031 C 
ATOM     66  C   UNL A   1      40.551  34.549  33.246  1.00  0.00     0.029 A 
ATOM     67  C   UNL A   1      40.954  33.240  33.464  1.00  0.00     0.049 A 
ATOM     68  H   UNL A   1      42.159  32.008  32.246  1.00  0.00     0.167 HD
ATOM     69  C   UNL A   1      41.077  31.096  34.715  1.00  0.00     0.074 A 
ATOM     70  C   UNL A   1      40.750  30.239  35.837  1.00  0.00     0.031 C 
ATOM     71  C   UNL A   1      40.648  32.380  34.585  1.00  0.00     0.034 A 
BRANCH  58  72
ATOM     72  C   UNL A   1      42.610  35.180  29.397  1.00  0.00     0.023 A 
ATOM     73  C   UNL A   1      43.701  36.066  29.455  1.00  0.00     0.031 A 
ATOM     74  C   UNL A   1      41.531  35.522  28.563  1.00  0.00     0.131 A 
ATOM     75  C   UNL A   1      43.649  37.286  28.764  1.00  0.00     0.055 A 
ATOM     76  C   UNL A   1      41.528  36.694  27.804  1.00  0.00     0.041 A 
ATOM     77  F   UNL A   1      40.447  34.734  28.487  1.00  0.00    -0.206 F 
ATOM     78  C   UNL A   1      42.583  37.594  27.916  1.00  0.00     0.022 A 
BRANCH  75  79
ATOM     79  S   UNL A   1      44.909  38.541  29.128  1.00  0.00     0.124 S 
ATOM     80  O   UNL A   1      44.352  39.180  30.318  1.00  0.00    -0.237 OA
ATOM     81  O   UNL A   1      46.106  37.736  29.334  1.00  0.00    -0.237 OA
ATOM     82  O   UNL A   1      44.917  39.377  27.928  1.00  0.00    -0.744 OA
ENDBRANCH  75  79
ENDBRANCH  58  72
BRANCH  59  83
ATOM     83  C   UNL A   1      42.816  26.703  34.776  1.00  0.00     0.023 A 
ATOM     84  C   UNL A   1      44.020  26.303  35.377  1.00  0.00     0.031 A 
ATOM     85  C   UNL A   1      41.690  25.875  34.943  1.00  0.00     0.131 A 
ATOM     86  C   UNL A   1      44.081  25.088  36.080  1.00  0.00     0.055 A 
ATOM     87  C   UNL A   1      41.742  24.699  35.693  1.00  0.00     0.041 A 
ATOM     88  F   UNL A   1      40.515  26.205  34.383  1.00  0.00    -0.206 F 
ATOM     89  C   UNL A   1      42.946  24.293  36.255  1.00  0.00     0.022 A 
BRANCH  86  90
ATOM     90  S   UNL A   1      45.690  24.513  36.686  1.00  0.00     0.124 S 
ATOM     91  O   UNL A   1      46.059  25.581  37.608  1.00  0.00    -0.237 OA
ATOM     92  O   UNL A   1      45.347  23.231  37.292  1.00  0.00    -0.237 OA
ATOM     93  O   UNL A   1      46.501  24.429  35.472  1.00  0.00    -0.744 OA
ENDBRANCH  86  90
ENDBRANCH  59  83
BRANCH  71  94
ATOM     94  C   UNL A   1      39.736  32.916  35.666  1.00  0.00     0.023 A 
ATOM     95  C   UNL A   1      40.231  33.619  36.778  1.00  0.00     0.031 A 
ATOM     96  C   UNL A   1      38.347  32.709  35.583  1.00  0.00     0.131 A 
ATOM     97  C   UNL A   1      39.354  34.027  37.795  1.00  0.00     0.055 A 
ATOM     98  C   UNL A   1      37.471  33.184  36.561  1.00  0.00     0.041 A 
ATOM     99  F   UNL A   1      37.815  32.041  34.547  1.00  0.00    -0.206 F 
ATOM    100  C   UNL A   1      37.975  33.833  37.683  1.00  0.00     0.022 A 
BRANCH  97 101
ATOM    101  S   UNL A   1      40.051  34.708  39.325  1.00  0.00     0.124 S 
ATOM    102  O   UNL A   1      39.326  35.968  39.453  1.00  0.00    -0.237 OA
ATOM    103  O   UNL A   1      39.720  33.679  40.304  1.00  0.00    -0.237 OA
ATOM    104  O   UNL A   1      41.475  34.841  39.023  1.00  0.00    -0.744 OA
ENDBRANCH  97 101
ENDBRANCH  71  94
ENDBRANCH  45  46
ENDBRANCH  38  40
ENDBRANCH  37  38
ENDBRANCH  36  37
ENDBRANCH  35  36
ENDBRANCH  34  35
ENDBRANCH  33  34
ENDBRANCH  32  33
ENDBRANCH  31  32
ENDBRANCH   1  31
TORSDOF 27
ENDMDL
MODEL 3
REMARK VINA RESULT:      -6.1      2.134      2.442
REMARK SMILES CCC(=O)Nc1ccc(NC(=O)[C@@H]2CC=CC[C@@H]2C(=O)OCCOCCOCCOCCOC(=O)c2ccc(-c3c4nc(c(-c5cc(S(=O)(=O)[O-])ccc5F)c5ccc([nH]5)c(-c5cc(S(=O)(=O)[O-])ccc5F)c5nc(c(-c6cc(S(=O)(=O)[O-])ccc6F)c6ccc3[nH]6)C=C5)C=C4)cc2)cc1
REMARK SMILES IDX 26 1 25 2 24 3 23 4 22 5 21 6 19 7 20 8 18 9 13 10 14 11
REMARK SMILES IDX 15 12 17 13 16 14 11 15 10 16 12 18 9 19 6 20 7 21 100 22
REMARK SMILES IDX 8 23 99 24 5 25 3 26 4 27 2 29 1 30 27 31 28 32 29 33 30 34
REMARK SMILES IDX 31 35 32 36 33 37 34 38 35 39 36 40 37 41 98 42 38 43 97 44
REMARK SMILES IDX 39 45 40 46 41 47 91 48 42 49 96 50 90 51 92 52 43 53 95 54
REMARK SMILES IDX 89 55 88 56 44 58 76 59 56 60 75 61 57 62 60 63 74 64 93 65
REMARK SMILES IDX 58 66 59 67 73 69 94 70 61 71 45 72 46 73 54 74 47 75 53 76
REMARK SMILES IDX 55 77 52 78 48 79 49 80 50 81 51 82 77 83 78 84 86 85 79 86
REMARK SMILES IDX 85 87 87 88 84 89 80 90 81 91 82 92 83 93 62 94 63 95 71 96
REMARK SMILES IDX 64 97 70 98 72 99 69 100 65 101 66 102 67 103 68 104
REMARK H PARENT 10 17 5 28 92 57 60 68
REMARK Flexibility Score: inf
ROOT
ATOM      1  C   UNL A   1      37.010  31.354  38.529  1.00  0.00     0.188 C 
ENDROOT
BRANCH   1   2
ATOM      2  C   UNL A   1      37.031  32.579  37.588  1.00  0.00     0.188 C 
BRANCH   2   3
ATOM      3  O   UNL A   1      37.312  32.456  36.199  1.00  0.00    -0.376 OA
BRANCH   3   4
ATOM      4  C   UNL A   1      38.164  31.423  35.734  1.00  0.00     0.202 C 
BRANCH   4   5
ATOM      5  C   UNL A   1      38.282  31.171  34.225  1.00  0.00     0.261 C 
BRANCH   5   6
ATOM      6  O   UNL A   1      37.097  31.377  33.444  1.00  0.00    -0.463 OA
BRANCH   6   7
ATOM      7  C   UNL A   1      37.129  32.369  32.525  1.00  0.00     0.310 C 
ATOM      8  O   UNL A   1      36.765  33.523  32.721  1.00  0.00    -0.252 OA
BRANCH   7   9
ATOM      9  C   UNL A   1      37.677  31.910  31.179  1.00  0.00     0.116 C 
ATOM     10  C   UNL A   1      38.709  32.860  30.576  1.00  0.00     0.097 C 
ATOM     11  C   UNL A   1      38.112  34.126  29.961  1.00  0.00     0.041 C 
ATOM     12  C   UNL A   1      37.035  33.752  28.984  1.00  0.00    -0.030 C 
ATOM     13  C   UNL A   1      36.668  31.509  30.079  1.00  0.00     0.043 C 
ATOM     14  C   UNL A   1      36.418  32.558  29.011  1.00  0.00    -0.030 C 
BRANCH  10  15
ATOM     15  C   UNL A   1      39.858  33.151  31.515  1.00  0.00     0.228 C 
ATOM     16  N   UNL A   1      40.753  32.153  31.792  1.00  0.00    -0.326 N 
ATOM     17  H   UNL A   1      41.335  32.327  32.567  1.00  0.00     0.169 HD
ATOM     18  O   UNL A   1      39.949  34.214  32.129  1.00  0.00    -0.274 OA
BRANCH  16  19
ATOM     19  C   UNL A   1      40.980  30.923  31.155  1.00  0.00     0.041 A 
ATOM     20  C   UNL A   1      41.720  28.536  29.872  1.00  0.00     0.041 A 
ATOM     21  C   UNL A   1      41.028  28.489  31.074  1.00  0.00     0.028 A 
ATOM     22  C   UNL A   1      41.903  29.768  29.251  1.00  0.00     0.028 A 
ATOM     23  C   UNL A   1      40.641  29.678  31.694  1.00  0.00     0.028 A 
ATOM     24  C   UNL A   1      41.556  30.959  29.891  1.00  0.00     0.028 A 
BRANCH  20  25
ATOM     25  N   UNL A   1      42.103  27.326  29.284  1.00  0.00    -0.326 N 
ATOM     26  C   UNL A   1      41.344  26.335  28.731  1.00  0.00     0.224 C 
ATOM     27  O   UNL A   1      41.859  25.229  28.540  1.00  0.00    -0.275 OA
ATOM     28  H   UNL A   1      43.074  27.164  29.267  1.00  0.00     0.169 HD
BRANCH  26  29
ATOM     29  C   UNL A   1      39.954  26.640  28.193  1.00  0.00     0.097 C 
ATOM     30  C   UNL A   1      39.204  25.477  27.577  1.00  0.00     0.014 C 
ENDBRANCH  26  29
ENDBRANCH  20  25
ENDBRANCH  16  19
ENDBRANCH  10  15
ENDBRANCH   7   9
ENDBRANCH   6   7
ENDBRANCH   5   6
ENDBRANCH   4   5
ENDBRANCH   3   4
ENDBRANCH   2   3
ENDBRANCH   1   2
BRANCH   1  31
ATOM     31  O   UNL A   1      35.881  31.233  39.372  1.00  0.00    -0.377 OA
BRANCH  31  32
ATOM     32  C   UNL A   1      36.015  31.838  40.646  1.00  0.00     0.188 C 
BRANCH  32  33
ATOM     33  C   UNL A   1      37.450  31.877  41.202  1.00  0.00     0.188 C 
BRANCH  33  34
ATOM     34  O   UNL A   1      37.559  32.609  42.417  1.00  0.00    -0.376 OA
BRANCH  34  35
ATOM     35  C   UNL A   1      38.367  33.770  42.479  1.00  0.00     0.202 C 
BRANCH  35  36
ATOM     36  C   UNL A   1      38.276  34.789  41.330  1.00  0.00     0.261 C 
BRANCH  36  37
ATOM     37  O   UNL A   1      39.193  34.618  40.243  1.00  0.00    -0.460 OA
BRANCH  37  38
ATOM     38  C   UNL A   1      39.282  35.634  39.358  1.00  0.00     0.338 C 
ATOM     39  O   UNL A   1      38.895  36.779  39.530  1.00  0.00    -0.246 OA
BRANCH  38  40
ATOM     40  C   UNL A   1      40.134  35.189  38.236  1.00  0.00     0.060 A 
ATOM     41  C   UNL A   1      39.547  35.049  36.972  1.00  0.00     0.016 A 
ATOM     42  C   UNL A   1      41.496  34.932  38.417  1.00  0.00     0.016 A 
ATOM     43  C   UNL A   1      40.308  34.610  35.893  1.00  0.00     0.010 A 
ATOM     44  C   UNL A   1      42.252  34.454  37.342  1.00  0.00     0.010 A 
ATOM     45  C   UNL A   1      41.646  34.250  36.088  1.00  0.00    -0.014 A 
BRANCH  45  46
ATOM     46  C   UNL A   1      42.305  33.414  35.057  1.00  0.00     0.031 A 
ATOM     47  C   UNL A   1      42.883  34.114  33.856  1.00  0.00     0.074 A 
ATOM     48  C   UNL A   1      42.460  32.090  35.216  1.00  0.00     0.049 A 
ATOM     49  N   UNL A   1      43.510  33.620  32.823  1.00  0.00    -0.248 NA
ATOM     50  C   UNL A   1      42.726  35.578  33.822  1.00  0.00     0.031 C 
ATOM     51  C   UNL A   1      41.996  31.318  36.367  1.00  0.00     0.029 A 
ATOM     52  N   UNL A   1      43.056  31.160  34.403  1.00  0.00    -0.354 N 
ATOM     53  C   UNL A   1      43.821  34.708  32.014  1.00  0.00     0.074 A 
ATOM     54  C   UNL A   1      43.271  35.882  32.656  1.00  0.00     0.031 C 
ATOM     55  C   UNL A   1      42.315  30.025  36.180  1.00  0.00     0.029 A 
ATOM     56  C   UNL A   1      42.971  29.873  34.882  1.00  0.00     0.049 A 
ATOM     57  H   UNL A   1      43.503  31.390  33.557  1.00  0.00     0.167 HD
ATOM     58  C   UNL A   1      44.513  34.728  30.849  1.00  0.00     0.034 A 
ATOM     59  C   UNL A   1      43.353  28.709  34.319  1.00  0.00     0.034 A 
ATOM     60  C   UNL A   1      45.037  33.542  30.217  1.00  0.00     0.049 A 
ATOM     61  C   UNL A   1      44.037  28.739  32.971  1.00  0.00     0.074 A 
ATOM     62  C   UNL A   1      45.756  33.439  29.040  1.00  0.00     0.029 A 
ATOM     63  N   UNL A   1      44.882  32.249  30.702  1.00  0.00    -0.354 N 
ATOM     64  N   UNL A   1      44.334  29.774  32.216  1.00  0.00    -0.248 NA
ATOM     65  C   UNL A   1      44.448  27.448  32.407  1.00  0.00     0.031 C 
ATOM     66  C   UNL A   1      45.956  32.082  28.768  1.00  0.00     0.029 A 
ATOM     67  C   UNL A   1      45.454  31.339  29.825  1.00  0.00     0.049 A 
ATOM     68  H   UNL A   1      44.431  32.012  31.544  1.00  0.00     0.167 HD
ATOM     69  C   UNL A   1      44.995  29.257  31.104  1.00  0.00     0.074 A 
ATOM     70  C   UNL A   1      45.067  27.823  31.298  1.00  0.00     0.031 C 
ATOM     71  C   UNL A   1      45.505  29.908  30.024  1.00  0.00     0.034 A 
BRANCH  58  72
ATOM     72  C   UNL A   1      44.671  36.064  30.162  1.00  0.00     0.023 A 
ATOM     73  C   UNL A   1      43.697  36.570  29.283  1.00  0.00     0.031 A 
ATOM     74  C   UNL A   1      45.844  36.817  30.346  1.00  0.00     0.131 A 
ATOM     75  C   UNL A   1      43.951  37.745  28.558  1.00  0.00     0.055 A 
ATOM     76  C   UNL A   1      46.049  38.034  29.693  1.00  0.00     0.041 A 
ATOM     77  F   UNL A   1      46.824  36.373  31.148  1.00  0.00    -0.206 F 
ATOM     78  C   UNL A   1      45.108  38.496  28.779  1.00  0.00     0.022 A 
BRANCH  75  79
ATOM     79  S   UNL A   1      42.833  38.182  27.197  1.00  0.00     0.124 S 
ATOM     80  O   UNL A   1      42.652  36.891  26.539  1.00  0.00    -0.237 OA
ATOM     81  O   UNL A   1      41.671  38.710  27.901  1.00  0.00    -0.237 OA
ATOM     82  O   UNL A   1      43.597  39.164  26.429  1.00  0.00    -0.744 OA
ENDBRANCH  75  79
ENDBRANCH  58  72
BRANCH  59  83
ATOM     83  C   UNL A   1      43.053  27.412  34.996  1.00  0.00     0.023 A 
ATOM     84  C   UNL A   1      44.003  26.765  35.802  1.00  0.00     0.031 A 
ATOM     85  C   UNL A   1      41.815  26.774  34.797  1.00  0.00     0.131 A 
ATOM     86  C   UNL A   1      43.716  25.500  36.343  1.00  0.00     0.055 A 
ATOM     87  C   UNL A   1      41.512  25.545  35.386  1.00  0.00     0.041 A 
ATOM     88  F   UNL A   1      40.872  27.344  34.028  1.00  0.00    -0.206 F 
ATOM     89  C   UNL A   1      42.471  24.895  36.154  1.00  0.00     0.022 A 
BRANCH  86  90
ATOM     90  S   UNL A   1      45.029  24.612  37.224  1.00  0.00     0.124 S 
ATOM     91  O   UNL A   1      46.196  25.432  36.920  1.00  0.00    -0.237 OA
ATOM     92  O   UNL A   1      44.554  24.656  38.603  1.00  0.00    -0.237 OA
ATOM     93  O   UNL A   1      45.018  23.287  36.605  1.00  0.00    -0.744 OA
ENDBRANCH  86  90
ENDBRANCH  59  83
BRANCH  71  94
ATOM     94  C   UNL A   1      46.230  29.072  28.993  1.00  0.00     0.023 A 
ATOM     95  C   UNL A   1      47.592  28.750  29.117  1.00  0.00     0.031 A 
ATOM     96  C   UNL A   1      45.542  28.598  27.859  1.00  0.00     0.131 A 
ATOM     97  C   UNL A   1      48.239  28.040  28.094  1.00  0.00     0.055 A 
ATOM     98  C   UNL A   1      46.174  27.828  26.882  1.00  0.00     0.041 A 
ATOM     99  F   UNL A   1      44.240  28.877  27.683  1.00  0.00    -0.206 F 
ATOM    100  C   UNL A   1      47.534  27.558  26.988  1.00  0.00     0.022 A 
BRANCH  97 101
ATOM    101  S   UNL A   1      50.043  27.857  28.168  1.00  0.00     0.124 S 
ATOM    102  O   UNL A   1      50.468  29.207  28.521  1.00  0.00    -0.237 OA
ATOM    103  O   UNL A   1      50.212  26.843  29.203  1.00  0.00    -0.237 OA
ATOM    104  O   UNL A   1      50.399  27.429  26.816  1.00  0.00    -0.744 OA
ENDBRANCH  97 101
ENDBRANCH  71  94
ENDBRANCH  45  46
ENDBRANCH  38  40
ENDBRANCH  37  38
ENDBRANCH  36  37
ENDBRANCH  35  36
ENDBRANCH  34  35
ENDBRANCH  33  34
ENDBRANCH  32  33
ENDBRANCH  31  32
ENDBRANCH   1  31
TORSDOF 27
ENDMDL
