MODEL 1
REMARK VINA RESULT:      -9.6      0.000      0.000
REMARK SMILES COc1ccc2c(c1)c(CC(=O)OCCOCCOCCOCCOC(=O)c1ccc(-c3c4nc(c(-c5cc(S(=O)(=O)[O-])ccc5F)c5ccc([nH]5)c(-c5cc(S(=O)(=O)[O-])ccc5F)c5nc(c(-c6cc(S(=O)(=O)[O-])ccc6F)c6ccc3[nH]6)C=C5)C=C4)cc1)c(C)n2Cc1ccc(Br)cc1
REMARK SMILES IDX 19 1 18 2 17 3 16 4 15 5 14 6 13 7 11 8 12 9 10 10 9 11 3 12
REMARK SMILES IDX 4 13 8 14 5 15 7 16 6 17 93 18 91 19 92 20 2 21 1 22 94 23
REMARK SMILES IDX 95 24 96 25 101 26 97 27 100 28 98 29 99 30 20 31 21 32
REMARK SMILES IDX 22 33 23 34 24 35 25 36 26 37 27 38 28 39 29 40 90 41 30 42
REMARK SMILES IDX 89 43 31 44 32 45 33 46 83 47 34 48 88 49 82 50 84 51 35 52
REMARK SMILES IDX 87 53 81 54 80 55 36 57 68 58 48 59 67 60 49 61 52 62 66 63
REMARK SMILES IDX 85 64 50 65 51 66 65 68 86 69 53 70 37 71 38 72 46 73 39 74
REMARK SMILES IDX 45 75 47 76 44 77 40 78 41 79 42 80 43 81 69 82 70 83 78 84
REMARK SMILES IDX 71 85 77 86 79 87 76 88 72 89 73 90 74 91 75 92 54 93 55 94
REMARK SMILES IDX 63 95 56 96 62 97 64 98 61 99 57 100 58 101 59 102 60 103
REMARK H PARENT 84 56 52 67
REMARK Flexibility Score: inf
ROOT
ATOM      1  O   UNL A   1      44.139  18.387  25.899  1.00  0.00    -0.377 OA
ENDROOT
BRANCH   1   2
ATOM      2  C   UNL A   1      43.082  18.811  26.708  1.00  0.00     0.188 C 
BRANCH   2   3
ATOM      3  C   UNL A   1      41.791  19.362  26.112  1.00  0.00     0.188 C 
BRANCH   3   4
ATOM      4  O   UNL A   1      41.628  20.759  26.101  1.00  0.00    -0.376 OA
BRANCH   4   5
ATOM      5  C   UNL A   1      40.571  21.432  26.760  1.00  0.00     0.202 C 
BRANCH   5   6
ATOM      6  C   UNL A   1      39.275  21.985  26.122  1.00  0.00     0.261 C 
BRANCH   6   7
ATOM      7  O   UNL A   1      38.095  21.164  26.104  1.00  0.00    -0.463 OA
BRANCH   7   8
ATOM      8  C   UNL A   1      37.591  20.774  24.915  1.00  0.00     0.310 C 
ATOM      9  O   UNL A   1      37.680  19.622  24.493  1.00  0.00    -0.252 OA
BRANCH   8  10
ATOM     10  C   UNL A   1      36.781  21.826  24.154  1.00  0.00     0.160 C 
BRANCH  10  11
ATOM     11  C   UNL A   1      35.264  21.860  24.230  1.00  0.00    -0.008 A 
ATOM     12  C   UNL A   1      33.558  18.494  24.966  1.00  0.00     0.119 A 
ATOM     13  C   UNL A   1      32.289  19.017  25.177  1.00  0.00     0.048 A 
ATOM     14  C   UNL A   1      34.585  19.341  24.520  1.00  0.00     0.057 A 
ATOM     15  C   UNL A   1      32.028  20.384  24.969  1.00  0.00     0.031 A 
ATOM     16  C   UNL A   1      34.382  20.739  24.414  1.00  0.00     0.007 A 
ATOM     17  C   UNL A   1      33.085  21.235  24.584  1.00  0.00     0.049 A 
ATOM     18  N   UNL A   1      33.128  22.593  24.275  1.00  0.00    -0.340 N 
ATOM     19  C   UNL A   1      34.430  22.925  23.909  1.00  0.00     0.020 A 
ATOM     20  C   UNL A   1      34.831  24.194  23.245  1.00  0.00     0.065 C 
BRANCH  12  21
ATOM     21  O   UNL A   1      33.961  17.207  25.196  1.00  0.00    -0.497 OA
ATOM     22  C   UNL A   1      33.697  16.218  24.210  1.00  0.00     0.278 C 
ENDBRANCH  12  21
BRANCH  18  23
ATOM     23  C   UNL A   1      31.923  23.420  24.074  1.00  0.00     0.157 C 
BRANCH  23  24
ATOM     24  C   UNL A   1      31.831  24.690  24.897  1.00  0.00    -0.028 A 
ATOM     25  C   UNL A   1      32.786  24.994  25.880  1.00  0.00     0.007 A 
ATOM     26  C   UNL A   1      30.841  25.653  24.638  1.00  0.00     0.007 A 
ATOM     27  C   UNL A   1      32.725  26.170  26.631  1.00  0.00     0.016 A 
ATOM     28  C   UNL A   1      30.798  26.855  25.362  1.00  0.00     0.016 A 
ATOM     29  C   UNL A   1      31.731  27.099  26.367  1.00  0.00     0.017 A 
ATOM     30  Br  UNL A   1      31.664  28.704  27.361  1.00  0.00    -0.051 Br
ENDBRANCH  23  24
ENDBRANCH  18  23
ENDBRANCH  10  11
ENDBRANCH   8  10
ENDBRANCH   7   8
ENDBRANCH   6   7
ENDBRANCH   5   6
ENDBRANCH   4   5
ENDBRANCH   3   4
ENDBRANCH   2   3
ENDBRANCH   1   2
BRANCH   1  31
ATOM     31  C   UNL A   1      44.286  19.075  24.695  1.00  0.00     0.188 C 
BRANCH  31  32
ATOM     32  C   UNL A   1      44.982  20.420  24.890  1.00  0.00     0.188 C 
BRANCH  32  33
ATOM     33  O   UNL A   1      44.484  21.629  24.308  1.00  0.00    -0.376 OA
BRANCH  33  34
ATOM     34  C   UNL A   1      43.996  22.691  25.114  1.00  0.00     0.202 C 
BRANCH  34  35
ATOM     35  C   UNL A   1      45.002  23.598  25.855  1.00  0.00     0.261 C 
BRANCH  35  36
ATOM     36  O   UNL A   1      44.911  23.549  27.281  1.00  0.00    -0.460 OA
BRANCH  36  37
ATOM     37  C   UNL A   1      43.727  23.862  27.865  1.00  0.00     0.338 C 
ATOM     38  O   UNL A   1      42.958  23.111  28.436  1.00  0.00    -0.246 OA
BRANCH  37  39
ATOM     39  C   UNL A   1      43.712  25.340  27.944  1.00  0.00     0.060 A 
ATOM     40  C   UNL A   1      44.535  26.013  28.854  1.00  0.00     0.016 A 
ATOM     41  C   UNL A   1      42.593  25.974  27.384  1.00  0.00     0.016 A 
ATOM     42  C   UNL A   1      44.115  27.248  29.343  1.00  0.00     0.010 A 
ATOM     43  C   UNL A   1      42.172  27.204  27.886  1.00  0.00     0.010 A 
ATOM     44  C   UNL A   1      42.890  27.807  28.921  1.00  0.00    -0.014 A 
BRANCH  44  45
ATOM     45  C   UNL A   1      42.549  29.144  29.425  1.00  0.00     0.031 A 
ATOM     46  C   UNL A   1      43.577  30.142  29.028  1.00  0.00     0.074 A 
ATOM     47  C   UNL A   1      41.402  29.561  30.003  1.00  0.00     0.049 A 
ATOM     48  N   UNL A   1      44.352  30.861  29.773  1.00  0.00    -0.248 NA
ATOM     49  C   UNL A   1      43.887  30.188  27.590  1.00  0.00     0.031 C 
ATOM     50  C   UNL A   1      40.140  28.833  30.132  1.00  0.00     0.029 A 
ATOM     51  N   UNL A   1      41.094  30.804  30.498  1.00  0.00    -0.354 N 
ATOM     52  C   UNL A   1      45.141  31.580  28.878  1.00  0.00     0.074 A 
ATOM     53  C   UNL A   1      44.962  30.968  27.587  1.00  0.00     0.031 C 
ATOM     54  C   UNL A   1      39.156  29.703  30.458  1.00  0.00     0.029 A 
ATOM     55  C   UNL A   1      39.733  31.021  30.674  1.00  0.00     0.049 A 
ATOM     56  H   UNL A   1      41.777  31.480  30.709  1.00  0.00     0.167 HD
ATOM     57  C   UNL A   1      45.709  32.777  29.187  1.00  0.00     0.034 A 
ATOM     58  C   UNL A   1      39.109  32.212  30.872  1.00  0.00     0.034 A 
ATOM     59  C   UNL A   1      45.775  32.992  30.603  1.00  0.00     0.049 A 
ATOM     60  C   UNL A   1      40.110  33.220  31.288  1.00  0.00     0.074 A 
ATOM     61  C   UNL A   1      46.418  32.374  31.654  1.00  0.00     0.029 A 
ATOM     62  N   UNL A   1      44.822  33.807  31.159  1.00  0.00    -0.354 N 
ATOM     63  N   UNL A   1      40.721  33.238  32.437  1.00  0.00    -0.248 NA
ATOM     64  C   UNL A   1      40.705  34.052  30.253  1.00  0.00     0.031 C 
ATOM     65  C   UNL A   1      45.550  32.530  32.769  1.00  0.00     0.029 A 
ATOM     66  C   UNL A   1      44.429  33.251  32.348  1.00  0.00     0.049 A 
ATOM     67  H   UNL A   1      44.479  34.644  30.771  1.00  0.00     0.167 HD
ATOM     68  C   UNL A   1      41.993  33.709  32.147  1.00  0.00     0.074 A 
ATOM     69  C   UNL A   1      41.877  34.321  30.828  1.00  0.00     0.031 C 
ATOM     70  C   UNL A   1      43.078  33.314  32.876  1.00  0.00     0.034 A 
BRANCH  57  71
ATOM     71  C   UNL A   1      45.879  33.876  28.166  1.00  0.00     0.023 A 
ATOM     72  C   UNL A   1      47.144  34.272  27.685  1.00  0.00     0.031 A 
ATOM     73  C   UNL A   1      44.774  34.417  27.487  1.00  0.00     0.131 A 
ATOM     74  C   UNL A   1      47.291  35.197  26.649  1.00  0.00     0.055 A 
ATOM     75  C   UNL A   1      44.919  35.280  26.391  1.00  0.00     0.041 A 
ATOM     76  F   UNL A   1      43.521  34.080  27.831  1.00  0.00    -0.206 F 
ATOM     77  C   UNL A   1      46.182  35.683  25.973  1.00  0.00     0.022 A 
BRANCH  74  78
ATOM     78  S   UNL A   1      48.946  35.782  26.188  1.00  0.00     0.124 S 
ATOM     79  O   UNL A   1      49.048  35.327  24.807  1.00  0.00    -0.237 OA
ATOM     80  O   UNL A   1      48.814  37.224  26.375  1.00  0.00    -0.237 OA
ATOM     81  O   UNL A   1      49.823  35.116  27.148  1.00  0.00    -0.744 OA
ENDBRANCH  74  78
ENDBRANCH  57  71
BRANCH  58  82
ATOM     82  C   UNL A   1      37.797  32.620  30.311  1.00  0.00     0.023 A 
ATOM     83  C   UNL A   1      36.867  33.270  31.142  1.00  0.00     0.031 A 
ATOM     84  C   UNL A   1      37.324  32.132  29.079  1.00  0.00     0.131 A 
ATOM     85  C   UNL A   1      35.525  33.394  30.761  1.00  0.00     0.055 A 
ATOM     86  C   UNL A   1      35.983  32.266  28.692  1.00  0.00     0.041 A 
ATOM     87  F   UNL A   1      38.141  31.460  28.252  1.00  0.00    -0.206 F 
ATOM     88  C   UNL A   1      35.073  32.892  29.540  1.00  0.00     0.022 A 
BRANCH  85  89
ATOM     89  S   UNL A   1      34.325  34.150  31.890  1.00  0.00     0.124 S 
ATOM     90  O   UNL A   1      33.301  34.637  30.969  1.00  0.00    -0.237 OA
ATOM     91  O   UNL A   1      33.938  33.013  32.718  1.00  0.00    -0.237 OA
ATOM     92  O   UNL A   1      35.097  35.193  32.560  1.00  0.00    -0.744 OA
ENDBRANCH  85  89
ENDBRANCH  58  82
BRANCH  70  93
ATOM     93  C   UNL A   1      42.857  32.647  34.215  1.00  0.00     0.023 A 
ATOM     94  C   UNL A   1      42.324  31.344  34.201  1.00  0.00     0.031 A 
ATOM     95  C   UNL A   1      42.941  33.300  35.459  1.00  0.00     0.131 A 
ATOM     96  C   UNL A   1      41.844  30.761  35.378  1.00  0.00     0.055 A 
ATOM     97  C   UNL A   1      42.548  32.673  36.646  1.00  0.00     0.041 A 
ATOM     98  F   UNL A   1      43.317  34.583  35.560  1.00  0.00    -0.206 F 
ATOM     99  C   UNL A   1      41.973  31.408  36.608  1.00  0.00     0.022 A 
BRANCH  96 100
ATOM    100  S   UNL A   1      40.903  29.214  35.323  1.00  0.00     0.124 S 
ATOM    101  O   UNL A   1      39.524  29.691  35.253  1.00  0.00    -0.237 OA
ATOM    102  O   UNL A   1      41.412  28.591  34.102  1.00  0.00    -0.237 OA
ATOM    103  O   UNL A   1      41.266  28.534  36.563  1.00  0.00    -0.744 OA
ENDBRANCH  96 100
ENDBRANCH  70  93
ENDBRANCH  44  45
ENDBRANCH  37  39
ENDBRANCH  36  37
ENDBRANCH  35  36
ENDBRANCH  34  35
ENDBRANCH  33  34
ENDBRANCH  32  33
ENDBRANCH  31  32
ENDBRANCH   1  31
TORSDOF 27
ENDMDL
MODEL 2
REMARK VINA RESULT:      -9.4      5.748     12.445
REMARK SMILES COc1ccc2c(c1)c(CC(=O)OCCOCCOCCOCCOC(=O)c1ccc(-c3c4nc(c(-c5cc(S(=O)(=O)[O-])ccc5F)c5ccc([nH]5)c(-c5cc(S(=O)(=O)[O-])ccc5F)c5nc(c(-c6cc(S(=O)(=O)[O-])ccc6F)c6ccc3[nH]6)C=C5)C=C4)cc1)c(C)n2Cc1ccc(Br)cc1
REMARK SMILES IDX 19 1 18 2 17 3 16 4 15 5 14 6 13 7 11 8 12 9 10 10 9 11 3 12
REMARK SMILES IDX 4 13 8 14 5 15 7 16 6 17 93 18 91 19 92 20 2 21 1 22 94 23
REMARK SMILES IDX 95 24 96 25 101 26 97 27 100 28 98 29 99 30 20 31 21 32
REMARK SMILES IDX 22 33 23 34 24 35 25 36 26 37 27 38 28 39 29 40 90 41 30 42
REMARK SMILES IDX 89 43 31 44 32 45 33 46 83 47 34 48 88 49 82 50 84 51 35 52
REMARK SMILES IDX 87 53 81 54 80 55 36 57 68 58 48 59 67 60 49 61 52 62 66 63
REMARK SMILES IDX 85 64 50 65 51 66 65 68 86 69 53 70 37 71 38 72 46 73 39 74
REMARK SMILES IDX 45 75 47 76 44 77 40 78 41 79 42 80 43 81 69 82 70 83 78 84
REMARK SMILES IDX 71 85 77 86 79 87 76 88 72 89 73 90 74 91 75 92 54 93 55 94
REMARK SMILES IDX 63 95 56 96 62 97 64 98 61 99 57 100 58 101 59 102 60 103
REMARK H PARENT 84 56 52 67
REMARK Flexibility Score: inf
ROOT
ATOM      1  O   UNL A   1      35.774  32.777  34.246  1.00  0.00    -0.377 OA
ENDROOT
BRANCH   1   2
ATOM      2  C   UNL A   1      35.035  33.917  33.919  1.00  0.00     0.188 C 
BRANCH   2   3
ATOM      3  C   UNL A   1      33.738  33.827  33.122  1.00  0.00     0.188 C 
BRANCH   3   4
ATOM      4  O   UNL A   1      33.622  34.641  31.982  1.00  0.00    -0.376 OA
BRANCH   4   5
ATOM      5  C   UNL A   1      34.453  34.520  30.841  1.00  0.00     0.202 C 
BRANCH   5   6
ATOM      6  C   UNL A   1      34.300  33.513  29.677  1.00  0.00     0.261 C 
BRANCH   6   7
ATOM      7  O   UNL A   1      35.424  33.255  28.819  1.00  0.00    -0.463 OA
BRANCH   7   8
ATOM      8  C   UNL A   1      35.864  31.986  28.686  1.00  0.00     0.310 C 
ATOM      9  O   UNL A   1      35.730  31.335  27.650  1.00  0.00    -0.252 OA
BRANCH   8  10
ATOM     10  C   UNL A   1      36.660  31.426  29.866  1.00  0.00     0.160 C 
BRANCH  10  11
ATOM     11  C   UNL A   1      38.150  31.683  30.006  1.00  0.00    -0.008 A 
ATOM     12  C   UNL A   1      40.416  28.601  29.621  1.00  0.00     0.119 A 
ATOM     13  C   UNL A   1      41.612  29.304  29.577  1.00  0.00     0.048 A 
ATOM     14  C   UNL A   1      39.223  29.290  29.890  1.00  0.00     0.057 A 
ATOM     15  C   UNL A   1      41.639  30.696  29.779  1.00  0.00     0.031 A 
ATOM     16  C   UNL A   1      39.203  30.704  29.983  1.00  0.00     0.007 A 
ATOM     17  C   UNL A   1      40.424  31.385  29.985  1.00  0.00     0.049 A 
ATOM     18  N   UNL A   1      40.141  32.724  30.244  1.00  0.00    -0.340 N 
ATOM     19  C   UNL A   1      38.765  32.863  30.410  1.00  0.00     0.020 A 
ATOM     20  C   UNL A   1      38.092  34.064  30.973  1.00  0.00     0.065 C 
BRANCH  12  21
ATOM     21  O   UNL A   1      40.242  27.266  29.374  1.00  0.00    -0.497 OA
ATOM     22  C   UNL A   1      41.255  26.560  28.671  1.00  0.00     0.278 C 
ENDBRANCH  12  21
BRANCH  18  23
ATOM     23  C   UNL A   1      41.171  33.722  30.589  1.00  0.00     0.157 C 
BRANCH  23  24
ATOM     24  C   UNL A   1      41.618  33.756  32.037  1.00  0.00    -0.028 A 
ATOM     25  C   UNL A   1      40.948  34.540  32.991  1.00  0.00     0.007 A 
ATOM     26  C   UNL A   1      42.661  32.933  32.495  1.00  0.00     0.007 A 
ATOM     27  C   UNL A   1      41.337  34.565  34.331  1.00  0.00     0.016 A 
ATOM     28  C   UNL A   1      43.030  32.924  33.850  1.00  0.00     0.016 A 
ATOM     29  C   UNL A   1      42.377  33.754  34.757  1.00  0.00     0.017 A 
ATOM     30  Br  UNL A   1      42.886  33.765  36.577  1.00  0.00    -0.051 Br
ENDBRANCH  23  24
ENDBRANCH  18  23
ENDBRANCH  10  11
ENDBRANCH   8  10
ENDBRANCH   7   8
ENDBRANCH   6   7
ENDBRANCH   5   6
ENDBRANCH   4   5
ENDBRANCH   3   4
ENDBRANCH   2   3
ENDBRANCH   1   2
BRANCH   1  31
ATOM     31  C   UNL A   1      37.141  32.982  34.434  1.00  0.00     0.188 C 
BRANCH  31  32
ATOM     32  C   UNL A   1      37.434  33.685  35.757  1.00  0.00     0.188 C 
BRANCH  32  33
ATOM     33  O   UNL A   1      38.677  33.525  36.448  1.00  0.00    -0.376 OA
BRANCH  33  34
ATOM     34  C   UNL A   1      39.085  32.263  36.954  1.00  0.00     0.202 C 
BRANCH  34  35
ATOM     35  C   UNL A   1      39.711  31.232  35.990  1.00  0.00     0.261 C 
BRANCH  35  36
ATOM     36  O   UNL A   1      41.031  30.811  36.341  1.00  0.00    -0.460 OA
BRANCH  36  37
ATOM     37  C   UNL A   1      41.398  29.533  36.067  1.00  0.00     0.338 C 
ATOM     38  O   UNL A   1      40.884  28.508  36.475  1.00  0.00    -0.246 OA
BRANCH  37  39
ATOM     39  C   UNL A   1      42.341  29.634  34.931  1.00  0.00     0.060 A 
ATOM     40  C   UNL A   1      41.931  29.310  33.634  1.00  0.00     0.016 A 
ATOM     41  C   UNL A   1      43.703  29.671  35.265  1.00  0.00     0.016 A 
ATOM     42  C   UNL A   1      42.882  28.832  32.735  1.00  0.00     0.010 A 
ATOM     43  C   UNL A   1      44.648  29.181  34.365  1.00  0.00     0.010 A 
ATOM     44  C   UNL A   1      44.230  28.690  33.127  1.00  0.00    -0.014 A 
BRANCH  44  45
ATOM     45  C   UNL A   1      45.188  28.249  32.104  1.00  0.00     0.031 A 
ATOM     46  C   UNL A   1      45.310  29.257  31.018  1.00  0.00     0.074 A 
ATOM     47  C   UNL A   1      46.035  27.199  32.138  1.00  0.00     0.049 A 
ATOM     48  N   UNL A   1      45.033  29.144  29.759  1.00  0.00    -0.248 NA
ATOM     49  C   UNL A   1      45.612  30.627  31.462  1.00  0.00     0.031 C 
ATOM     50  C   UNL A   1      46.338  26.320  33.267  1.00  0.00     0.029 A 
ATOM     51  N   UNL A   1      46.911  26.772  31.171  1.00  0.00    -0.354 N 
ATOM     52  C   UNL A   1      45.291  30.403  29.224  1.00  0.00     0.074 A 
ATOM     53  C   UNL A   1      45.426  31.306  30.337  1.00  0.00     0.031 C 
ATOM     54  C   UNL A   1      47.467  25.622  32.998  1.00  0.00     0.029 A 
ATOM     55  C   UNL A   1      47.899  25.916  31.640  1.00  0.00     0.049 A 
ATOM     56  H   UNL A   1      46.844  27.048  30.228  1.00  0.00     0.167 HD
ATOM     57  C   UNL A   1      45.617  30.600  27.917  1.00  0.00     0.034 A 
ATOM     58  C   UNL A   1      49.047  25.559  31.007  1.00  0.00     0.034 A 
ATOM     59  C   UNL A   1      45.250  29.484  27.097  1.00  0.00     0.049 A 
ATOM     60  C   UNL A   1      48.925  25.878  29.566  1.00  0.00     0.074 A 
ATOM     61  C   UNL A   1      44.060  28.881  26.747  1.00  0.00     0.029 A 
ATOM     62  N   UNL A   1      46.243  28.605  26.749  1.00  0.00    -0.354 N 
ATOM     63  N   UNL A   1      48.152  25.254  28.725  1.00  0.00    -0.248 NA
ATOM     64  C   UNL A   1      49.434  27.162  29.110  1.00  0.00     0.031 C 
ATOM     65  C   UNL A   1      44.369  27.503  26.588  1.00  0.00     0.029 A 
ATOM     66  C   UNL A   1      45.736  27.335  26.830  1.00  0.00     0.049 A 
ATOM     67  H   UNL A   1      47.162  28.845  26.488  1.00  0.00     0.167 HD
ATOM     68  C   UNL A   1      47.723  26.241  27.850  1.00  0.00     0.074 A 
ATOM     69  C   UNL A   1      48.648  27.350  28.049  1.00  0.00     0.031 C 
ATOM     70  C   UNL A   1      46.497  26.173  27.251  1.00  0.00     0.034 A 
BRANCH  57  71
ATOM     71  C   UNL A   1      46.582  31.676  27.481  1.00  0.00     0.023 A 
ATOM     72  C   UNL A   1      47.969  31.448  27.369  1.00  0.00     0.031 A 
ATOM     73  C   UNL A   1      46.123  32.899  26.962  1.00  0.00     0.131 A 
ATOM     74  C   UNL A   1      48.841  32.404  26.843  1.00  0.00     0.055 A 
ATOM     75  C   UNL A   1      46.985  33.825  26.356  1.00  0.00     0.041 A 
ATOM     76  F   UNL A   1      44.817  33.208  26.977  1.00  0.00    -0.206 F 
ATOM     77  C   UNL A   1      48.354  33.585  26.303  1.00  0.00     0.022 A 
BRANCH  74  78
ATOM     78  S   UNL A   1      50.632  32.109  26.875  1.00  0.00     0.124 S 
ATOM     79  O   UNL A   1      50.692  30.653  26.925  1.00  0.00    -0.237 OA
ATOM     80  O   UNL A   1      51.055  32.720  25.619  1.00  0.00    -0.237 OA
ATOM     81  O   UNL A   1      51.071  32.809  28.079  1.00  0.00    -0.744 OA
ENDBRANCH  74  78
ENDBRANCH  57  71
BRANCH  58  82
ATOM     82  C   UNL A   1      50.376  25.366  31.639  1.00  0.00     0.023 A 
ATOM     83  C   UNL A   1      50.815  24.062  31.931  1.00  0.00     0.031 A 
ATOM     84  C   UNL A   1      51.089  26.429  32.225  1.00  0.00     0.131 A 
ATOM     85  C   UNL A   1      51.897  23.843  32.793  1.00  0.00     0.055 A 
ATOM     86  C   UNL A   1      52.179  26.210  33.079  1.00  0.00     0.041 A 
ATOM     87  F   UNL A   1      50.701  27.699  32.030  1.00  0.00    -0.206 F 
ATOM     88  C   UNL A   1      52.582  24.910  33.374  1.00  0.00     0.022 A 
BRANCH  85  89
ATOM     89  S   UNL A   1      52.384  22.152  33.231  1.00  0.00     0.124 S 
ATOM     90  O   UNL A   1      51.457  21.837  34.316  1.00  0.00    -0.237 OA
ATOM     91  O   UNL A   1      52.150  21.442  31.978  1.00  0.00    -0.237 OA
ATOM     92  O   UNL A   1      53.780  22.293  33.633  1.00  0.00    -0.744 OA
ENDBRANCH  85  89
ENDBRANCH  58  82
BRANCH  70  93
ATOM     93  C   UNL A   1      45.751  24.857  27.257  1.00  0.00     0.023 A 
ATOM     94  C   UNL A   1      45.989  23.981  26.182  1.00  0.00     0.031 A 
ATOM     95  C   UNL A   1      44.691  24.542  28.129  1.00  0.00     0.131 A 
ATOM     96  C   UNL A   1      45.157  22.877  25.969  1.00  0.00     0.055 A 
ATOM     97  C   UNL A   1      43.924  23.384  27.964  1.00  0.00     0.041 A 
ATOM     98  F   UNL A   1      44.307  25.377  29.105  1.00  0.00    -0.206 F 
ATOM     99  C   UNL A   1      44.138  22.558  26.867  1.00  0.00     0.022 A 
BRANCH  96 100
ATOM    100  S   UNL A   1      45.279  21.914  24.439  1.00  0.00     0.124 S 
ATOM    101  O   UNL A   1      45.060  22.930  23.413  1.00  0.00    -0.237 OA
ATOM    102  O   UNL A   1      46.641  21.387  24.518  1.00  0.00    -0.237 OA
ATOM    103  O   UNL A   1      44.221  20.915  24.564  1.00  0.00    -0.744 OA
ENDBRANCH  96 100
ENDBRANCH  70  93
ENDBRANCH  44  45
ENDBRANCH  37  39
ENDBRANCH  36  37
ENDBRANCH  35  36
ENDBRANCH  34  35
ENDBRANCH  33  34
ENDBRANCH  32  33
ENDBRANCH  31  32
ENDBRANCH   1  31
TORSDOF 27
ENDMDL
MODEL 3
REMARK VINA RESULT:      -9.2      5.316     14.416
REMARK SMILES COc1ccc2c(c1)c(CC(=O)OCCOCCOCCOCCOC(=O)c1ccc(-c3c4nc(c(-c5cc(S(=O)(=O)[O-])ccc5F)c5ccc([nH]5)c(-c5cc(S(=O)(=O)[O-])ccc5F)c5nc(c(-c6cc(S(=O)(=O)[O-])ccc6F)c6ccc3[nH]6)C=C5)C=C4)cc1)c(C)n2Cc1ccc(Br)cc1
REMARK SMILES IDX 19 1 18 2 17 3 16 4 15 5 14 6 13 7 11 8 12 9 10 10 9 11 3 12
REMARK SMILES IDX 4 13 8 14 5 15 7 16 6 17 93 18 91 19 92 20 2 21 1 22 94 23
REMARK SMILES IDX 95 24 96 25 101 26 97 27 100 28 98 29 99 30 20 31 21 32
REMARK SMILES IDX 22 33 23 34 24 35 25 36 26 37 27 38 28 39 29 40 90 41 30 42
REMARK SMILES IDX 89 43 31 44 32 45 33 46 83 47 34 48 88 49 82 50 84 51 35 52
REMARK SMILES IDX 87 53 81 54 80 55 36 57 68 58 48 59 67 60 49 61 52 62 66 63
REMARK SMILES IDX 85 64 50 65 51 66 65 68 86 69 53 70 37 71 38 72 46 73 39 74
REMARK SMILES IDX 45 75 47 76 44 77 40 78 41 79 42 80 43 81 69 82 70 83 78 84
REMARK SMILES IDX 71 85 77 86 79 87 76 88 72 89 73 90 74 91 75 92 54 93 55 94
REMARK SMILES IDX 63 95 56 96 62 97 64 98 61 99 57 100 58 101 59 102 60 103
REMARK H PARENT 84 56 52 67
REMARK Flexibility Score: inf
ROOT
ATOM      1  O   UNL A   1      40.832  34.706  34.031  1.00  0.00    -0.377 OA
ENDROOT
BRANCH   1   2
ATOM      2  C   UNL A   1      41.926  35.428  33.549  1.00  0.00     0.188 C 
BRANCH   2   3
ATOM      3  C   UNL A   1      43.245  34.745  33.204  1.00  0.00     0.188 C 
BRANCH   3   4
ATOM      4  O   UNL A   1      43.746  34.923  31.902  1.00  0.00    -0.376 OA
BRANCH   4   5
ATOM      5  C   UNL A   1      43.300  34.183  30.780  1.00  0.00     0.202 C 
BRANCH   5   6
ATOM      6  C   UNL A   1      42.661  34.741  29.487  1.00  0.00     0.261 C 
BRANCH   6   7
ATOM      7  O   UNL A   1      43.434  35.610  28.641  1.00  0.00    -0.463 OA
BRANCH   7   8
ATOM      8  C   UNL A   1      43.189  36.936  28.673  1.00  0.00     0.310 C 
ATOM      9  O   UNL A   1      43.432  37.640  29.651  1.00  0.00    -0.252 OA
BRANCH   8  10
ATOM     10  C   UNL A   1      42.695  37.558  27.364  1.00  0.00     0.160 C 
BRANCH  10  11
ATOM     11  C   UNL A   1      43.373  38.779  26.767  1.00  0.00    -0.008 A 
ATOM     12  C   UNL A   1      47.181  38.512  26.306  1.00  0.00     0.119 A 
ATOM     13  C   UNL A   1      47.318  39.671  25.555  1.00  0.00     0.048 A 
ATOM     14  C   UNL A   1      45.931  38.199  26.864  1.00  0.00     0.057 A 
ATOM     15  C   UNL A   1      46.220  40.522  25.332  1.00  0.00     0.031 A 
ATOM     16  C   UNL A   1      44.783  38.972  26.561  1.00  0.00     0.007 A 
ATOM     17  C   UNL A   1      44.955  40.161  25.845  1.00  0.00     0.049 A 
ATOM     18  N   UNL A   1      43.718  40.801  25.820  1.00  0.00    -0.340 N 
ATOM     19  C   UNL A   1      42.801  40.022  26.521  1.00  0.00     0.020 A 
ATOM     20  C   UNL A   1      41.457  40.481  26.964  1.00  0.00     0.065 C 
BRANCH  12  21
ATOM     21  O   UNL A   1      48.144  37.569  26.538  1.00  0.00    -0.497 OA
ATOM     22  C   UNL A   1      48.465  37.230  27.881  1.00  0.00     0.278 C 
ENDBRANCH  12  21
BRANCH  18  23
ATOM     23  C   UNL A   1      43.535  42.202  25.394  1.00  0.00     0.157 C 
BRANCH  23  24
ATOM     24  C   UNL A   1      44.528  43.208  25.940  1.00  0.00    -0.028 A 
ATOM     25  C   UNL A   1      44.868  43.235  27.302  1.00  0.00     0.007 A 
ATOM     26  C   UNL A   1      45.214  44.088  25.086  1.00  0.00     0.007 A 
ATOM     27  C   UNL A   1      45.796  44.143  27.814  1.00  0.00     0.016 A 
ATOM     28  C   UNL A   1      46.179  44.976  25.589  1.00  0.00     0.016 A 
ATOM     29  C   UNL A   1      46.451  45.011  26.954  1.00  0.00     0.017 A 
ATOM     30  Br  UNL A   1      47.730  46.220  27.641  1.00  0.00    -0.051 Br
ENDBRANCH  23  24
ENDBRANCH  18  23
ENDBRANCH  10  11
ENDBRANCH   8  10
ENDBRANCH   7   8
ENDBRANCH   6   7
ENDBRANCH   5   6
ENDBRANCH   4   5
ENDBRANCH   3   4
ENDBRANCH   2   3
ENDBRANCH   1   2
BRANCH   1  31
ATOM     31  C   UNL A   1      39.899  34.318  33.069  1.00  0.00     0.188 C 
BRANCH  31  32
ATOM     32  C   UNL A   1      38.472  34.359  33.613  1.00  0.00     0.188 C 
BRANCH  32  33
ATOM     33  O   UNL A   1      37.360  33.838  32.878  1.00  0.00    -0.376 OA
BRANCH  33  34
ATOM     34  C   UNL A   1      36.139  33.505  33.521  1.00  0.00     0.202 C 
BRANCH  34  35
ATOM     35  C   UNL A   1      35.034  32.789  32.715  1.00  0.00     0.261 C 
BRANCH  35  36
ATOM     36  O   UNL A   1      35.502  31.739  31.865  1.00  0.00    -0.460 OA
BRANCH  36  37
ATOM     37  C   UNL A   1      35.205  31.796  30.541  1.00  0.00     0.338 C 
ATOM     38  O   UNL A   1      34.303  32.415  30.008  1.00  0.00    -0.246 OA
BRANCH  37  39
ATOM     39  C   UNL A   1      36.380  31.215  29.854  1.00  0.00     0.060 A 
ATOM     40  C   UNL A   1      36.438  29.843  29.581  1.00  0.00     0.016 A 
ATOM     41  C   UNL A   1      37.545  31.994  29.863  1.00  0.00     0.016 A 
ATOM     42  C   UNL A   1      37.688  29.231  29.515  1.00  0.00     0.010 A 
ATOM     43  C   UNL A   1      38.792  31.374  29.808  1.00  0.00     0.010 A 
ATOM     44  C   UNL A   1      38.865  29.983  29.710  1.00  0.00    -0.014 A 
BRANCH  44  45
ATOM     45  C   UNL A   1      40.147  29.283  29.553  1.00  0.00     0.031 A 
ATOM     46  C   UNL A   1      40.772  29.012  30.875  1.00  0.00     0.074 A 
ATOM     47  C   UNL A   1      40.683  28.741  28.439  1.00  0.00     0.049 A 
ATOM     48  N   UNL A   1      41.898  29.436  31.353  1.00  0.00    -0.248 NA
ATOM     49  C   UNL A   1      39.912  28.318  31.847  1.00  0.00     0.031 C 
ATOM     50  C   UNL A   1      40.056  28.566  27.129  1.00  0.00     0.029 A 
ATOM     51  N   UNL A   1      41.894  28.111  28.288  1.00  0.00    -0.354 N 
ATOM     52  C   UNL A   1      41.956  28.913  32.642  1.00  0.00     0.074 A 
ATOM     53  C   UNL A   1      40.635  28.433  32.954  1.00  0.00     0.031 C 
ATOM     54  C   UNL A   1      40.788  27.693  26.398  1.00  0.00     0.029 A 
ATOM     55  C   UNL A   1      41.990  27.339  27.138  1.00  0.00     0.049 A 
ATOM     56  H   UNL A   1      42.628  28.200  28.938  1.00  0.00     0.167 HD
ATOM     57  C   UNL A   1      43.128  28.682  33.294  1.00  0.00     0.034 A 
ATOM     58  C   UNL A   1      42.926  26.395  26.856  1.00  0.00     0.034 A 
ATOM     59  C   UNL A   1      44.219  29.410  32.717  1.00  0.00     0.049 A 
ATOM     60  C   UNL A   1      44.084  26.576  27.761  1.00  0.00     0.074 A 
ATOM     61  C   UNL A   1      44.526  30.746  32.564  1.00  0.00     0.029 A 
ATOM     62  N   UNL A   1      45.064  28.722  31.884  1.00  0.00    -0.354 N 
ATOM     63  N   UNL A   1      44.926  27.567  27.711  1.00  0.00    -0.248 NA
ATOM     64  C   UNL A   1      44.111  25.798  28.990  1.00  0.00     0.031 C 
ATOM     65  C   UNL A   1      45.253  30.826  31.344  1.00  0.00     0.029 A 
ATOM     66  C   UNL A   1      45.370  29.534  30.824  1.00  0.00     0.049 A 
ATOM     67  H   UNL A   1      45.392  27.805  32.024  1.00  0.00     0.167 HD
ATOM     68  C   UNL A   1      45.258  27.810  29.035  1.00  0.00     0.074 A 
ATOM     69  C   UNL A   1      44.842  26.611  29.754  1.00  0.00     0.031 C 
ATOM     70  C   UNL A   1      45.581  29.064  29.467  1.00  0.00     0.034 A 
BRANCH  57  71
ATOM     71  C   UNL A   1      43.308  27.518  34.240  1.00  0.00     0.023 A 
ATOM     72  C   UNL A   1      43.843  26.282  33.824  1.00  0.00     0.031 A 
ATOM     73  C   UNL A   1      43.147  27.676  35.627  1.00  0.00     0.131 A 
ATOM     74  C   UNL A   1      44.127  25.252  34.725  1.00  0.00     0.055 A 
ATOM     75  C   UNL A   1      43.511  26.676  36.541  1.00  0.00     0.041 A 
ATOM     76  F   UNL A   1      42.683  28.826  36.142  1.00  0.00    -0.206 F 
ATOM     77  C   UNL A   1      43.995  25.452  36.091  1.00  0.00     0.022 A 
BRANCH  74  78
ATOM     78  S   UNL A   1      44.664  23.633  34.106  1.00  0.00     0.124 S 
ATOM     79  O   UNL A   1      43.987  23.569  32.816  1.00  0.00    -0.237 OA
ATOM     80  O   UNL A   1      46.113  23.800  34.057  1.00  0.00    -0.237 OA
ATOM     81  O   UNL A   1      44.187  22.703  35.126  1.00  0.00    -0.744 OA
ENDBRANCH  74  78
ENDBRANCH  57  71
BRANCH  58  82
ATOM     82  C   UNL A   1      42.692  25.106  26.158  1.00  0.00     0.023 A 
ATOM     83  C   UNL A   1      41.665  24.258  26.610  1.00  0.00     0.031 A 
ATOM     84  C   UNL A   1      43.628  24.559  25.261  1.00  0.00     0.131 A 
ATOM     85  C   UNL A   1      41.604  22.921  26.199  1.00  0.00     0.055 A 
ATOM     86  C   UNL A   1      43.560  23.224  24.840  1.00  0.00     0.041 A 
ATOM     87  F   UNL A   1      44.663  25.294  24.822  1.00  0.00    -0.206 F 
ATOM     88  C   UNL A   1      42.549  22.394  25.317  1.00  0.00     0.022 A 
BRANCH  85  89
ATOM     89  S   UNL A   1      40.328  21.821  26.868  1.00  0.00     0.124 S 
ATOM     90  O   UNL A   1      40.492  20.624  26.046  1.00  0.00    -0.237 OA
ATOM     91  O   UNL A   1      40.747  21.691  28.259  1.00  0.00    -0.237 OA
ATOM     92  O   UNL A   1      39.089  22.559  26.642  1.00  0.00    -0.744 OA
ENDBRANCH  85  89
ENDBRANCH  58  82
BRANCH  70  93
ATOM     93  C   UNL A   1      45.924  30.125  28.444  1.00  0.00     0.023 A 
ATOM     94  C   UNL A   1      47.290  30.336  28.175  1.00  0.00     0.031 A 
ATOM     95  C   UNL A   1      45.007  31.049  27.909  1.00  0.00     0.131 A 
ATOM     96  C   UNL A   1      47.705  31.461  27.454  1.00  0.00     0.055 A 
ATOM     97  C   UNL A   1      45.423  32.118  27.109  1.00  0.00     0.041 A 
ATOM     98  F   UNL A   1      43.702  31.005  28.213  1.00  0.00    -0.206 F 
ATOM     99  C   UNL A   1      46.778  32.343  26.898  1.00  0.00     0.022 A 
BRANCH  96 100
ATOM    100  S   UNL A   1      49.462  31.890  27.348  1.00  0.00     0.124 S 
ATOM    101  O   UNL A   1      49.422  33.214  26.732  1.00  0.00    -0.237 OA
ATOM    102  O   UNL A   1      49.867  31.866  28.753  1.00  0.00    -0.237 OA
ATOM    103  O   UNL A   1      50.035  30.834  26.519  1.00  0.00    -0.744 OA
ENDBRANCH  96 100
ENDBRANCH  70  93
ENDBRANCH  44  45
ENDBRANCH  37  39
ENDBRANCH  36  37
ENDBRANCH  35  36
ENDBRANCH  34  35
ENDBRANCH  33  34
ENDBRANCH  32  33
ENDBRANCH  31  32
ENDBRANCH   1  31
TORSDOF 27
ENDMDL
