MODEL 1
REMARK VINA RESULT:     -10.5      0.000      0.000
REMARK SMILES Cc1ccnc(C(=O)c2[nH]c3cc(F)ccc3c2CC(=O)OCCOCCOCCOCCOC(=O)c2ccc(-c3c4nc(c(-c5cc(S(=O)(=O)[O-])ccc5F)c5ccc([nH]5)c(-c5cc(S(=O)(=O)[O-])ccc5F)c5nc(c(-c6cc(S(=O)(=O)[O-])ccc6F)c6ccc3[nH]6)C=C5)C=C4)cc2)c1
REMARK SMILES IDX 28 1 27 2 26 3 25 4 24 5 23 6 22 7 20 8 21 9 19 10 18 11
REMARK SMILES IDX 9 12 10 13 11 14 17 16 12 17 16 18 13 19 15 20 14 21 7 22
REMARK SMILES IDX 8 23 6 24 1 25 2 26 3 27 100 28 4 29 5 30 29 31 30 32 31 33
REMARK SMILES IDX 32 34 33 35 34 36 35 37 36 38 37 39 38 40 99 41 39 42 98 43
REMARK SMILES IDX 40 44 41 45 42 46 92 47 43 48 97 49 91 50 93 51 44 52 96 53
REMARK SMILES IDX 90 54 89 55 45 57 77 58 57 59 76 60 58 61 61 62 75 63 94 64
REMARK SMILES IDX 59 65 60 66 74 68 95 69 62 70 46 71 47 72 55 73 48 74 54 75
REMARK SMILES IDX 56 76 53 77 49 78 50 79 51 80 52 81 78 82 79 83 87 84 80 85
REMARK SMILES IDX 86 86 88 87 85 88 81 89 82 90 83 91 84 92 63 93 64 94 72 95
REMARK SMILES IDX 65 96 71 97 73 98 70 99 66 100 67 101 68 102 69 103
REMARK H PARENT 10 15 93 56 61 67
REMARK Flexibility Score: inf
ROOT
ATOM      1  O   UNL A   1      34.350  33.017  28.862  1.00  0.00    -0.377 OA
ENDROOT
BRANCH   1   2
ATOM      2  C   UNL A   1      34.848  32.004  28.005  1.00  0.00     0.188 C 
BRANCH   2   3
ATOM      3  C   UNL A   1      33.865  31.224  27.134  1.00  0.00     0.188 C 
BRANCH   3   4
ATOM      4  O   UNL A   1      33.378  29.995  27.630  1.00  0.00    -0.376 OA
BRANCH   4   5
ATOM      5  C   UNL A   1      32.063  29.606  27.231  1.00  0.00     0.202 C 
BRANCH   5   6
ATOM      6  C   UNL A   1      31.552  28.179  27.526  1.00  0.00     0.261 C 
BRANCH   6   7
ATOM      7  O   UNL A   1      31.206  27.381  26.359  1.00  0.00    -0.463 OA
BRANCH   7   8
ATOM      8  C   UNL A   1      31.697  26.118  26.329  1.00  0.00     0.310 C 
ATOM      9  O   UNL A   1      31.096  25.158  26.819  1.00  0.00    -0.252 OA
BRANCH   8  10
ATOM     10  C   UNL A   1      33.036  25.880  25.653  1.00  0.00     0.161 C 
BRANCH  10  11
ATOM     11  C   UNL A   1      33.264  24.790  24.627  1.00  0.00     0.000 A 
ATOM     12  C   UNL A   1      33.299  24.913  23.227  1.00  0.00     0.093 A 
ATOM     13  N   UNL A   1      33.598  23.655  22.740  1.00  0.00    -0.351 N 
ATOM     14  C   UNL A   1      33.297  22.704  23.684  1.00  0.00     0.049 A 
ATOM     15  H   UNL A   1      33.970  23.468  21.848  1.00  0.00     0.167 HD
ATOM     16  C   UNL A   1      33.120  23.381  24.890  1.00  0.00     0.004 A 
ATOM     17  C   UNL A   1      33.150  21.316  23.560  1.00  0.00     0.066 A 
ATOM     18  C   UNL A   1      32.765  22.630  26.033  1.00  0.00     0.013 A 
ATOM     19  C   UNL A   1      32.748  20.617  24.698  1.00  0.00     0.125 A 
ATOM     20  C   UNL A   1      32.555  21.251  25.917  1.00  0.00     0.040 A 
ATOM     21  F   UNL A   1      32.513  19.301  24.600  1.00  0.00    -0.207 F 
BRANCH  12  22
ATOM     22  C   UNL A   1      33.070  26.109  22.413  1.00  0.00     0.227 C 
ATOM     23  O   UNL A   1      33.861  26.482  21.545  1.00  0.00    -0.285 OA
BRANCH  22  24
ATOM     24  C   UNL A   1      31.892  26.997  22.636  1.00  0.00     0.113 A 
ATOM     25  C   UNL A   1      28.298  26.749  23.787  1.00  0.00     0.044 C 
ATOM     26  C   UNL A   1      29.632  27.295  23.371  1.00  0.00    -0.047 A 
ATOM     27  C   UNL A   1      29.926  28.647  23.578  1.00  0.00     0.023 A 
ATOM     28  C   UNL A   1      30.637  26.452  22.887  1.00  0.00     0.036 A 
ATOM     29  C   UNL A   1      31.194  29.106  23.271  1.00  0.00     0.112 A 
ATOM     30  N   UNL A   1      32.179  28.316  22.799  1.00  0.00    -0.253 NA
ENDBRANCH  22  24
ENDBRANCH  12  22
ENDBRANCH  10  11
ENDBRANCH   8  10
ENDBRANCH   7   8
ENDBRANCH   6   7
ENDBRANCH   5   6
ENDBRANCH   4   5
ENDBRANCH   3   4
ENDBRANCH   2   3
ENDBRANCH   1   2
BRANCH   1  31
ATOM     31  C   UNL A   1      33.812  34.212  28.310  1.00  0.00     0.188 C 
BRANCH  31  32
ATOM     32  C   UNL A   1      32.938  35.088  29.208  1.00  0.00     0.188 C 
BRANCH  32  33
ATOM     33  O   UNL A   1      33.563  35.758  30.307  1.00  0.00    -0.376 OA
BRANCH  33  34
ATOM     34  C   UNL A   1      33.676  35.082  31.555  1.00  0.00     0.202 C 
BRANCH  34  35
ATOM     35  C   UNL A   1      35.097  34.677  31.937  1.00  0.00     0.261 C 
BRANCH  35  36
ATOM     36  O   UNL A   1      35.288  33.263  31.804  1.00  0.00    -0.460 OA
BRANCH  36  37
ATOM     37  C   UNL A   1      36.052  32.695  32.772  1.00  0.00     0.338 C 
ATOM     38  O   UNL A   1      35.734  32.455  33.916  1.00  0.00    -0.246 OA
BRANCH  37  39
ATOM     39  C   UNL A   1      37.310  32.232  32.152  1.00  0.00     0.060 A 
ATOM     40  C   UNL A   1      37.449  32.364  30.765  1.00  0.00     0.016 A 
ATOM     41  C   UNL A   1      38.328  31.668  32.924  1.00  0.00     0.016 A 
ATOM     42  C   UNL A   1      38.611  31.922  30.140  1.00  0.00     0.010 A 
ATOM     43  C   UNL A   1      39.481  31.204  32.293  1.00  0.00     0.010 A 
ATOM     44  C   UNL A   1      39.616  31.314  30.898  1.00  0.00    -0.014 A 
BRANCH  44  45
ATOM     45  C   UNL A   1      40.750  30.646  30.222  1.00  0.00     0.031 A 
ATOM     46  C   UNL A   1      42.024  31.417  30.044  1.00  0.00     0.074 A 
ATOM     47  C   UNL A   1      40.627  29.385  29.773  1.00  0.00     0.049 A 
ATOM     48  N   UNL A   1      43.104  31.094  29.384  1.00  0.00    -0.248 NA
ATOM     49  C   UNL A   1      42.087  32.737  30.696  1.00  0.00     0.031 C 
ATOM     50  C   UNL A   1      39.452  28.535  29.957  1.00  0.00     0.029 A 
ATOM     51  N   UNL A   1      41.497  28.608  29.055  1.00  0.00    -0.354 N 
ATOM     52  C   UNL A   1      43.970  32.172  29.527  1.00  0.00     0.074 A 
ATOM     53  C   UNL A   1      43.283  33.167  30.321  1.00  0.00     0.031 C 
ATOM     54  C   UNL A   1      39.668  27.356  29.349  1.00  0.00     0.029 A 
ATOM     55  C   UNL A   1      40.971  27.390  28.688  1.00  0.00     0.049 A 
ATOM     56  H   UNL A   1      42.410  28.892  28.823  1.00  0.00     0.167 HD
ATOM     57  C   UNL A   1      45.223  32.312  29.034  1.00  0.00     0.034 A 
ATOM     58  C   UNL A   1      41.473  26.440  27.875  1.00  0.00     0.034 A 
ATOM     59  C   UNL A   1      45.877  31.305  28.235  1.00  0.00     0.049 A 
ATOM     60  C   UNL A   1      42.828  26.673  27.244  1.00  0.00     0.074 A 
ATOM     61  C   UNL A   1      47.153  31.324  27.704  1.00  0.00     0.029 A 
ATOM     62  N   UNL A   1      45.296  30.108  27.834  1.00  0.00    -0.354 N 
ATOM     63  N   UNL A   1      43.650  27.688  27.400  1.00  0.00    -0.248 NA
ATOM     64  C   UNL A   1      43.320  25.638  26.326  1.00  0.00     0.031 C 
ATOM     65  C   UNL A   1      47.311  30.184  26.910  1.00  0.00     0.029 A 
ATOM     66  C   UNL A   1      46.169  29.407  27.019  1.00  0.00     0.049 A 
ATOM     67  H   UNL A   1      44.396  29.803  28.093  1.00  0.00     0.167 HD
ATOM     68  C   UNL A   1      44.767  27.393  26.621  1.00  0.00     0.074 A 
ATOM     69  C   UNL A   1      44.522  26.100  26.017  1.00  0.00     0.031 C 
ATOM     70  C   UNL A   1      45.894  28.123  26.419  1.00  0.00     0.034 A 
BRANCH  57  71
ATOM     71  C   UNL A   1      45.936  33.617  29.283  1.00  0.00     0.023 A 
ATOM     72  C   UNL A   1      45.880  34.685  28.372  1.00  0.00     0.031 A 
ATOM     73  C   UNL A   1      46.686  33.791  30.459  1.00  0.00     0.131 A 
ATOM     74  C   UNL A   1      46.599  35.861  28.630  1.00  0.00     0.055 A 
ATOM     75  C   UNL A   1      47.340  34.991  30.745  1.00  0.00     0.041 A 
ATOM     76  F   UNL A   1      46.801  32.795  31.351  1.00  0.00    -0.206 F 
ATOM     77  C   UNL A   1      47.306  36.031  29.823  1.00  0.00     0.022 A 
BRANCH  74  78
ATOM     78  S   UNL A   1      46.698  37.124  27.332  1.00  0.00     0.124 S 
ATOM     79  O   UNL A   1      46.986  36.313  26.152  1.00  0.00    -0.237 OA
ATOM     80  O   UNL A   1      45.373  37.732  27.381  1.00  0.00    -0.237 OA
ATOM     81  O   UNL A   1      47.796  37.984  27.772  1.00  0.00    -0.744 OA
ENDBRANCH  74  78
ENDBRANCH  57  71
BRANCH  58  82
ATOM     82  C   UNL A   1      40.689  25.211  27.552  1.00  0.00     0.023 A 
ATOM     83  C   UNL A   1      41.248  23.936  27.716  1.00  0.00     0.031 A 
ATOM     84  C   UNL A   1      39.400  25.296  26.992  1.00  0.00     0.131 A 
ATOM     85  C   UNL A   1      40.552  22.802  27.268  1.00  0.00     0.055 A 
ATOM     86  C   UNL A   1      38.683  24.159  26.612  1.00  0.00     0.041 A 
ATOM     87  F   UNL A   1      38.817  26.490  26.802  1.00  0.00    -0.206 F 
ATOM     88  C   UNL A   1      39.267  22.903  26.732  1.00  0.00     0.022 A 
BRANCH  85  89
ATOM     89  S   UNL A   1      41.408  21.202  27.280  1.00  0.00     0.124 S 
ATOM     90  O   UNL A   1      40.967  20.640  28.551  1.00  0.00    -0.237 OA
ATOM     91  O   UNL A   1      40.878  20.567  26.079  1.00  0.00    -0.237 OA
ATOM     92  O   UNL A   1      42.820  21.573  27.217  1.00  0.00    -0.744 OA
ENDBRANCH  85  89
ENDBRANCH  58  82
BRANCH  70  93
ATOM     93  C   UNL A   1      46.955  27.516  25.534  1.00  0.00     0.023 A 
ATOM     94  C   UNL A   1      47.162  27.964  24.217  1.00  0.00     0.031 A 
ATOM     95  C   UNL A   1      47.773  26.476  26.014  1.00  0.00     0.131 A 
ATOM     96  C   UNL A   1      48.122  27.339  23.409  1.00  0.00     0.055 A 
ATOM     97  C   UNL A   1      48.773  25.906  25.228  1.00  0.00     0.041 A 
ATOM     98  F   UNL A   1      47.617  26.006  27.262  1.00  0.00    -0.206 F 
ATOM     99  C   UNL A   1      48.943  26.327  23.913  1.00  0.00     0.022 A 
BRANCH  96 100
ATOM    100  S   UNL A   1      48.221  27.803  21.659  1.00  0.00     0.124 S 
ATOM    101  O   UNL A   1      48.481  26.516  21.020  1.00  0.00    -0.237 OA
ATOM    102  O   UNL A   1      46.904  28.382  21.414  1.00  0.00    -0.237 OA
ATOM    103  O   UNL A   1      49.332  28.751  21.618  1.00  0.00    -0.744 OA
ENDBRANCH  96 100
ENDBRANCH  70  93
ENDBRANCH  44  45
ENDBRANCH  37  39
ENDBRANCH  36  37
ENDBRANCH  35  36
ENDBRANCH  34  35
ENDBRANCH  33  34
ENDBRANCH  32  33
ENDBRANCH  31  32
ENDBRANCH   1  31
TORSDOF 26
ENDMDL
MODEL 2
REMARK VINA RESULT:      -9.8      4.017      9.359
REMARK SMILES Cc1ccnc(C(=O)c2[nH]c3cc(F)ccc3c2CC(=O)OCCOCCOCCOCCOC(=O)c2ccc(-c3c4nc(c(-c5cc(S(=O)(=O)[O-])ccc5F)c5ccc([nH]5)c(-c5cc(S(=O)(=O)[O-])ccc5F)c5nc(c(-c6cc(S(=O)(=O)[O-])ccc6F)c6ccc3[nH]6)C=C5)C=C4)cc2)c1
REMARK SMILES IDX 28 1 27 2 26 3 25 4 24 5 23 6 22 7 20 8 21 9 19 10 18 11
REMARK SMILES IDX 9 12 10 13 11 14 17 16 12 17 16 18 13 19 15 20 14 21 7 22
REMARK SMILES IDX 8 23 6 24 1 25 2 26 3 27 100 28 4 29 5 30 29 31 30 32 31 33
REMARK SMILES IDX 32 34 33 35 34 36 35 37 36 38 37 39 38 40 99 41 39 42 98 43
REMARK SMILES IDX 40 44 41 45 42 46 92 47 43 48 97 49 91 50 93 51 44 52 96 53
REMARK SMILES IDX 90 54 89 55 45 57 77 58 57 59 76 60 58 61 61 62 75 63 94 64
REMARK SMILES IDX 59 65 60 66 74 68 95 69 62 70 46 71 47 72 55 73 48 74 54 75
REMARK SMILES IDX 56 76 53 77 49 78 50 79 51 80 52 81 78 82 79 83 87 84 80 85
REMARK SMILES IDX 86 86 88 87 85 88 81 89 82 90 83 91 84 92 63 93 64 94 72 95
REMARK SMILES IDX 65 96 71 97 73 98 70 99 66 100 67 101 68 102 69 103
REMARK H PARENT 10 15 93 56 61 67
REMARK Flexibility Score: inf
ROOT
ATOM      1  O   UNL A   1      32.945  36.602  30.078  1.00  0.00    -0.377 OA
ENDROOT
BRANCH   1   2
ATOM      2  C   UNL A   1      33.052  35.838  28.889  1.00  0.00     0.188 C 
BRANCH   2   3
ATOM      3  C   UNL A   1      33.524  34.388  28.984  1.00  0.00     0.188 C 
BRANCH   3   4
ATOM      4  O   UNL A   1      33.636  33.653  27.784  1.00  0.00    -0.376 OA
BRANCH   4   5
ATOM      5  C   UNL A   1      34.116  32.311  27.885  1.00  0.00     0.202 C 
BRANCH   5   6
ATOM      6  C   UNL A   1      33.175  31.126  27.577  1.00  0.00     0.261 C 
BRANCH   6   7
ATOM      7  O   UNL A   1      33.517  30.341  26.400  1.00  0.00    -0.463 OA
BRANCH   7   8
ATOM      8  C   UNL A   1      32.777  29.225  26.188  1.00  0.00     0.310 C 
ATOM      9  O   UNL A   1      31.584  29.148  26.494  1.00  0.00    -0.252 OA
BRANCH   8  10
ATOM     10  C   UNL A   1      33.447  28.027  25.537  1.00  0.00     0.161 C 
BRANCH  10  11
ATOM     11  C   UNL A   1      32.687  26.979  24.752  1.00  0.00     0.000 A 
ATOM     12  C   UNL A   1      31.946  27.149  23.569  1.00  0.00     0.093 A 
ATOM     13  N   UNL A   1      31.498  25.892  23.214  1.00  0.00    -0.351 N 
ATOM     14  C   UNL A   1      31.516  25.062  24.308  1.00  0.00     0.049 A 
ATOM     15  H   UNL A   1      31.208  25.630  22.310  1.00  0.00     0.167 HD
ATOM     16  C   UNL A   1      32.288  25.699  25.278  1.00  0.00     0.004 A 
ATOM     17  C   UNL A   1      30.898  23.822  24.516  1.00  0.00     0.066 A 
ATOM     18  C   UNL A   1      32.441  25.065  26.533  1.00  0.00     0.013 A 
ATOM     19  C   UNL A   1      31.029  23.254  25.783  1.00  0.00     0.125 A 
ATOM     20  C   UNL A   1      31.783  23.855  26.781  1.00  0.00     0.040 A 
ATOM     21  F   UNL A   1      30.383  22.111  26.051  1.00  0.00    -0.207 F 
BRANCH  12  22
ATOM     22  C   UNL A   1      31.680  28.388  22.834  1.00  0.00     0.227 C 
ATOM     23  O   UNL A   1      32.566  29.199  22.558  1.00  0.00    -0.285 OA
BRANCH  22  24
ATOM     24  C   UNL A   1      30.298  28.783  22.434  1.00  0.00     0.113 A 
ATOM     25  C   UNL A   1      26.736  28.327  23.618  1.00  0.00     0.044 C 
ATOM     26  C   UNL A   1      27.943  28.809  22.869  1.00  0.00    -0.047 A 
ATOM     27  C   UNL A   1      27.851  29.943  22.056  1.00  0.00     0.023 A 
ATOM     28  C   UNL A   1      29.195  28.214  23.060  1.00  0.00     0.036 A 
ATOM     29  C   UNL A   1      28.999  30.420  21.448  1.00  0.00     0.112 A 
ATOM     30  N   UNL A   1      30.215  29.864  21.613  1.00  0.00    -0.253 NA
ENDBRANCH  22  24
ENDBRANCH  12  22
ENDBRANCH  10  11
ENDBRANCH   8  10
ENDBRANCH   7   8
ENDBRANCH   6   7
ENDBRANCH   5   6
ENDBRANCH   4   5
ENDBRANCH   3   4
ENDBRANCH   2   3
ENDBRANCH   1   2
BRANCH   1  31
ATOM     31  C   UNL A   1      32.275  36.064  31.211  1.00  0.00     0.188 C 
BRANCH  31  32
ATOM     32  C   UNL A   1      33.116  35.680  32.428  1.00  0.00     0.188 C 
BRANCH  32  33
ATOM     33  O   UNL A   1      34.448  36.198  32.514  1.00  0.00    -0.376 OA
BRANCH  33  34
ATOM     34  C   UNL A   1      35.505  35.325  32.902  1.00  0.00     0.202 C 
BRANCH  34  35
ATOM     35  C   UNL A   1      35.906  34.299  31.846  1.00  0.00     0.261 C 
BRANCH  35  36
ATOM     36  O   UNL A   1      37.214  34.574  31.326  1.00  0.00    -0.460 OA
BRANCH  36  37
ATOM     37  C   UNL A   1      38.239  34.062  32.054  1.00  0.00     0.338 C 
ATOM     38  O   UNL A   1      38.169  33.462  33.104  1.00  0.00    -0.246 OA
BRANCH  37  39
ATOM     39  C   UNL A   1      39.477  34.192  31.260  1.00  0.00     0.060 A 
ATOM     40  C   UNL A   1      40.701  33.980  31.906  1.00  0.00     0.016 A 
ATOM     41  C   UNL A   1      39.431  34.527  29.904  1.00  0.00     0.016 A 
ATOM     42  C   UNL A   1      41.891  34.112  31.198  1.00  0.00     0.010 A 
ATOM     43  C   UNL A   1      40.625  34.681  29.202  1.00  0.00     0.010 A 
ATOM     44  C   UNL A   1      41.858  34.493  29.853  1.00  0.00    -0.014 A 
BRANCH  44  45
ATOM     45  C   UNL A   1      43.111  34.849  29.154  1.00  0.00     0.031 A 
ATOM     46  C   UNL A   1      44.012  33.737  28.702  1.00  0.00     0.074 A 
ATOM     47  C   UNL A   1      43.431  36.137  28.944  1.00  0.00     0.049 A 
ATOM     48  N   UNL A   1      45.208  33.800  28.182  1.00  0.00    -0.248 NA
ATOM     49  C   UNL A   1      43.494  32.368  28.865  1.00  0.00     0.031 C 
ATOM     50  C   UNL A   1      42.589  37.282  29.288  1.00  0.00     0.029 A 
ATOM     51  N   UNL A   1      44.559  36.698  28.405  1.00  0.00    -0.354 N 
ATOM     52  C   UNL A   1      45.595  32.482  27.967  1.00  0.00     0.074 A 
ATOM     53  C   UNL A   1      44.513  31.640  28.431  1.00  0.00     0.031 C 
ATOM     54  C   UNL A   1      43.241  38.413  28.968  1.00  0.00     0.029 A 
ATOM     55  C   UNL A   1      44.564  38.073  28.449  1.00  0.00     0.049 A 
ATOM     56  H   UNL A   1      45.295  36.169  28.023  1.00  0.00     0.167 HD
ATOM     57  C   UNL A   1      46.752  32.024  27.434  1.00  0.00     0.034 A 
ATOM     58  C   UNL A   1      45.544  38.946  28.145  1.00  0.00     0.034 A 
ATOM     59  C   UNL A   1      47.817  32.888  26.991  1.00  0.00     0.049 A 
ATOM     60  C   UNL A   1      46.869  38.401  27.660  1.00  0.00     0.074 A 
ATOM     61  C   UNL A   1      49.022  32.540  26.410  1.00  0.00     0.029 A 
ATOM     62  N   UNL A   1      47.814  34.273  27.102  1.00  0.00    -0.354 N 
ATOM     63  N   UNL A   1      47.220  37.152  27.440  1.00  0.00    -0.248 NA
ATOM     64  C   UNL A   1      47.929  39.379  27.385  1.00  0.00     0.031 C 
ATOM     65  C   UNL A   1      49.782  33.702  26.253  1.00  0.00     0.029 A 
ATOM     66  C   UNL A   1      49.017  34.788  26.649  1.00  0.00     0.049 A 
ATOM     67  H   UNL A   1      47.065  34.810  27.450  1.00  0.00     0.167 HD
ATOM     68  C   UNL A   1      48.532  37.204  26.975  1.00  0.00     0.074 A 
ATOM     69  C   UNL A   1      48.899  38.604  26.924  1.00  0.00     0.031 C 
ATOM     70  C   UNL A   1      49.363  36.190  26.621  1.00  0.00     0.034 A 
BRANCH  57  71
ATOM     71  C   UNL A   1      46.952  30.531  27.364  1.00  0.00     0.023 A 
ATOM     72  C   UNL A   1      46.564  29.776  26.244  1.00  0.00     0.031 A 
ATOM     73  C   UNL A   1      47.544  29.852  28.443  1.00  0.00     0.131 A 
ATOM     74  C   UNL A   1      46.730  28.383  26.248  1.00  0.00     0.055 A 
ATOM     75  C   UNL A   1      47.774  28.475  28.412  1.00  0.00     0.041 A 
ATOM     76  F   UNL A   1      47.907  30.516  29.553  1.00  0.00    -0.206 F 
ATOM     77  C   UNL A   1      47.357  27.732  27.314  1.00  0.00     0.022 A 
BRANCH  74  78
ATOM     78  S   UNL A   1      46.008  27.415  24.895  1.00  0.00     0.124 S 
ATOM     79  O   UNL A   1      46.671  27.997  23.730  1.00  0.00    -0.237 OA
ATOM     80  O   UNL A   1      46.397  26.053  25.238  1.00  0.00    -0.237 OA
ATOM     81  O   UNL A   1      44.577  27.700  24.995  1.00  0.00    -0.744 OA
ENDBRANCH  74  78
ENDBRANCH  57  71
BRANCH  58  82
ATOM     82  C   UNL A   1      45.355  40.414  28.340  1.00  0.00     0.023 A 
ATOM     83  C   UNL A   1      45.231  40.959  29.626  1.00  0.00     0.031 A 
ATOM     84  C   UNL A   1      45.209  41.283  27.242  1.00  0.00     0.131 A 
ATOM     85  C   UNL A   1      44.906  42.316  29.784  1.00  0.00     0.055 A 
ATOM     86  C   UNL A   1      44.955  42.646  27.406  1.00  0.00     0.041 A 
ATOM     87  F   UNL A   1      45.308  40.817  25.987  1.00  0.00    -0.206 F 
ATOM     88  C   UNL A   1      44.783  43.166  28.684  1.00  0.00     0.022 A 
BRANCH  85  89
ATOM     89  S   UNL A   1      44.520  42.923  31.450  1.00  0.00     0.124 S 
ATOM     90  O   UNL A   1      43.131  43.342  31.297  1.00  0.00    -0.237 OA
ATOM     91  O   UNL A   1      44.745  41.733  32.264  1.00  0.00    -0.237 OA
ATOM     92  O   UNL A   1      45.481  44.005  31.648  1.00  0.00    -0.744 OA
ENDBRANCH  85  89
ENDBRANCH  58  82
BRANCH  70  93
ATOM     93  C   UNL A   1      50.734  36.569  26.117  1.00  0.00     0.023 A 
ATOM     94  C   UNL A   1      51.812  36.771  26.997  1.00  0.00     0.031 A 
ATOM     95  C   UNL A   1      50.967  36.728  24.739  1.00  0.00     0.131 A 
ATOM     96  C   UNL A   1      53.057  37.174  26.495  1.00  0.00     0.055 A 
ATOM     97  C   UNL A   1      52.226  37.061  24.240  1.00  0.00     0.041 A 
ATOM     98  F   UNL A   1      49.973  36.551  23.854  1.00  0.00    -0.206 F 
ATOM     99  C   UNL A   1      53.277  37.300  25.121  1.00  0.00     0.022 A 
BRANCH  96 100
ATOM    100  S   UNL A   1      54.364  37.623  27.669  1.00  0.00     0.124 S 
ATOM    101  O   UNL A   1      55.165  38.559  26.885  1.00  0.00    -0.237 OA
ATOM    102  O   UNL A   1      53.608  38.201  28.774  1.00  0.00    -0.237 OA
ATOM    103  O   UNL A   1      55.014  36.347  27.963  1.00  0.00    -0.744 OA
ENDBRANCH  96 100
ENDBRANCH  70  93
ENDBRANCH  44  45
ENDBRANCH  37  39
ENDBRANCH  36  37
ENDBRANCH  35  36
ENDBRANCH  34  35
ENDBRANCH  33  34
ENDBRANCH  32  33
ENDBRANCH  31  32
ENDBRANCH   1  31
TORSDOF 26
ENDMDL
MODEL 3
REMARK VINA RESULT:      -9.1      4.033      7.822
REMARK SMILES Cc1ccnc(C(=O)c2[nH]c3cc(F)ccc3c2CC(=O)OCCOCCOCCOCCOC(=O)c2ccc(-c3c4nc(c(-c5cc(S(=O)(=O)[O-])ccc5F)c5ccc([nH]5)c(-c5cc(S(=O)(=O)[O-])ccc5F)c5nc(c(-c6cc(S(=O)(=O)[O-])ccc6F)c6ccc3[nH]6)C=C5)C=C4)cc2)c1
REMARK SMILES IDX 28 1 27 2 26 3 25 4 24 5 23 6 22 7 20 8 21 9 19 10 18 11
REMARK SMILES IDX 9 12 10 13 11 14 17 16 12 17 16 18 13 19 15 20 14 21 7 22
REMARK SMILES IDX 8 23 6 24 1 25 2 26 3 27 100 28 4 29 5 30 29 31 30 32 31 33
REMARK SMILES IDX 32 34 33 35 34 36 35 37 36 38 37 39 38 40 99 41 39 42 98 43
REMARK SMILES IDX 40 44 41 45 42 46 92 47 43 48 97 49 91 50 93 51 44 52 96 53
REMARK SMILES IDX 90 54 89 55 45 57 77 58 57 59 76 60 58 61 61 62 75 63 94 64
REMARK SMILES IDX 59 65 60 66 74 68 95 69 62 70 46 71 47 72 55 73 48 74 54 75
REMARK SMILES IDX 56 76 53 77 49 78 50 79 51 80 52 81 78 82 79 83 87 84 80 85
REMARK SMILES IDX 86 86 88 87 85 88 81 89 82 90 83 91 84 92 63 93 64 94 72 95
REMARK SMILES IDX 65 96 71 97 73 98 70 99 66 100 67 101 68 102 69 103
REMARK H PARENT 10 15 93 56 61 67
REMARK Flexibility Score: inf
ROOT
ATOM      1  O   UNL A   1      35.030  32.308  30.273  1.00  0.00    -0.377 OA
ENDROOT
BRANCH   1   2
ATOM      2  C   UNL A   1      36.026  31.722  29.453  1.00  0.00     0.188 C 
BRANCH   2   3
ATOM      3  C   UNL A   1      35.685  31.389  28.002  1.00  0.00     0.188 C 
BRANCH   3   4
ATOM      4  O   UNL A   1      34.798  30.318  27.763  1.00  0.00    -0.376 OA
BRANCH   4   5
ATOM      5  C   UNL A   1      33.516  30.641  27.221  1.00  0.00     0.202 C 
BRANCH   5   6
ATOM      6  C   UNL A   1      32.409  29.568  27.154  1.00  0.00     0.261 C 
BRANCH   6   7
ATOM      7  O   UNL A   1      32.570  28.562  26.114  1.00  0.00    -0.463 OA
BRANCH   7   8
ATOM      8  C   UNL A   1      32.440  27.270  26.504  1.00  0.00     0.310 C 
ATOM      9  O   UNL A   1      31.466  26.862  27.143  1.00  0.00    -0.252 OA
BRANCH   8  10
ATOM     10  C   UNL A   1      33.535  26.287  26.127  1.00  0.00     0.161 C 
BRANCH  10  11
ATOM     11  C   UNL A   1      33.383  25.262  25.024  1.00  0.00     0.000 A 
ATOM     12  C   UNL A   1      33.863  23.940  24.998  1.00  0.00     0.093 A 
ATOM     13  N   UNL A   1      33.417  23.395  23.810  1.00  0.00    -0.351 N 
ATOM     14  C   UNL A   1      33.107  24.397  22.922  1.00  0.00     0.049 A 
ATOM     15  H   UNL A   1      33.336  22.431  23.625  1.00  0.00     0.167 HD
ATOM     16  C   UNL A   1      33.039  25.577  23.661  1.00  0.00     0.004 A 
ATOM     17  C   UNL A   1      32.903  24.351  21.537  1.00  0.00     0.066 A 
ATOM     18  C   UNL A   1      32.764  26.781  22.975  1.00  0.00     0.013 A 
ATOM     19  C   UNL A   1      32.687  25.566  20.888  1.00  0.00     0.125 A 
ATOM     20  C   UNL A   1      32.618  26.766  21.582  1.00  0.00     0.040 A 
ATOM     21  F   UNL A   1      32.573  25.577  19.553  1.00  0.00    -0.207 F 
BRANCH  12  22
ATOM     22  C   UNL A   1      34.672  23.247  26.003  1.00  0.00     0.227 C 
ATOM     23  O   UNL A   1      34.203  22.843  27.068  1.00  0.00    -0.285 OA
BRANCH  22  24
ATOM     24  C   UNL A   1      36.141  23.049  25.829  1.00  0.00     0.113 A 
ATOM     25  C   UNL A   1      39.383  24.802  26.675  1.00  0.00     0.044 C 
ATOM     26  C   UNL A   1      38.390  23.771  26.230  1.00  0.00    -0.047 A 
ATOM     27  C   UNL A   1      38.801  22.449  26.027  1.00  0.00     0.023 A 
ATOM     28  C   UNL A   1      37.029  24.078  26.126  1.00  0.00     0.036 A 
ATOM     29  C   UNL A   1      37.849  21.498  25.705  1.00  0.00     0.112 A 
ATOM     30  N   UNL A   1      36.533  21.769  25.596  1.00  0.00    -0.253 NA
ENDBRANCH  22  24
ENDBRANCH  12  22
ENDBRANCH  10  11
ENDBRANCH   8  10
ENDBRANCH   7   8
ENDBRANCH   6   7
ENDBRANCH   5   6
ENDBRANCH   4   5
ENDBRANCH   3   4
ENDBRANCH   2   3
ENDBRANCH   1   2
BRANCH   1  31
ATOM     31  C   UNL A   1      34.445  33.550  29.903  1.00  0.00     0.188 C 
BRANCH  31  32
ATOM     32  C   UNL A   1      33.995  34.493  31.019  1.00  0.00     0.188 C 
BRANCH  32  33
ATOM     33  O   UNL A   1      35.004  35.143  31.798  1.00  0.00    -0.376 OA
BRANCH  33  34
ATOM     34  C   UNL A   1      35.190  34.751  33.154  1.00  0.00     0.202 C 
BRANCH  34  35
ATOM     35  C   UNL A   1      36.485  33.990  33.428  1.00  0.00     0.261 C 
BRANCH  35  36
ATOM     36  O   UNL A   1      36.231  32.775  34.146  1.00  0.00    -0.460 OA
BRANCH  36  37
ATOM     37  C   UNL A   1      37.151  32.470  35.096  1.00  0.00     0.338 C 
ATOM     38  O   UNL A   1      37.025  32.556  36.298  1.00  0.00    -0.246 OA
BRANCH  37  39
ATOM     39  C   UNL A   1      38.301  31.824  34.433  1.00  0.00     0.060 A 
ATOM     40  C   UNL A   1      39.589  32.182  34.850  1.00  0.00     0.016 A 
ATOM     41  C   UNL A   1      38.112  30.891  33.410  1.00  0.00     0.016 A 
ATOM     42  C   UNL A   1      40.700  31.611  34.236  1.00  0.00     0.010 A 
ATOM     43  C   UNL A   1      39.226  30.338  32.781  1.00  0.00     0.010 A 
ATOM     44  C   UNL A   1      40.522  30.712  33.180  1.00  0.00    -0.014 A 
BRANCH  44  45
ATOM     45  C   UNL A   1      41.685  30.271  32.381  1.00  0.00     0.031 A 
ATOM     46  C   UNL A   1      42.346  28.974  32.745  1.00  0.00     0.074 A 
ATOM     47  C   UNL A   1      42.137  31.025  31.364  1.00  0.00     0.049 A 
ATOM     48  N   UNL A   1      43.442  28.442  32.275  1.00  0.00    -0.248 NA
ATOM     49  C   UNL A   1      41.682  28.170  33.786  1.00  0.00     0.031 C 
ATOM     50  C   UNL A   1      41.521  32.265  30.896  1.00  0.00     0.029 A 
ATOM     51  N   UNL A   1      43.230  30.863  30.554  1.00  0.00    -0.354 N 
ATOM     52  C   UNL A   1      43.610  27.250  32.970  1.00  0.00     0.074 A 
ATOM     53  C   UNL A   1      42.513  27.145  33.907  1.00  0.00     0.031 C 
ATOM     54  C   UNL A   1      42.259  32.764  29.889  1.00  0.00     0.029 A 
ATOM     55  C   UNL A   1      43.426  31.909  29.680  1.00  0.00     0.049 A 
ATOM     56  H   UNL A   1      43.819  30.076  30.592  1.00  0.00     0.167 HD
ATOM     57  C   UNL A   1      44.596  26.331  32.834  1.00  0.00     0.034 A 
ATOM     58  C   UNL A   1      44.453  32.159  28.846  1.00  0.00     0.034 A 
ATOM     59  C   UNL A   1      45.684  26.470  31.898  1.00  0.00     0.049 A 
ATOM     60  C   UNL A   1      45.599  31.173  28.799  1.00  0.00     0.074 A 
ATOM     61  C   UNL A   1      46.724  25.593  31.652  1.00  0.00     0.029 A 
ATOM     62  N   UNL A   1      45.883  27.567  31.069  1.00  0.00    -0.354 N 
ATOM     63  N   UNL A   1      45.741  30.037  29.445  1.00  0.00    -0.248 NA
ATOM     64  C   UNL A   1      46.724  31.505  27.914  1.00  0.00     0.031 C 
ATOM     65  C   UNL A   1      47.598  26.197  30.744  1.00  0.00     0.029 A 
ATOM     66  C   UNL A   1      47.057  27.411  30.351  1.00  0.00     0.049 A 
ATOM     67  H   UNL A   1      45.278  28.341  31.001  1.00  0.00     0.167 HD
ATOM     68  C   UNL A   1      46.958  29.508  29.019  1.00  0.00     0.074 A 
ATOM     69  C   UNL A   1      47.496  30.436  28.047  1.00  0.00     0.031 C 
ATOM     70  C   UNL A   1      47.579  28.360  29.395  1.00  0.00     0.034 A 
BRANCH  57  71
ATOM     71  C   UNL A   1      44.581  25.141  33.759  1.00  0.00     0.023 A 
ATOM     72  C   UNL A   1      44.985  25.232  35.102  1.00  0.00     0.031 A 
ATOM     73  C   UNL A   1      44.152  23.889  33.283  1.00  0.00     0.131 A 
ATOM     74  C   UNL A   1      44.997  24.084  35.908  1.00  0.00     0.055 A 
ATOM     75  C   UNL A   1      44.095  22.766  34.111  1.00  0.00     0.041 A 
ATOM     76  F   UNL A   1      43.783  23.735  32.002  1.00  0.00    -0.206 F 
ATOM     77  C   UNL A   1      44.529  22.858  35.428  1.00  0.00     0.022 A 
BRANCH  74  78
ATOM     78  S   UNL A   1      45.744  24.186  37.558  1.00  0.00     0.124 S 
ATOM     79  O   UNL A   1      44.618  24.655  38.363  1.00  0.00    -0.237 OA
ATOM     80  O   UNL A   1      46.171  22.812  37.796  1.00  0.00    -0.237 OA
ATOM     81  O   UNL A   1      46.825  25.155  37.386  1.00  0.00    -0.744 OA
ENDBRANCH  74  78
ENDBRANCH  57  71
BRANCH  58  82
ATOM     82  C   UNL A   1      44.496  33.409  28.031  1.00  0.00     0.023 A 
ATOM     83  C   UNL A   1      44.831  34.639  28.617  1.00  0.00     0.031 A 
ATOM     84  C   UNL A   1      44.118  33.409  26.675  1.00  0.00     0.131 A 
ATOM     85  C   UNL A   1      44.721  35.823  27.871  1.00  0.00     0.055 A 
ATOM     86  C   UNL A   1      44.077  34.582  25.919  1.00  0.00     0.041 A 
ATOM     87  F   UNL A   1      43.777  32.264  26.063  1.00  0.00    -0.206 F 
ATOM     88  C   UNL A   1      44.363  35.802  26.522  1.00  0.00     0.022 A 
BRANCH  85  89
ATOM     89  S   UNL A   1      44.931  37.407  28.731  1.00  0.00     0.124 S 
ATOM     90  O   UNL A   1      44.691  37.024  30.118  1.00  0.00    -0.237 OA
ATOM     91  O   UNL A   1      46.306  37.755  28.391  1.00  0.00    -0.237 OA
ATOM     92  O   UNL A   1      43.906  38.258  28.131  1.00  0.00    -0.744 OA
ENDBRANCH  85  89
ENDBRANCH  58  82
BRANCH  70  93
ATOM     93  C   UNL A   1      48.891  28.037  28.724  1.00  0.00     0.023 A 
ATOM     94  C   UNL A   1      48.942  27.492  27.428  1.00  0.00     0.031 A 
ATOM     95  C   UNL A   1      50.108  28.280  29.386  1.00  0.00     0.131 A 
ATOM     96  C   UNL A   1      50.178  27.157  26.860  1.00  0.00     0.055 A 
ATOM     97  C   UNL A   1      51.338  28.010  28.788  1.00  0.00     0.041 A 
ATOM     98  F   UNL A   1      50.119  28.797  30.626  1.00  0.00    -0.206 F 
ATOM     99  C   UNL A   1      51.377  27.432  27.522  1.00  0.00     0.022 A 
BRANCH  96 100
ATOM    100  S   UNL A   1      50.196  26.270  25.278  1.00  0.00     0.124 S 
ATOM    101  O   UNL A   1      48.914  25.572  25.309  1.00  0.00    -0.237 OA
ATOM    102  O   UNL A   1      50.308  27.357  24.311  1.00  0.00    -0.237 OA
ATOM    103  O   UNL A   1      51.373  25.410  25.381  1.00  0.00    -0.744 OA
ENDBRANCH  96 100
ENDBRANCH  70  93
ENDBRANCH  44  45
ENDBRANCH  37  39
ENDBRANCH  36  37
ENDBRANCH  35  36
ENDBRANCH  34  35
ENDBRANCH  33  34
ENDBRANCH  32  33
ENDBRANCH  31  32
ENDBRANCH   1  31
TORSDOF 26
ENDMDL
