MODEL 1
REMARK VINA RESULT:     -10.4      0.000      0.000
REMARK SMILES Cc1cc(C(=O)N2[C@@H](C(=O)OCCOCCOCCOCCOC(=O)c3ccc(-c4c5nc(c(-c6cc(S(=O)(=O)[O-])ccc6F)c6ccc([nH]6)c(-c6cc(S(=O)(=O)[O-])ccc6F)c6nc(c(-c7cc(S(=O)(=O)[O-])ccc7F)c7ccc4[nH]7)C=C6)C=C5)cc3)C[C@H]3CCCC[C@H]32)c(C)s1
REMARK SMILES IDX 18 1 17 2 16 3 15 4 14 5 13 6 12 7 11 8 9 9 10 10 8 11 7 12
REMARK SMILES IDX 95 13 89 14 90 15 94 16 91 17 93 18 92 19 5 20 6 21 4 22
REMARK SMILES IDX 1 23 2 24 3 25 98 26 96 27 97 28 19 29 20 30 21 31 22 32
REMARK SMILES IDX 23 33 24 34 25 35 26 36 27 37 88 38 28 39 87 40 29 41 30 42
REMARK SMILES IDX 31 43 81 44 32 45 86 46 80 47 82 48 33 49 85 50 79 51 78 52
REMARK SMILES IDX 34 54 66 55 46 56 65 57 47 58 50 59 64 60 83 61 48 62 49 63
REMARK SMILES IDX 63 65 84 66 51 67 35 68 36 69 44 70 37 71 43 72 45 73 42 74
REMARK SMILES IDX 38 75 39 76 40 77 41 78 67 79 68 80 76 81 69 82 75 83 77 84
REMARK SMILES IDX 74 85 70 86 71 87 72 88 73 89 52 90 53 91 61 92 54 93 60 94
REMARK SMILES IDX 62 95 59 96 55 97 56 98 57 99 58 100
REMARK H PARENT 82 53 50 64
REMARK Flexibility Score: inf
ROOT
ATOM      1  C   UNL A   1      39.903  20.873  26.030  1.00  0.00     0.188 C 
ENDROOT
BRANCH   1   2
ATOM      2  O   UNL A   1      38.841  21.786  25.847  1.00  0.00    -0.377 OA
BRANCH   2   3
ATOM      3  C   UNL A   1      37.643  21.334  25.240  1.00  0.00     0.188 C 
BRANCH   3   4
ATOM      4  C   UNL A   1      36.907  22.069  24.106  1.00  0.00     0.188 C 
BRANCH   4   5
ATOM      5  O   UNL A   1      35.731  22.722  24.521  1.00  0.00    -0.376 OA
BRANCH   5   6
ATOM      6  C   UNL A   1      35.249  23.797  23.741  1.00  0.00     0.202 C 
BRANCH   6   7
ATOM      7  C   UNL A   1      34.189  24.761  24.307  1.00  0.00     0.261 C 
BRANCH   7   8
ATOM      8  O   UNL A   1      33.004  25.055  23.543  1.00  0.00    -0.462 OA
BRANCH   8   9
ATOM      9  C   UNL A   1      31.787  24.718  24.034  1.00  0.00     0.328 C 
ATOM     10  O   UNL A   1      31.358  23.570  24.077  1.00  0.00    -0.250 OA
BRANCH   9  11
ATOM     11  C   UNL A   1      31.034  25.926  24.649  1.00  0.00     0.196 C 
ATOM     12  N   UNL A   1      31.221  27.233  23.977  1.00  0.00    -0.322 N 
ATOM     13  C   UNL A   1      31.647  28.284  24.896  1.00  0.00     0.089 C 
ATOM     14  C   UNL A   1      31.357  26.208  26.128  1.00  0.00     0.043 C 
ATOM     15  C   UNL A   1      31.218  27.734  26.259  1.00  0.00     0.014 C 
ATOM     16  C   UNL A   1      33.115  28.685  24.736  1.00  0.00     0.025 C 
ATOM     17  C   UNL A   1      31.904  28.378  27.455  1.00  0.00     0.006 C 
ATOM     18  C   UNL A   1      33.727  29.329  25.979  1.00  0.00     0.002 C 
ATOM     19  C   UNL A   1      33.397  28.603  27.276  1.00  0.00     0.000 C 
BRANCH  12  20
ATOM     20  C   UNL A   1      30.751  27.593  22.716  1.00  0.00     0.255 C 
ATOM     21  O   UNL A   1      31.248  27.152  21.685  1.00  0.00    -0.269 OA
BRANCH  20  22
ATOM     22  C   UNL A   1      29.712  28.627  22.679  1.00  0.00     0.053 A 
ATOM     23  C   UNL A   1      28.724  32.193  21.884  1.00  0.00     0.056 C 
ATOM     24  C   UNL A   1      28.809  30.754  22.249  1.00  0.00     0.003 A 
ATOM     25  C   UNL A   1      29.860  29.900  22.026  1.00  0.00     0.029 A 
ATOM     26  S   UNL A   1      27.516  29.941  23.001  1.00  0.00    -0.145 S 
ATOM     27  C   UNL A   1      28.407  28.474  23.121  1.00  0.00     0.014 A 
ATOM     28  C   UNL A   1      27.721  27.257  23.653  1.00  0.00     0.057 C 
ENDBRANCH  20  22
ENDBRANCH  12  20
ENDBRANCH   9  11
ENDBRANCH   8   9
ENDBRANCH   7   8
ENDBRANCH   6   7
ENDBRANCH   5   6
ENDBRANCH   4   5
ENDBRANCH   3   4
ENDBRANCH   2   3
ENDBRANCH   1   2
BRANCH   1  29
ATOM     29  C   UNL A   1      41.245  21.487  26.459  1.00  0.00     0.188 C 
BRANCH  29  30
ATOM     30  O   UNL A   1      42.203  20.523  26.879  1.00  0.00    -0.376 OA
BRANCH  30  31
ATOM     31  C   UNL A   1      42.169  19.238  26.284  1.00  0.00     0.202 C 
BRANCH  31  32
ATOM     32  C   UNL A   1      43.402  18.711  25.528  1.00  0.00     0.261 C 
BRANCH  32  33
ATOM     33  O   UNL A   1      43.781  19.399  24.333  1.00  0.00    -0.460 OA
BRANCH  33  34
ATOM     34  C   UNL A   1      45.030  19.921  24.300  1.00  0.00     0.338 C 
ATOM     35  O   UNL A   1      46.003  19.441  23.768  1.00  0.00    -0.246 OA
BRANCH  34  36
ATOM     36  C   UNL A   1      44.945  21.284  24.872  1.00  0.00     0.060 A 
ATOM     37  C   UNL A   1      44.352  22.298  24.110  1.00  0.00     0.016 A 
ATOM     38  C   UNL A   1      45.428  21.548  26.156  1.00  0.00     0.016 A 
ATOM     39  C   UNL A   1      44.247  23.587  24.629  1.00  0.00     0.010 A 
ATOM     40  C   UNL A   1      45.358  22.850  26.658  1.00  0.00     0.010 A 
ATOM     41  C   UNL A   1      44.792  23.879  25.885  1.00  0.00    -0.014 A 
BRANCH  41  42
ATOM     42  C   UNL A   1      44.975  25.296  26.278  1.00  0.00     0.031 A 
ATOM     43  C   UNL A   1      46.353  25.884  26.148  1.00  0.00     0.074 A 
ATOM     44  C   UNL A   1      43.946  26.051  26.699  1.00  0.00     0.049 A 
ATOM     45  N   UNL A   1      46.783  27.079  26.456  1.00  0.00    -0.248 NA
ATOM     46  C   UNL A   1      47.388  24.994  25.594  1.00  0.00     0.031 C 
ATOM     47  C   UNL A   1      42.560  25.600  26.810  1.00  0.00     0.029 A 
ATOM     48  N   UNL A   1      43.912  27.356  27.118  1.00  0.00    -0.354 N 
ATOM     49  C   UNL A   1      48.137  27.085  26.139  1.00  0.00     0.074 A 
ATOM     50  C   UNL A   1      48.463  25.763  25.649  1.00  0.00     0.031 C 
ATOM     51  C   UNL A   1      41.811  26.612  27.282  1.00  0.00     0.029 A 
ATOM     52  C   UNL A   1      42.670  27.767  27.546  1.00  0.00     0.049 A 
ATOM     53  H   UNL A   1      44.701  27.945  27.112  1.00  0.00     0.167 HD
ATOM     54  C   UNL A   1      49.024  28.103  26.244  1.00  0.00     0.034 A 
ATOM     55  C   UNL A   1      42.285  28.928  28.115  1.00  0.00     0.034 A 
ATOM     56  C   UNL A   1      48.682  29.406  26.756  1.00  0.00     0.049 A 
ATOM     57  C   UNL A   1      43.315  30.018  28.316  1.00  0.00     0.074 A 
ATOM     58  C   UNL A   1      49.496  30.516  26.898  1.00  0.00     0.029 A 
ATOM     59  N   UNL A   1      47.428  29.770  27.230  1.00  0.00    -0.354 N 
ATOM     60  N   UNL A   1      44.591  30.020  28.004  1.00  0.00    -0.248 NA
ATOM     61  C   UNL A   1      42.850  31.263  28.941  1.00  0.00     0.031 C 
ATOM     62  C   UNL A   1      48.759  31.518  27.539  1.00  0.00     0.029 A 
ATOM     63  C   UNL A   1      47.458  31.072  27.706  1.00  0.00     0.049 A 
ATOM     64  H   UNL A   1      46.633  29.189  27.231  1.00  0.00     0.167 HD
ATOM     65  C   UNL A   1      45.071  31.278  28.363  1.00  0.00     0.074 A 
ATOM     66  C   UNL A   1      43.943  32.011  28.901  1.00  0.00     0.031 C 
ATOM     67  C   UNL A   1      46.326  31.787  28.251  1.00  0.00     0.034 A 
BRANCH  54  68
ATOM     68  C   UNL A   1      50.457  27.816  25.861  1.00  0.00     0.023 A 
ATOM     69  C   UNL A   1      50.907  27.914  24.532  1.00  0.00     0.031 A 
ATOM     70  C   UNL A   1      51.377  27.397  26.838  1.00  0.00     0.131 A 
ATOM     71  C   UNL A   1      52.215  27.527  24.206  1.00  0.00     0.055 A 
ATOM     72  C   UNL A   1      52.703  27.097  26.520  1.00  0.00     0.041 A 
ATOM     73  F   UNL A   1      51.000  27.255  28.118  1.00  0.00    -0.206 F 
ATOM     74  C   UNL A   1      53.125  27.146  25.196  1.00  0.00     0.022 A 
BRANCH  71  75
ATOM     75  S   UNL A   1      52.666  27.377  22.456  1.00  0.00     0.124 S 
ATOM     76  O   UNL A   1      51.355  27.378  21.811  1.00  0.00    -0.237 OA
ATOM     77  O   UNL A   1      53.486  28.564  22.238  1.00  0.00    -0.237 OA
ATOM     78  O   UNL A   1      53.381  26.104  22.393  1.00  0.00    -0.744 OA
ENDBRANCH  71  75
ENDBRANCH  54  68
BRANCH  55  79
ATOM     79  C   UNL A   1      40.881  29.113  28.585  1.00  0.00     0.023 A 
ATOM     80  C   UNL A   1      40.558  29.092  29.952  1.00  0.00     0.031 A 
ATOM     81  C   UNL A   1      39.827  29.251  27.664  1.00  0.00     0.131 A 
ATOM     82  C   UNL A   1      39.213  29.160  30.355  1.00  0.00     0.055 A 
ATOM     83  C   UNL A   1      38.498  29.380  28.072  1.00  0.00     0.041 A 
ATOM     84  F   UNL A   1      40.076  29.267  26.345  1.00  0.00    -0.206 F 
ATOM     85  C   UNL A   1      38.183  29.320  29.425  1.00  0.00     0.022 A 
BRANCH  82  86
ATOM     86  S   UNL A   1      38.819  28.938  32.112  1.00  0.00     0.124 S 
ATOM     87  O   UNL A   1      38.805  30.315  32.589  1.00  0.00    -0.237 OA
ATOM     88  O   UNL A   1      37.526  28.266  32.050  1.00  0.00    -0.237 OA
ATOM     89  O   UNL A   1      39.923  28.116  32.607  1.00  0.00    -0.744 OA
ENDBRANCH  82  86
ENDBRANCH  55  79
BRANCH  67  90
ATOM     90  C   UNL A   1      46.532  33.225  28.672  1.00  0.00     0.023 A 
ATOM     91  C   UNL A   1      46.349  34.296  27.781  1.00  0.00     0.031 A 
ATOM     92  C   UNL A   1      46.918  33.523  29.991  1.00  0.00     0.131 A 
ATOM     93  C   UNL A   1      46.608  35.609  28.204  1.00  0.00     0.055 A 
ATOM     94  C   UNL A   1      47.105  34.836  30.426  1.00  0.00     0.041 A 
ATOM     95  F   UNL A   1      47.113  32.540  30.887  1.00  0.00    -0.206 F 
ATOM     96  C   UNL A   1      46.964  35.887  29.527  1.00  0.00     0.022 A 
BRANCH  93  97
ATOM     97  S   UNL A   1      46.577  36.944  26.976  1.00  0.00     0.124 S 
ATOM     98  O   UNL A   1      47.517  37.903  27.548  1.00  0.00    -0.237 OA
ATOM     99  O   UNL A   1      47.019  36.263  25.763  1.00  0.00    -0.237 OA
ATOM    100  O   UNL A   1      45.180  37.373  26.972  1.00  0.00    -0.744 OA
ENDBRANCH  93  97
ENDBRANCH  67  90
ENDBRANCH  41  42
ENDBRANCH  34  36
ENDBRANCH  33  34
ENDBRANCH  32  33
ENDBRANCH  31  32
ENDBRANCH  30  31
ENDBRANCH  29  30
ENDBRANCH   1  29
TORSDOF 25
ENDMDL
MODEL 2
REMARK VINA RESULT:     -10.0      1.856      2.128
REMARK SMILES Cc1cc(C(=O)N2[C@@H](C(=O)OCCOCCOCCOCCOC(=O)c3ccc(-c4c5nc(c(-c6cc(S(=O)(=O)[O-])ccc6F)c6ccc([nH]6)c(-c6cc(S(=O)(=O)[O-])ccc6F)c6nc(c(-c7cc(S(=O)(=O)[O-])ccc7F)c7ccc4[nH]7)C=C6)C=C5)cc3)C[C@H]3CCCC[C@H]32)c(C)s1
REMARK SMILES IDX 18 1 17 2 16 3 15 4 14 5 13 6 12 7 11 8 9 9 10 10 8 11 7 12
REMARK SMILES IDX 95 13 89 14 90 15 94 16 91 17 93 18 92 19 5 20 6 21 4 22
REMARK SMILES IDX 1 23 2 24 3 25 98 26 96 27 97 28 19 29 20 30 21 31 22 32
REMARK SMILES IDX 23 33 24 34 25 35 26 36 27 37 88 38 28 39 87 40 29 41 30 42
REMARK SMILES IDX 31 43 81 44 32 45 86 46 80 47 82 48 33 49 85 50 79 51 78 52
REMARK SMILES IDX 34 54 66 55 46 56 65 57 47 58 50 59 64 60 83 61 48 62 49 63
REMARK SMILES IDX 63 65 84 66 51 67 35 68 36 69 44 70 37 71 43 72 45 73 42 74
REMARK SMILES IDX 38 75 39 76 40 77 41 78 67 79 68 80 76 81 69 82 75 83 77 84
REMARK SMILES IDX 74 85 70 86 71 87 72 88 73 89 52 90 53 91 61 92 54 93 60 94
REMARK SMILES IDX 62 95 59 96 55 97 56 98 57 99 58 100
REMARK H PARENT 82 53 50 64
REMARK Flexibility Score: inf
ROOT
ATOM      1  C   UNL A   1      39.706  20.930  25.932  1.00  0.00     0.188 C 
ENDROOT
BRANCH   1   2
ATOM      2  O   UNL A   1      38.508  21.654  26.124  1.00  0.00    -0.377 OA
BRANCH   2   3
ATOM      3  C   UNL A   1      37.358  21.292  25.379  1.00  0.00     0.188 C 
BRANCH   3   4
ATOM      4  C   UNL A   1      36.938  21.943  24.049  1.00  0.00     0.188 C 
BRANCH   4   5
ATOM      5  O   UNL A   1      35.554  22.182  23.946  1.00  0.00    -0.376 OA
BRANCH   5   6
ATOM      6  C   UNL A   1      35.123  23.339  23.258  1.00  0.00     0.202 C 
BRANCH   6   7
ATOM      7  C   UNL A   1      34.321  24.431  23.990  1.00  0.00     0.261 C 
BRANCH   7   8
ATOM      8  O   UNL A   1      33.015  24.806  23.513  1.00  0.00    -0.462 OA
BRANCH   8   9
ATOM      9  C   UNL A   1      31.916  24.474  24.232  1.00  0.00     0.328 C 
ATOM     10  O   UNL A   1      31.585  23.321  24.487  1.00  0.00    -0.250 OA
BRANCH   9  11
ATOM     11  C   UNL A   1      31.177  25.711  24.804  1.00  0.00     0.196 C 
ATOM     12  N   UNL A   1      31.365  26.988  24.075  1.00  0.00    -0.322 N 
ATOM     13  C   UNL A   1      31.808  28.074  24.944  1.00  0.00     0.089 C 
ATOM     14  C   UNL A   1      31.520  26.054  26.266  1.00  0.00     0.043 C 
ATOM     15  C   UNL A   1      31.391  27.584  26.333  1.00  0.00     0.014 C 
ATOM     16  C   UNL A   1      33.277  28.458  24.751  1.00  0.00     0.025 C 
ATOM     17  C   UNL A   1      32.095  28.274  27.493  1.00  0.00     0.006 C 
ATOM     18  C   UNL A   1      33.907  29.150  25.958  1.00  0.00     0.002 C 
ATOM     19  C   UNL A   1      33.587  28.481  27.288  1.00  0.00     0.000 C 
BRANCH  12  20
ATOM     20  C   UNL A   1      30.883  27.298  22.806  1.00  0.00     0.255 C 
ATOM     21  O   UNL A   1      31.398  26.850  21.786  1.00  0.00    -0.269 OA
BRANCH  20  22
ATOM     22  C   UNL A   1      29.805  28.289  22.742  1.00  0.00     0.053 A 
ATOM     23  C   UNL A   1      28.675  31.786  21.837  1.00  0.00     0.056 C 
ATOM     24  C   UNL A   1      28.817  30.364  22.249  1.00  0.00     0.003 A 
ATOM     25  C   UNL A   1      29.900  29.545  22.046  1.00  0.00     0.029 A 
ATOM     26  S   UNL A   1      27.562  29.529  23.038  1.00  0.00    -0.145 S 
ATOM     27  C   UNL A   1      28.510  28.102  23.200  1.00  0.00     0.014 A 
ATOM     28  C   UNL A   1      27.874  26.879  23.778  1.00  0.00     0.057 C 
ENDBRANCH  20  22
ENDBRANCH  12  20
ENDBRANCH   9  11
ENDBRANCH   8   9
ENDBRANCH   7   8
ENDBRANCH   6   7
ENDBRANCH   5   6
ENDBRANCH   4   5
ENDBRANCH   3   4
ENDBRANCH   2   3
ENDBRANCH   1   2
BRANCH   1  29
ATOM     29  C   UNL A   1      41.006  21.712  26.180  1.00  0.00     0.188 C 
BRANCH  29  30
ATOM     30  O   UNL A   1      42.134  20.878  26.411  1.00  0.00    -0.376 OA
BRANCH  30  31
ATOM     31  C   UNL A   1      42.058  19.519  26.019  1.00  0.00     0.202 C 
BRANCH  31  32
ATOM     32  C   UNL A   1      43.300  18.819  25.439  1.00  0.00     0.261 C 
BRANCH  32  33
ATOM     33  O   UNL A   1      43.849  19.353  24.232  1.00  0.00    -0.460 OA
BRANCH  33  34
ATOM     34  C   UNL A   1      45.098  19.871  24.306  1.00  0.00     0.338 C 
ATOM     35  O   UNL A   1      46.110  19.393  23.851  1.00  0.00    -0.246 OA
BRANCH  34  36
ATOM     36  C   UNL A   1      44.970  21.229  24.881  1.00  0.00     0.060 A 
ATOM     37  C   UNL A   1      44.421  22.246  24.090  1.00  0.00     0.016 A 
ATOM     38  C   UNL A   1      45.370  21.486  26.194  1.00  0.00     0.016 A 
ATOM     39  C   UNL A   1      44.277  23.531  24.610  1.00  0.00     0.010 A 
ATOM     40  C   UNL A   1      45.262  22.784  26.701  1.00  0.00     0.010 A 
ATOM     41  C   UNL A   1      44.741  23.816  25.901  1.00  0.00    -0.014 A 
BRANCH  41  42
ATOM     42  C   UNL A   1      44.892  25.231  26.315  1.00  0.00     0.031 A 
ATOM     43  C   UNL A   1      46.265  25.837  26.238  1.00  0.00     0.074 A 
ATOM     44  C   UNL A   1      43.839  25.967  26.708  1.00  0.00     0.049 A 
ATOM     45  N   UNL A   1      46.668  27.035  26.574  1.00  0.00    -0.248 NA
ATOM     46  C   UNL A   1      47.330  24.967  25.711  1.00  0.00     0.031 C 
ATOM     47  C   UNL A   1      42.456  25.498  26.766  1.00  0.00     0.029 A 
ATOM     48  N   UNL A   1      43.773  27.268  27.139  1.00  0.00    -0.354 N 
ATOM     49  C   UNL A   1      48.032  27.061  26.304  1.00  0.00     0.074 A 
ATOM     50  C   UNL A   1      48.392  25.749  25.812  1.00  0.00     0.031 C 
ATOM     51  C   UNL A   1      41.678  26.495  27.223  1.00  0.00     0.029 A 
ATOM     52  C   UNL A   1      42.512  27.658  27.528  1.00  0.00     0.049 A 
ATOM     53  H   UNL A   1      44.554  27.867  27.166  1.00  0.00     0.167 HD
ATOM     54  C   UNL A   1      48.902  28.090  26.450  1.00  0.00     0.034 A 
ATOM     55  C   UNL A   1      42.092  28.808  28.095  1.00  0.00     0.034 A 
ATOM     56  C   UNL A   1      48.526  29.383  26.964  1.00  0.00     0.049 A 
ATOM     57  C   UNL A   1      43.100  29.908  28.344  1.00  0.00     0.074 A 
ATOM     58  C   UNL A   1      49.319  30.502  27.145  1.00  0.00     0.029 A 
ATOM     59  N   UNL A   1      47.251  29.726  27.398  1.00  0.00    -0.354 N 
ATOM     60  N   UNL A   1      44.387  29.930  28.076  1.00  0.00    -0.248 NA
ATOM     61  C   UNL A   1      42.597  31.140  28.965  1.00  0.00     0.031 C 
ATOM     62  C   UNL A   1      48.548  31.487  27.771  1.00  0.00     0.029 A 
ATOM     63  C   UNL A   1      47.247  31.022  27.888  1.00  0.00     0.049 A 
ATOM     64  H   UNL A   1      46.465  29.134  27.365  1.00  0.00     0.167 HD
ATOM     65  C   UNL A   1      44.837  31.191  28.464  1.00  0.00     0.074 A 
ATOM     66  C   UNL A   1      43.681  31.903  28.971  1.00  0.00     0.031 C 
ATOM     67  C   UNL A   1      46.088  31.716  28.401  1.00  0.00     0.034 A 
BRANCH  54  68
ATOM     68  C   UNL A   1      50.350  27.825  26.114  1.00  0.00     0.023 A 
ATOM     69  C   UNL A   1      51.319  27.602  27.110  1.00  0.00     0.031 A 
ATOM     70  C   UNL A   1      50.777  27.838  24.774  1.00  0.00     0.131 A 
ATOM     71  C   UNL A   1      52.670  27.476  26.757  1.00  0.00     0.055 A 
ATOM     72  C   UNL A   1      52.112  27.625  24.423  1.00  0.00     0.041 A 
ATOM     73  F   UNL A   1      49.906  28.076  23.781  1.00  0.00    -0.206 F 
ATOM     74  C   UNL A   1      53.070  27.457  25.418  1.00  0.00     0.022 A 
BRANCH  71  75
ATOM     75  S   UNL A   1      53.917  27.494  28.073  1.00  0.00     0.124 S 
ATOM     76  O   UNL A   1      53.431  28.575  28.927  1.00  0.00    -0.237 OA
ATOM     77  O   UNL A   1      53.813  26.148  28.626  1.00  0.00    -0.237 OA
ATOM     78  O   UNL A   1      55.162  27.783  27.364  1.00  0.00    -0.744 OA
ENDBRANCH  71  75
ENDBRANCH  54  68
BRANCH  55  79
ATOM     79  C   UNL A   1      40.670  28.969  28.519  1.00  0.00     0.023 A 
ATOM     80  C   UNL A   1      40.284  28.820  29.862  1.00  0.00     0.031 A 
ATOM     81  C   UNL A   1      39.662  29.215  27.570  1.00  0.00     0.131 A 
ATOM     82  C   UNL A   1      38.924  28.871  30.209  1.00  0.00     0.055 A 
ATOM     83  C   UNL A   1      38.317  29.326  27.929  1.00  0.00     0.041 A 
ATOM     84  F   UNL A   1      39.971  29.356  26.271  1.00  0.00    -0.206 F 
ATOM     85  C   UNL A   1      37.940  29.139  29.255  1.00  0.00     0.022 A 
BRANCH  82  86
ATOM     86  S   UNL A   1      38.447  28.484  31.917  1.00  0.00     0.124 S 
ATOM     87  O   UNL A   1      38.555  27.030  31.932  1.00  0.00    -0.237 OA
ATOM     88  O   UNL A   1      39.453  29.210  32.684  1.00  0.00    -0.237 OA
ATOM     89  O   UNL A   1      37.087  29.011  32.018  1.00  0.00    -0.744 OA
ENDBRANCH  82  86
ENDBRANCH  55  79
BRANCH  67  90
ATOM     90  C   UNL A   1      46.260  33.152  28.844  1.00  0.00     0.023 A 
ATOM     91  C   UNL A   1      46.602  33.490  30.164  1.00  0.00     0.031 A 
ATOM     92  C   UNL A   1      46.077  34.199  27.922  1.00  0.00     0.131 A 
ATOM     93  C   UNL A   1      46.694  34.840  30.539  1.00  0.00     0.055 A 
ATOM     94  C   UNL A   1      46.240  35.537  28.283  1.00  0.00     0.041 A 
ATOM     95  F   UNL A   1      45.745  33.938  26.646  1.00  0.00    -0.206 F 
ATOM     96  C   UNL A   1      46.536  35.865  29.602  1.00  0.00     0.022 A 
BRANCH  93  97
ATOM     97  S   UNL A   1      46.918  35.245  32.293  1.00  0.00     0.124 S 
ATOM     98  O   UNL A   1      48.160  34.548  32.608  1.00  0.00    -0.237 OA
ATOM     99  O   UNL A   1      46.992  36.703  32.270  1.00  0.00    -0.237 OA
ATOM    100  O   UNL A   1      45.721  34.696  32.927  1.00  0.00    -0.744 OA
ENDBRANCH  93  97
ENDBRANCH  67  90
ENDBRANCH  41  42
ENDBRANCH  34  36
ENDBRANCH  33  34
ENDBRANCH  32  33
ENDBRANCH  31  32
ENDBRANCH  30  31
ENDBRANCH  29  30
ENDBRANCH   1  29
TORSDOF 25
ENDMDL
MODEL 3
REMARK VINA RESULT:      -9.1      1.412      7.676
REMARK SMILES Cc1cc(C(=O)N2[C@@H](C(=O)OCCOCCOCCOCCOC(=O)c3ccc(-c4c5nc(c(-c6cc(S(=O)(=O)[O-])ccc6F)c6ccc([nH]6)c(-c6cc(S(=O)(=O)[O-])ccc6F)c6nc(c(-c7cc(S(=O)(=O)[O-])ccc7F)c7ccc4[nH]7)C=C6)C=C5)cc3)C[C@H]3CCCC[C@H]32)c(C)s1
REMARK SMILES IDX 18 1 17 2 16 3 15 4 14 5 13 6 12 7 11 8 9 9 10 10 8 11 7 12
REMARK SMILES IDX 95 13 89 14 90 15 94 16 91 17 93 18 92 19 5 20 6 21 4 22
REMARK SMILES IDX 1 23 2 24 3 25 98 26 96 27 97 28 19 29 20 30 21 31 22 32
REMARK SMILES IDX 23 33 24 34 25 35 26 36 27 37 88 38 28 39 87 40 29 41 30 42
REMARK SMILES IDX 31 43 81 44 32 45 86 46 80 47 82 48 33 49 85 50 79 51 78 52
REMARK SMILES IDX 34 54 66 55 46 56 65 57 47 58 50 59 64 60 83 61 48 62 49 63
REMARK SMILES IDX 63 65 84 66 51 67 35 68 36 69 44 70 37 71 43 72 45 73 42 74
REMARK SMILES IDX 38 75 39 76 40 77 41 78 67 79 68 80 76 81 69 82 75 83 77 84
REMARK SMILES IDX 74 85 70 86 71 87 72 88 73 89 52 90 53 91 61 92 54 93 60 94
REMARK SMILES IDX 62 95 59 96 55 97 56 98 57 99 58 100
REMARK H PARENT 82 53 50 64
REMARK Flexibility Score: inf
ROOT
ATOM      1  C   UNL A   1      39.571  21.308  25.755  1.00  0.00     0.188 C 
ENDROOT
BRANCH   1   2
ATOM      2  O   UNL A   1      38.266  21.713  26.116  1.00  0.00    -0.377 OA
BRANCH   2   3
ATOM      3  C   UNL A   1      37.180  21.357  25.278  1.00  0.00     0.188 C 
BRANCH   3   4
ATOM      4  C   UNL A   1      36.716  22.172  24.057  1.00  0.00     0.188 C 
BRANCH   4   5
ATOM      5  O   UNL A   1      35.319  22.337  23.983  1.00  0.00    -0.376 OA
BRANCH   5   6
ATOM      6  C   UNL A   1      34.808  23.636  23.765  1.00  0.00     0.202 C 
BRANCH   6   7
ATOM      7  C   UNL A   1      33.971  23.948  22.511  1.00  0.00     0.261 C 
BRANCH   7   8
ATOM      8  O   UNL A   1      33.863  25.304  22.037  1.00  0.00    -0.462 OA
BRANCH   8   9
ATOM      9  C   UNL A   1      32.661  25.783  21.638  1.00  0.00     0.328 C 
ATOM     10  O   UNL A   1      32.235  25.699  20.491  1.00  0.00    -0.250 OA
BRANCH   9  11
ATOM     11  C   UNL A   1      31.821  26.348  22.812  1.00  0.00     0.196 C 
ATOM     12  N   UNL A   1      32.577  26.919  23.951  1.00  0.00    -0.322 N 
ATOM     13  C   UNL A   1      32.183  26.345  25.234  1.00  0.00     0.089 C 
ATOM     14  C   UNL A   1      30.854  25.341  23.463  1.00  0.00     0.043 C 
ATOM     15  C   UNL A   1      30.793  25.778  24.936  1.00  0.00     0.014 C 
ATOM     16  C   UNL A   1      33.218  25.383  25.824  1.00  0.00     0.025 C 
ATOM     17  C   UNL A   1      30.298  24.738  25.932  1.00  0.00     0.006 C 
ATOM     18  C   UNL A   1      32.641  24.377  26.817  1.00  0.00     0.002 C 
ATOM     19  C   UNL A   1      31.348  23.722  26.351  1.00  0.00     0.000 C 
BRANCH  12  20
ATOM     20  C   UNL A   1      33.336  28.086  23.942  1.00  0.00     0.255 C 
ATOM     21  O   UNL A   1      34.291  28.238  23.188  1.00  0.00    -0.269 OA
BRANCH  20  22
ATOM     22  C   UNL A   1      33.014  29.080  24.972  1.00  0.00     0.053 A 
ATOM     23  C   UNL A   1      34.075  31.009  28.050  1.00  0.00     0.056 C 
ATOM     24  C   UNL A   1      33.409  30.435  26.851  1.00  0.00     0.003 A 
ATOM     25  C   UNL A   1      33.973  29.634  25.890  1.00  0.00     0.029 A 
ATOM     26  S   UNL A   1      31.776  30.755  26.494  1.00  0.00    -0.145 S 
ATOM     27  C   UNL A   1      31.799  29.734  25.108  1.00  0.00     0.014 A 
ATOM     28  C   UNL A   1      30.582  29.668  24.243  1.00  0.00     0.057 C 
ENDBRANCH  20  22
ENDBRANCH  12  20
ENDBRANCH   9  11
ENDBRANCH   8   9
ENDBRANCH   7   8
ENDBRANCH   6   7
ENDBRANCH   5   6
ENDBRANCH   4   5
ENDBRANCH   3   4
ENDBRANCH   2   3
ENDBRANCH   1   2
BRANCH   1  29
ATOM     29  C   UNL A   1      40.700  22.280  26.136  1.00  0.00     0.188 C 
BRANCH  29  30
ATOM     30  O   UNL A   1      41.959  21.643  26.318  1.00  0.00    -0.376 OA
BRANCH  30  31
ATOM     31  C   UNL A   1      41.988  20.233  26.444  1.00  0.00     0.202 C 
BRANCH  31  32
ATOM     32  C   UNL A   1      42.966  19.407  25.589  1.00  0.00     0.261 C 
BRANCH  32  33
ATOM     33  O   UNL A   1      43.692  20.101  24.571  1.00  0.00    -0.460 OA
BRANCH  33  34
ATOM     34  C   UNL A   1      44.971  20.440  24.858  1.00  0.00     0.338 C 
ATOM     35  O   UNL A   1      45.967  19.809  24.591  1.00  0.00    -0.246 OA
BRANCH  34  36
ATOM     36  C   UNL A   1      44.944  21.821  25.389  1.00  0.00     0.060 A 
ATOM     37  C   UNL A   1      44.639  22.873  24.516  1.00  0.00     0.016 A 
ATOM     38  C   UNL A   1      45.196  22.068  26.741  1.00  0.00     0.016 A 
ATOM     39  C   UNL A   1      44.594  24.182  24.992  1.00  0.00     0.010 A 
ATOM     40  C   UNL A   1      45.189  23.386  27.208  1.00  0.00     0.010 A 
ATOM     41  C   UNL A   1      44.916  24.448  26.329  1.00  0.00    -0.014 A 
BRANCH  41  42
ATOM     42  C   UNL A   1      45.191  25.846  26.738  1.00  0.00     0.031 A 
ATOM     43  C   UNL A   1      44.042  26.656  27.270  1.00  0.00     0.074 A 
ATOM     44  C   UNL A   1      46.428  26.368  26.679  1.00  0.00     0.049 A 
ATOM     45  N   UNL A   1      44.010  27.903  27.659  1.00  0.00    -0.248 NA
ATOM     46  C   UNL A   1      42.749  25.958  27.374  1.00  0.00     0.031 C 
ATOM     47  C   UNL A   1      47.624  25.655  26.233  1.00  0.00     0.029 A 
ATOM     48  N   UNL A   1      46.880  27.625  26.990  1.00  0.00    -0.354 N 
ATOM     49  C   UNL A   1      42.697  28.143  28.049  1.00  0.00     0.074 A 
ATOM     50  C   UNL A   1      41.957  26.922  27.815  1.00  0.00     0.031 C 
ATOM     51  C   UNL A   1      48.674  26.494  26.287  1.00  0.00     0.029 A 
ATOM     52  C   UNL A   1      48.218  27.811  26.730  1.00  0.00     0.049 A 
ATOM     53  H   UNL A   1      46.302  28.327  27.366  1.00  0.00     0.167 HD
ATOM     54  C   UNL A   1      42.161  29.277  28.559  1.00  0.00     0.034 A 
ATOM     55  C   UNL A   1      48.973  28.927  26.809  1.00  0.00     0.034 A 
ATOM     56  C   UNL A   1      42.913  30.490  28.763  1.00  0.00     0.049 A 
ATOM     57  C   UNL A   1      48.331  30.210  27.286  1.00  0.00     0.074 A 
ATOM     58  C   UNL A   1      42.477  31.696  29.283  1.00  0.00     0.029 A 
ATOM     59  N   UNL A   1      44.253  30.659  28.438  1.00  0.00    -0.354 N 
ATOM     60  N   UNL A   1      47.090  30.426  27.663  1.00  0.00    -0.248 NA
ATOM     61  C   UNL A   1      49.191  31.398  27.353  1.00  0.00     0.031 C 
ATOM     62  C   UNL A   1      43.526  32.617  29.188  1.00  0.00     0.029 A 
ATOM     63  C   UNL A   1      44.647  31.961  28.705  1.00  0.00     0.049 A 
ATOM     64  H   UNL A   1      44.838  29.958  28.071  1.00  0.00     0.167 HD
ATOM     65  C   UNL A   1      47.034  31.765  28.045  1.00  0.00     0.074 A 
ATOM     66  C   UNL A   1      48.368  32.301  27.866  1.00  0.00     0.031 C 
ATOM     67  C   UNL A   1      45.980  32.485  28.510  1.00  0.00     0.034 A 
BRANCH  54  68
ATOM     68  C   UNL A   1      40.681  29.270  28.861  1.00  0.00     0.023 A 
ATOM     69  C   UNL A   1      40.189  29.237  30.179  1.00  0.00     0.031 A 
ATOM     70  C   UNL A   1      39.747  29.253  27.811  1.00  0.00     0.131 A 
ATOM     71  C   UNL A   1      38.811  29.115  30.409  1.00  0.00     0.055 A 
ATOM     72  C   UNL A   1      38.371  29.219  28.048  1.00  0.00     0.041 A 
ATOM     73  F   UNL A   1      40.155  29.252  26.532  1.00  0.00    -0.206 F 
ATOM     74  C   UNL A   1      37.897  29.134  29.353  1.00  0.00     0.022 A 
BRANCH  71  75
ATOM     75  S   UNL A   1      38.239  28.772  32.095  1.00  0.00     0.124 S 
ATOM     76  O   UNL A   1      38.500  27.338  32.210  1.00  0.00    -0.237 OA
ATOM     77  O   UNL A   1      39.089  29.641  32.901  1.00  0.00    -0.237 OA
ATOM     78  O   UNL A   1      36.825  29.139  32.060  1.00  0.00    -0.744 OA
ENDBRANCH  71  75
ENDBRANCH  54  68
BRANCH  55  79
ATOM     79  C   UNL A   1      50.403  28.905  26.381  1.00  0.00     0.023 A 
ATOM     80  C   UNL A   1      50.768  29.067  25.035  1.00  0.00     0.031 A 
ATOM     81  C   UNL A   1      51.428  28.659  27.314  1.00  0.00     0.131 A 
ATOM     82  C   UNL A   1      52.113  28.933  24.652  1.00  0.00     0.055 A 
ATOM     83  C   UNL A   1      52.771  28.588  26.937  1.00  0.00     0.041 A 
ATOM     84  F   UNL A   1      51.137  28.486  28.613  1.00  0.00    -0.206 F 
ATOM     85  C   UNL A   1      53.118  28.711  25.597  1.00  0.00     0.022 A 
BRANCH  82  86
ATOM     86  S   UNL A   1      52.522  28.957  22.884  1.00  0.00     0.124 S 
ATOM     87  O   UNL A   1      53.979  28.932  22.917  1.00  0.00    -0.237 OA
ATOM     88  O   UNL A   1      51.869  27.743  22.406  1.00  0.00    -0.237 OA
ATOM     89  O   UNL A   1      51.928  30.208  22.415  1.00  0.00    -0.744 OA
ENDBRANCH  82  86
ENDBRANCH  55  79
BRANCH  67  90
ATOM     90  C   UNL A   1      46.242  33.920  28.909  1.00  0.00     0.023 A 
ATOM     91  C   UNL A   1      46.043  34.990  28.020  1.00  0.00     0.031 A 
ATOM     92  C   UNL A   1      46.701  34.218  30.206  1.00  0.00     0.131 A 
ATOM     93  C   UNL A   1      46.356  36.299  28.419  1.00  0.00     0.055 A 
ATOM     94  C   UNL A   1      46.942  35.528  30.620  1.00  0.00     0.041 A 
ATOM     95  F   UNL A   1      46.914  33.236  31.098  1.00  0.00    -0.206 F 
ATOM     96  C   UNL A   1      46.783  36.577  29.721  1.00  0.00     0.022 A 
BRANCH  93  97
ATOM     97  S   UNL A   1      46.299  37.625  27.184  1.00  0.00     0.124 S 
ATOM     98  O   UNL A   1      47.155  37.094  26.128  1.00  0.00    -0.237 OA
ATOM     99  O   UNL A   1      44.875  37.701  26.873  1.00  0.00    -0.237 OA
ATOM    100  O   UNL A   1      46.839  38.781  27.896  1.00  0.00    -0.744 OA
ENDBRANCH  93  97
ENDBRANCH  67  90
ENDBRANCH  41  42
ENDBRANCH  34  36
ENDBRANCH  33  34
ENDBRANCH  32  33
ENDBRANCH  31  32
ENDBRANCH  30  31
ENDBRANCH  29  30
ENDBRANCH   1  29
TORSDOF 25
ENDMDL
