MODEL 1
REMARK VINA RESULT:      -9.3      0.000      0.000
REMARK SMILES Cc1cc(C)cc(-c2ccc([C@@H](C)C(=O)OCCOCCOCCOCCOC(=O)c3ccc(-c4c5nc(c(-c6cc(S(=O)(=O)[O-])ccc6F)c6ccc([nH]6)c(-c6cc(S(=O)(=O)[O-])ccc6F)c6nc(c(-c7cc(S(=O)(=O)[O-])ccc7F)c7ccc4[nH]7)C=C6)C=C5)cc3)cc2F)c1
REMARK SMILES IDX 23 1 22 2 21 3 20 4 19 5 18 6 17 7 16 8 14 9 15 10 12 11
REMARK SMILES IDX 13 12 11 13 8 14 9 15 95 16 10 17 94 18 96 19 7 20 1 21 2 22
REMARK SMILES IDX 3 23 97 24 4 25 5 26 6 27 24 28 25 29 26 30 27 31 28 32
REMARK SMILES IDX 29 33 30 34 31 35 32 36 93 37 33 38 92 39 34 40 35 41 36 42
REMARK SMILES IDX 86 43 37 44 91 45 85 46 87 47 38 48 90 49 84 50 83 51 39 53
REMARK SMILES IDX 71 54 51 55 70 56 52 57 55 58 69 59 88 60 53 61 54 62 68 64
REMARK SMILES IDX 89 65 56 66 40 67 41 68 49 69 42 70 48 71 50 72 47 73 43 74
REMARK SMILES IDX 44 75 45 76 46 77 72 78 73 79 81 80 74 81 80 82 82 83 79 84
REMARK SMILES IDX 75 85 76 86 77 87 78 88 57 89 58 90 66 91 59 92 65 93 67 94
REMARK SMILES IDX 64 95 60 96 61 97 62 98 63 99
REMARK H PARENT 87 52 55 63
REMARK Flexibility Score: inf
ROOT
ATOM      1  C   UNL A   1      39.692  24.673  27.308  1.00  0.00     0.188 C 
ENDROOT
BRANCH   1   2
ATOM      2  O   UNL A   1      39.336  23.302  27.387  1.00  0.00    -0.377 OA
BRANCH   2   3
ATOM      3  C   UNL A   1      39.657  22.491  26.278  1.00  0.00     0.188 C 
BRANCH   3   4
ATOM      4  C   UNL A   1      38.507  21.626  25.744  1.00  0.00     0.188 C 
BRANCH   4   5
ATOM      5  O   UNL A   1      37.680  22.072  24.679  1.00  0.00    -0.376 OA
BRANCH   5   6
ATOM      6  C   UNL A   1      36.267  22.112  24.819  1.00  0.00     0.202 C 
BRANCH   6   7
ATOM      7  C   UNL A   1      35.450  20.851  25.166  1.00  0.00     0.261 C 
BRANCH   7   8
ATOM      8  O   UNL A   1      34.217  21.045  25.890  1.00  0.00    -0.463 OA
BRANCH   8   9
ATOM      9  C   UNL A   1      33.154  20.326  25.466  1.00  0.00     0.313 C 
ATOM     10  O   UNL A   1      32.977  19.142  25.753  1.00  0.00    -0.252 OA
BRANCH   9  11
ATOM     11  C   UNL A   1      32.160  21.062  24.569  1.00  0.00     0.126 C 
ATOM     12  C   UNL A   1      32.334  20.551  23.143  1.00  0.00     0.025 C 
BRANCH  11  13
ATOM     13  C   UNL A   1      32.028  22.585  24.597  1.00  0.00    -0.031 A 
ATOM     14  C   UNL A   1      31.656  25.435  24.713  1.00  0.00     0.017 A 
ATOM     15  C   UNL A   1      32.683  24.850  23.948  1.00  0.00     0.012 A 
ATOM     16  C   UNL A   1      30.832  24.562  25.429  1.00  0.00     0.131 A 
ATOM     17  C   UNL A   1      32.867  23.453  23.888  1.00  0.00     0.005 A 
ATOM     18  C   UNL A   1      30.997  23.172  25.362  1.00  0.00     0.044 A 
ATOM     19  F   UNL A   1      29.836  25.041  26.192  1.00  0.00    -0.206 F 
BRANCH  14  20
ATOM     20  C   UNL A   1      31.427  26.894  24.699  1.00  0.00    -0.015 A 
ATOM     21  C   UNL A   1      29.697  29.616  22.621  1.00  0.00     0.044 C 
ATOM     22  C   UNL A   1      30.490  28.926  23.693  1.00  0.00    -0.050 A 
ATOM     23  C   UNL A   1      31.030  29.689  24.736  1.00  0.00     0.006 A 
ATOM     24  C   UNL A   1      30.699  27.535  23.679  1.00  0.00     0.012 A 
ATOM     25  C   UNL A   1      31.768  29.082  25.756  1.00  0.00    -0.050 A 
ATOM     26  C   UNL A   1      32.339  29.916  26.865  1.00  0.00     0.044 C 
ATOM     27  C   UNL A   1      31.954  27.693  25.730  1.00  0.00     0.012 A 
ENDBRANCH  14  20
ENDBRANCH  11  13
ENDBRANCH   9  11
ENDBRANCH   8   9
ENDBRANCH   7   8
ENDBRANCH   6   7
ENDBRANCH   5   6
ENDBRANCH   4   5
ENDBRANCH   3   4
ENDBRANCH   2   3
ENDBRANCH   1   2
BRANCH   1  28
ATOM     28  C   UNL A   1      41.025  25.098  27.951  1.00  0.00     0.188 C 
BRANCH  28  29
ATOM     29  O   UNL A   1      41.861  24.009  28.327  1.00  0.00    -0.376 OA
BRANCH  29  30
ATOM     30  C   UNL A   1      42.933  23.647  27.469  1.00  0.00     0.202 C 
BRANCH  30  31
ATOM     31  C   UNL A   1      44.157  24.578  27.389  1.00  0.00     0.261 C 
BRANCH  31  32
ATOM     32  O   UNL A   1      44.442  25.183  26.117  1.00  0.00    -0.460 OA
BRANCH  32  33
ATOM     33  C   UNL A   1      43.494  25.950  25.540  1.00  0.00     0.338 C 
ATOM     34  O   UNL A   1      42.621  25.575  24.774  1.00  0.00    -0.246 OA
BRANCH  33  35
ATOM     35  C   UNL A   1      43.566  27.293  26.157  1.00  0.00     0.060 A 
ATOM     36  C   UNL A   1      44.644  27.602  26.998  1.00  0.00     0.016 A 
ATOM     37  C   UNL A   1      42.588  28.255  25.888  1.00  0.00     0.016 A 
ATOM     38  C   UNL A   1      44.735  28.865  27.589  1.00  0.00     0.010 A 
ATOM     39  C   UNL A   1      42.665  29.507  26.505  1.00  0.00     0.010 A 
ATOM     40  C   UNL A   1      43.725  29.811  27.377  1.00  0.00    -0.014 A 
BRANCH  40  41
ATOM     41  C   UNL A   1      43.674  31.047  28.198  1.00  0.00     0.031 A 
ATOM     42  C   UNL A   1      44.691  32.124  27.931  1.00  0.00     0.074 A 
ATOM     43  C   UNL A   1      42.741  31.223  29.151  1.00  0.00     0.049 A 
ATOM     44  N   UNL A   1      44.914  33.235  28.582  1.00  0.00    -0.248 NA
ATOM     45  C   UNL A   1      45.571  31.917  26.770  1.00  0.00     0.031 C 
ATOM     46  C   UNL A   1      41.655  30.292  29.452  1.00  0.00     0.029 A 
ATOM     47  N   UNL A   1      42.563  32.251  30.044  1.00  0.00    -0.354 N 
ATOM     48  C   UNL A   1      45.960  33.860  27.913  1.00  0.00     0.074 A 
ATOM     49  C   UNL A   1      46.348  32.989  26.824  1.00  0.00     0.031 C 
ATOM     50  C   UNL A   1      40.925  30.792  30.465  1.00  0.00     0.029 A 
ATOM     51  C   UNL A   1      41.518  32.050  30.916  1.00  0.00     0.049 A 
ATOM     52  H   UNL A   1      43.129  33.056  30.059  1.00  0.00     0.167 HD
ATOM     53  C   UNL A   1      46.541  35.054  28.181  1.00  0.00     0.034 A 
ATOM     54  C   UNL A   1      41.107  32.783  31.973  1.00  0.00     0.034 A 
ATOM     55  C   UNL A   1      46.157  35.908  29.275  1.00  0.00     0.049 A 
ATOM     56  C   UNL A   1      41.846  34.050  32.328  1.00  0.00     0.074 A 
ATOM     57  C   UNL A   1      46.695  37.131  29.640  1.00  0.00     0.029 A 
ATOM     58  N   UNL A   1      45.145  35.632  30.184  1.00  0.00    -0.354 N 
ATOM     59  N   UNL A   1      42.873  34.603  31.725  1.00  0.00    -0.248 NA
ATOM     60  C   UNL A   1      41.374  34.788  33.508  1.00  0.00     0.031 C 
ATOM     61  C   UNL A   1      46.058  37.558  30.807  1.00  0.00     0.029 A 
ATOM     62  C   UNL A   1      45.063  36.647  31.124  1.00  0.00     0.049 A 
ATOM     63  H   UNL A   1      44.570  34.834  30.163  1.00  0.00     0.167 HD
ATOM     64  C   UNL A   1      43.146  35.772  32.432  1.00  0.00     0.074 A 
ATOM     65  C   UNL A   1      42.181  35.841  33.509  1.00  0.00     0.031 C 
ATOM     66  C   UNL A   1      44.104  36.705  32.201  1.00  0.00     0.034 A 
BRANCH  53  67
ATOM     67  C   UNL A   1      47.684  35.488  27.300  1.00  0.00     0.023 A 
ATOM     68  C   UNL A   1      49.000  35.058  27.537  1.00  0.00     0.031 A 
ATOM     69  C   UNL A   1      47.447  36.325  26.196  1.00  0.00     0.131 A 
ATOM     70  C   UNL A   1      50.037  35.495  26.698  1.00  0.00     0.055 A 
ATOM     71  C   UNL A   1      48.472  36.704  25.328  1.00  0.00     0.041 A 
ATOM     72  F   UNL A   1      46.211  36.782  25.938  1.00  0.00    -0.206 F 
ATOM     73  C   UNL A   1      49.777  36.294  25.581  1.00  0.00     0.022 A 
BRANCH  70  74
ATOM     74  S   UNL A   1      51.745  35.069  27.132  1.00  0.00     0.124 S 
ATOM     75  O   UNL A   1      52.236  34.506  25.876  1.00  0.00    -0.237 OA
ATOM     76  O   UNL A   1      52.306  36.359  27.516  1.00  0.00    -0.237 OA
ATOM     77  O   UNL A   1      51.592  34.107  28.221  1.00  0.00    -0.744 OA
ENDBRANCH  70  74
ENDBRANCH  53  67
BRANCH  54  78
ATOM     78  C   UNL A   1      39.954  32.320  32.795  1.00  0.00     0.023 A 
ATOM     79  C   UNL A   1      38.650  32.767  32.528  1.00  0.00     0.031 A 
ATOM     80  C   UNL A   1      40.140  31.427  33.865  1.00  0.00     0.131 A 
ATOM     81  C   UNL A   1      37.584  32.332  33.332  1.00  0.00     0.055 A 
ATOM     82  C   UNL A   1      39.072  30.967  34.637  1.00  0.00     0.041 A 
ATOM     83  F   UNL A   1      41.367  30.970  34.162  1.00  0.00    -0.206 F 
ATOM     84  C   UNL A   1      37.785  31.424  34.374  1.00  0.00     0.022 A 
BRANCH  81  85
ATOM     85  S   UNL A   1      35.925  32.991  33.010  1.00  0.00     0.124 S 
ATOM     86  O   UNL A   1      36.231  34.268  32.377  1.00  0.00    -0.237 OA
ATOM     87  O   UNL A   1      35.352  31.965  32.145  1.00  0.00    -0.237 OA
ATOM     88  O   UNL A   1      35.332  33.079  34.342  1.00  0.00    -0.744 OA
ENDBRANCH  81  85
ENDBRANCH  54  78
BRANCH  66  89
ATOM     89  C   UNL A   1      44.134  37.919  33.097  1.00  0.00     0.023 A 
ATOM     90  C   UNL A   1      43.439  39.097  32.776  1.00  0.00     0.031 A 
ATOM     91  C   UNL A   1      44.832  37.873  34.318  1.00  0.00     0.131 A 
ATOM     92  C   UNL A   1      43.481  40.192  33.654  1.00  0.00     0.055 A 
ATOM     93  C   UNL A   1      44.826  38.946  35.211  1.00  0.00     0.041 A 
ATOM     94  F   UNL A   1      45.511  36.770  34.676  1.00  0.00    -0.206 F 
ATOM     95  C   UNL A   1      44.153  40.117  34.877  1.00  0.00     0.022 A 
BRANCH  92  96
ATOM     96  S   UNL A   1      42.679  41.741  33.156  1.00  0.00     0.124 S 
ATOM     97  O   UNL A   1      43.827  42.592  32.856  1.00  0.00    -0.237 OA
ATOM     98  O   UNL A   1      41.878  41.327  32.008  1.00  0.00    -0.237 OA
ATOM     99  O   UNL A   1      41.913  42.127  34.338  1.00  0.00    -0.744 OA
ENDBRANCH  92  96
ENDBRANCH  66  89
ENDBRANCH  40  41
ENDBRANCH  33  35
ENDBRANCH  32  33
ENDBRANCH  31  32
ENDBRANCH  30  31
ENDBRANCH  29  30
ENDBRANCH  28  29
ENDBRANCH   1  28
TORSDOF 25
ENDMDL
MODEL 2
REMARK VINA RESULT:      -9.0      4.017      9.508
REMARK SMILES Cc1cc(C)cc(-c2ccc([C@@H](C)C(=O)OCCOCCOCCOCCOC(=O)c3ccc(-c4c5nc(c(-c6cc(S(=O)(=O)[O-])ccc6F)c6ccc([nH]6)c(-c6cc(S(=O)(=O)[O-])ccc6F)c6nc(c(-c7cc(S(=O)(=O)[O-])ccc7F)c7ccc4[nH]7)C=C6)C=C5)cc3)cc2F)c1
REMARK SMILES IDX 23 1 22 2 21 3 20 4 19 5 18 6 17 7 16 8 14 9 15 10 12 11
REMARK SMILES IDX 13 12 11 13 8 14 9 15 95 16 10 17 94 18 96 19 7 20 1 21 2 22
REMARK SMILES IDX 3 23 97 24 4 25 5 26 6 27 24 28 25 29 26 30 27 31 28 32
REMARK SMILES IDX 29 33 30 34 31 35 32 36 93 37 33 38 92 39 34 40 35 41 36 42
REMARK SMILES IDX 86 43 37 44 91 45 85 46 87 47 38 48 90 49 84 50 83 51 39 53
REMARK SMILES IDX 71 54 51 55 70 56 52 57 55 58 69 59 88 60 53 61 54 62 68 64
REMARK SMILES IDX 89 65 56 66 40 67 41 68 49 69 42 70 48 71 50 72 47 73 43 74
REMARK SMILES IDX 44 75 45 76 46 77 72 78 73 79 81 80 74 81 80 82 82 83 79 84
REMARK SMILES IDX 75 85 76 86 77 87 78 88 57 89 58 90 66 91 59 92 65 93 67 94
REMARK SMILES IDX 64 95 60 96 61 97 62 98 63 99
REMARK H PARENT 87 52 55 63
REMARK Flexibility Score: inf
ROOT
ATOM      1  C   UNL A   1      36.299  29.699  29.766  1.00  0.00     0.188 C 
ENDROOT
BRANCH   1   2
ATOM      2  O   UNL A   1      36.551  30.511  28.629  1.00  0.00    -0.377 OA
BRANCH   2   3
ATOM      3  C   UNL A   1      35.846  30.196  27.448  1.00  0.00     0.188 C 
BRANCH   3   4
ATOM      4  C   UNL A   1      34.558  29.386  27.651  1.00  0.00     0.188 C 
BRANCH   4   5
ATOM      5  O   UNL A   1      33.475  29.479  26.738  1.00  0.00    -0.376 OA
BRANCH   5   6
ATOM      6  C   UNL A   1      32.364  28.598  26.831  1.00  0.00     0.202 C 
BRANCH   6   7
ATOM      7  C   UNL A   1      31.455  28.308  25.620  1.00  0.00     0.261 C 
BRANCH   7   8
ATOM      8  O   UNL A   1      30.712  27.071  25.637  1.00  0.00    -0.463 OA
BRANCH   8   9
ATOM      9  C   UNL A   1      30.533  26.463  24.443  1.00  0.00     0.313 C 
ATOM     10  O   UNL A   1      29.461  25.977  24.082  1.00  0.00    -0.252 OA
BRANCH   9  11
ATOM     11  C   UNL A   1      31.762  26.384  23.540  1.00  0.00     0.126 C 
ATOM     12  C   UNL A   1      31.291  26.126  22.112  1.00  0.00     0.025 C 
BRANCH  11  13
ATOM     13  C   UNL A   1      32.963  25.504  23.891  1.00  0.00    -0.031 A 
ATOM     14  C   UNL A   1      35.194  23.873  24.685  1.00  0.00     0.017 A 
ATOM     15  C   UNL A   1      34.994  24.255  23.345  1.00  0.00     0.012 A 
ATOM     16  C   UNL A   1      34.246  24.314  25.613  1.00  0.00     0.131 A 
ATOM     17  C   UNL A   1      33.901  25.056  22.953  1.00  0.00     0.005 A 
ATOM     18  C   UNL A   1      33.166  25.123  25.235  1.00  0.00     0.044 A 
ATOM     19  F   UNL A   1      34.360  23.984  26.909  1.00  0.00    -0.206 F 
BRANCH  14  20
ATOM     20  C   UNL A   1      36.389  23.104  25.092  1.00  0.00    -0.015 A 
ATOM     21  C   UNL A   1      39.718  23.534  26.950  1.00  0.00     0.044 C 
ATOM     22  C   UNL A   1      38.581  22.928  26.178  1.00  0.00    -0.050 A 
ATOM     23  C   UNL A   1      38.641  21.572  25.832  1.00  0.00     0.006 A 
ATOM     24  C   UNL A   1      37.458  23.686  25.798  1.00  0.00     0.012 A 
ATOM     25  C   UNL A   1      37.600  20.970  25.120  1.00  0.00    -0.050 A 
ATOM     26  C   UNL A   1      37.683  19.517  24.759  1.00  0.00     0.044 C 
ATOM     27  C   UNL A   1      36.485  21.739  24.762  1.00  0.00     0.012 A 
ENDBRANCH  14  20
ENDBRANCH  11  13
ENDBRANCH   9  11
ENDBRANCH   8   9
ENDBRANCH   7   8
ENDBRANCH   6   7
ENDBRANCH   5   6
ENDBRANCH   4   5
ENDBRANCH   3   4
ENDBRANCH   2   3
ENDBRANCH   1   2
BRANCH   1  28
ATOM     28  C   UNL A   1      35.935  30.414  31.080  1.00  0.00     0.188 C 
BRANCH  28  29
ATOM     29  O   UNL A   1      36.663  29.952  32.213  1.00  0.00    -0.376 OA
BRANCH  29  30
ATOM     30  C   UNL A   1      37.631  30.813  32.795  1.00  0.00     0.202 C 
BRANCH  30  31
ATOM     31  C   UNL A   1      37.206  32.240  33.186  1.00  0.00     0.261 C 
BRANCH  31  32
ATOM     32  O   UNL A   1      37.950  33.328  32.614  1.00  0.00    -0.460 OA
BRANCH  32  33
ATOM     33  C   UNL A   1      37.715  33.667  31.330  1.00  0.00     0.338 C 
ATOM     34  O   UNL A   1      36.625  33.750  30.787  1.00  0.00    -0.246 OA
BRANCH  33  35
ATOM     35  C   UNL A   1      38.995  34.124  30.744  1.00  0.00     0.060 A 
ATOM     36  C   UNL A   1      39.023  34.546  29.408  1.00  0.00     0.016 A 
ATOM     37  C   UNL A   1      40.159  34.160  31.517  1.00  0.00     0.016 A 
ATOM     38  C   UNL A   1      40.219  34.985  28.835  1.00  0.00     0.010 A 
ATOM     39  C   UNL A   1      41.361  34.570  30.932  1.00  0.00     0.010 A 
ATOM     40  C   UNL A   1      41.404  34.962  29.582  1.00  0.00    -0.014 A 
BRANCH  40  41
ATOM     41  C   UNL A   1      42.713  35.172  28.915  1.00  0.00     0.031 A 
ATOM     42  C   UNL A   1      43.609  33.981  28.709  1.00  0.00     0.074 A 
ATOM     43  C   UNL A   1      43.100  36.387  28.488  1.00  0.00     0.049 A 
ATOM     44  N   UNL A   1      44.833  33.932  28.254  1.00  0.00    -0.248 NA
ATOM     45  C   UNL A   1      43.043  32.669  29.063  1.00  0.00     0.031 C 
ATOM     46  C   UNL A   1      42.292  37.604  28.556  1.00  0.00     0.029 A 
ATOM     47  N   UNL A   1      44.277  36.796  27.911  1.00  0.00    -0.354 N 
ATOM     48  C   UNL A   1      45.186  32.587  28.267  1.00  0.00     0.074 A 
ATOM     49  C   UNL A   1      44.058  31.858  28.805  1.00  0.00     0.031 C 
ATOM     50  C   UNL A   1      43.002  38.625  28.044  1.00  0.00     0.029 A 
ATOM     51  C   UNL A   1      44.329  38.147  27.657  1.00  0.00     0.049 A 
ATOM     52  H   UNL A   1      45.016  36.181  27.699  1.00  0.00     0.167 HD
ATOM     53  C   UNL A   1      46.344  32.013  27.863  1.00  0.00     0.034 A 
ATOM     54  C   UNL A   1      45.339  38.913  27.193  1.00  0.00     0.034 A 
ATOM     55  C   UNL A   1      47.467  32.748  27.341  1.00  0.00     0.049 A 
ATOM     56  C   UNL A   1      46.664  38.270  26.863  1.00  0.00     0.074 A 
ATOM     57  C   UNL A   1      48.692  32.260  26.919  1.00  0.00     0.029 A 
ATOM     58  N   UNL A   1      47.509  34.126  27.173  1.00  0.00    -0.354 N 
ATOM     59  N   UNL A   1      47.009  37.005  26.935  1.00  0.00    -0.248 NA
ATOM     60  C   UNL A   1      47.737  39.158  26.394  1.00  0.00     0.031 C 
ATOM     61  C   UNL A   1      49.497  33.346  26.563  1.00  0.00     0.029 A 
ATOM     62  C   UNL A   1      48.747  34.506  26.680  1.00  0.00     0.049 A 
ATOM     63  H   UNL A   1      46.767  34.741  27.373  1.00  0.00     0.167 HD
ATOM     64  C   UNL A   1      48.326  36.942  26.488  1.00  0.00     0.074 A 
ATOM     65  C   UNL A   1      48.717  38.295  26.153  1.00  0.00     0.031 C 
ATOM     66  C   UNL A   1      49.133  35.859  26.357  1.00  0.00     0.034 A 
BRANCH  53  67
ATOM     67  C   UNL A   1      46.473  30.519  28.010  1.00  0.00     0.023 A 
ATOM     68  C   UNL A   1      46.152  29.645  26.959  1.00  0.00     0.031 A 
ATOM     69  C   UNL A   1      46.944  29.965  29.214  1.00  0.00     0.131 A 
ATOM     70  C   UNL A   1      46.276  28.259  27.142  1.00  0.00     0.055 A 
ATOM     71  C   UNL A   1      47.126  28.590  29.368  1.00  0.00     0.041 A 
ATOM     72  F   UNL A   1      47.243  30.755  30.258  1.00  0.00    -0.206 F 
ATOM     73  C   UNL A   1      46.785  27.728  28.330  1.00  0.00     0.022 A 
BRANCH  70  74
ATOM     74  S   UNL A   1      45.688  27.153  25.832  1.00  0.00     0.124 S 
ATOM     75  O   UNL A   1      46.745  27.290  24.834  1.00  0.00    -0.237 OA
ATOM     76  O   UNL A   1      45.617  25.865  26.513  1.00  0.00    -0.237 OA
ATOM     77  O   UNL A   1      44.400  27.728  25.450  1.00  0.00    -0.744 OA
ENDBRANCH  70  74
ENDBRANCH  53  67
BRANCH  54  78
ATOM     78  C   UNL A   1      45.149  40.383  27.042  1.00  0.00     0.023 A 
ATOM     79  C   UNL A   1      44.776  40.941  25.810  1.00  0.00     0.031 A 
ATOM     80  C   UNL A   1      45.345  41.253  28.130  1.00  0.00     0.131 A 
ATOM     81  C   UNL A   1      44.625  42.332  25.689  1.00  0.00     0.055 A 
ATOM     82  C   UNL A   1      45.156  42.631  28.016  1.00  0.00     0.041 A 
ATOM     83  F   UNL A   1      45.703  40.769  29.330  1.00  0.00    -0.206 F 
ATOM     84  C   UNL A   1      44.798  43.178  26.788  1.00  0.00     0.022 A 
BRANCH  81  85
ATOM     85  S   UNL A   1      44.220  43.027  24.064  1.00  0.00     0.124 S 
ATOM     86  O   UNL A   1      43.158  42.134  23.616  1.00  0.00    -0.237 OA
ATOM     87  O   UNL A   1      43.818  44.387  24.406  1.00  0.00    -0.237 OA
ATOM     88  O   UNL A   1      45.479  42.920  23.328  1.00  0.00    -0.744 OA
ENDBRANCH  81  85
ENDBRANCH  54  78
BRANCH  66  89
ATOM     89  C   UNL A   1      50.511  36.072  25.781  1.00  0.00     0.023 A 
ATOM     90  C   UNL A   1      51.669  35.982  26.571  1.00  0.00     0.031 A 
ATOM     91  C   UNL A   1      50.665  36.322  24.405  1.00  0.00     0.131 A 
ATOM     92  C   UNL A   1      52.930  36.167  25.982  1.00  0.00     0.055 A 
ATOM     93  C   UNL A   1      51.923  36.452  23.816  1.00  0.00     0.041 A 
ATOM     94  F   UNL A   1      49.591  36.415  23.603  1.00  0.00    -0.206 F 
ATOM     95  C   UNL A   1      53.066  36.382  24.608  1.00  0.00     0.022 A 
BRANCH  92  96
ATOM     96  S   UNL A   1      54.399  36.169  27.047  1.00  0.00     0.124 S 
ATOM     97  O   UNL A   1      54.772  37.580  27.043  1.00  0.00    -0.237 OA
ATOM     98  O   UNL A   1      53.875  35.653  28.308  1.00  0.00    -0.237 OA
ATOM     99  O   UNL A   1      55.327  35.279  26.354  1.00  0.00    -0.744 OA
ENDBRANCH  92  96
ENDBRANCH  66  89
ENDBRANCH  40  41
ENDBRANCH  33  35
ENDBRANCH  32  33
ENDBRANCH  31  32
ENDBRANCH  30  31
ENDBRANCH  29  30
ENDBRANCH  28  29
ENDBRANCH   1  28
TORSDOF 25
ENDMDL
MODEL 3
REMARK VINA RESULT:      -9.0      8.898     15.297
REMARK SMILES Cc1cc(C)cc(-c2ccc([C@@H](C)C(=O)OCCOCCOCCOCCOC(=O)c3ccc(-c4c5nc(c(-c6cc(S(=O)(=O)[O-])ccc6F)c6ccc([nH]6)c(-c6cc(S(=O)(=O)[O-])ccc6F)c6nc(c(-c7cc(S(=O)(=O)[O-])ccc7F)c7ccc4[nH]7)C=C6)C=C5)cc3)cc2F)c1
REMARK SMILES IDX 23 1 22 2 21 3 20 4 19 5 18 6 17 7 16 8 14 9 15 10 12 11
REMARK SMILES IDX 13 12 11 13 8 14 9 15 95 16 10 17 94 18 96 19 7 20 1 21 2 22
REMARK SMILES IDX 3 23 97 24 4 25 5 26 6 27 24 28 25 29 26 30 27 31 28 32
REMARK SMILES IDX 29 33 30 34 31 35 32 36 93 37 33 38 92 39 34 40 35 41 36 42
REMARK SMILES IDX 86 43 37 44 91 45 85 46 87 47 38 48 90 49 84 50 83 51 39 53
REMARK SMILES IDX 71 54 51 55 70 56 52 57 55 58 69 59 88 60 53 61 54 62 68 64
REMARK SMILES IDX 89 65 56 66 40 67 41 68 49 69 42 70 48 71 50 72 47 73 43 74
REMARK SMILES IDX 44 75 45 76 46 77 72 78 73 79 81 80 74 81 80 82 82 83 79 84
REMARK SMILES IDX 75 85 76 86 77 87 78 88 57 89 58 90 66 91 59 92 65 93 67 94
REMARK SMILES IDX 64 95 60 96 61 97 62 98 63 99
REMARK H PARENT 87 52 55 63
REMARK Flexibility Score: inf
ROOT
ATOM      1  C   UNL A   1      51.147  26.056  38.490  1.00  0.00     0.188 C 
ENDROOT
BRANCH   1   2
ATOM      2  O   UNL A   1      52.421  25.868  37.894  1.00  0.00    -0.377 OA
BRANCH   2   3
ATOM      3  C   UNL A   1      52.858  24.538  37.722  1.00  0.00     0.188 C 
BRANCH   3   4
ATOM      4  C   UNL A   1      52.684  23.970  36.306  1.00  0.00     0.188 C 
BRANCH   4   5
ATOM      5  O   UNL A   1      52.204  22.651  36.093  1.00  0.00    -0.376 OA
BRANCH   5   6
ATOM      6  C   UNL A   1      50.835  22.330  36.298  1.00  0.00     0.202 C 
BRANCH   6   7
ATOM      7  C   UNL A   1      50.400  21.204  37.256  1.00  0.00     0.261 C 
BRANCH   7   8
ATOM      8  O   UNL A   1      48.998  21.129  37.590  1.00  0.00    -0.463 OA
BRANCH   8   9
ATOM      9  C   UNL A   1      48.519  19.901  37.890  1.00  0.00     0.313 C 
ATOM     10  O   UNL A   1      49.170  19.046  38.489  1.00  0.00    -0.252 OA
BRANCH   9  11
ATOM     11  C   UNL A   1      47.096  19.603  37.420  1.00  0.00     0.126 C 
ATOM     12  C   UNL A   1      46.409  20.928  37.107  1.00  0.00     0.025 C 
BRANCH  11  13
ATOM     13  C   UNL A   1      46.169  18.673  38.203  1.00  0.00    -0.031 A 
ATOM     14  C   UNL A   1      44.513  16.930  39.781  1.00  0.00     0.017 A 
ATOM     15  C   UNL A   1      44.273  17.142  38.410  1.00  0.00     0.012 A 
ATOM     16  C   UNL A   1      45.590  17.621  40.344  1.00  0.00     0.131 A 
ATOM     17  C   UNL A   1      45.084  17.996  37.634  1.00  0.00     0.005 A 
ATOM     18  C   UNL A   1      46.411  18.458  39.577  1.00  0.00     0.044 A 
ATOM     19  F   UNL A   1      45.878  17.481  41.648  1.00  0.00    -0.206 F 
BRANCH  14  20
ATOM     20  C   UNL A   1      43.705  15.969  40.560  1.00  0.00    -0.015 A 
ATOM     21  C   UNL A   1      41.168  13.131  40.077  1.00  0.00     0.044 C 
ATOM     22  C   UNL A   1      42.083  14.136  40.717  1.00  0.00    -0.050 A 
ATOM     23  C   UNL A   1      42.189  14.164  42.114  1.00  0.00     0.006 A 
ATOM     24  C   UNL A   1      42.836  15.044  39.951  1.00  0.00     0.012 A 
ATOM     25  C   UNL A   1      43.035  15.079  42.746  1.00  0.00    -0.050 A 
ATOM     26  C   UNL A   1      43.137  15.094  44.243  1.00  0.00     0.044 C 
ATOM     27  C   UNL A   1      43.786  15.967  41.965  1.00  0.00     0.012 A 
ENDBRANCH  14  20
ENDBRANCH  11  13
ENDBRANCH   9  11
ENDBRANCH   8   9
ENDBRANCH   7   8
ENDBRANCH   6   7
ENDBRANCH   5   6
ENDBRANCH   4   5
ENDBRANCH   3   4
ENDBRANCH   2   3
ENDBRANCH   1   2
BRANCH   1  28
ATOM     28  C   UNL A   1      50.479  24.828  39.138  1.00  0.00     0.188 C 
BRANCH  28  29
ATOM     29  O   UNL A   1      49.326  25.137  39.912  1.00  0.00    -0.376 OA
BRANCH  29  30
ATOM     30  C   UNL A   1      48.128  24.415  39.663  1.00  0.00     0.202 C 
BRANCH  30  31
ATOM     31  C   UNL A   1      46.842  25.206  39.361  1.00  0.00     0.261 C 
BRANCH  31  32
ATOM     32  O   UNL A   1      46.565  25.509  37.985  1.00  0.00    -0.460 OA
BRANCH  32  33
ATOM     33  C   UNL A   1      46.844  26.747  37.526  1.00  0.00     0.338 C 
ATOM     34  O   UNL A   1      47.816  27.427  37.814  1.00  0.00    -0.246 OA
BRANCH  33  35
ATOM     35  C   UNL A   1      45.875  27.058  36.453  1.00  0.00     0.060 A 
ATOM     36  C   UNL A   1      46.149  28.111  35.569  1.00  0.00     0.016 A 
ATOM     37  C   UNL A   1      44.711  26.300  36.302  1.00  0.00     0.016 A 
ATOM     38  C   UNL A   1      45.250  28.421  34.545  1.00  0.00     0.010 A 
ATOM     39  C   UNL A   1      43.798  26.632  35.296  1.00  0.00     0.010 A 
ATOM     40  C   UNL A   1      44.050  27.709  34.428  1.00  0.00    -0.014 A 
BRANCH  40  41
ATOM     41  C   UNL A   1      42.978  28.193  33.521  1.00  0.00     0.031 A 
ATOM     42  C   UNL A   1      41.908  29.084  34.092  1.00  0.00     0.074 A 
ATOM     43  C   UNL A   1      42.956  27.864  32.218  1.00  0.00     0.049 A 
ATOM     44  N   UNL A   1      40.820  29.539  33.530  1.00  0.00    -0.248 NA
ATOM     45  C   UNL A   1      42.096  29.520  35.485  1.00  0.00     0.031 C 
ATOM     46  C   UNL A   1      43.975  27.076  31.527  1.00  0.00     0.029 A 
ATOM     47  N   UNL A   1      42.035  28.155  31.241  1.00  0.00    -0.354 N 
ATOM     48  C   UNL A   1      40.191  30.314  34.499  1.00  0.00     0.074 A 
ATOM     49  C   UNL A   1      41.005  30.241  35.694  1.00  0.00     0.031 C 
ATOM     50  C   UNL A   1      43.619  26.943  30.236  1.00  0.00     0.029 A 
ATOM     51  C   UNL A   1      42.327  27.592  30.020  1.00  0.00     0.049 A 
ATOM     52  H   UNL A   1      41.240  28.714  31.399  1.00  0.00     0.167 HD
ATOM     53  C   UNL A   1      39.044  31.025  34.398  1.00  0.00     0.034 A 
ATOM     54  C   UNL A   1      41.619  27.578  28.870  1.00  0.00     0.034 A 
ATOM     55  C   UNL A   1      38.233  31.082  33.209  1.00  0.00     0.049 A 
ATOM     56  C   UNL A   1      40.282  28.276  28.816  1.00  0.00     0.074 A 
ATOM     57  C   UNL A   1      37.044  31.761  33.011  1.00  0.00     0.029 A 
ATOM     58  N   UNL A   1      38.523  30.433  32.016  1.00  0.00    -0.354 N 
ATOM     59  N   UNL A   1      39.667  28.956  29.756  1.00  0.00    -0.248 NA
ATOM     60  C   UNL A   1      39.541  28.200  27.549  1.00  0.00     0.031 C 
ATOM     61  C   UNL A   1      36.580  31.467  31.727  1.00  0.00     0.029 A 
ATOM     62  C   UNL A   1      37.521  30.673  31.090  1.00  0.00     0.049 A 
ATOM     63  H   UNL A   1      39.324  29.883  31.852  1.00  0.00     0.167 HD
ATOM     64  C   UNL A   1      38.484  29.417  29.181  1.00  0.00     0.074 A 
ATOM     65  C   UNL A   1      38.469  28.934  27.817  1.00  0.00     0.031 C 
ATOM     66  C   UNL A   1      37.508  30.181  29.734  1.00  0.00     0.034 A 
BRANCH  53  67
ATOM     67  C   UNL A   1      38.571  31.765  35.622  1.00  0.00     0.023 A 
ATOM     68  C   UNL A   1      37.977  31.095  36.705  1.00  0.00     0.031 A 
ATOM     69  C   UNL A   1      38.738  33.158  35.715  1.00  0.00     0.131 A 
ATOM     70  C   UNL A   1      37.541  31.825  37.822  1.00  0.00     0.055 A 
ATOM     71  C   UNL A   1      38.361  33.869  36.854  1.00  0.00     0.041 A 
ATOM     72  F   UNL A   1      39.279  33.850  34.698  1.00  0.00    -0.206 F 
ATOM     73  C   UNL A   1      37.753  33.204  37.914  1.00  0.00     0.022 A 
BRANCH  70  74
ATOM     74  S   UNL A   1      36.622  30.960  39.122  1.00  0.00     0.124 S 
ATOM     75  O   UNL A   1      37.594  30.946  40.212  1.00  0.00    -0.237 OA
ATOM     76  O   UNL A   1      35.459  31.819  39.315  1.00  0.00    -0.237 OA
ATOM     77  O   UNL A   1      36.340  29.653  38.530  1.00  0.00    -0.744 OA
ENDBRANCH  70  74
ENDBRANCH  53  67
BRANCH  54  78
ATOM     78  C   UNL A   1      42.146  26.852  27.681  1.00  0.00     0.023 A 
ATOM     79  C   UNL A   1      42.097  25.451  27.610  1.00  0.00     0.031 A 
ATOM     80  C   UNL A   1      42.713  27.550  26.600  1.00  0.00     0.131 A 
ATOM     81  C   UNL A   1      42.620  24.790  26.487  1.00  0.00     0.055 A 
ATOM     82  C   UNL A   1      43.198  26.891  25.469  1.00  0.00     0.041 A 
ATOM     83  F   UNL A   1      42.785  28.890  26.620  1.00  0.00    -0.206 F 
ATOM     84  C   UNL A   1      43.157  25.501  25.411  1.00  0.00     0.022 A 
BRANCH  81  85
ATOM     85  S   UNL A   1      42.613  22.977  26.462  1.00  0.00     0.124 S 
ATOM     86  O   UNL A   1      41.327  22.677  27.079  1.00  0.00    -0.237 OA
ATOM     87  O   UNL A   1      42.726  22.691  25.036  1.00  0.00    -0.237 OA
ATOM     88  O   UNL A   1      43.787  22.623  27.259  1.00  0.00    -0.744 OA
ENDBRANCH  81  85
ENDBRANCH  54  78
BRANCH  66  89
ATOM     89  C   UNL A   1      36.353  30.592  28.853  1.00  0.00     0.023 A 
ATOM     90  C   UNL A   1      35.411  29.663  28.382  1.00  0.00     0.031 A 
ATOM     91  C   UNL A   1      36.170  31.948  28.525  1.00  0.00     0.131 A 
ATOM     92  C   UNL A   1      34.342  30.099  27.584  1.00  0.00     0.055 A 
ATOM     93  C   UNL A   1      35.076  32.382  27.775  1.00  0.00     0.041 A 
ATOM     94  F   UNL A   1      37.039  32.878  28.952  1.00  0.00    -0.206 F 
ATOM     95  C   UNL A   1      34.157  31.453  27.294  1.00  0.00     0.022 A 
BRANCH  92  96
ATOM     96  S   UNL A   1      33.212  28.863  26.885  1.00  0.00     0.124 S 
ATOM     97  O   UNL A   1      32.483  29.647  25.893  1.00  0.00    -0.237 OA
ATOM     98  O   UNL A   1      34.131  27.860  26.355  1.00  0.00    -0.237 OA
ATOM     99  O   UNL A   1      32.423  28.430  28.036  1.00  0.00    -0.744 OA
ENDBRANCH  92  96
ENDBRANCH  66  89
ENDBRANCH  40  41
ENDBRANCH  33  35
ENDBRANCH  32  33
ENDBRANCH  31  32
ENDBRANCH  30  31
ENDBRANCH  29  30
ENDBRANCH  28  29
ENDBRANCH   1  28
TORSDOF 25
ENDMDL
