MODEL 1
REMARK VINA RESULT:      -9.5      0.000      0.000
REMARK SMILES Cc1ccc2c(c1C)O[C@@H](C(=O)OCCOCCOCCOCCOC(=O)c1ccc(-c3c4nc(c(-c5cc(S(=O)(=O)[O-])ccc5F)c5ccc([nH]5)c(-c5cc(S(=O)(=O)[O-])ccc5F)c5nc(c(-c6cc(S(=O)(=O)[O-])ccc6F)c6ccc3[nH]6)C=C5)C=C4)cc1)CC2=O
REMARK SMILES IDX 20 1 19 2 18 3 17 4 16 5 15 6 14 7 13 8 11 9 12 10 10 11
REMARK SMILES IDX 1 12 2 13 3 14 7 15 4 16 6 17 8 18 5 19 9 20 92 21 91 22
REMARK SMILES IDX 93 23 21 24 22 25 23 26 24 27 25 28 26 29 27 30 28 31 29 32
REMARK SMILES IDX 90 33 30 34 89 35 31 36 32 37 33 38 83 39 34 40 88 41 82 42
REMARK SMILES IDX 84 43 35 44 87 45 81 46 80 47 36 49 68 50 48 51 67 52 49 53
REMARK SMILES IDX 52 54 66 55 85 56 50 57 51 58 65 60 86 61 53 62 37 63 38 64
REMARK SMILES IDX 46 65 39 66 45 67 47 68 44 69 40 70 41 71 42 72 43 73 69 74
REMARK SMILES IDX 70 75 78 76 71 77 77 78 79 79 76 80 72 81 73 82 74 83 75 84
REMARK SMILES IDX 54 85 55 86 63 87 56 88 62 89 64 90 61 91 57 92 58 93 59 94
REMARK SMILES IDX 60 95
REMARK H PARENT 84 48 52 59
REMARK Flexibility Score: inf
ROOT
ATOM      1  C   UNL A   1      42.895  18.726  26.278  1.00  0.00     0.188 C 
ENDROOT
BRANCH   1   2
ATOM      2  O   UNL A   1      42.199  19.882  26.718  1.00  0.00    -0.377 OA
BRANCH   2   3
ATOM      3  C   UNL A   1      40.817  19.941  26.461  1.00  0.00     0.188 C 
BRANCH   3   4
ATOM      4  C   UNL A   1      40.130  21.248  26.875  1.00  0.00     0.188 C 
BRANCH   4   5
ATOM      5  O   UNL A   1      39.479  22.071  25.921  1.00  0.00    -0.376 OA
BRANCH   5   6
ATOM      6  C   UNL A   1      38.943  23.336  26.285  1.00  0.00     0.202 C 
BRANCH   6   7
ATOM      7  C   UNL A   1      37.428  23.616  26.253  1.00  0.00     0.261 C 
BRANCH   7   8
ATOM      8  O   UNL A   1      36.647  22.948  25.238  1.00  0.00    -0.460 OA
BRANCH   8   9
ATOM      9  C   UNL A   1      36.097  21.758  25.575  1.00  0.00     0.347 C 
ATOM     10  O   UNL A   1      36.579  20.671  25.262  1.00  0.00    -0.248 OA
BRANCH   9  11
ATOM     11  C   UNL A   1      34.742  21.860  26.306  1.00  0.00     0.290 C 
ATOM     12  C   UNL A   1      32.139  18.212  22.228  1.00  0.00     0.045 C 
ATOM     13  C   UNL A   1      32.464  19.499  22.932  1.00  0.00    -0.044 A 
ATOM     14  C   UNL A   1      32.060  20.712  22.340  1.00  0.00     0.005 A 
ATOM     15  C   UNL A   1      33.155  19.514  24.158  1.00  0.00    -0.005 A 
ATOM     16  C   UNL A   1      32.314  21.934  22.960  1.00  0.00     0.016 A 
ATOM     17  C   UNL A   1      33.374  20.746  24.787  1.00  0.00     0.134 A 
ATOM     18  C   UNL A   1      33.710  18.277  24.815  1.00  0.00     0.049 C 
ATOM     19  C   UNL A   1      32.959  21.944  24.192  1.00  0.00     0.060 A 
ATOM     20  O   UNL A   1      33.984  20.688  26.018  1.00  0.00    -0.477 OA
ATOM     21  C   UNL A   1      33.188  23.207  24.915  1.00  0.00     0.170 C 
ATOM     22  C   UNL A   1      33.824  23.069  26.264  1.00  0.00     0.138 C 
ATOM     23  O   UNL A   1      32.789  24.287  24.494  1.00  0.00    -0.294 OA
ENDBRANCH   9  11
ENDBRANCH   8   9
ENDBRANCH   7   8
ENDBRANCH   6   7
ENDBRANCH   5   6
ENDBRANCH   4   5
ENDBRANCH   3   4
ENDBRANCH   2   3
ENDBRANCH   1   2
BRANCH   1  24
ATOM     24  C   UNL A   1      43.799  18.880  25.041  1.00  0.00     0.188 C 
BRANCH  24  25
ATOM     25  O   UNL A   1      45.190  18.804  25.335  1.00  0.00    -0.376 OA
BRANCH  25  26
ATOM     26  C   UNL A   1      46.012  19.911  24.991  1.00  0.00     0.202 C 
BRANCH  26  27
ATOM     27  C   UNL A   1      45.340  21.203  24.494  1.00  0.00     0.261 C 
BRANCH  27  28
ATOM     28  O   UNL A   1      44.950  22.168  25.483  1.00  0.00    -0.460 OA
BRANCH  28  29
ATOM     29  C   UNL A   1      43.844  22.911  25.279  1.00  0.00     0.338 C 
ATOM     30  O   UNL A   1      42.775  22.529  24.836  1.00  0.00    -0.246 OA
BRANCH  29  31
ATOM     31  C   UNL A   1      44.091  24.239  25.882  1.00  0.00     0.060 A 
ATOM     32  C   UNL A   1      44.220  24.346  27.274  1.00  0.00     0.016 A 
ATOM     33  C   UNL A   1      44.202  25.372  25.074  1.00  0.00     0.016 A 
ATOM     34  C   UNL A   1      44.435  25.591  27.864  1.00  0.00     0.010 A 
ATOM     35  C   UNL A   1      44.372  26.625  25.669  1.00  0.00     0.010 A 
ATOM     36  C   UNL A   1      44.453  26.742  27.067  1.00  0.00    -0.014 A 
BRANCH  36  37
ATOM     37  C   UNL A   1      44.275  28.066  27.708  1.00  0.00     0.031 A 
ATOM     38  C   UNL A   1      45.495  28.932  27.863  1.00  0.00     0.074 A 
ATOM     39  C   UNL A   1      43.075  28.504  28.123  1.00  0.00     0.049 A 
ATOM     40  N   UNL A   1      45.608  30.114  28.405  1.00  0.00    -0.248 NA
ATOM     41  C   UNL A   1      46.757  28.390  27.329  1.00  0.00     0.031 C 
ATOM     42  C   UNL A   1      41.816  27.777  27.982  1.00  0.00     0.029 A 
ATOM     43  N   UNL A   1      42.724  29.671  28.757  1.00  0.00    -0.354 N 
ATOM     44  C   UNL A   1      46.949  30.458  28.276  1.00  0.00     0.074 A 
ATOM     45  C   UNL A   1      47.617  29.349  27.635  1.00  0.00     0.031 C 
ATOM     46  C   UNL A   1      40.831  28.510  28.530  1.00  0.00     0.029 A 
ATOM     47  C   UNL A   1      41.392  29.743  29.087  1.00  0.00     0.049 A 
ATOM     48  H   UNL A   1      43.367  30.390  28.957  1.00  0.00     0.167 HD
ATOM     49  C   UNL A   1      47.564  31.602  28.648  1.00  0.00     0.034 A 
ATOM     50  C   UNL A   1      40.709  30.685  29.772  1.00  0.00     0.034 A 
ATOM     51  C   UNL A   1      46.897  32.695  29.299  1.00  0.00     0.049 A 
ATOM     52  C   UNL A   1      41.433  31.923  30.252  1.00  0.00     0.074 A 
ATOM     53  C   UNL A   1      47.437  33.900  29.709  1.00  0.00     0.029 A 
ATOM     54  N   UNL A   1      45.553  32.719  29.639  1.00  0.00    -0.354 N 
ATOM     55  N   UNL A   1      42.691  32.259  30.083  1.00  0.00    -0.248 NA
ATOM     56  C   UNL A   1      40.649  32.914  31.004  1.00  0.00     0.031 C 
ATOM     57  C   UNL A   1      46.437  34.625  30.354  1.00  0.00     0.029 A 
ATOM     58  C   UNL A   1      45.253  33.909  30.277  1.00  0.00     0.049 A 
ATOM     59  H   UNL A   1      44.909  31.997  29.454  1.00  0.00     0.167 HD
ATOM     60  C   UNL A   1      42.838  33.512  30.674  1.00  0.00     0.074 A 
ATOM     61  C   UNL A   1      41.541  33.879  31.199  1.00  0.00     0.031 C 
ATOM     62  C   UNL A   1      43.949  34.286  30.769  1.00  0.00     0.034 A 
BRANCH  49  63
ATOM     63  C   UNL A   1      49.036  31.744  28.371  1.00  0.00     0.023 A 
ATOM     64  C   UNL A   1      49.468  32.345  27.176  1.00  0.00     0.031 A 
ATOM     65  C   UNL A   1      49.999  31.177  29.224  1.00  0.00     0.131 A 
ATOM     66  C   UNL A   1      50.826  32.328  26.844  1.00  0.00     0.055 A 
ATOM     67  C   UNL A   1      51.357  31.199  28.908  1.00  0.00     0.041 A 
ATOM     68  F   UNL A   1      49.633  30.603  30.381  1.00  0.00    -0.206 F 
ATOM     69  C   UNL A   1      51.774  31.764  27.706  1.00  0.00     0.022 A 
BRANCH  66  70
ATOM     70  S   UNL A   1      51.407  32.992  25.262  1.00  0.00     0.124 S 
ATOM     71  O   UNL A   1      51.411  31.801  24.416  1.00  0.00    -0.237 OA
ATOM     72  O   UNL A   1      50.375  33.976  24.950  1.00  0.00    -0.237 OA
ATOM     73  O   UNL A   1      52.726  33.533  25.571  1.00  0.00    -0.744 OA
ENDBRANCH  66  70
ENDBRANCH  49  63
BRANCH  50  74
ATOM     74  C   UNL A   1      39.248  30.499  30.002  1.00  0.00     0.023 A 
ATOM     75  C   UNL A   1      38.302  31.265  29.298  1.00  0.00     0.031 A 
ATOM     76  C   UNL A   1      38.782  29.618  30.992  1.00  0.00     0.131 A 
ATOM     77  C   UNL A   1      36.946  31.186  29.642  1.00  0.00     0.055 A 
ATOM     78  C   UNL A   1      37.422  29.492  31.284  1.00  0.00     0.041 A 
ATOM     79  F   UNL A   1      39.647  28.870  31.694  1.00  0.00    -0.206 F 
ATOM     80  C   UNL A   1      36.498  30.291  30.618  1.00  0.00     0.022 A 
BRANCH  77  81
ATOM     81  S   UNL A   1      35.734  32.314  28.902  1.00  0.00     0.124 S 
ATOM     82  O   UNL A   1      34.610  32.214  29.827  1.00  0.00    -0.237 OA
ATOM     83  O   UNL A   1      36.462  33.581  28.925  1.00  0.00    -0.237 OA
ATOM     84  O   UNL A   1      35.506  31.751  27.575  1.00  0.00    -0.744 OA
ENDBRANCH  77  81
ENDBRANCH  50  74
BRANCH  62  85
ATOM     85  C   UNL A   1      43.851  35.639  31.431  1.00  0.00     0.023 A 
ATOM     86  C   UNL A   1      43.844  36.802  30.636  1.00  0.00     0.031 A 
ATOM     87  C   UNL A   1      43.962  35.785  32.824  1.00  0.00     0.131 A 
ATOM     88  C   UNL A   1      44.000  38.058  31.234  1.00  0.00     0.055 A 
ATOM     89  C   UNL A   1      44.069  37.043  33.419  1.00  0.00     0.041 A 
ATOM     90  F   UNL A   1      43.986  34.707  33.622  1.00  0.00    -0.206 F 
ATOM     91  C   UNL A   1      44.106  38.185  32.623  1.00  0.00     0.022 A 
BRANCH  88  92
ATOM     92  S   UNL A   1      44.157  39.560  30.230  1.00  0.00     0.124 S 
ATOM     93  O   UNL A   1      44.487  40.566  31.237  1.00  0.00    -0.237 OA
ATOM     94  O   UNL A   1      45.242  39.209  29.319  1.00  0.00    -0.237 OA
ATOM     95  O   UNL A   1      42.842  39.711  29.615  1.00  0.00    -0.744 OA
ENDBRANCH  88  92
ENDBRANCH  62  85
ENDBRANCH  36  37
ENDBRANCH  29  31
ENDBRANCH  28  29
ENDBRANCH  27  28
ENDBRANCH  26  27
ENDBRANCH  25  26
ENDBRANCH  24  25
ENDBRANCH   1  24
TORSDOF 23
ENDMDL
MODEL 2
REMARK VINA RESULT:      -9.4      2.953      8.450
REMARK SMILES Cc1ccc2c(c1C)O[C@@H](C(=O)OCCOCCOCCOCCOC(=O)c1ccc(-c3c4nc(c(-c5cc(S(=O)(=O)[O-])ccc5F)c5ccc([nH]5)c(-c5cc(S(=O)(=O)[O-])ccc5F)c5nc(c(-c6cc(S(=O)(=O)[O-])ccc6F)c6ccc3[nH]6)C=C5)C=C4)cc1)CC2=O
REMARK SMILES IDX 20 1 19 2 18 3 17 4 16 5 15 6 14 7 13 8 11 9 12 10 10 11
REMARK SMILES IDX 1 12 2 13 3 14 7 15 4 16 6 17 8 18 5 19 9 20 92 21 91 22
REMARK SMILES IDX 93 23 21 24 22 25 23 26 24 27 25 28 26 29 27 30 28 31 29 32
REMARK SMILES IDX 90 33 30 34 89 35 31 36 32 37 33 38 83 39 34 40 88 41 82 42
REMARK SMILES IDX 84 43 35 44 87 45 81 46 80 47 36 49 68 50 48 51 67 52 49 53
REMARK SMILES IDX 52 54 66 55 85 56 50 57 51 58 65 60 86 61 53 62 37 63 38 64
REMARK SMILES IDX 46 65 39 66 45 67 47 68 44 69 40 70 41 71 42 72 43 73 69 74
REMARK SMILES IDX 70 75 78 76 71 77 77 78 79 79 76 80 72 81 73 82 74 83 75 84
REMARK SMILES IDX 54 85 55 86 63 87 56 88 62 89 64 90 61 91 57 92 58 93 59 94
REMARK SMILES IDX 60 95
REMARK H PARENT 84 48 52 59
REMARK Flexibility Score: inf
ROOT
ATOM      1  C   UNL A   1      39.764  21.401  26.425  1.00  0.00     0.188 C 
ENDROOT
BRANCH   1   2
ATOM      2  O   UNL A   1      38.877  20.971  25.405  1.00  0.00    -0.377 OA
BRANCH   2   3
ATOM      3  C   UNL A   1      37.760  21.783  25.135  1.00  0.00     0.188 C 
BRANCH   3   4
ATOM      4  C   UNL A   1      36.409  21.198  25.562  1.00  0.00     0.188 C 
BRANCH   4   5
ATOM      5  O   UNL A   1      35.563  20.542  24.632  1.00  0.00    -0.376 OA
BRANCH   5   6
ATOM      6  C   UNL A   1      34.295  20.033  25.023  1.00  0.00     0.202 C 
BRANCH   6   7
ATOM      7  C   UNL A   1      32.982  20.572  24.419  1.00  0.00     0.261 C 
BRANCH   7   8
ATOM      8  O   UNL A   1      32.662  21.961  24.651  1.00  0.00    -0.460 OA
BRANCH   8   9
ATOM      9  C   UNL A   1      31.833  22.233  25.685  1.00  0.00     0.347 C 
ATOM     10  O   UNL A   1      30.674  21.827  25.756  1.00  0.00    -0.248 OA
BRANCH   9  11
ATOM     11  C   UNL A   1      32.418  23.190  26.745  1.00  0.00     0.290 C 
ATOM     12  C   UNL A   1      30.284  28.001  23.744  1.00  0.00     0.045 C 
ATOM     13  C   UNL A   1      31.305  27.025  24.255  1.00  0.00    -0.044 A 
ATOM     14  C   UNL A   1      32.607  27.069  23.719  1.00  0.00     0.005 A 
ATOM     15  C   UNL A   1      30.988  26.079  25.249  1.00  0.00    -0.005 A 
ATOM     16  C   UNL A   1      33.601  26.202  24.172  1.00  0.00     0.016 A 
ATOM     17  C   UNL A   1      32.004  25.238  25.718  1.00  0.00     0.134 A 
ATOM     18  C   UNL A   1      29.602  25.893  25.807  1.00  0.00     0.049 C 
ATOM     19  C   UNL A   1      33.297  25.298  25.183  1.00  0.00     0.060 A 
ATOM     20  O   UNL A   1      31.651  24.390  26.743  1.00  0.00    -0.477 OA
ATOM     21  C   UNL A   1      34.333  24.410  25.740  1.00  0.00     0.170 C 
ATOM     22  C   UNL A   1      33.891  23.539  26.875  1.00  0.00     0.138 C 
ATOM     23  O   UNL A   1      35.503  24.455  25.375  1.00  0.00    -0.294 OA
ENDBRANCH   9  11
ENDBRANCH   8   9
ENDBRANCH   7   8
ENDBRANCH   6   7
ENDBRANCH   5   6
ENDBRANCH   4   5
ENDBRANCH   3   4
ENDBRANCH   2   3
ENDBRANCH   1   2
BRANCH   1  24
ATOM     24  C   UNL A   1      41.181  20.797  26.425  1.00  0.00     0.188 C 
BRANCH  24  25
ATOM     25  O   UNL A   1      41.241  19.480  25.889  1.00  0.00    -0.376 OA
BRANCH  25  26
ATOM     26  C   UNL A   1      42.290  18.624  26.320  1.00  0.00     0.202 C 
BRANCH  26  27
ATOM     27  C   UNL A   1      43.520  18.450  25.413  1.00  0.00     0.261 C 
BRANCH  27  28
ATOM     28  O   UNL A   1      44.520  19.480  25.449  1.00  0.00    -0.460 OA
BRANCH  28  29
ATOM     29  C   UNL A   1      44.580  20.376  24.445  1.00  0.00     0.338 C 
ATOM     30  O   UNL A   1      44.530  20.144  23.249  1.00  0.00    -0.246 OA
BRANCH  29  31
ATOM     31  C   UNL A   1      44.510  21.722  25.054  1.00  0.00     0.060 A 
ATOM     32  C   UNL A   1      44.190  22.824  24.248  1.00  0.00     0.016 A 
ATOM     33  C   UNL A   1      44.752  21.893  26.419  1.00  0.00     0.016 A 
ATOM     34  C   UNL A   1      44.137  24.104  24.800  1.00  0.00     0.010 A 
ATOM     35  C   UNL A   1      44.742  23.181  26.962  1.00  0.00     0.010 A 
ATOM     36  C   UNL A   1      44.471  24.293  26.146  1.00  0.00    -0.014 A 
BRANCH  36  37
ATOM     37  C   UNL A   1      44.804  25.656  26.622  1.00  0.00     0.031 A 
ATOM     38  C   UNL A   1      43.691  26.479  27.207  1.00  0.00     0.074 A 
ATOM     39  C   UNL A   1      46.053  26.148  26.561  1.00  0.00     0.049 A 
ATOM     40  N   UNL A   1      43.718  27.699  27.671  1.00  0.00    -0.248 NA
ATOM     41  C   UNL A   1      42.367  25.835  27.283  1.00  0.00     0.031 C 
ATOM     42  C   UNL A   1      47.221  25.428  26.061  1.00  0.00     0.029 A 
ATOM     43  N   UNL A   1      46.542  27.381  26.919  1.00  0.00    -0.354 N 
ATOM     44  C   UNL A   1      42.422  27.968  28.095  1.00  0.00     0.074 A 
ATOM     45  C   UNL A   1      41.625  26.799  27.804  1.00  0.00     0.031 C 
ATOM     46  C   UNL A   1      48.291  26.240  26.131  1.00  0.00     0.029 A 
ATOM     47  C   UNL A   1      47.879  27.545  26.650  1.00  0.00     0.049 A 
ATOM     48  H   UNL A   1      45.986  28.082  27.330  1.00  0.00     0.167 HD
ATOM     49  C   UNL A   1      41.943  29.086  28.684  1.00  0.00     0.034 A 
ATOM     50  C   UNL A   1      48.674  28.629  26.790  1.00  0.00     0.034 A 
ATOM     51  C   UNL A   1      42.738  30.250  28.957  1.00  0.00     0.049 A 
ATOM     52  C   UNL A   1      48.100  29.898  27.378  1.00  0.00     0.074 A 
ATOM     53  C   UNL A   1      42.342  31.431  29.558  1.00  0.00     0.029 A 
ATOM     54  N   UNL A   1      44.083  30.388  28.646  1.00  0.00    -0.354 N 
ATOM     55  N   UNL A   1      46.884  30.126  27.818  1.00  0.00    -0.248 NA
ATOM     56  C   UNL A   1      49.001  31.054  27.499  1.00  0.00     0.031 C 
ATOM     57  C   UNL A   1      43.427  32.305  29.553  1.00  0.00     0.029 A 
ATOM     58  C   UNL A   1      44.524  31.644  29.020  1.00  0.00     0.049 A 
ATOM     59  H   UNL A   1      44.639  29.695  28.222  1.00  0.00     0.167 HD
ATOM     60  C   UNL A   1      46.886  31.432  28.300  1.00  0.00     0.074 A 
ATOM     61  C   UNL A   1      48.226  31.945  28.105  1.00  0.00     0.031 C 
ATOM     62  C   UNL A   1      45.870  32.139  28.856  1.00  0.00     0.034 A 
BRANCH  49  63
ATOM     63  C   UNL A   1      40.492  29.120  29.077  1.00  0.00     0.023 A 
ATOM     64  C   UNL A   1      40.129  28.973  30.427  1.00  0.00     0.031 A 
ATOM     65  C   UNL A   1      39.473  29.172  28.110  1.00  0.00     0.131 A 
ATOM     66  C   UNL A   1      38.780  28.839  30.771  1.00  0.00     0.055 A 
ATOM     67  C   UNL A   1      38.127  29.080  28.462  1.00  0.00     0.041 A 
ATOM     68  F   UNL A   1      39.773  29.323  26.810  1.00  0.00    -0.206 F 
ATOM     69  C   UNL A   1      37.777  28.898  29.797  1.00  0.00     0.022 A 
BRANCH  66  70
ATOM     70  S   UNL A   1      38.281  28.536  32.486  1.00  0.00     0.124 S 
ATOM     71  O   UNL A   1      37.022  29.272  32.570  1.00  0.00    -0.237 OA
ATOM     72  O   UNL A   1      38.158  27.082  32.513  1.00  0.00    -0.237 OA
ATOM     73  O   UNL A   1      39.375  29.095  33.273  1.00  0.00    -0.744 OA
ENDBRANCH  66  70
ENDBRANCH  49  63
BRANCH  50  74
ATOM     74  C   UNL A   1      50.109  28.530  26.399  1.00  0.00     0.023 A 
ATOM     75  C   UNL A   1      50.517  28.774  25.076  1.00  0.00     0.031 A 
ATOM     76  C   UNL A   1      51.078  28.102  27.322  1.00  0.00     0.131 A 
ATOM     77  C   UNL A   1      51.842  28.522  24.697  1.00  0.00     0.055 A 
ATOM     78  C   UNL A   1      52.413  27.919  26.956  1.00  0.00     0.041 A 
ATOM     79  F   UNL A   1      50.736  27.852  28.596  1.00  0.00    -0.206 F 
ATOM     80  C   UNL A   1      52.797  28.114  25.633  1.00  0.00     0.022 A 
BRANCH  77  81
ATOM     81  S   UNL A   1      52.344  28.623  22.957  1.00  0.00     0.124 S 
ATOM     82  O   UNL A   1      51.658  29.830  22.506  1.00  0.00    -0.237 OA
ATOM     83  O   UNL A   1      53.797  28.728  23.077  1.00  0.00    -0.237 OA
ATOM     84  O   UNL A   1      51.855  27.373  22.385  1.00  0.00    -0.744 OA
ENDBRANCH  77  81
ENDBRANCH  50  74
BRANCH  62  85
ATOM     85  C   UNL A   1      46.128  33.545  29.342  1.00  0.00     0.023 A 
ATOM     86  C   UNL A   1      46.431  33.764  30.700  1.00  0.00     0.031 A 
ATOM     87  C   UNL A   1      45.885  34.661  28.525  1.00  0.00     0.131 A 
ATOM     88  C   UNL A   1      46.432  35.067  31.214  1.00  0.00     0.055 A 
ATOM     89  C   UNL A   1      45.934  35.961  29.033  1.00  0.00     0.041 A 
ATOM     90  F   UNL A   1      45.579  34.502  27.228  1.00  0.00    -0.206 F 
ATOM     91  C   UNL A   1      46.191  36.167  30.385  1.00  0.00     0.022 A 
BRANCH  88  92
ATOM     92  S   UNL A   1      46.660  35.373  32.988  1.00  0.00     0.124 S 
ATOM     93  O   UNL A   1      45.838  34.322  33.585  1.00  0.00    -0.237 OA
ATOM     94  O   UNL A   1      48.101  35.204  33.145  1.00  0.00    -0.237 OA
ATOM     95  O   UNL A   1      46.159  36.730  33.177  1.00  0.00    -0.744 OA
ENDBRANCH  88  92
ENDBRANCH  62  85
ENDBRANCH  36  37
ENDBRANCH  29  31
ENDBRANCH  28  29
ENDBRANCH  27  28
ENDBRANCH  26  27
ENDBRANCH  25  26
ENDBRANCH  24  25
ENDBRANCH   1  24
TORSDOF 23
ENDMDL
MODEL 3
REMARK VINA RESULT:      -9.2      3.316      5.145
REMARK SMILES Cc1ccc2c(c1C)O[C@@H](C(=O)OCCOCCOCCOCCOC(=O)c1ccc(-c3c4nc(c(-c5cc(S(=O)(=O)[O-])ccc5F)c5ccc([nH]5)c(-c5cc(S(=O)(=O)[O-])ccc5F)c5nc(c(-c6cc(S(=O)(=O)[O-])ccc6F)c6ccc3[nH]6)C=C5)C=C4)cc1)CC2=O
REMARK SMILES IDX 20 1 19 2 18 3 17 4 16 5 15 6 14 7 13 8 11 9 12 10 10 11
REMARK SMILES IDX 1 12 2 13 3 14 7 15 4 16 6 17 8 18 5 19 9 20 92 21 91 22
REMARK SMILES IDX 93 23 21 24 22 25 23 26 24 27 25 28 26 29 27 30 28 31 29 32
REMARK SMILES IDX 90 33 30 34 89 35 31 36 32 37 33 38 83 39 34 40 88 41 82 42
REMARK SMILES IDX 84 43 35 44 87 45 81 46 80 47 36 49 68 50 48 51 67 52 49 53
REMARK SMILES IDX 52 54 66 55 85 56 50 57 51 58 65 60 86 61 53 62 37 63 38 64
REMARK SMILES IDX 46 65 39 66 45 67 47 68 44 69 40 70 41 71 42 72 43 73 69 74
REMARK SMILES IDX 70 75 78 76 71 77 77 78 79 79 76 80 72 81 73 82 74 83 75 84
REMARK SMILES IDX 54 85 55 86 63 87 56 88 62 89 64 90 61 91 57 92 58 93 59 94
REMARK SMILES IDX 60 95
REMARK H PARENT 84 48 52 59
REMARK Flexibility Score: inf
ROOT
ATOM      1  C   UNL A   1      37.680  21.023  25.113  1.00  0.00     0.188 C 
ENDROOT
BRANCH   1   2
ATOM      2  O   UNL A   1      37.204  22.223  24.522  1.00  0.00    -0.377 OA
BRANCH   2   3
ATOM      3  C   UNL A   1      36.013  22.769  25.037  1.00  0.00     0.188 C 
BRANCH   3   4
ATOM      4  C   UNL A   1      34.947  21.745  25.442  1.00  0.00     0.188 C 
BRANCH   4   5
ATOM      5  O   UNL A   1      34.353  20.884  24.484  1.00  0.00    -0.376 OA
BRANCH   5   6
ATOM      6  C   UNL A   1      33.015  21.083  24.045  1.00  0.00     0.202 C 
BRANCH   6   7
ATOM      7  C   UNL A   1      32.562  22.407  23.397  1.00  0.00     0.261 C 
BRANCH   7   8
ATOM      8  O   UNL A   1      31.890  23.367  24.239  1.00  0.00    -0.460 OA
BRANCH   8   9
ATOM      9  C   UNL A   1      32.473  24.582  24.367  1.00  0.00     0.347 C 
ATOM     10  O   UNL A   1      33.318  25.019  23.588  1.00  0.00    -0.248 OA
BRANCH   9  11
ATOM     11  C   UNL A   1      32.070  25.359  25.638  1.00  0.00     0.290 C 
ATOM     12  C   UNL A   1      28.399  28.945  22.418  1.00  0.00     0.045 C 
ATOM     13  C   UNL A   1      29.617  28.554  23.205  1.00  0.00    -0.044 A 
ATOM     14  C   UNL A   1      30.724  29.425  23.210  1.00  0.00     0.005 A 
ATOM     15  C   UNL A   1      29.671  27.348  23.929  1.00  0.00    -0.005 A 
ATOM     16  C   UNL A   1      31.872  29.124  23.942  1.00  0.00     0.016 A 
ATOM     17  C   UNL A   1      30.816  27.074  24.686  1.00  0.00     0.134 A 
ATOM     18  C   UNL A   1      28.577  26.313  23.902  1.00  0.00     0.049 C 
ATOM     19  C   UNL A   1      31.907  27.954  24.691  1.00  0.00     0.060 A 
ATOM     20  O   UNL A   1      30.777  25.920  25.433  1.00  0.00    -0.477 OA
ATOM     21  C   UNL A   1      33.072  27.629  25.532  1.00  0.00     0.170 C 
ATOM     22  C   UNL A   1      32.948  26.377  26.345  1.00  0.00     0.138 C 
ATOM     23  O   UNL A   1      34.032  28.382  25.645  1.00  0.00    -0.294 OA
ENDBRANCH   9  11
ENDBRANCH   8   9
ENDBRANCH   7   8
ENDBRANCH   6   7
ENDBRANCH   5   6
ENDBRANCH   4   5
ENDBRANCH   3   4
ENDBRANCH   2   3
ENDBRANCH   1   2
BRANCH   1  24
ATOM     24  C   UNL A   1      39.089  21.057  25.735  1.00  0.00     0.188 C 
BRANCH  24  25
ATOM     25  O   UNL A   1      39.774  19.812  25.665  1.00  0.00    -0.376 OA
BRANCH  25  26
ATOM     26  C   UNL A   1      40.760  19.531  26.649  1.00  0.00     0.202 C 
BRANCH  26  27
ATOM     27  C   UNL A   1      42.036  18.785  26.223  1.00  0.00     0.261 C 
BRANCH  27  28
ATOM     28  O   UNL A   1      42.654  19.181  24.989  1.00  0.00    -0.460 OA
BRANCH  28  29
ATOM     29  C   UNL A   1      43.896  19.702  25.010  1.00  0.00     0.338 C 
ATOM     30  O   UNL A   1      44.914  19.190  24.576  1.00  0.00    -0.246 OA
BRANCH  29  31
ATOM     31  C   UNL A   1      43.776  21.102  25.473  1.00  0.00     0.060 A 
ATOM     32  C   UNL A   1      43.546  22.116  24.533  1.00  0.00     0.016 A 
ATOM     33  C   UNL A   1      43.885  21.408  26.830  1.00  0.00     0.016 A 
ATOM     34  C   UNL A   1      43.448  23.445  24.946  1.00  0.00     0.010 A 
ATOM     35  C   UNL A   1      43.832  22.744  27.239  1.00  0.00     0.010 A 
ATOM     36  C   UNL A   1      43.650  23.768  26.294  1.00  0.00    -0.014 A 
BRANCH  36  37
ATOM     37  C   UNL A   1      43.945  25.173  26.661  1.00  0.00     0.031 A 
ATOM     38  C   UNL A   1      45.348  25.668  26.444  1.00  0.00     0.074 A 
ATOM     39  C   UNL A   1      43.003  25.996  27.152  1.00  0.00     0.049 A 
ATOM     40  N   UNL A   1      45.863  26.840  26.701  1.00  0.00    -0.248 NA
ATOM     41  C   UNL A   1      46.298  24.710  25.851  1.00  0.00     0.031 C 
ATOM     42  C   UNL A   1      41.601  25.646  27.359  1.00  0.00     0.029 A 
ATOM     43  N   UNL A   1      43.093  27.301  27.571  1.00  0.00    -0.354 N 
ATOM     44  C   UNL A   1      47.191  26.762  26.301  1.00  0.00     0.074 A 
ATOM     45  C   UNL A   1      47.415  25.420  25.815  1.00  0.00     0.031 C 
ATOM     46  C   UNL A   1      40.963  26.708  27.882  1.00  0.00     0.029 A 
ATOM     47  C   UNL A   1      41.917  27.802  28.076  1.00  0.00     0.049 A 
ATOM     48  H   UNL A   1      43.923  27.829  27.516  1.00  0.00     0.167 HD
ATOM     49  C   UNL A   1      48.137  27.726  26.327  1.00  0.00     0.034 A 
ATOM     50  C   UNL A   1      41.648  28.998  28.643  1.00  0.00     0.034 A 
ATOM     51  C   UNL A   1      47.912  29.054  26.826  1.00  0.00     0.049 A 
ATOM     52  C   UNL A   1      42.740  30.038  28.736  1.00  0.00     0.074 A 
ATOM     53  C   UNL A   1      48.809  30.105  26.887  1.00  0.00     0.029 A 
ATOM     54  N   UNL A   1      46.715  29.516  27.352  1.00  0.00    -0.354 N 
ATOM     55  N   UNL A   1      43.981  29.970  28.312  1.00  0.00    -0.248 NA
ATOM     56  C   UNL A   1      42.401  31.320  29.373  1.00  0.00     0.031 C 
ATOM     57  C   UNL A   1      48.176  31.179  27.508  1.00  0.00     0.029 A 
ATOM     58  C   UNL A   1      46.860  30.828  27.764  1.00  0.00     0.049 A 
ATOM     59  H   UNL A   1      45.887  28.988  27.423  1.00  0.00     0.167 HD
ATOM     60  C   UNL A   1      44.555  31.206  28.597  1.00  0.00     0.074 A 
ATOM     61  C   UNL A   1      43.526  32.008  29.223  1.00  0.00     0.031 C 
ATOM     62  C   UNL A   1      45.820  31.636  28.357  1.00  0.00     0.034 A 
BRANCH  49  63
ATOM     63  C   UNL A   1      49.509  27.396  25.807  1.00  0.00     0.023 A 
ATOM     64  C   UNL A   1      49.895  27.829  24.526  1.00  0.00     0.031 A 
ATOM     65  C   UNL A   1      50.379  26.554  26.520  1.00  0.00     0.131 A 
ATOM     66  C   UNL A   1      51.102  27.383  23.979  1.00  0.00     0.055 A 
ATOM     67  C   UNL A   1      51.601  26.146  25.987  1.00  0.00     0.041 A 
ATOM     68  F   UNL A   1      50.057  26.126  27.752  1.00  0.00    -0.206 F 
ATOM     69  C   UNL A   1      51.960  26.550  24.704  1.00  0.00     0.022 A 
BRANCH  66  70
ATOM     70  S   UNL A   1      51.580  27.829  22.289  1.00  0.00     0.124 S 
ATOM     71  O   UNL A   1      50.853  29.081  22.090  1.00  0.00    -0.237 OA
ATOM     72  O   UNL A   1      53.029  27.960  22.409  1.00  0.00    -0.237 OA
ATOM     73  O   UNL A   1      51.108  26.708  21.483  1.00  0.00    -0.744 OA
ENDBRANCH  66  70
ENDBRANCH  49  63
BRANCH  50  74
ATOM     74  C   UNL A   1      40.264  29.276  29.125  1.00  0.00     0.023 A 
ATOM     75  C   UNL A   1      39.952  29.225  30.496  1.00  0.00     0.031 A 
ATOM     76  C   UNL A   1      39.218  29.505  28.216  1.00  0.00     0.131 A 
ATOM     77  C   UNL A   1      38.618  29.332  30.912  1.00  0.00     0.055 A 
ATOM     78  C   UNL A   1      37.899  29.680  28.641  1.00  0.00     0.041 A 
ATOM     79  F   UNL A   1      39.466  29.557  26.898  1.00  0.00    -0.206 F 
ATOM     80  C   UNL A   1      37.592  29.578  29.995  1.00  0.00     0.022 A 
BRANCH  77  81
ATOM     81  S   UNL A   1      38.163  29.058  32.645  1.00  0.00     0.124 S 
ATOM     82  O   UNL A   1      36.705  29.107  32.595  1.00  0.00    -0.237 OA
ATOM     83  O   UNL A   1      38.744  27.740  32.896  1.00  0.00    -0.237 OA
ATOM     84  O   UNL A   1      38.803  30.165  33.348  1.00  0.00    -0.744 OA
ENDBRANCH  77  81
ENDBRANCH  50  74
BRANCH  62  85
ATOM     85  C   UNL A   1      46.202  33.049  28.727  1.00  0.00     0.023 A 
ATOM     86  C   UNL A   1      46.085  34.073  27.766  1.00  0.00     0.031 A 
ATOM     87  C   UNL A   1      46.853  33.341  29.936  1.00  0.00     0.131 A 
ATOM     88  C   UNL A   1      46.659  35.327  28.010  1.00  0.00     0.055 A 
ATOM     89  C   UNL A   1      47.381  34.608  30.194  1.00  0.00     0.041 A 
ATOM     90  F   UNL A   1      47.000  32.395  30.876  1.00  0.00    -0.206 F 
ATOM     91  C   UNL A   1      47.300  35.602  29.222  1.00  0.00     0.022 A 
BRANCH  88  92
ATOM     92  S   UNL A   1      46.667  36.616  26.733  1.00  0.00     0.124 S 
ATOM     93  O   UNL A   1      46.877  35.835  25.515  1.00  0.00    -0.237 OA
ATOM     94  O   UNL A   1      45.337  37.200  26.878  1.00  0.00    -0.237 OA
ATOM     95  O   UNL A   1      47.781  37.479  27.112  1.00  0.00    -0.744 OA
ENDBRANCH  88  92
ENDBRANCH  62  85
ENDBRANCH  36  37
ENDBRANCH  29  31
ENDBRANCH  28  29
ENDBRANCH  27  28
ENDBRANCH  26  27
ENDBRANCH  25  26
ENDBRANCH  24  25
ENDBRANCH   1  24
TORSDOF 23
ENDMDL
