MODEL 1
REMARK VINA RESULT:      -8.9      0.000      0.000
REMARK SMILES CC[NH2+][C@@]1(C(=O)OCCOCCOCCOCCOC(=O)c2ccc(-c3c4nc(c(-c5cc(S(=O)(=O)[O-])ccc5F)c5ccc([nH]5)c(-c5cc(S(=O)(=O)[O-])ccc5F)c5nc(c(-c6cc(S(=O)(=O)[O-])ccc6F)c6ccc3[nH]6)C=C5)C=C4)cc2)CC[C@H](Oc2ccc3c(c2)OCO3)C1
REMARK SMILES IDX 14 1 13 2 12 3 11 4 10 5 9 6 8 7 7 8 5 9 6 10 4 11 85 12
REMARK SMILES IDX 98 13 86 14 87 15 3 16 2 19 1 20 88 21 89 22 90 23 94 24
REMARK SMILES IDX 91 25 93 26 92 27 95 28 97 29 96 30 15 31 16 32 17 33 18 34
REMARK SMILES IDX 19 35 20 36 21 37 22 38 23 39 84 40 24 41 83 42 25 43 26 44
REMARK SMILES IDX 27 45 77 46 28 47 82 48 76 49 78 50 29 51 81 52 75 53 74 54
REMARK SMILES IDX 30 56 62 57 42 58 61 59 43 60 46 61 60 62 79 63 44 64 45 65
REMARK SMILES IDX 59 67 80 68 47 69 31 70 32 71 40 72 33 73 39 74 41 75 38 76
REMARK SMILES IDX 34 77 35 78 36 79 37 80 63 81 64 82 72 83 65 84 71 85 73 86
REMARK SMILES IDX 70 87 66 88 67 89 68 90 69 91 48 92 49 93 57 94 50 95 56 96
REMARK SMILES IDX 58 97 55 98 51 99 52 100 53 101 54 102
REMARK H PARENT 3 17 3 18 78 55 46 66
REMARK Flexibility Score: inf
ROOT
ATOM      1  C   UNL A   1      38.557  28.932  27.957  1.00  0.00     0.188 C 
ENDROOT
BRANCH   1   2
ATOM      2  O   UNL A   1      37.528  29.897  28.114  1.00  0.00    -0.377 OA
BRANCH   2   3
ATOM      3  C   UNL A   1      36.194  29.461  28.270  1.00  0.00     0.188 C 
BRANCH   3   4
ATOM      4  C   UNL A   1      35.093  30.341  27.676  1.00  0.00     0.188 C 
BRANCH   4   5
ATOM      5  O   UNL A   1      34.323  29.671  26.699  1.00  0.00    -0.376 OA
BRANCH   5   6
ATOM      6  C   UNL A   1      33.425  28.668  27.144  1.00  0.00     0.202 C 
BRANCH   6   7
ATOM      7  C   UNL A   1      33.264  27.305  26.431  1.00  0.00     0.261 C 
BRANCH   7   8
ATOM      8  O   UNL A   1      33.053  27.283  25.006  1.00  0.00    -0.459 OA
BRANCH   8   9
ATOM      9  C   UNL A   1      32.991  26.092  24.381  1.00  0.00     0.368 C 
ATOM     10  O   UNL A   1      33.987  25.459  24.031  1.00  0.00    -0.245 OA
BRANCH   9  11
ATOM     11  C   UNL A   1      31.526  25.565  24.115  1.00  0.00     0.198 C 
ATOM     12  C   UNL A   1      31.491  25.353  22.587  1.00  0.00     0.085 C 
ATOM     13  C   UNL A   1      30.249  26.430  24.235  1.00  0.00     0.126 C 
ATOM     14  C   UNL A   1      31.228  26.768  22.050  1.00  0.00     0.052 C 
ATOM     15  C   UNL A   1      30.254  27.405  23.047  1.00  0.00     0.180 C 
BRANCH  11  16
ATOM     16  N   UNL A   1      31.322  24.283  24.879  1.00  0.00    -0.332 N 
ATOM     17  H   UNL A   1      30.409  23.897  24.639  1.00  0.00     0.347 HD
ATOM     18  H   UNL A   1      32.071  23.639  24.625  1.00  0.00     0.347 HD
BRANCH  16  19
ATOM     19  C   UNL A   1      31.380  24.499  26.335  1.00  0.00     0.257 C 
ATOM     20  C   UNL A   1      32.150  23.432  27.094  1.00  0.00     0.071 C 
ENDBRANCH  16  19
ENDBRANCH  11  16
BRANCH  15  21
ATOM     21  O   UNL A   1      30.692  28.655  23.565  1.00  0.00    -0.490 OA
BRANCH  21  22
ATOM     22  C   UNL A   1      30.025  29.811  23.298  1.00  0.00     0.123 A 
ATOM     23  C   UNL A   1      29.769  30.856  24.199  1.00  0.00     0.050 A 
ATOM     24  C   UNL A   1      29.535  29.886  21.988  1.00  0.00     0.097 A 
ATOM     25  C   UNL A   1      28.992  31.956  23.809  1.00  0.00     0.054 A 
ATOM     26  C   UNL A   1      28.794  30.987  21.624  1.00  0.00     0.169 A 
ATOM     27  C   UNL A   1      28.526  31.996  22.513  1.00  0.00     0.166 A 
ATOM     28  O   UNL A   1      28.258  31.222  20.401  1.00  0.00    -0.453 OA
ATOM     29  O   UNL A   1      27.796  32.997  21.957  1.00  0.00    -0.454 OA
ATOM     30  C   UNL A   1      27.736  32.556  20.585  1.00  0.00     0.468 C 
ENDBRANCH  21  22
ENDBRANCH  15  21
ENDBRANCH   9  11
ENDBRANCH   8   9
ENDBRANCH   7   8
ENDBRANCH   6   7
ENDBRANCH   5   6
ENDBRANCH   4   5
ENDBRANCH   3   4
ENDBRANCH   2   3
ENDBRANCH   1   2
BRANCH   1  31
ATOM     31  C   UNL A   1      38.816  27.886  29.061  1.00  0.00     0.188 C 
BRANCH  31  32
ATOM     32  O   UNL A   1      39.705  26.840  28.702  1.00  0.00    -0.376 OA
BRANCH  32  33
ATOM     33  C   UNL A   1      39.314  25.966  27.656  1.00  0.00     0.202 C 
BRANCH  33  34
ATOM     34  C   UNL A   1      40.413  25.168  26.936  1.00  0.00     0.261 C 
BRANCH  34  35
ATOM     35  O   UNL A   1      41.017  25.787  25.789  1.00  0.00    -0.460 OA
BRANCH  35  36
ATOM     36  C   UNL A   1      42.354  25.968  25.789  1.00  0.00     0.338 C 
ATOM     37  O   UNL A   1      43.186  25.288  25.209  1.00  0.00    -0.246 OA
BRANCH  36  38
ATOM     38  C   UNL A   1      42.633  27.259  26.454  1.00  0.00     0.060 A 
ATOM     39  C   UNL A   1      43.433  27.283  27.605  1.00  0.00     0.016 A 
ATOM     40  C   UNL A   1      42.133  28.446  25.920  1.00  0.00     0.016 A 
ATOM     41  C   UNL A   1      43.722  28.494  28.238  1.00  0.00     0.010 A 
ATOM     42  C   UNL A   1      42.395  29.652  26.576  1.00  0.00     0.010 A 
ATOM     43  C   UNL A   1      43.174  29.684  27.748  1.00  0.00    -0.014 A 
BRANCH  43  44
ATOM     44  C   UNL A   1      43.240  30.929  28.558  1.00  0.00     0.031 A 
ATOM     45  C   UNL A   1      44.360  31.894  28.272  1.00  0.00     0.074 A 
ATOM     46  C   UNL A   1      42.343  31.206  29.523  1.00  0.00     0.049 A 
ATOM     47  N   UNL A   1      44.689  32.997  28.892  1.00  0.00    -0.248 NA
ATOM     48  C   UNL A   1      45.226  31.563  27.130  1.00  0.00     0.031 C 
ATOM     49  C   UNL A   1      41.179  30.388  29.865  1.00  0.00     0.029 A 
ATOM     50  N   UNL A   1      42.302  32.237  30.430  1.00  0.00    -0.354 N 
ATOM     51  C   UNL A   1      45.786  33.502  28.202  1.00  0.00     0.074 A 
ATOM     52  C   UNL A   1      46.112  32.544  27.169  1.00  0.00     0.031 C 
ATOM     53  C   UNL A   1      40.579  30.913  30.949  1.00  0.00     0.029 A 
ATOM     54  C   UNL A   1      41.317  32.098  31.382  1.00  0.00     0.049 A 
ATOM     55  H   UNL A   1      42.918  33.005  30.401  1.00  0.00     0.167 HD
ATOM     56  C   UNL A   1      46.444  34.672  28.392  1.00  0.00     0.034 A 
ATOM     57  C   UNL A   1      41.065  32.821  32.491  1.00  0.00     0.034 A 
ATOM     58  C   UNL A   1      46.120  35.611  29.436  1.00  0.00     0.049 A 
ATOM     59  C   UNL A   1      41.899  34.049  32.773  1.00  0.00     0.074 A 
ATOM     60  C   UNL A   1      46.697  36.841  29.699  1.00  0.00     0.029 A 
ATOM     61  N   UNL A   1      45.143  35.418  30.405  1.00  0.00    -0.354 N 
ATOM     62  N   UNL A   1      42.907  34.541  32.090  1.00  0.00    -0.248 NA
ATOM     63  C   UNL A   1      41.535  34.839  33.957  1.00  0.00     0.031 C 
ATOM     64  C   UNL A   1      46.131  37.349  30.873  1.00  0.00     0.029 A 
ATOM     65  C   UNL A   1      45.134  36.484  31.292  1.00  0.00     0.049 A 
ATOM     66  H   UNL A   1      44.544  34.638  30.455  1.00  0.00     0.167 HD
ATOM     67  C   UNL A   1      43.260  35.726  32.733  1.00  0.00     0.074 A 
ATOM     68  C   UNL A   1      42.355  35.874  33.852  1.00  0.00     0.031 C 
ATOM     69  C   UNL A   1      44.235  36.619  32.416  1.00  0.00     0.034 A 
BRANCH  56  70
ATOM     70  C   UNL A   1      47.598  34.975  27.467  1.00  0.00     0.023 A 
ATOM     71  C   UNL A   1      48.919  34.611  27.790  1.00  0.00     0.031 A 
ATOM     72  C   UNL A   1      47.383  35.662  26.260  1.00  0.00     0.131 A 
ATOM     73  C   UNL A   1      49.977  35.001  26.957  1.00  0.00     0.055 A 
ATOM     74  C   UNL A   1      48.431  35.971  25.393  1.00  0.00     0.041 A 
ATOM     75  F   UNL A   1      46.149  36.058  25.911  1.00  0.00    -0.206 F 
ATOM     76  C   UNL A   1      49.739  35.655  25.746  1.00  0.00     0.022 A 
BRANCH  73  77
ATOM     77  S   UNL A   1      51.676  34.776  27.550  1.00  0.00     0.124 S 
ATOM     78  O   UNL A   1      52.403  35.752  26.740  1.00  0.00    -0.237 OA
ATOM     79  O   UNL A   1      51.558  35.085  28.971  1.00  0.00    -0.237 OA
ATOM     80  O   UNL A   1      51.966  33.378  27.236  1.00  0.00    -0.744 OA
ENDBRANCH  73  77
ENDBRANCH  56  70
BRANCH  57  81
ATOM     81  C   UNL A   1      39.997  32.401  33.444  1.00  0.00     0.023 A 
ATOM     82  C   UNL A   1      38.733  33.010  33.436  1.00  0.00     0.031 A 
ATOM     83  C   UNL A   1      40.254  31.431  34.429  1.00  0.00     0.131 A 
ATOM     84  C   UNL A   1      37.790  32.682  34.423  1.00  0.00     0.055 A 
ATOM     85  C   UNL A   1      39.295  31.069  35.377  1.00  0.00     0.041 A 
ATOM     86  F   UNL A   1      41.450  30.823  34.486  1.00  0.00    -0.206 F 
ATOM     87  C   UNL A   1      38.058  31.706  35.386  1.00  0.00     0.022 A 
BRANCH  84  88
ATOM     88  S   UNL A   1      36.238  33.618  34.486  1.00  0.00     0.124 S 
ATOM     89  O   UNL A   1      36.617  34.865  33.832  1.00  0.00    -0.237 OA
ATOM     90  O   UNL A   1      35.332  32.752  33.739  1.00  0.00    -0.237 OA
ATOM     91  O   UNL A   1      35.959  33.721  35.917  1.00  0.00    -0.744 OA
ENDBRANCH  84  88
ENDBRANCH  57  81
BRANCH  69  92
ATOM     92  C   UNL A   1      44.328  37.868  33.262  1.00  0.00     0.023 A 
ATOM     93  C   UNL A   1      43.617  39.038  32.943  1.00  0.00     0.031 A 
ATOM     94  C   UNL A   1      45.168  37.896  34.391  1.00  0.00     0.131 A 
ATOM     95  C   UNL A   1      43.816  40.206  33.695  1.00  0.00     0.055 A 
ATOM     96  C   UNL A   1      45.301  39.039  35.183  1.00  0.00     0.041 A 
ATOM     97  F   UNL A   1      45.876  36.813  34.745  1.00  0.00    -0.206 F 
ATOM     98  C   UNL A   1      44.637  40.208  34.826  1.00  0.00     0.022 A 
BRANCH  95  99
ATOM     99  S   UNL A   1      43.087  41.756  33.100  1.00  0.00     0.124 S 
ATOM    100  O   UNL A   1      41.726  41.668  33.619  1.00  0.00    -0.237 OA
ATOM    101  O   UNL A   1      43.943  42.761  33.724  1.00  0.00    -0.237 OA
ATOM    102  O   UNL A   1      43.207  41.656  31.647  1.00  0.00    -0.744 OA
ENDBRANCH  95  99
ENDBRANCH  69  92
ENDBRANCH  43  44
ENDBRANCH  36  38
ENDBRANCH  35  36
ENDBRANCH  34  35
ENDBRANCH  33  34
ENDBRANCH  32  33
ENDBRANCH  31  32
ENDBRANCH   1  31
TORSDOF 27
ENDMDL
MODEL 2
REMARK VINA RESULT:      -8.4      1.789      8.456
REMARK SMILES CC[NH2+][C@@]1(C(=O)OCCOCCOCCOCCOC(=O)c2ccc(-c3c4nc(c(-c5cc(S(=O)(=O)[O-])ccc5F)c5ccc([nH]5)c(-c5cc(S(=O)(=O)[O-])ccc5F)c5nc(c(-c6cc(S(=O)(=O)[O-])ccc6F)c6ccc3[nH]6)C=C5)C=C4)cc2)CC[C@H](Oc2ccc3c(c2)OCO3)C1
REMARK SMILES IDX 14 1 13 2 12 3 11 4 10 5 9 6 8 7 7 8 5 9 6 10 4 11 85 12
REMARK SMILES IDX 98 13 86 14 87 15 3 16 2 19 1 20 88 21 89 22 90 23 94 24
REMARK SMILES IDX 91 25 93 26 92 27 95 28 97 29 96 30 15 31 16 32 17 33 18 34
REMARK SMILES IDX 19 35 20 36 21 37 22 38 23 39 84 40 24 41 83 42 25 43 26 44
REMARK SMILES IDX 27 45 77 46 28 47 82 48 76 49 78 50 29 51 81 52 75 53 74 54
REMARK SMILES IDX 30 56 62 57 42 58 61 59 43 60 46 61 60 62 79 63 44 64 45 65
REMARK SMILES IDX 59 67 80 68 47 69 31 70 32 71 40 72 33 73 39 74 41 75 38 76
REMARK SMILES IDX 34 77 35 78 36 79 37 80 63 81 64 82 72 83 65 84 71 85 73 86
REMARK SMILES IDX 70 87 66 88 67 89 68 90 69 91 48 92 49 93 57 94 50 95 56 96
REMARK SMILES IDX 58 97 55 98 51 99 52 100 53 101 54 102
REMARK H PARENT 3 17 3 18 78 55 46 66
REMARK Flexibility Score: inf
ROOT
ATOM      1  C   UNL A   1      38.845  28.823  27.985  1.00  0.00     0.188 C 
ENDROOT
BRANCH   1   2
ATOM      2  O   UNL A   1      37.977  29.926  28.202  1.00  0.00    -0.377 OA
BRANCH   2   3
ATOM      3  C   UNL A   1      36.673  29.689  28.691  1.00  0.00     0.188 C 
BRANCH   3   4
ATOM      4  C   UNL A   1      35.503  30.132  27.812  1.00  0.00     0.188 C 
BRANCH   4   5
ATOM      5  O   UNL A   1      35.107  29.141  26.887  1.00  0.00    -0.376 OA
BRANCH   5   6
ATOM      6  C   UNL A   1      33.732  29.068  26.548  1.00  0.00     0.202 C 
BRANCH   6   7
ATOM      7  C   UNL A   1      32.750  28.078  27.217  1.00  0.00     0.261 C 
BRANCH   7   8
ATOM      8  O   UNL A   1      32.581  26.768  26.642  1.00  0.00    -0.459 OA
BRANCH   8   9
ATOM      9  C   UNL A   1      31.445  26.500  25.970  1.00  0.00     0.368 C 
ATOM     10  O   UNL A   1      30.368  26.279  26.523  1.00  0.00    -0.245 OA
BRANCH   9  11
ATOM     11  C   UNL A   1      31.601  26.478  24.398  1.00  0.00     0.198 C 
ATOM     12  C   UNL A   1      30.437  25.580  23.933  1.00  0.00     0.085 C 
ATOM     13  C   UNL A   1      32.739  25.752  23.641  1.00  0.00     0.126 C 
ATOM     14  C   UNL A   1      30.989  24.163  24.146  1.00  0.00     0.052 C 
ATOM     15  C   UNL A   1      32.471  24.244  23.767  1.00  0.00     0.180 C 
BRANCH  11  16
ATOM     16  N   UNL A   1      31.488  27.887  23.875  1.00  0.00    -0.332 N 
ATOM     17  H   UNL A   1      31.502  28.533  24.664  1.00  0.00     0.347 HD
ATOM     18  H   UNL A   1      32.274  28.056  23.248  1.00  0.00     0.347 HD
BRANCH  16  19
ATOM     19  C   UNL A   1      30.244  28.090  23.114  1.00  0.00     0.257 C 
ATOM     20  C   UNL A   1      29.695  29.505  23.181  1.00  0.00     0.071 C 
ENDBRANCH  16  19
ENDBRANCH  11  16
BRANCH  15  21
ATOM     21  O   UNL A   1      33.353  23.770  24.777  1.00  0.00    -0.490 OA
BRANCH  21  22
ATOM     22  C   UNL A   1      33.778  22.476  24.803  1.00  0.00     0.123 A 
ATOM     23  C   UNL A   1      35.078  22.030  25.088  1.00  0.00     0.050 A 
ATOM     24  C   UNL A   1      32.782  21.552  24.463  1.00  0.00     0.097 A 
ATOM     25  C   UNL A   1      35.396  20.667  24.994  1.00  0.00     0.054 A 
ATOM     26  C   UNL A   1      33.116  20.219  24.400  1.00  0.00     0.169 A 
ATOM     27  C   UNL A   1      34.392  19.787  24.656  1.00  0.00     0.166 A 
ATOM     28  O   UNL A   1      32.276  19.197  24.100  1.00  0.00    -0.453 OA
ATOM     29  O   UNL A   1      34.512  18.437  24.558  1.00  0.00    -0.454 OA
ATOM     30  C   UNL A   1      33.139  18.061  24.326  1.00  0.00     0.468 C 
ENDBRANCH  21  22
ENDBRANCH  15  21
ENDBRANCH   9  11
ENDBRANCH   8   9
ENDBRANCH   7   8
ENDBRANCH   6   7
ENDBRANCH   5   6
ENDBRANCH   4   5
ENDBRANCH   3   4
ENDBRANCH   2   3
ENDBRANCH   1   2
BRANCH   1  31
ATOM     31  C   UNL A   1      39.032  27.754  29.081  1.00  0.00     0.188 C 
BRANCH  31  32
ATOM     32  O   UNL A   1      39.656  26.554  28.650  1.00  0.00    -0.376 OA
BRANCH  32  33
ATOM     33  C   UNL A   1      39.382  26.099  27.335  1.00  0.00     0.202 C 
BRANCH  33  34
ATOM     34  C   UNL A   1      40.492  25.335  26.594  1.00  0.00     0.261 C 
BRANCH  34  35
ATOM     35  O   UNL A   1      41.102  26.001  25.478  1.00  0.00    -0.460 OA
BRANCH  35  36
ATOM     36  C   UNL A   1      42.449  26.086  25.442  1.00  0.00     0.338 C 
ATOM     37  O   UNL A   1      43.214  25.347  24.844  1.00  0.00    -0.246 OA
BRANCH  36  38
ATOM     38  C   UNL A   1      42.837  27.357  26.091  1.00  0.00     0.060 A 
ATOM     39  C   UNL A   1      43.927  27.376  26.973  1.00  0.00     0.016 A 
ATOM     40  C   UNL A   1      42.146  28.533  25.802  1.00  0.00     0.016 A 
ATOM     41  C   UNL A   1      44.319  28.570  27.583  1.00  0.00     0.010 A 
ATOM     42  C   UNL A   1      42.518  29.718  26.442  1.00  0.00     0.010 A 
ATOM     43  C   UNL A   1      43.595  29.742  27.350  1.00  0.00    -0.014 A 
BRANCH  43  44
ATOM     44  C   UNL A   1      43.822  30.945  28.194  1.00  0.00     0.031 A 
ATOM     45  C   UNL A   1      42.840  31.221  29.302  1.00  0.00     0.074 A 
ATOM     46  C   UNL A   1      44.861  31.778  27.992  1.00  0.00     0.049 A 
ATOM     47  N   UNL A   1      42.764  32.243  30.113  1.00  0.00    -0.248 NA
ATOM     48  C   UNL A   1      41.802  30.201  29.518  1.00  0.00     0.031 C 
ATOM     49  C   UNL A   1      45.915  31.599  26.994  1.00  0.00     0.029 A 
ATOM     50  N   UNL A   1      45.171  32.974  28.592  1.00  0.00    -0.354 N 
ATOM     51  C   UNL A   1      41.684  31.979  30.949  1.00  0.00     0.074 A 
ATOM     52  C   UNL A   1      41.091  30.741  30.493  1.00  0.00     0.031 C 
ATOM     53  C   UNL A   1      46.716  32.680  27.005  1.00  0.00     0.029 A 
ATOM     54  C   UNL A   1      46.229  33.630  28.004  1.00  0.00     0.049 A 
ATOM     55  H   UNL A   1      44.683  33.329  29.370  1.00  0.00     0.167 HD
ATOM     56  C   UNL A   1      41.245  32.687  32.018  1.00  0.00     0.034 A 
ATOM     57  C   UNL A   1      46.722  34.865  28.223  1.00  0.00     0.034 A 
ATOM     58  C   UNL A   1      41.835  33.928  32.453  1.00  0.00     0.049 A 
ATOM     59  C   UNL A   1      46.131  35.708  29.328  1.00  0.00     0.074 A 
ATOM     60  C   UNL A   1      41.492  34.711  33.541  1.00  0.00     0.029 A 
ATOM     61  N   UNL A   1      42.878  34.581  31.810  1.00  0.00    -0.354 N 
ATOM     62  N   UNL A   1      45.136  35.430  30.140  1.00  0.00    -0.248 NA
ATOM     63  C   UNL A   1      46.753  37.017  29.568  1.00  0.00     0.031 C 
ATOM     64  C   UNL A   1      42.267  35.875  33.506  1.00  0.00     0.029 A 
ATOM     65  C   UNL A   1      43.161  35.778  32.451  1.00  0.00     0.049 A 
ATOM     66  H   UNL A   1      43.350  34.244  31.014  1.00  0.00     0.167 HD
ATOM     67  C   UNL A   1      45.052  36.507  31.021  1.00  0.00     0.074 A 
ATOM     68  C   UNL A   1      46.098  37.434  30.641  1.00  0.00     0.031 C 
ATOM     69  C   UNL A   1      44.198  36.704  32.060  1.00  0.00     0.034 A 
BRANCH  56  70
ATOM     70  C   UNL A   1      40.049  32.144  32.763  1.00  0.00     0.023 A 
ATOM     71  C   UNL A   1      38.739  32.559  32.460  1.00  0.00     0.031 A 
ATOM     72  C   UNL A   1      40.220  31.222  33.810  1.00  0.00     0.131 A 
ATOM     73  C   UNL A   1      37.664  32.112  33.242  1.00  0.00     0.055 A 
ATOM     74  C   UNL A   1      39.137  30.715  34.529  1.00  0.00     0.041 A 
ATOM     75  F   UNL A   1      41.447  30.809  34.163  1.00  0.00    -0.206 F 
ATOM     76  C   UNL A   1      37.850  31.171  34.257  1.00  0.00     0.022 A 
BRANCH  73  77
ATOM     77  S   UNL A   1      36.042  32.893  33.013  1.00  0.00     0.124 S 
ATOM     78  O   UNL A   1      35.558  32.976  34.389  1.00  0.00    -0.237 OA
ATOM     79  O   UNL A   1      36.388  34.160  32.379  1.00  0.00    -0.237 OA
ATOM     80  O   UNL A   1      35.323  31.944  32.163  1.00  0.00    -0.744 OA
ENDBRANCH  73  77
ENDBRANCH  56  70
BRANCH  57  81
ATOM     81  C   UNL A   1      47.819  35.407  27.368  1.00  0.00     0.023 A 
ATOM     82  C   UNL A   1      49.167  35.183  27.685  1.00  0.00     0.031 A 
ATOM     83  C   UNL A   1      47.529  36.221  26.258  1.00  0.00     0.131 A 
ATOM     84  C   UNL A   1      50.177  35.807  26.934  1.00  0.00     0.055 A 
ATOM     85  C   UNL A   1      48.537  36.796  25.482  1.00  0.00     0.041 A 
ATOM     86  F   UNL A   1      46.255  36.471  25.916  1.00  0.00    -0.206 F 
ATOM     87  C   UNL A   1      49.871  36.602  25.827  1.00  0.00     0.022 A 
BRANCH  84  88
ATOM     88  S   UNL A   1      51.897  35.638  27.484  1.00  0.00     0.124 S 
ATOM     89  O   UNL A   1      52.378  37.010  27.379  1.00  0.00    -0.237 OA
ATOM     90  O   UNL A   1      51.732  35.117  28.837  1.00  0.00    -0.237 OA
ATOM     91  O   UNL A   1      52.471  34.698  26.523  1.00  0.00    -0.744 OA
ENDBRANCH  84  88
ENDBRANCH  57  81
BRANCH  69  92
ATOM     92  C   UNL A   1      44.403  37.947  32.895  1.00  0.00     0.023 A 
ATOM     93  C   UNL A   1      43.654  39.117  32.683  1.00  0.00     0.031 A 
ATOM     94  C   UNL A   1      45.387  37.969  33.901  1.00  0.00     0.131 A 
ATOM     95  C   UNL A   1      43.951  40.280  33.410  1.00  0.00     0.055 A 
ATOM     96  C   UNL A   1      45.625  39.107  34.675  1.00  0.00     0.041 A 
ATOM     97  F   UNL A   1      46.138  36.885  34.148  1.00  0.00    -0.206 F 
ATOM     98  C   UNL A   1      44.917  40.276  34.420  1.00  0.00     0.022 A 
BRANCH  95  99
ATOM     99  S   UNL A   1      43.147  41.834  32.930  1.00  0.00     0.124 S 
ATOM    100  O   UNL A   1      44.099  42.380  31.967  1.00  0.00    -0.237 OA
ATOM    101  O   UNL A   1      41.878  41.369  32.379  1.00  0.00    -0.237 OA
ATOM    102  O   UNL A   1      43.045  42.570  34.188  1.00  0.00    -0.744 OA
ENDBRANCH  95  99
ENDBRANCH  69  92
ENDBRANCH  43  44
ENDBRANCH  36  38
ENDBRANCH  35  36
ENDBRANCH  34  35
ENDBRANCH  33  34
ENDBRANCH  32  33
ENDBRANCH  31  32
ENDBRANCH   1  31
TORSDOF 27
ENDMDL
MODEL 3
REMARK VINA RESULT:      -8.1      7.474     12.896
REMARK SMILES CC[NH2+][C@@]1(C(=O)OCCOCCOCCOCCOC(=O)c2ccc(-c3c4nc(c(-c5cc(S(=O)(=O)[O-])ccc5F)c5ccc([nH]5)c(-c5cc(S(=O)(=O)[O-])ccc5F)c5nc(c(-c6cc(S(=O)(=O)[O-])ccc6F)c6ccc3[nH]6)C=C5)C=C4)cc2)CC[C@H](Oc2ccc3c(c2)OCO3)C1
REMARK SMILES IDX 14 1 13 2 12 3 11 4 10 5 9 6 8 7 7 8 5 9 6 10 4 11 85 12
REMARK SMILES IDX 98 13 86 14 87 15 3 16 2 19 1 20 88 21 89 22 90 23 94 24
REMARK SMILES IDX 91 25 93 26 92 27 95 28 97 29 96 30 15 31 16 32 17 33 18 34
REMARK SMILES IDX 19 35 20 36 21 37 22 38 23 39 84 40 24 41 83 42 25 43 26 44
REMARK SMILES IDX 27 45 77 46 28 47 82 48 76 49 78 50 29 51 81 52 75 53 74 54
REMARK SMILES IDX 30 56 62 57 42 58 61 59 43 60 46 61 60 62 79 63 44 64 45 65
REMARK SMILES IDX 59 67 80 68 47 69 31 70 32 71 40 72 33 73 39 74 41 75 38 76
REMARK SMILES IDX 34 77 35 78 36 79 37 80 63 81 64 82 72 83 65 84 71 85 73 86
REMARK SMILES IDX 70 87 66 88 67 89 68 90 69 91 48 92 49 93 57 94 50 95 56 96
REMARK SMILES IDX 58 97 55 98 51 99 52 100 53 101 54 102
REMARK H PARENT 3 17 3 18 78 55 46 66
REMARK Flexibility Score: inf
ROOT
ATOM      1  C   UNL A   1      41.366  28.060  33.677  1.00  0.00     0.188 C 
ENDROOT
BRANCH   1   2
ATOM      2  O   UNL A   1      39.949  28.144  33.660  1.00  0.00    -0.377 OA
BRANCH   2   3
ATOM      3  C   UNL A   1      39.308  28.726  32.543  1.00  0.00     0.188 C 
BRANCH   3   4
ATOM      4  C   UNL A   1      37.834  28.382  32.323  1.00  0.00     0.188 C 
BRANCH   4   5
ATOM      5  O   UNL A   1      36.965  29.431  32.701  1.00  0.00    -0.376 OA
BRANCH   5   6
ATOM      6  C   UNL A   1      37.520  30.515  33.427  1.00  0.00     0.202 C 
BRANCH   6   7
ATOM      7  C   UNL A   1      36.825  31.892  33.548  1.00  0.00     0.261 C 
BRANCH   7   8
ATOM      8  O   UNL A   1      36.582  32.658  32.353  1.00  0.00    -0.459 OA
BRANCH   8   9
ATOM      9  C   UNL A   1      37.549  32.719  31.418  1.00  0.00     0.368 C 
ATOM     10  O   UNL A   1      38.598  33.345  31.569  1.00  0.00    -0.245 OA
BRANCH   9  11
ATOM     11  C   UNL A   1      37.229  31.926  30.089  1.00  0.00     0.198 C 
ATOM     12  C   UNL A   1      37.452  32.975  28.981  1.00  0.00     0.085 C 
ATOM     13  C   UNL A   1      35.814  31.469  29.662  1.00  0.00     0.126 C 
ATOM     14  C   UNL A   1      36.137  33.769  28.988  1.00  0.00     0.052 C 
ATOM     15  C   UNL A   1      35.039  32.732  29.250  1.00  0.00     0.180 C 
BRANCH  11  16
ATOM     16  N   UNL A   1      38.174  30.758  29.977  1.00  0.00    -0.332 N 
ATOM     17  H   UNL A   1      38.970  30.918  30.594  1.00  0.00     0.347 HD
ATOM     18  H   UNL A   1      37.667  29.914  30.242  1.00  0.00     0.347 HD
BRANCH  16  19
ATOM     19  C   UNL A   1      38.665  30.582  28.600  1.00  0.00     0.257 C 
ATOM     20  C   UNL A   1      38.075  29.386  27.874  1.00  0.00     0.071 C 
ENDBRANCH  16  19
ENDBRANCH  11  16
BRANCH  15  21
ATOM     21  O   UNL A   1      34.193  33.050  30.348  1.00  0.00    -0.490 OA
BRANCH  21  22
ATOM     22  C   UNL A   1      33.859  34.338  30.641  1.00  0.00     0.123 A 
ATOM     23  C   UNL A   1      33.215  35.248  29.789  1.00  0.00     0.050 A 
ATOM     24  C   UNL A   1      34.262  34.745  31.919  1.00  0.00     0.097 A 
ATOM     25  C   UNL A   1      33.008  36.575  30.194  1.00  0.00     0.054 A 
ATOM     26  C   UNL A   1      34.026  36.046  32.300  1.00  0.00     0.169 A 
ATOM     27  C   UNL A   1      33.417  36.940  31.457  1.00  0.00     0.166 A 
ATOM     28  O   UNL A   1      34.339  36.598  33.498  1.00  0.00    -0.453 OA
ATOM     29  O   UNL A   1      33.262  38.164  32.024  1.00  0.00    -0.454 OA
ATOM     30  C   UNL A   1      33.738  37.904  33.361  1.00  0.00     0.468 C 
ENDBRANCH  21  22
ENDBRANCH  15  21
ENDBRANCH   9  11
ENDBRANCH   8   9
ENDBRANCH   7   8
ENDBRANCH   6   7
ENDBRANCH   5   6
ENDBRANCH   4   5
ENDBRANCH   3   4
ENDBRANCH   2   3
ENDBRANCH   1   2
BRANCH   1  31
ATOM     31  C   UNL A   1      42.075  27.115  34.669  1.00  0.00     0.188 C 
BRANCH  31  32
ATOM     32  O   UNL A   1      41.277  26.047  35.157  1.00  0.00    -0.376 OA
BRANCH  32  33
ATOM     33  C   UNL A   1      41.937  24.942  35.751  1.00  0.00     0.202 C 
BRANCH  33  34
ATOM     34  C   UNL A   1      43.358  25.162  36.296  1.00  0.00     0.261 C 
BRANCH  34  35
ATOM     35  O   UNL A   1      44.420  24.451  35.640  1.00  0.00    -0.460 OA
BRANCH  35  36
ATOM     36  C   UNL A   1      45.679  24.618  36.098  1.00  0.00     0.338 C 
ATOM     37  O   UNL A   1      46.103  24.314  37.201  1.00  0.00    -0.246 OA
BRANCH  36  38
ATOM     38  C   UNL A   1      46.517  25.051  34.960  1.00  0.00     0.060 A 
ATOM     39  C   UNL A   1      46.356  26.342  34.436  1.00  0.00     0.016 A 
ATOM     40  C   UNL A   1      47.484  24.195  34.433  1.00  0.00     0.016 A 
ATOM     41  C   UNL A   1      47.150  26.775  33.372  1.00  0.00     0.010 A 
ATOM     42  C   UNL A   1      48.251  24.619  33.345  1.00  0.00     0.010 A 
ATOM     43  C   UNL A   1      48.078  25.904  32.795  1.00  0.00    -0.014 A 
BRANCH  43  44
ATOM     44  C   UNL A   1      48.725  26.246  31.502  1.00  0.00     0.031 A 
ATOM     45  C   UNL A   1      47.947  25.995  30.237  1.00  0.00     0.074 A 
ATOM     46  C   UNL A   1      49.969  26.761  31.435  1.00  0.00     0.049 A 
ATOM     47  N   UNL A   1      48.318  26.122  28.990  1.00  0.00    -0.248 NA
ATOM     48  C   UNL A   1      46.560  25.536  30.411  1.00  0.00     0.031 C 
ATOM     49  C   UNL A   1      50.811  27.105  32.581  1.00  0.00     0.029 A 
ATOM     50  N   UNL A   1      50.759  27.038  30.346  1.00  0.00    -0.354 N 
ATOM     51  C   UNL A   1      47.203  25.779  28.231  1.00  0.00     0.074 A 
ATOM     52  C   UNL A   1      46.173  25.363  29.158  1.00  0.00     0.031 C 
ATOM     53  C   UNL A   1      52.022  27.484  32.135  1.00  0.00     0.029 A 
ATOM     54  C   UNL A   1      52.045  27.402  30.676  1.00  0.00     0.049 A 
ATOM     55  H   UNL A   1      50.436  26.983  29.418  1.00  0.00     0.167 HD
ATOM     56  C   UNL A   1      47.042  25.834  26.887  1.00  0.00     0.034 A 
ATOM     57  C   UNL A   1      53.123  27.609  29.892  1.00  0.00     0.034 A 
ATOM     58  C   UNL A   1      48.082  26.234  25.972  1.00  0.00     0.049 A 
ATOM     59  C   UNL A   1      52.967  27.528  28.391  1.00  0.00     0.074 A 
ATOM     60  C   UNL A   1      48.018  26.358  24.595  1.00  0.00     0.029 A 
ATOM     61  N   UNL A   1      49.383  26.556  26.339  1.00  0.00    -0.354 N 
ATOM     62  N   UNL A   1      51.898  27.243  27.684  1.00  0.00    -0.248 NA
ATOM     63  C   UNL A   1      54.157  27.831  27.585  1.00  0.00     0.031 C 
ATOM     64  C   UNL A   1      49.298  26.670  24.124  1.00  0.00     0.029 A 
ATOM     65  C   UNL A   1      50.141  26.835  25.211  1.00  0.00     0.049 A 
ATOM     66  H   UNL A   1      49.718  26.585  27.264  1.00  0.00     0.167 HD
ATOM     67  C   UNL A   1      52.275  27.388  26.350  1.00  0.00     0.074 A 
ATOM     68  C   UNL A   1      53.666  27.788  26.355  1.00  0.00     0.031 C 
ATOM     69  C   UNL A   1      51.533  27.221  25.223  1.00  0.00     0.034 A 
BRANCH  56  70
ATOM     70  C   UNL A   1      45.701  25.417  26.333  1.00  0.00     0.023 A 
ATOM     71  C   UNL A   1      44.672  26.350  26.107  1.00  0.00     0.031 A 
ATOM     72  C   UNL A   1      45.433  24.065  26.056  1.00  0.00     0.131 A 
ATOM     73  C   UNL A   1      43.407  25.912  25.691  1.00  0.00     0.055 A 
ATOM     74  C   UNL A   1      44.198  23.646  25.560  1.00  0.00     0.041 A 
ATOM     75  F   UNL A   1      46.365  23.125  26.277  1.00  0.00    -0.206 F 
ATOM     76  C   UNL A   1      43.170  24.569  25.390  1.00  0.00     0.022 A 
BRANCH  73  77
ATOM     77  S   UNL A   1      42.034  27.098  25.696  1.00  0.00     0.124 S 
ATOM     78  O   UNL A   1      42.396  27.973  24.583  1.00  0.00    -0.237 OA
ATOM     79  O   UNL A   1      40.875  26.239  25.483  1.00  0.00    -0.237 OA
ATOM     80  O   UNL A   1      42.120  27.716  27.018  1.00  0.00    -0.744 OA
ENDBRANCH  73  77
ENDBRANCH  56  70
BRANCH  57  81
ATOM     81  C   UNL A   1      54.458  27.886  30.496  1.00  0.00     0.023 A 
ATOM     82  C   UNL A   1      54.894  29.199  30.729  1.00  0.00     0.031 A 
ATOM     83  C   UNL A   1      55.349  26.836  30.782  1.00  0.00     0.131 A 
ATOM     84  C   UNL A   1      56.202  29.434  31.183  1.00  0.00     0.055 A 
ATOM     85  C   UNL A   1      56.631  27.071  31.284  1.00  0.00     0.041 A 
ATOM     86  F   UNL A   1      54.984  25.561  30.572  1.00  0.00    -0.206 F 
ATOM     87  C   UNL A   1      57.069  28.379  31.474  1.00  0.00     0.022 A 
BRANCH  84  88
ATOM     88  S   UNL A   1      56.785  31.148  31.299  1.00  0.00     0.124 S 
ATOM     89  O   UNL A   1      55.577  31.844  31.723  1.00  0.00    -0.237 OA
ATOM     90  O   UNL A   1      57.846  31.039  32.293  1.00  0.00    -0.237 OA
ATOM     91  O   UNL A   1      57.236  31.447  29.941  1.00  0.00    -0.744 OA
ENDBRANCH  84  88
ENDBRANCH  57  81
BRANCH  69  92
ATOM     92  C   UNL A   1      52.203  27.532  23.904  1.00  0.00     0.023 A 
ATOM     93  C   UNL A   1      52.027  28.766  23.253  1.00  0.00     0.031 A 
ATOM     94  C   UNL A   1      53.005  26.564  23.272  1.00  0.00     0.131 A 
ATOM     95  C   UNL A   1      52.581  28.971  21.980  1.00  0.00     0.055 A 
ATOM     96  C   UNL A   1      53.618  26.803  22.041  1.00  0.00     0.041 A 
ATOM     97  F   UNL A   1      53.206  25.365  23.840  1.00  0.00    -0.206 F 
ATOM     98  C   UNL A   1      53.393  28.006  21.380  1.00  0.00     0.022 A 
BRANCH  95  99
ATOM     99  S   UNL A   1      52.120  30.467  21.064  1.00  0.00     0.124 S 
ATOM    100  O   UNL A   1      52.699  31.519  21.894  1.00  0.00    -0.237 OA
ATOM    101  O   UNL A   1      52.762  30.249  19.771  1.00  0.00    -0.237 OA
ATOM    102  O   UNL A   1      50.659  30.421  21.046  1.00  0.00    -0.744 OA
ENDBRANCH  95  99
ENDBRANCH  69  92
ENDBRANCH  43  44
ENDBRANCH  36  38
ENDBRANCH  35  36
ENDBRANCH  34  35
ENDBRANCH  33  34
ENDBRANCH  32  33
ENDBRANCH  31  32
ENDBRANCH   1  31
TORSDOF 27
ENDMDL
