MODEL 1
REMARK VINA RESULT:      -6.7      0.000      0.000
REMARK SMILES CCn1ncc(NC(=O)[C@@H]2CCCC[C@@H]2C(=O)OCCOCCOCCOCCOC(=O)c2ccc(-c3c4nc(c(-c5cc(S(=O)(=O)[O-])ccc5F)c5ccc([nH]5)c(-c5cc(S(=O)(=O)[O-])ccc5F)c5nc(c(-c6cc(S(=O)(=O)[O-])ccc6F)c6ccc3[nH]6)C=C5)C=C4)cc2)c1C(=O)Nc1cnn(C)c1C
REMARK SMILES IDX 23 1 22 2 21 3 20 4 19 5 18 6 16 7 17 8 15 9 10 10 11 11
REMARK SMILES IDX 12 12 14 13 13 14 8 15 7 16 9 18 6 19 3 20 4 21 96 22 5 23
REMARK SMILES IDX 2 24 1 25 97 26 98 27 99 28 100 30 101 31 105 32 102 33
REMARK SMILES IDX 103 34 106 35 104 36 24 37 25 38 26 39 27 40 28 41 29 42
REMARK SMILES IDX 30 43 31 44 32 45 33 46 34 47 95 48 35 49 94 50 36 51 37 52
REMARK SMILES IDX 38 53 88 54 39 55 93 56 87 57 89 58 40 59 92 60 86 61 85 62
REMARK SMILES IDX 41 64 73 65 53 66 72 67 54 68 57 69 71 70 90 71 55 72 56 73
REMARK SMILES IDX 70 75 91 76 58 77 42 78 43 79 51 80 44 81 50 82 52 83 49 84
REMARK SMILES IDX 45 85 46 86 47 87 48 88 74 89 75 90 83 91 76 92 82 93 84 94
REMARK SMILES IDX 81 95 77 96 78 97 79 98 80 99 59 100 60 101 68 102 61 103
REMARK SMILES IDX 67 104 69 105 66 106 62 107 63 108 64 109 65 110
REMARK H PARENT 7 17 99 29 89 63 57 74
REMARK Flexibility Score: inf
ROOT
ATOM      1  C   UNL A   1      39.196  33.648  30.815  1.00  0.00     0.188 C 
ENDROOT
BRANCH   1   2
ATOM      2  C   UNL A   1      38.179  32.525  31.079  1.00  0.00     0.188 C 
BRANCH   2   3
ATOM      3  O   UNL A   1      36.875  32.803  30.631  1.00  0.00    -0.376 OA
BRANCH   3   4
ATOM      4  C   UNL A   1      35.720  32.464  31.352  1.00  0.00     0.202 C 
BRANCH   4   5
ATOM      5  C   UNL A   1      35.491  32.828  32.824  1.00  0.00     0.261 C 
BRANCH   5   6
ATOM      6  O   UNL A   1      36.305  32.230  33.830  1.00  0.00    -0.463 OA
BRANCH   6   7
ATOM      7  C   UNL A   1      36.847  33.066  34.747  1.00  0.00     0.309 C 
ATOM      8  O   UNL A   1      36.202  33.870  35.409  1.00  0.00    -0.252 OA
BRANCH   7   9
ATOM      9  C   UNL A   1      38.370  32.951  34.828  1.00  0.00     0.111 C 
ATOM     10  C   UNL A   1      38.764  32.334  36.163  1.00  0.00     0.093 C 
ATOM     11  C   UNL A   1      38.555  33.259  37.356  1.00  0.00     0.014 C 
ATOM     12  C   UNL A   1      39.291  34.589  37.167  1.00  0.00     0.001 C 
ATOM     13  C   UNL A   1      39.267  34.189  34.636  1.00  0.00     0.016 C 
ATOM     14  C   UNL A   1      39.161  35.209  35.774  1.00  0.00     0.001 C 
BRANCH  10  15
ATOM     15  C   UNL A   1      38.184  30.961  36.333  1.00  0.00     0.228 C 
ATOM     16  N   UNL A   1      38.316  30.022  35.355  1.00  0.00    -0.322 N 
ATOM     17  H   UNL A   1      37.573  29.380  35.286  1.00  0.00     0.170 HD
ATOM     18  O   UNL A   1      37.602  30.629  37.368  1.00  0.00    -0.274 OA
BRANCH  16  19
ATOM     19  C   UNL A   1      39.347  29.838  34.442  1.00  0.00     0.092 A 
ATOM     20  N   UNL A   1      41.061  29.214  33.248  1.00  0.00    -0.258 N 
ATOM     21  N   UNL A   1      40.063  29.306  32.348  1.00  0.00    -0.178 NA
ATOM     22  C   UNL A   1      40.743  29.716  34.499  1.00  0.00     0.150 A 
ATOM     23  C   UNL A   1      39.028  29.697  33.072  1.00  0.00     0.162 A 
BRANCH  20  24
ATOM     24  C   UNL A   1      42.299  28.662  32.743  1.00  0.00     0.142 C 
ATOM     25  C   UNL A   1      42.170  28.242  31.294  1.00  0.00     0.029 C 
ENDBRANCH  20  24
BRANCH  22  26
ATOM     26  C   UNL A   1      41.694  30.127  35.538  1.00  0.00     0.276 C 
ATOM     27  O   UNL A   1      41.810  29.520  36.601  1.00  0.00    -0.267 OA
ATOM     28  N   UNL A   1      42.666  31.039  35.164  1.00  0.00    -0.318 N 
ATOM     29  H   UNL A   1      43.468  30.700  34.703  1.00  0.00     0.170 HD
BRANCH  28  30
ATOM     30  C   UNL A   1      42.576  32.395  35.400  1.00  0.00     0.082 A 
ATOM     31  C   UNL A   1      42.695  33.480  34.516  1.00  0.00     0.161 A 
ATOM     32  C   UNL A   1      42.418  32.961  36.650  1.00  0.00     0.059 A 
ATOM     33  N   UNL A   1      42.867  34.630  35.169  1.00  0.00    -0.179 NA
ATOM     34  N   UNL A   1      42.823  34.266  36.467  1.00  0.00    -0.271 N 
ATOM     35  C   UNL A   1      42.128  32.393  37.991  1.00  0.00     0.068 C 
ATOM     36  C   UNL A   1      43.508  35.093  37.437  1.00  0.00     0.174 C 
ENDBRANCH  28  30
ENDBRANCH  22  26
ENDBRANCH  16  19
ENDBRANCH  10  15
ENDBRANCH   7   9
ENDBRANCH   6   7
ENDBRANCH   5   6
ENDBRANCH   4   5
ENDBRANCH   3   4
ENDBRANCH   2   3
ENDBRANCH   1   2
BRANCH   1  37
ATOM     37  O   UNL A   1      40.579  33.626  31.136  1.00  0.00    -0.377 OA
BRANCH  37  38
ATOM     38  C   UNL A   1      41.279  32.399  31.130  1.00  0.00     0.188 C 
BRANCH  38  39
ATOM     39  C   UNL A   1      42.270  32.232  29.965  1.00  0.00     0.188 C 
BRANCH  39  40
ATOM     40  O   UNL A   1      43.607  32.608  30.261  1.00  0.00    -0.376 OA
BRANCH  40  41
ATOM     41  C   UNL A   1      44.062  33.951  30.277  1.00  0.00     0.202 C 
BRANCH  41  42
ATOM     42  C   UNL A   1      44.982  34.539  29.207  1.00  0.00     0.261 C 
BRANCH  42  43
ATOM     43  O   UNL A   1      46.255  34.955  29.650  1.00  0.00    -0.460 OA
BRANCH  43  44
ATOM     44  C   UNL A   1      47.049  35.440  28.700  1.00  0.00     0.338 C 
ATOM     45  O   UNL A   1      46.942  36.528  28.115  1.00  0.00    -0.246 OA
BRANCH  44  46
ATOM     46  C   UNL A   1      48.010  34.417  28.339  1.00  0.00     0.060 A 
ATOM     47  C   UNL A   1      48.021  34.050  26.996  1.00  0.00     0.016 A 
ATOM     48  C   UNL A   1      48.453  33.572  29.370  1.00  0.00     0.016 A 
ATOM     49  C   UNL A   1      48.180  32.719  26.716  1.00  0.00     0.010 A 
ATOM     50  C   UNL A   1      48.574  32.240  29.090  1.00  0.00     0.010 A 
ATOM     51  C   UNL A   1      48.340  31.823  27.783  1.00  0.00    -0.014 A 
BRANCH  51  52
ATOM     52  C   UNL A   1      48.480  30.424  27.467  1.00  0.00     0.031 A 
ATOM     53  C   UNL A   1      47.150  29.789  27.436  1.00  0.00     0.074 A 
ATOM     54  C   UNL A   1      49.647  29.828  27.172  1.00  0.00     0.049 A 
ATOM     55  N   UNL A   1      46.600  29.127  28.396  1.00  0.00    -0.248 NA
ATOM     56  C   UNL A   1      46.208  30.208  26.383  1.00  0.00     0.031 C 
ATOM     57  C   UNL A   1      50.956  30.442  26.952  1.00  0.00     0.029 A 
ATOM     58  N   UNL A   1      49.886  28.513  26.927  1.00  0.00    -0.354 N 
ATOM     59  C   UNL A   1      45.355  28.771  27.906  1.00  0.00     0.074 A 
ATOM     60  C   UNL A   1      45.068  29.712  26.863  1.00  0.00     0.031 C 
ATOM     61  C   UNL A   1      51.786  29.529  26.389  1.00  0.00     0.029 A 
ATOM     62  C   UNL A   1      51.109  28.242  26.321  1.00  0.00     0.049 A 
ATOM     63  H   UNL A   1      49.242  27.805  27.160  1.00  0.00     0.167 HD
ATOM     64  C   UNL A   1      44.874  27.520  28.137  1.00  0.00     0.034 A 
ATOM     65  C   UNL A   1      51.489  27.060  25.754  1.00  0.00     0.034 A 
ATOM     66  C   UNL A   1      45.584  26.904  29.247  1.00  0.00     0.049 A 
ATOM     67  C   UNL A   1      50.621  26.006  26.346  1.00  0.00     0.074 A 
ATOM     68  C   UNL A   1      45.827  27.275  30.558  1.00  0.00     0.029 A 
ATOM     69  N   UNL A   1      46.524  25.936  28.956  1.00  0.00    -0.354 N 
ATOM     70  N   UNL A   1      50.680  25.660  27.603  1.00  0.00    -0.248 NA
ATOM     71  C   UNL A   1      49.352  25.721  25.690  1.00  0.00     0.031 C 
ATOM     72  C   UNL A   1      47.171  26.876  30.816  1.00  0.00     0.029 A 
ATOM     73  C   UNL A   1      47.650  26.185  29.701  1.00  0.00     0.049 A 
ATOM     74  H   UNL A   1      46.407  25.193  28.322  1.00  0.00     0.167 HD
ATOM     75  C   UNL A   1      49.359  25.543  28.008  1.00  0.00     0.074 A 
ATOM     76  C   UNL A   1      48.586  25.505  26.765  1.00  0.00     0.031 C 
ATOM     77  C   UNL A   1      48.992  25.792  29.301  1.00  0.00     0.034 A 
BRANCH  64  78
ATOM     78  C   UNL A   1      44.132  26.707  27.092  1.00  0.00     0.023 A 
ATOM     79  C   UNL A   1      42.926  26.125  27.513  1.00  0.00     0.031 A 
ATOM     80  C   UNL A   1      44.641  26.227  25.861  1.00  0.00     0.131 A 
ATOM     81  C   UNL A   1      42.380  25.026  26.833  1.00  0.00     0.055 A 
ATOM     82  C   UNL A   1      44.059  25.173  25.154  1.00  0.00     0.041 A 
ATOM     83  F   UNL A   1      45.759  26.684  25.290  1.00  0.00    -0.206 F 
ATOM     84  C   UNL A   1      42.943  24.537  25.661  1.00  0.00     0.022 A 
BRANCH  81  85
ATOM     85  S   UNL A   1      41.026  24.134  27.629  1.00  0.00     0.124 S 
ATOM     86  O   UNL A   1      40.444  25.187  28.455  1.00  0.00    -0.237 OA
ATOM     87  O   UNL A   1      40.238  23.704  26.479  1.00  0.00    -0.237 OA
ATOM     88  O   UNL A   1      41.709  23.066  28.356  1.00  0.00    -0.744 OA
ENDBRANCH  81  85
ENDBRANCH  64  78
BRANCH  65  89
ATOM     89  C   UNL A   1      52.297  26.845  24.513  1.00  0.00     0.023 A 
ATOM     90  C   UNL A   1      51.733  26.836  23.213  1.00  0.00     0.031 A 
ATOM     91  C   UNL A   1      53.708  26.901  24.581  1.00  0.00     0.131 A 
ATOM     92  C   UNL A   1      52.567  26.888  22.067  1.00  0.00     0.055 A 
ATOM     93  C   UNL A   1      54.524  26.955  23.447  1.00  0.00     0.041 A 
ATOM     94  F   UNL A   1      54.346  27.000  25.756  1.00  0.00    -0.206 F 
ATOM     95  C   UNL A   1      53.956  26.959  22.184  1.00  0.00     0.022 A 
BRANCH  92  96
ATOM     96  S   UNL A   1      51.859  26.957  20.384  1.00  0.00     0.124 S 
ATOM     97  O   UNL A   1      51.410  25.585  20.178  1.00  0.00    -0.237 OA
ATOM     98  O   UNL A   1      50.818  27.969  20.520  1.00  0.00    -0.237 OA
ATOM     99  O   UNL A   1      52.994  27.360  19.551  1.00  0.00    -0.744 OA
ENDBRANCH  92  96
ENDBRANCH  65  89
BRANCH  77 100
ATOM    100  C   UNL A   1      50.068  25.829  30.372  1.00  0.00     0.023 A 
ATOM    101  C   UNL A   1      50.537  24.720  31.113  1.00  0.00     0.031 A 
ATOM    102  C   UNL A   1      50.713  27.063  30.573  1.00  0.00     0.131 A 
ATOM    103  C   UNL A   1      51.606  24.882  32.020  1.00  0.00     0.055 A 
ATOM    104  C   UNL A   1      51.784  27.213  31.450  1.00  0.00     0.041 A 
ATOM    105  F   UNL A   1      50.325  28.153  29.889  1.00  0.00    -0.206 F 
ATOM    106  C   UNL A   1      52.230  26.123  32.184  1.00  0.00     0.022 A 
BRANCH 103 107
ATOM    107  S   UNL A   1      52.190  23.491  33.045  1.00  0.00     0.124 S 
ATOM    108  O   UNL A   1      53.520  23.211  32.520  1.00  0.00    -0.237 OA
ATOM    109  O   UNL A   1      52.138  24.052  34.393  1.00  0.00    -0.237 OA
ATOM    110  O   UNL A   1      51.200  22.442  32.787  1.00  0.00    -0.744 OA
ENDBRANCH 103 107
ENDBRANCH  77 100
ENDBRANCH  51  52
ENDBRANCH  44  46
ENDBRANCH  43  44
ENDBRANCH  42  43
ENDBRANCH  41  42
ENDBRANCH  40  41
ENDBRANCH  39  40
ENDBRANCH  38  39
ENDBRANCH  37  38
ENDBRANCH   1  37
TORSDOF 28
ENDMDL
MODEL 2
REMARK VINA RESULT:      -6.4      6.927     13.134
REMARK SMILES CCn1ncc(NC(=O)[C@@H]2CCCC[C@@H]2C(=O)OCCOCCOCCOCCOC(=O)c2ccc(-c3c4nc(c(-c5cc(S(=O)(=O)[O-])ccc5F)c5ccc([nH]5)c(-c5cc(S(=O)(=O)[O-])ccc5F)c5nc(c(-c6cc(S(=O)(=O)[O-])ccc6F)c6ccc3[nH]6)C=C5)C=C4)cc2)c1C(=O)Nc1cnn(C)c1C
REMARK SMILES IDX 23 1 22 2 21 3 20 4 19 5 18 6 16 7 17 8 15 9 10 10 11 11
REMARK SMILES IDX 12 12 14 13 13 14 8 15 7 16 9 18 6 19 3 20 4 21 96 22 5 23
REMARK SMILES IDX 2 24 1 25 97 26 98 27 99 28 100 30 101 31 105 32 102 33
REMARK SMILES IDX 103 34 106 35 104 36 24 37 25 38 26 39 27 40 28 41 29 42
REMARK SMILES IDX 30 43 31 44 32 45 33 46 34 47 95 48 35 49 94 50 36 51 37 52
REMARK SMILES IDX 38 53 88 54 39 55 93 56 87 57 89 58 40 59 92 60 86 61 85 62
REMARK SMILES IDX 41 64 73 65 53 66 72 67 54 68 57 69 71 70 90 71 55 72 56 73
REMARK SMILES IDX 70 75 91 76 58 77 42 78 43 79 51 80 44 81 50 82 52 83 49 84
REMARK SMILES IDX 45 85 46 86 47 87 48 88 74 89 75 90 83 91 76 92 82 93 84 94
REMARK SMILES IDX 81 95 77 96 78 97 79 98 80 99 59 100 60 101 68 102 61 103
REMARK SMILES IDX 67 104 69 105 66 106 62 107 63 108 64 109 65 110
REMARK H PARENT 7 17 99 29 89 63 57 74
REMARK Flexibility Score: inf
ROOT
ATOM      1  C   UNL A   1      50.103  36.641  29.941  1.00  0.00     0.188 C 
ENDROOT
BRANCH   1   2
ATOM      2  C   UNL A   1      49.093  36.732  28.785  1.00  0.00     0.188 C 
BRANCH   2   3
ATOM      3  O   UNL A   1      48.091  37.703  28.963  1.00  0.00    -0.376 OA
BRANCH   3   4
ATOM      4  C   UNL A   1      47.014  37.550  29.849  1.00  0.00     0.202 C 
BRANCH   4   5
ATOM      5  C   UNL A   1      46.316  36.213  30.125  1.00  0.00     0.261 C 
BRANCH   5   6
ATOM      6  O   UNL A   1      44.910  36.098  29.918  1.00  0.00    -0.463 OA
BRANCH   6   7
ATOM      7  C   UNL A   1      44.513  35.502  28.770  1.00  0.00     0.309 C 
ATOM      8  O   UNL A   1      44.220  34.315  28.677  1.00  0.00    -0.252 OA
BRANCH   7   9
ATOM      9  C   UNL A   1      44.529  36.451  27.571  1.00  0.00     0.111 C 
ATOM     10  C   UNL A   1      43.175  36.419  26.877  1.00  0.00     0.093 C 
ATOM     11  C   UNL A   1      42.900  35.123  26.121  1.00  0.00     0.014 C 
ATOM     12  C   UNL A   1      44.007  34.826  25.104  1.00  0.00     0.001 C 
ATOM     13  C   UNL A   1      45.592  36.310  26.465  1.00  0.00     0.016 C 
ATOM     14  C   UNL A   1      45.433  35.045  25.616  1.00  0.00     0.001 C 
BRANCH  10  15
ATOM     15  C   UNL A   1      42.069  36.847  27.796  1.00  0.00     0.228 C 
ATOM     16  N   UNL A   1      41.881  38.162  28.096  1.00  0.00    -0.322 N 
ATOM     17  H   UNL A   1      41.520  38.341  28.994  1.00  0.00     0.170 HD
ATOM     18  O   UNL A   1      41.279  36.033  28.279  1.00  0.00    -0.274 OA
BRANCH  16  19
ATOM     19  C   UNL A   1      42.123  39.288  27.318  1.00  0.00     0.092 A 
ATOM     20  N   UNL A   1      42.867  40.862  26.005  1.00  0.00    -0.258 N 
ATOM     21  N   UNL A   1      41.649  40.578  25.503  1.00  0.00    -0.178 NA
ATOM     22  C   UNL A   1      43.132  40.258  27.223  1.00  0.00     0.150 A 
ATOM     23  C   UNL A   1      41.195  39.632  26.309  1.00  0.00     0.162 A 
BRANCH  20  24
ATOM     24  C   UNL A   1      43.658  41.783  25.219  1.00  0.00     0.142 C 
ATOM     25  C   UNL A   1      45.140  41.518  25.378  1.00  0.00     0.029 C 
ENDBRANCH  20  24
BRANCH  22  26
ATOM     26  C   UNL A   1      44.153  40.670  28.193  1.00  0.00     0.276 C 
ATOM     27  O   UNL A   1      45.296  40.215  28.179  1.00  0.00    -0.267 OA
ATOM     28  N   UNL A   1      43.879  41.805  28.938  1.00  0.00    -0.318 N 
ATOM     29  H   UNL A   1      44.056  42.683  28.528  1.00  0.00     0.170 HD
BRANCH  28  30
ATOM     30  C   UNL A   1      43.374  41.775  30.221  1.00  0.00     0.082 A 
ATOM     31  C   UNL A   1      42.285  41.063  30.751  1.00  0.00     0.161 A 
ATOM     32  C   UNL A   1      43.838  42.556  31.262  1.00  0.00     0.059 A 
ATOM     33  N   UNL A   1      41.918  41.540  31.941  1.00  0.00    -0.179 NA
ATOM     34  N   UNL A   1      42.801  42.534  32.169  1.00  0.00    -0.271 N 
ATOM     35  C   UNL A   1      45.017  43.445  31.413  1.00  0.00     0.068 C 
ATOM     36  C   UNL A   1      42.406  43.618  33.044  1.00  0.00     0.174 C 
ENDBRANCH  28  30
ENDBRANCH  22  26
ENDBRANCH  16  19
ENDBRANCH  10  15
ENDBRANCH   7   9
ENDBRANCH   6   7
ENDBRANCH   5   6
ENDBRANCH   4   5
ENDBRANCH   3   4
ENDBRANCH   2   3
ENDBRANCH   1   2
BRANCH   1  37
ATOM     37  O   UNL A   1      50.622  37.726  30.696  1.00  0.00    -0.377 OA
BRANCH  37  38
ATOM     38  C   UNL A   1      51.459  37.470  31.805  1.00  0.00     0.188 C 
BRANCH  38  39
ATOM     39  C   UNL A   1      51.665  38.671  32.743  1.00  0.00     0.188 C 
BRANCH  39  40
ATOM     40  O   UNL A   1      50.858  38.659  33.913  1.00  0.00    -0.376 OA
BRANCH  40  41
ATOM     41  C   UNL A   1      49.612  37.988  34.003  1.00  0.00     0.202 C 
BRANCH  41  42
ATOM     42  C   UNL A   1      48.466  38.463  34.896  1.00  0.00     0.261 C 
BRANCH  42  43
ATOM     43  O   UNL A   1      47.210  37.870  34.652  1.00  0.00    -0.460 OA
BRANCH  43  44
ATOM     44  C   UNL A   1      46.343  38.637  33.997  1.00  0.00     0.338 C 
ATOM     45  O   UNL A   1      46.287  39.876  33.998  1.00  0.00    -0.246 OA
BRANCH  44  46
ATOM     46  C   UNL A   1      45.356  37.782  33.370  1.00  0.00     0.060 A 
ATOM     47  C   UNL A   1      44.067  38.304  33.300  1.00  0.00     0.016 A 
ATOM     48  C   UNL A   1      45.628  36.404  33.355  1.00  0.00     0.016 A 
ATOM     49  C   UNL A   1      43.032  37.438  33.535  1.00  0.00     0.010 A 
ATOM     50  C   UNL A   1      44.598  35.550  33.624  1.00  0.00     0.010 A 
ATOM     51  C   UNL A   1      43.329  36.095  33.806  1.00  0.00    -0.014 A 
BRANCH  51  52
ATOM     52  C   UNL A   1      42.227  35.206  34.076  1.00  0.00     0.031 A 
ATOM     53  C   UNL A   1      42.112  34.987  35.528  1.00  0.00     0.074 A 
ATOM     54  C   UNL A   1      41.395  34.726  33.136  1.00  0.00     0.049 A 
ATOM     55  N   UNL A   1      42.585  33.984  36.187  1.00  0.00    -0.248 NA
ATOM     56  C   UNL A   1      41.742  36.136  36.374  1.00  0.00     0.031 C 
ATOM     57  C   UNL A   1      41.306  35.089  31.722  1.00  0.00     0.029 A 
ATOM     58  N   UNL A   1      40.377  33.839  33.283  1.00  0.00    -0.354 N 
ATOM     59  C   UNL A   1      42.260  34.249  37.506  1.00  0.00     0.074 A 
ATOM     60  C   UNL A   1      42.066  35.667  37.579  1.00  0.00     0.031 C 
ATOM     61  C   UNL A   1      40.152  34.599  31.208  1.00  0.00     0.029 A 
ATOM     62  C   UNL A   1      39.483  33.789  32.217  1.00  0.00     0.049 A 
ATOM     63  H   UNL A   1      40.277  33.274  34.084  1.00  0.00     0.167 HD
ATOM     64  C   UNL A   1      41.804  33.244  38.301  1.00  0.00     0.034 A 
ATOM     65  C   UNL A   1      38.262  33.179  32.210  1.00  0.00     0.034 A 
ATOM     66  C   UNL A   1      42.151  31.952  37.729  1.00  0.00     0.049 A 
ATOM     67  C   UNL A   1      38.286  32.168  33.301  1.00  0.00     0.074 A 
ATOM     68  C   UNL A   1      43.338  31.368  37.323  1.00  0.00     0.029 A 
ATOM     69  N   UNL A   1      41.151  31.229  37.110  1.00  0.00    -0.354 N 
ATOM     70  N   UNL A   1      39.046  31.107  33.272  1.00  0.00    -0.248 NA
ATOM     71  C   UNL A   1      37.879  32.594  34.634  1.00  0.00     0.031 C 
ATOM     72  C   UNL A   1      43.015  30.658  36.129  1.00  0.00     0.029 A 
ATOM     73  C   UNL A   1      41.637  30.745  35.921  1.00  0.00     0.049 A 
ATOM     74  H   UNL A   1      40.244  31.084  37.462  1.00  0.00     0.167 HD
ATOM     75  C   UNL A   1      39.575  31.007  34.550  1.00  0.00     0.074 A 
ATOM     76  C   UNL A   1      38.751  31.897  35.369  1.00  0.00     0.031 C 
ATOM     77  C   UNL A   1      40.807  30.453  34.763  1.00  0.00     0.034 A 
BRANCH  64  78
ATOM     78  C   UNL A   1      40.669  33.418  39.294  1.00  0.00     0.023 A 
ATOM     79  C   UNL A   1      40.870  32.842  40.559  1.00  0.00     0.031 A 
ATOM     80  C   UNL A   1      39.341  33.822  39.015  1.00  0.00     0.131 A 
ATOM     81  C   UNL A   1      39.784  32.539  41.394  1.00  0.00     0.055 A 
ATOM     82  C   UNL A   1      38.271  33.575  39.878  1.00  0.00     0.041 A 
ATOM     83  F   UNL A   1      38.968  34.414  37.877  1.00  0.00    -0.206 F 
ATOM     84  C   UNL A   1      38.482  32.892  41.059  1.00  0.00     0.022 A 
BRANCH  81  85
ATOM     85  S   UNL A   1      40.098  31.503  42.838  1.00  0.00     0.124 S 
ATOM     86  O   UNL A   1      40.813  32.436  43.703  1.00  0.00    -0.237 OA
ATOM     87  O   UNL A   1      38.744  31.147  43.249  1.00  0.00    -0.237 OA
ATOM     88  O   UNL A   1      40.897  30.406  42.297  1.00  0.00    -0.744 OA
ENDBRANCH  81  85
ENDBRANCH  64  78
BRANCH  65  89
ATOM     89  C   UNL A   1      36.997  33.645  31.562  1.00  0.00     0.023 A 
ATOM     90  C   UNL A   1      36.548  33.168  30.305  1.00  0.00     0.031 A 
ATOM     91  C   UNL A   1      36.065  34.398  32.312  1.00  0.00     0.131 A 
ATOM     92  C   UNL A   1      35.229  33.444  29.861  1.00  0.00     0.055 A 
ATOM     93  C   UNL A   1      34.767  34.664  31.870  1.00  0.00     0.041 A 
ATOM     94  F   UNL A   1      36.352  34.828  33.550  1.00  0.00    -0.206 F 
ATOM     95  C   UNL A   1      34.339  34.179  30.646  1.00  0.00     0.022 A 
BRANCH  92  96
ATOM     96  S   UNL A   1      34.604  32.772  28.281  1.00  0.00     0.124 S 
ATOM     97  O   UNL A   1      34.238  31.409  28.644  1.00  0.00    -0.237 OA
ATOM     98  O   UNL A   1      33.506  33.679  27.964  1.00  0.00    -0.237 OA
ATOM     99  O   UNL A   1      35.757  32.877  27.385  1.00  0.00    -0.744 OA
ENDBRANCH  92  96
ENDBRANCH  65  89
BRANCH  77 100
ATOM    100  C   UNL A   1      41.431  29.614  33.663  1.00  0.00     0.023 A 
ATOM    101  C   UNL A   1      41.934  30.100  32.434  1.00  0.00     0.031 A 
ATOM    102  C   UNL A   1      41.603  28.244  33.937  1.00  0.00     0.131 A 
ATOM    103  C   UNL A   1      42.567  29.217  31.535  1.00  0.00     0.055 A 
ATOM    104  C   UNL A   1      42.252  27.382  33.058  1.00  0.00     0.041 A 
ATOM    105  F   UNL A   1      41.162  27.722  35.094  1.00  0.00    -0.206 F 
ATOM    106  C   UNL A   1      42.731  27.864  31.848  1.00  0.00     0.022 A 
BRANCH 103 107
ATOM    107  S   UNL A   1      43.164  29.794  29.910  1.00  0.00     0.124 S 
ATOM    108  O   UNL A   1      44.385  29.029  29.700  1.00  0.00    -0.237 OA
ATOM    109  O   UNL A   1      42.043  29.466  29.032  1.00  0.00    -0.237 OA
ATOM    110  O   UNL A   1      43.371  31.230  30.117  1.00  0.00    -0.744 OA
ENDBRANCH 103 107
ENDBRANCH  77 100
ENDBRANCH  51  52
ENDBRANCH  44  46
ENDBRANCH  43  44
ENDBRANCH  42  43
ENDBRANCH  41  42
ENDBRANCH  40  41
ENDBRANCH  39  40
ENDBRANCH  38  39
ENDBRANCH  37  38
ENDBRANCH   1  37
TORSDOF 28
ENDMDL
MODEL 3
REMARK VINA RESULT:      -6.3      9.719     15.522
REMARK SMILES CCn1ncc(NC(=O)[C@@H]2CCCC[C@@H]2C(=O)OCCOCCOCCOCCOC(=O)c2ccc(-c3c4nc(c(-c5cc(S(=O)(=O)[O-])ccc5F)c5ccc([nH]5)c(-c5cc(S(=O)(=O)[O-])ccc5F)c5nc(c(-c6cc(S(=O)(=O)[O-])ccc6F)c6ccc3[nH]6)C=C5)C=C4)cc2)c1C(=O)Nc1cnn(C)c1C
REMARK SMILES IDX 23 1 22 2 21 3 20 4 19 5 18 6 16 7 17 8 15 9 10 10 11 11
REMARK SMILES IDX 12 12 14 13 13 14 8 15 7 16 9 18 6 19 3 20 4 21 96 22 5 23
REMARK SMILES IDX 2 24 1 25 97 26 98 27 99 28 100 30 101 31 105 32 102 33
REMARK SMILES IDX 103 34 106 35 104 36 24 37 25 38 26 39 27 40 28 41 29 42
REMARK SMILES IDX 30 43 31 44 32 45 33 46 34 47 95 48 35 49 94 50 36 51 37 52
REMARK SMILES IDX 38 53 88 54 39 55 93 56 87 57 89 58 40 59 92 60 86 61 85 62
REMARK SMILES IDX 41 64 73 65 53 66 72 67 54 68 57 69 71 70 90 71 55 72 56 73
REMARK SMILES IDX 70 75 91 76 58 77 42 78 43 79 51 80 44 81 50 82 52 83 49 84
REMARK SMILES IDX 45 85 46 86 47 87 48 88 74 89 75 90 83 91 76 92 82 93 84 94
REMARK SMILES IDX 81 95 77 96 78 97 79 98 80 99 59 100 60 101 68 102 61 103
REMARK SMILES IDX 67 104 69 105 66 106 62 107 63 108 64 109 65 110
REMARK H PARENT 7 17 99 29 89 63 57 74
REMARK Flexibility Score: inf
ROOT
ATOM      1  C   UNL A   1      47.105  43.555  24.191  1.00  0.00     0.188 C 
ENDROOT
BRANCH   1   2
ATOM      2  C   UNL A   1      47.822  43.348  22.846  1.00  0.00     0.188 C 
BRANCH   2   3
ATOM      3  O   UNL A   1      48.477  44.492  22.354  1.00  0.00    -0.376 OA
BRANCH   3   4
ATOM      4  C   UNL A   1      49.613  44.439  21.532  1.00  0.00     0.202 C 
BRANCH   4   5
ATOM      5  C   UNL A   1      49.637  44.911  20.073  1.00  0.00     0.261 C 
BRANCH   5   6
ATOM      6  O   UNL A   1      49.466  46.296  19.779  1.00  0.00    -0.463 OA
BRANCH   6   7
ATOM      7  C   UNL A   1      48.197  46.720  19.576  1.00  0.00     0.309 C 
ATOM      8  O   UNL A   1      47.209  46.201  20.085  1.00  0.00    -0.252 OA
BRANCH   7   9
ATOM      9  C   UNL A   1      48.109  47.882  18.586  1.00  0.00     0.111 C 
ATOM     10  C   UNL A   1      48.721  47.466  17.256  1.00  0.00     0.093 C 
ATOM     11  C   UNL A   1      50.240  47.330  17.292  1.00  0.00     0.014 C 
ATOM     12  C   UNL A   1      50.904  48.620  17.783  1.00  0.00     0.001 C 
ATOM     13  C   UNL A   1      48.704  49.260  18.930  1.00  0.00     0.016 C 
ATOM     14  C   UNL A   1      50.234  49.272  18.995  1.00  0.00     0.001 C 
BRANCH  10  15
ATOM     15  C   UNL A   1      48.007  46.289  16.659  1.00  0.00     0.228 C 
ATOM     16  N   UNL A   1      46.652  46.181  16.742  1.00  0.00    -0.322 N 
ATOM     17  H   UNL A   1      46.306  45.260  16.790  1.00  0.00     0.170 HD
ATOM     18  O   UNL A   1      48.614  45.406  16.049  1.00  0.00    -0.274 OA
BRANCH  16  19
ATOM     19  C   UNL A   1      45.686  47.180  16.767  1.00  0.00     0.092 A 
ATOM     20  N   UNL A   1      44.130  48.640  17.212  1.00  0.00    -0.258 N 
ATOM     21  N   UNL A   1      45.114  49.380  16.666  1.00  0.00    -0.178 NA
ATOM     22  C   UNL A   1      44.331  47.273  17.117  1.00  0.00     0.150 A 
ATOM     23  C   UNL A   1      46.052  48.490  16.386  1.00  0.00     0.162 A 
BRANCH  20  24
ATOM     24  C   UNL A   1      43.016  49.392  17.747  1.00  0.00     0.142 C 
ATOM     25  C   UNL A   1      43.398  50.122  19.017  1.00  0.00     0.029 C 
ENDBRANCH  20  24
BRANCH  22  26
ATOM     26  C   UNL A   1      43.303  46.232  17.235  1.00  0.00     0.276 C 
ATOM     27  O   UNL A   1      42.196  46.339  16.710  1.00  0.00    -0.267 OA
ATOM     28  N   UNL A   1      43.721  44.998  17.705  1.00  0.00    -0.318 N 
ATOM     29  H   UNL A   1      44.137  44.376  17.065  1.00  0.00     0.170 HD
BRANCH  28  30
ATOM     30  C   UNL A   1      43.586  44.592  19.016  1.00  0.00     0.082 A 
ATOM     31  C   UNL A   1      44.500  44.648  20.081  1.00  0.00     0.161 A 
ATOM     32  C   UNL A   1      42.477  43.942  19.522  1.00  0.00     0.059 A 
ATOM     33  N   UNL A   1      44.119  43.871  21.097  1.00  0.00    -0.179 NA
ATOM     34  N   UNL A   1      42.947  43.353  20.676  1.00  0.00    -0.271 N 
ATOM     35  C   UNL A   1      41.128  43.660  18.969  1.00  0.00     0.068 C 
ATOM     36  C   UNL A   1      42.522  42.081  21.221  1.00  0.00     0.174 C 
ENDBRANCH  28  30
ENDBRANCH  22  26
ENDBRANCH  16  19
ENDBRANCH  10  15
ENDBRANCH   7   9
ENDBRANCH   6   7
ENDBRANCH   5   6
ENDBRANCH   4   5
ENDBRANCH   3   4
ENDBRANCH   2   3
ENDBRANCH   1   2
BRANCH   1  37
ATOM     37  O   UNL A   1      45.720  43.809  24.379  1.00  0.00    -0.377 OA
BRANCH  37  38
ATOM     38  C   UNL A   1      44.948  42.925  25.165  1.00  0.00     0.188 C 
BRANCH  38  39
ATOM     39  C   UNL A   1      45.740  41.763  25.788  1.00  0.00     0.188 C 
BRANCH  39  40
ATOM     40  O   UNL A   1      46.271  42.027  27.079  1.00  0.00    -0.376 OA
BRANCH  40  41
ATOM     41  C   UNL A   1      45.774  41.438  28.269  1.00  0.00     0.202 C 
BRANCH  41  42
ATOM     42  C   UNL A   1      44.403  40.770  28.367  1.00  0.00     0.261 C 
BRANCH  42  43
ATOM     43  O   UNL A   1      44.294  39.497  27.768  1.00  0.00    -0.460 OA
BRANCH  43  44
ATOM     44  C   UNL A   1      43.177  38.836  28.053  1.00  0.00     0.338 C 
ATOM     45  O   UNL A   1      42.028  39.298  28.127  1.00  0.00    -0.246 OA
BRANCH  44  46
ATOM     46  C   UNL A   1      43.527  37.477  28.415  1.00  0.00     0.060 A 
ATOM     47  C   UNL A   1      43.125  36.493  27.515  1.00  0.00     0.016 A 
ATOM     48  C   UNL A   1      43.761  37.223  29.776  1.00  0.00     0.016 A 
ATOM     49  C   UNL A   1      42.650  35.323  28.045  1.00  0.00     0.010 A 
ATOM     50  C   UNL A   1      43.254  36.070  30.303  1.00  0.00     0.010 A 
ATOM     51  C   UNL A   1      42.619  35.181  29.440  1.00  0.00    -0.014 A 
BRANCH  51  52
ATOM     52  C   UNL A   1      42.092  33.952  29.976  1.00  0.00     0.031 A 
ATOM     53  C   UNL A   1      40.725  34.177  30.476  1.00  0.00     0.074 A 
ATOM     54  C   UNL A   1      42.738  32.774  29.944  1.00  0.00     0.049 A 
ATOM     55  N   UNL A   1      40.389  34.410  31.700  1.00  0.00    -0.248 NA
ATOM     56  C   UNL A   1      39.676  34.512  29.496  1.00  0.00     0.031 C 
ATOM     57  C   UNL A   1      43.983  32.433  29.256  1.00  0.00     0.029 A 
ATOM     58  N   UNL A   1      42.354  31.585  30.478  1.00  0.00    -0.354 N 
ATOM     59  C   UNL A   1      39.017  34.590  31.658  1.00  0.00     0.074 A 
ATOM     60  C   UNL A   1      38.719  34.963  30.306  1.00  0.00     0.031 C 
ATOM     61  C   UNL A   1      44.122  31.085  29.230  1.00  0.00     0.029 A 
ATOM     62  C   UNL A   1      43.046  30.476  30.000  1.00  0.00     0.049 A 
ATOM     63  H   UNL A   1      41.638  31.513  31.151  1.00  0.00     0.167 HD
ATOM     64  C   UNL A   1      38.237  34.037  32.624  1.00  0.00     0.034 A 
ATOM     65  C   UNL A   1      42.704  29.167  30.179  1.00  0.00     0.034 A 
ATOM     66  C   UNL A   1      39.038  33.707  33.792  1.00  0.00     0.049 A 
ATOM     67  C   UNL A   1      41.812  29.121  31.369  1.00  0.00     0.074 A 
ATOM     68  C   UNL A   1      39.892  34.428  34.607  1.00  0.00     0.029 A 
ATOM     69  N   UNL A   1      39.356  32.380  34.004  1.00  0.00    -0.354 N 
ATOM     70  N   UNL A   1      42.223  29.394  32.578  1.00  0.00    -0.248 NA
ATOM     71  C   UNL A   1      40.381  29.292  31.155  1.00  0.00     0.031 C 
ATOM     72  C   UNL A   1      40.976  33.544  34.887  1.00  0.00     0.029 A 
ATOM     73  C   UNL A   1      40.687  32.298  34.328  1.00  0.00     0.049 A 
ATOM     74  H   UNL A   1      38.732  31.621  33.935  1.00  0.00     0.167 HD
ATOM     75  C   UNL A   1      41.225  30.183  33.129  1.00  0.00     0.074 A 
ATOM     76  C   UNL A   1      40.076  30.013  32.239  1.00  0.00     0.031 C 
ATOM     77  C   UNL A   1      41.514  31.130  34.073  1.00  0.00     0.034 A 
BRANCH  64  78
ATOM     78  C   UNL A   1      36.901  33.375  32.338  1.00  0.00     0.023 A 
ATOM     79  C   UNL A   1      36.837  32.610  31.162  1.00  0.00     0.031 A 
ATOM     80  C   UNL A   1      35.653  33.670  32.939  1.00  0.00     0.131 A 
ATOM     81  C   UNL A   1      35.605  32.323  30.555  1.00  0.00     0.055 A 
ATOM     82  C   UNL A   1      34.429  33.327  32.363  1.00  0.00     0.041 A 
ATOM     83  F   UNL A   1      35.520  34.360  34.076  1.00  0.00    -0.206 F 
ATOM     84  C   UNL A   1      34.398  32.685  31.141  1.00  0.00     0.022 A 
BRANCH  81  85
ATOM     85  S   UNL A   1      35.631  31.635  28.886  1.00  0.00     0.124 S 
ATOM     86  O   UNL A   1      36.319  32.695  28.156  1.00  0.00    -0.237 OA
ATOM     87  O   UNL A   1      36.378  30.398  29.087  1.00  0.00    -0.237 OA
ATOM     88  O   UNL A   1      34.215  31.468  28.569  1.00  0.00    -0.744 OA
ENDBRANCH  81  85
ENDBRANCH  64  78
BRANCH  65  89
ATOM     89  C   UNL A   1      42.819  28.037  29.205  1.00  0.00     0.023 A 
ATOM     90  C   UNL A   1      42.753  28.215  27.801  1.00  0.00     0.031 A 
ATOM     91  C   UNL A   1      43.262  26.772  29.654  1.00  0.00     0.131 A 
ATOM     92  C   UNL A   1      43.125  27.162  26.925  1.00  0.00     0.055 A 
ATOM     93  C   UNL A   1      43.628  25.740  28.786  1.00  0.00     0.041 A 
ATOM     94  F   UNL A   1      43.444  26.520  30.959  1.00  0.00    -0.206 F 
ATOM     95  C   UNL A   1      43.571  25.934  27.416  1.00  0.00     0.022 A 
BRANCH  92  96
ATOM     96  S   UNL A   1      43.122  27.395  25.112  1.00  0.00     0.124 S 
ATOM     97  O   UNL A   1      44.536  27.598  24.822  1.00  0.00    -0.237 OA
ATOM     98  O   UNL A   1      42.531  26.150  24.635  1.00  0.00    -0.237 OA
ATOM     99  O   UNL A   1      42.283  28.579  24.922  1.00  0.00    -0.744 OA
ENDBRANCH  92  96
ENDBRANCH  65  89
BRANCH  77 100
ATOM    100  C   UNL A   1      42.851  31.063  34.788  1.00  0.00     0.023 A 
ATOM    101  C   UNL A   1      44.072  31.601  34.317  1.00  0.00     0.031 A 
ATOM    102  C   UNL A   1      42.848  30.494  36.076  1.00  0.00     0.131 A 
ATOM    103  C   UNL A   1      45.225  31.542  35.126  1.00  0.00     0.055 A 
ATOM    104  C   UNL A   1      43.983  30.462  36.881  1.00  0.00     0.041 A 
ATOM    105  F   UNL A   1      41.718  29.980  36.589  1.00  0.00    -0.206 F 
ATOM    106  C   UNL A   1      45.180  30.980  36.406  1.00  0.00     0.022 A 
BRANCH 103 107
ATOM    107  S   UNL A   1      46.832  32.160  34.523  1.00  0.00     0.124 S 
ATOM    108  O   UNL A   1      46.928  33.493  35.103  1.00  0.00    -0.237 OA
ATOM    109  O   UNL A   1      47.765  31.166  35.045  1.00  0.00    -0.237 OA
ATOM    110  O   UNL A   1      46.676  32.139  33.066  1.00  0.00    -0.744 OA
ENDBRANCH 103 107
ENDBRANCH  77 100
ENDBRANCH  51  52
ENDBRANCH  44  46
ENDBRANCH  43  44
ENDBRANCH  42  43
ENDBRANCH  41  42
ENDBRANCH  40  41
ENDBRANCH  39  40
ENDBRANCH  38  39
ENDBRANCH  37  38
ENDBRANCH   1  37
TORSDOF 28
ENDMDL
