MODEL 1
REMARK VINA RESULT:      -8.8      0.000      0.000
REMARK SMILES COc1cccc([C@@H]2C[N@@H+](Cc3nccn3C)C[C@H]2C(=O)OCCOCCOCCOCCOC(=O)c2ccc(-c3c4nc(c(-c5cc(S(=O)(=O)[O-])ccc5F)c5ccc([nH]5)c(-c5cc(S(=O)(=O)[O-])ccc5F)c5nc(c(-c6cc(S(=O)(=O)[O-])ccc6F)c6ccc3[nH]6)C=C5)C=C4)cc2)c1
REMARK SMILES IDX 29 1 28 2 27 3 26 4 25 5 24 6 23 7 22 8 20 9 21 10 19 11
REMARK SMILES IDX 8 12 9 13 10 14 18 15 7 17 3 18 4 19 100 20 5 21 6 22 2 23
REMARK SMILES IDX 1 24 11 25 12 26 13 27 16 28 14 29 15 30 17 31 30 32 31 33
REMARK SMILES IDX 32 34 33 35 34 36 35 37 36 38 37 39 38 40 99 41 39 42 98 43
REMARK SMILES IDX 40 44 41 45 42 46 92 47 43 48 97 49 91 50 93 51 44 52 96 53
REMARK SMILES IDX 90 54 89 55 45 57 77 58 57 59 76 60 58 61 61 62 75 63 94 64
REMARK SMILES IDX 59 65 60 66 74 68 95 69 62 70 46 71 47 72 55 73 48 74 54 75
REMARK SMILES IDX 56 76 53 77 49 78 50 79 51 80 52 81 78 82 79 83 87 84 80 85
REMARK SMILES IDX 86 86 88 87 85 88 81 89 82 90 83 91 84 92 63 93 64 94 72 95
REMARK SMILES IDX 65 96 71 97 73 98 70 99 66 100 67 101 68 102 69 103
REMARK H PARENT 10 16 93 56 61 67
REMARK Flexibility Score: inf
ROOT
ATOM      1  C   UNL A   1      43.594  21.645  25.898  1.00  0.00     0.188 C 
ENDROOT
BRANCH   1   2
ATOM      2  O   UNL A   1      42.506  20.873  25.419  1.00  0.00    -0.377 OA
BRANCH   2   3
ATOM      3  C   UNL A   1      41.590  20.310  26.332  1.00  0.00     0.188 C 
BRANCH   3   4
ATOM      4  C   UNL A   1      40.100  20.523  26.047  1.00  0.00     0.188 C 
BRANCH   4   5
ATOM      5  O   UNL A   1      39.593  21.835  25.916  1.00  0.00    -0.376 OA
BRANCH   5   6
ATOM      6  C   UNL A   1      38.200  22.076  26.024  1.00  0.00     0.202 C 
BRANCH   6   7
ATOM      7  C   UNL A   1      37.430  23.059  25.120  1.00  0.00     0.261 C 
BRANCH   7   8
ATOM      8  O   UNL A   1      36.780  22.547  23.934  1.00  0.00    -0.463 OA
BRANCH   8   9
ATOM      9  C   UNL A   1      35.493  22.908  23.738  1.00  0.00     0.315 C 
ATOM     10  O   UNL A   1      35.069  23.325  22.661  1.00  0.00    -0.252 OA
BRANCH   9  11
ATOM     11  C   UNL A   1      34.576  22.874  24.952  1.00  0.00     0.167 C 
ATOM     12  C   UNL A   1      33.124  23.397  24.968  1.00  0.00     0.094 C 
ATOM     13  C   UNL A   1      32.420  22.398  25.902  1.00  0.00     0.272 C 
ATOM     14  N   UNL A   1      33.082  21.105  25.703  1.00  0.00    -0.327 N 
ATOM     15  C   UNL A   1      34.474  21.406  25.380  1.00  0.00     0.278 C 
ATOM     16  H   UNL A   1      33.043  20.539  26.550  1.00  0.00     0.348 HD
BRANCH  12  17
ATOM     17  C   UNL A   1      32.827  24.813  25.465  1.00  0.00    -0.035 A 
ATOM     18  C   UNL A   1      33.387  27.173  25.759  1.00  0.00     0.119 A 
ATOM     19  C   UNL A   1      32.137  27.403  26.330  1.00  0.00     0.046 A 
ATOM     20  C   UNL A   1      33.736  25.877  25.358  1.00  0.00     0.050 A 
ATOM     21  C   UNL A   1      31.236  26.354  26.492  1.00  0.00     0.004 A 
ATOM     22  C   UNL A   1      31.577  25.069  26.060  1.00  0.00     0.004 A 
BRANCH  18  23
ATOM     23  O   UNL A   1      34.198  28.272  25.670  1.00  0.00    -0.497 OA
ATOM     24  C   UNL A   1      34.410  28.989  26.882  1.00  0.00     0.278 C 
ENDBRANCH  18  23
ENDBRANCH  12  17
BRANCH  14  25
ATOM     25  C   UNL A   1      32.389  20.228  24.737  1.00  0.00     0.339 C 
BRANCH  25  26
ATOM     26  C   UNL A   1      32.639  18.751  24.848  1.00  0.00     0.164 A 
ATOM     27  N   UNL A   1      32.871  18.110  25.982  1.00  0.00    -0.236 NA
ATOM     28  N   UNL A   1      32.668  17.866  23.793  1.00  0.00    -0.333 N 
ATOM     29  C   UNL A   1      33.006  16.788  25.656  1.00  0.00     0.131 A 
ATOM     30  C   UNL A   1      32.863  16.611  24.303  1.00  0.00     0.107 A 
ATOM     31  C   UNL A   1      32.529  18.168  22.392  1.00  0.00     0.151 C 
ENDBRANCH  25  26
ENDBRANCH  14  25
ENDBRANCH   9  11
ENDBRANCH   8   9
ENDBRANCH   7   8
ENDBRANCH   6   7
ENDBRANCH   5   6
ENDBRANCH   4   5
ENDBRANCH   3   4
ENDBRANCH   2   3
ENDBRANCH   1   2
BRANCH   1  32
ATOM     32  C   UNL A   1      43.459  23.172  26.034  1.00  0.00     0.188 C 
BRANCH  32  33
ATOM     33  O   UNL A   1      44.550  23.810  26.677  1.00  0.00    -0.376 OA
BRANCH  33  34
ATOM     34  C   UNL A   1      45.869  23.555  26.220  1.00  0.00     0.202 C 
BRANCH  34  35
ATOM     35  C   UNL A   1      46.471  24.446  25.122  1.00  0.00     0.261 C 
BRANCH  35  36
ATOM     36  O   UNL A   1      45.669  25.526  24.631  1.00  0.00    -0.460 OA
BRANCH  36  37
ATOM     37  C   UNL A   1      46.146  26.779  24.759  1.00  0.00     0.338 C 
ATOM     38  O   UNL A   1      46.718  27.438  23.905  1.00  0.00    -0.246 OA
BRANCH  37  39
ATOM     39  C   UNL A   1      45.702  27.284  26.073  1.00  0.00     0.060 A 
ATOM     40  C   UNL A   1      44.331  27.377  26.350  1.00  0.00     0.016 A 
ATOM     41  C   UNL A   1      46.649  27.666  27.026  1.00  0.00     0.016 A 
ATOM     42  C   UNL A   1      43.902  27.909  27.568  1.00  0.00     0.010 A 
ATOM     43  C   UNL A   1      46.218  28.217  28.233  1.00  0.00     0.010 A 
ATOM     44  C   UNL A   1      44.844  28.383  28.489  1.00  0.00    -0.014 A 
BRANCH  44  45
ATOM     45  C   UNL A   1      44.430  29.290  29.586  1.00  0.00     0.031 A 
ATOM     46  C   UNL A   1      44.136  28.666  30.925  1.00  0.00     0.074 A 
ATOM     47  C   UNL A   1      44.294  30.615  29.405  1.00  0.00     0.049 A 
ATOM     48  N   UNL A   1      43.602  29.195  31.993  1.00  0.00    -0.248 NA
ATOM     49  C   UNL A   1      44.483  27.242  31.064  1.00  0.00     0.031 C 
ATOM     50  C   UNL A   1      44.615  31.337  28.176  1.00  0.00     0.029 A 
ATOM     51  N   UNL A   1      43.826  31.585  30.256  1.00  0.00    -0.354 N 
ATOM     52  C   UNL A   1      43.530  28.163  32.925  1.00  0.00     0.074 A 
ATOM     53  C   UNL A   1      44.046  26.974  32.283  1.00  0.00     0.031 C 
ATOM     54  C   UNL A   1      44.314  32.636  28.346  1.00  0.00     0.029 A 
ATOM     55  C   UNL A   1      43.727  32.827  29.673  1.00  0.00     0.049 A 
ATOM     56  H   UNL A   1      43.586  31.409  31.194  1.00  0.00     0.167 HD
ATOM     57  C   UNL A   1      43.076  28.209  34.200  1.00  0.00     0.034 A 
ATOM     58  C   UNL A   1      43.183  33.970  30.144  1.00  0.00     0.034 A 
ATOM     59  C   UNL A   1      42.550  29.402  34.812  1.00  0.00     0.049 A 
ATOM     60  C   UNL A   1      42.577  33.973  31.532  1.00  0.00     0.074 A 
ATOM     61  C   UNL A   1      42.058  29.568  36.094  1.00  0.00     0.029 A 
ATOM     62  N   UNL A   1      42.433  30.632  34.177  1.00  0.00    -0.354 N 
ATOM     63  N   UNL A   1      42.494  32.991  32.402  1.00  0.00    -0.248 NA
ATOM     64  C   UNL A   1      41.991  35.236  32.004  1.00  0.00     0.031 C 
ATOM     65  C   UNL A   1      41.568  30.871  36.206  1.00  0.00     0.029 A 
ATOM     66  C   UNL A   1      41.849  31.552  35.031  1.00  0.00     0.049 A 
ATOM     67  H   UNL A   1      42.722  30.822  33.256  1.00  0.00     0.167 HD
ATOM     68  C   UNL A   1      41.896  33.534  33.537  1.00  0.00     0.074 A 
ATOM     69  C   UNL A   1      41.630  34.926  33.241  1.00  0.00     0.031 C 
ATOM     70  C   UNL A   1      41.607  32.941  34.723  1.00  0.00     0.034 A 
BRANCH  57  71
ATOM     71  C   UNL A   1      43.071  26.919  34.984  1.00  0.00     0.023 A 
ATOM     72  C   UNL A   1      44.222  26.443  35.635  1.00  0.00     0.031 A 
ATOM     73  C   UNL A   1      41.904  26.137  35.054  1.00  0.00     0.131 A 
ATOM     74  C   UNL A   1      44.202  25.187  36.262  1.00  0.00     0.055 A 
ATOM     75  C   UNL A   1      41.867  24.931  35.756  1.00  0.00     0.041 A 
ATOM     76  F   UNL A   1      40.783  26.525  34.428  1.00  0.00    -0.206 F 
ATOM     77  C   UNL A   1      43.024  24.442  36.351  1.00  0.00     0.022 A 
BRANCH  74  78
ATOM     78  S   UNL A   1      45.773  24.475  36.822  1.00  0.00     0.124 S 
ATOM     79  O   UNL A   1      45.916  23.332  35.924  1.00  0.00    -0.237 OA
ATOM     80  O   UNL A   1      46.710  25.573  36.612  1.00  0.00    -0.237 OA
ATOM     81  O   UNL A   1      45.515  24.132  38.219  1.00  0.00    -0.744 OA
ENDBRANCH  74  78
ENDBRANCH  57  71
BRANCH  58  82
ATOM     82  C   UNL A   1      43.133  35.195  29.294  1.00  0.00     0.023 A 
ATOM     83  C   UNL A   1      44.254  36.029  29.157  1.00  0.00     0.031 A 
ATOM     84  C   UNL A   1      41.942  35.588  28.654  1.00  0.00     0.131 A 
ATOM     85  C   UNL A   1      44.149  37.235  28.445  1.00  0.00     0.055 A 
ATOM     86  C   UNL A   1      41.861  36.756  27.895  1.00  0.00     0.041 A 
ATOM     87  F   UNL A   1      40.835  34.834  28.757  1.00  0.00    -0.206 F 
ATOM     88  C   UNL A   1      42.965  37.596  27.799  1.00  0.00     0.022 A 
BRANCH  85  89
ATOM     89  S   UNL A   1      45.556  38.379  28.466  1.00  0.00     0.124 S 
ATOM     90  O   UNL A   1      46.081  38.227  27.114  1.00  0.00    -0.237 OA
ATOM     91  O   UNL A   1      44.907  39.651  28.765  1.00  0.00    -0.237 OA
ATOM     92  O   UNL A   1      46.407  37.852  29.530  1.00  0.00    -0.744 OA
ENDBRANCH  85  89
ENDBRANCH  58  82
BRANCH  70  93
ATOM     93  C   UNL A   1      41.058  33.808  35.832  1.00  0.00     0.023 A 
ATOM     94  C   UNL A   1      41.888  34.535  36.701  1.00  0.00     0.031 A 
ATOM     95  C   UNL A   1      39.664  33.944  35.976  1.00  0.00     0.131 A 
ATOM     96  C   UNL A   1      41.314  35.346  37.694  1.00  0.00     0.055 A 
ATOM     97  C   UNL A   1      39.102  34.797  36.924  1.00  0.00     0.041 A 
ATOM     98  F   UNL A   1      38.826  33.267  35.174  1.00  0.00    -0.206 F 
ATOM     99  C   UNL A   1      39.928  35.498  37.795  1.00  0.00     0.022 A 
BRANCH  96 100
ATOM    100  S   UNL A   1      42.400  36.160  38.897  1.00  0.00     0.124 S 
ATOM    101  O   UNL A   1      41.480  36.443  39.994  1.00  0.00    -0.237 OA
ATOM    102  O   UNL A   1      43.405  35.136  39.156  1.00  0.00    -0.237 OA
ATOM    103  O   UNL A   1      42.887  37.337  38.179  1.00  0.00    -0.744 OA
ENDBRANCH  96 100
ENDBRANCH  70  93
ENDBRANCH  44  45
ENDBRANCH  37  39
ENDBRANCH  36  37
ENDBRANCH  35  36
ENDBRANCH  34  35
ENDBRANCH  33  34
ENDBRANCH  32  33
ENDBRANCH   1  32
TORSDOF 27
ENDMDL
MODEL 2
REMARK VINA RESULT:      -8.7      5.710     11.421
REMARK SMILES COc1cccc([C@@H]2C[N@@H+](Cc3nccn3C)C[C@H]2C(=O)OCCOCCOCCOCCOC(=O)c2ccc(-c3c4nc(c(-c5cc(S(=O)(=O)[O-])ccc5F)c5ccc([nH]5)c(-c5cc(S(=O)(=O)[O-])ccc5F)c5nc(c(-c6cc(S(=O)(=O)[O-])ccc6F)c6ccc3[nH]6)C=C5)C=C4)cc2)c1
REMARK SMILES IDX 29 1 28 2 27 3 26 4 25 5 24 6 23 7 22 8 20 9 21 10 19 11
REMARK SMILES IDX 8 12 9 13 10 14 18 15 7 17 3 18 4 19 100 20 5 21 6 22 2 23
REMARK SMILES IDX 1 24 11 25 12 26 13 27 16 28 14 29 15 30 17 31 30 32 31 33
REMARK SMILES IDX 32 34 33 35 34 36 35 37 36 38 37 39 38 40 99 41 39 42 98 43
REMARK SMILES IDX 40 44 41 45 42 46 92 47 43 48 97 49 91 50 93 51 44 52 96 53
REMARK SMILES IDX 90 54 89 55 45 57 77 58 57 59 76 60 58 61 61 62 75 63 94 64
REMARK SMILES IDX 59 65 60 66 74 68 95 69 62 70 46 71 47 72 55 73 48 74 54 75
REMARK SMILES IDX 56 76 53 77 49 78 50 79 51 80 52 81 78 82 79 83 87 84 80 85
REMARK SMILES IDX 86 86 88 87 85 88 81 89 82 90 83 91 84 92 63 93 64 94 72 95
REMARK SMILES IDX 65 96 71 97 73 98 70 99 66 100 67 101 68 102 69 103
REMARK H PARENT 10 16 93 56 61 67
REMARK Flexibility Score: inf
ROOT
ATOM      1  C   UNL A   1      34.575  34.956  28.668  1.00  0.00     0.188 C 
ENDROOT
BRANCH   1   2
ATOM      2  O   UNL A   1      34.511  34.024  27.602  1.00  0.00    -0.377 OA
BRANCH   2   3
ATOM      3  C   UNL A   1      33.782  32.827  27.760  1.00  0.00     0.188 C 
BRANCH   3   4
ATOM      4  C   UNL A   1      34.434  31.718  28.592  1.00  0.00     0.188 C 
BRANCH   4   5
ATOM      5  O   UNL A   1      35.571  31.043  28.093  1.00  0.00    -0.376 OA
BRANCH   5   6
ATOM      6  C   UNL A   1      35.418  29.872  27.310  1.00  0.00     0.202 C 
BRANCH   6   7
ATOM      7  C   UNL A   1      34.058  29.200  27.033  1.00  0.00     0.261 C 
BRANCH   7   8
ATOM      8  O   UNL A   1      33.587  29.122  25.670  1.00  0.00    -0.463 OA
BRANCH   8   9
ATOM      9  C   UNL A   1      32.497  28.358  25.441  1.00  0.00     0.315 C 
ATOM     10  O   UNL A   1      31.694  28.051  26.322  1.00  0.00    -0.252 OA
BRANCH   9  11
ATOM     11  C   UNL A   1      32.335  27.792  24.038  1.00  0.00     0.167 C 
ATOM     12  C   UNL A   1      31.470  26.563  23.684  1.00  0.00     0.094 C 
ATOM     13  C   UNL A   1      30.906  26.940  22.303  1.00  0.00     0.272 C 
ATOM     14  N   UNL A   1      30.732  28.396  22.309  1.00  0.00    -0.327 N 
ATOM     15  C   UNL A   1      31.786  28.928  23.169  1.00  0.00     0.278 C 
ATOM     16  H   UNL A   1      30.832  28.781  21.370  1.00  0.00     0.348 HD
BRANCH  12  17
ATOM     17  C   UNL A   1      32.114  25.179  23.578  1.00  0.00    -0.035 A 
ATOM     18  C   UNL A   1      33.957  23.681  23.006  1.00  0.00     0.119 A 
ATOM     19  C   UNL A   1      33.246  22.600  23.524  1.00  0.00     0.046 A 
ATOM     20  C   UNL A   1      33.378  24.956  23.007  1.00  0.00     0.050 A 
ATOM     21  C   UNL A   1      31.971  22.789  24.050  1.00  0.00     0.004 A 
ATOM     22  C   UNL A   1      31.410  24.068  24.081  1.00  0.00     0.004 A 
BRANCH  18  23
ATOM     23  O   UNL A   1      35.190  23.376  22.495  1.00  0.00    -0.497 OA
ATOM     24  C   UNL A   1      36.192  23.034  23.447  1.00  0.00     0.278 C 
ENDBRANCH  18  23
ENDBRANCH  12  17
BRANCH  14  25
ATOM     25  C   UNL A   1      29.362  28.828  22.654  1.00  0.00     0.339 C 
BRANCH  25  26
ATOM     26  C   UNL A   1      28.891  30.138  22.088  1.00  0.00     0.164 A 
ATOM     27  N   UNL A   1      28.460  30.311  20.849  1.00  0.00    -0.236 NA
ATOM     28  N   UNL A   1      28.851  31.333  22.772  1.00  0.00    -0.333 N 
ATOM     29  C   UNL A   1      28.094  31.627  20.750  1.00  0.00     0.131 A 
ATOM     30  C   UNL A   1      28.310  32.275  21.940  1.00  0.00     0.107 A 
ATOM     31  C   UNL A   1      29.294  31.587  24.119  1.00  0.00     0.151 C 
ENDBRANCH  25  26
ENDBRANCH  14  25
ENDBRANCH   9  11
ENDBRANCH   8   9
ENDBRANCH   7   8
ENDBRANCH   6   7
ENDBRANCH   5   6
ENDBRANCH   4   5
ENDBRANCH   3   4
ENDBRANCH   2   3
ENDBRANCH   1   2
BRANCH   1  32
ATOM     32  C   UNL A   1      33.307  35.702  29.121  1.00  0.00     0.188 C 
BRANCH  32  33
ATOM     33  O   UNL A   1      32.623  35.103  30.209  1.00  0.00    -0.376 OA
BRANCH  33  34
ATOM     34  C   UNL A   1      32.489  35.824  31.424  1.00  0.00     0.202 C 
BRANCH  34  35
ATOM     35  C   UNL A   1      33.616  35.757  32.467  1.00  0.00     0.261 C 
BRANCH  35  36
ATOM     36  O   UNL A   1      34.757  34.948  32.159  1.00  0.00    -0.460 OA
BRANCH  36  37
ATOM     37  C   UNL A   1      34.683  33.626  32.405  1.00  0.00     0.338 C 
ATOM     38  O   UNL A   1      34.127  32.781  31.721  1.00  0.00    -0.246 OA
BRANCH  37  39
ATOM     39  C   UNL A   1      35.543  33.350  33.572  1.00  0.00     0.060 A 
ATOM     40  C   UNL A   1      35.483  34.192  34.690  1.00  0.00     0.016 A 
ATOM     41  C   UNL A   1      36.412  32.256  33.552  1.00  0.00     0.016 A 
ATOM     42  C   UNL A   1      36.336  33.974  35.774  1.00  0.00     0.010 A 
ATOM     43  C   UNL A   1      37.278  32.052  34.626  1.00  0.00     0.010 A 
ATOM     44  C   UNL A   1      37.275  32.937  35.720  1.00  0.00    -0.014 A 
BRANCH  44  45
ATOM     45  C   UNL A   1      38.429  32.922  36.650  1.00  0.00     0.031 A 
ATOM     46  C   UNL A   1      39.804  33.036  36.047  1.00  0.00     0.074 A 
ATOM     47  C   UNL A   1      38.274  32.788  37.979  1.00  0.00     0.049 A 
ATOM     48  N   UNL A   1      40.976  32.884  36.605  1.00  0.00    -0.248 NA
ATOM     49  C   UNL A   1      39.855  33.353  34.610  1.00  0.00     0.031 C 
ATOM     50  C   UNL A   1      36.993  32.738  38.680  1.00  0.00     0.029 A 
ATOM     51  N   UNL A   1      39.211  32.649  38.974  1.00  0.00    -0.354 N 
ATOM     52  C   UNL A   1      41.902  33.066  35.582  1.00  0.00     0.074 A 
ATOM     53  C   UNL A   1      41.155  33.308  34.369  1.00  0.00     0.031 C 
ATOM     54  C   UNL A   1      37.224  32.557  39.992  1.00  0.00     0.029 A 
ATOM     55  C   UNL A   1      38.665  32.421  40.215  1.00  0.00     0.049 A 
ATOM     56  H   UNL A   1      40.179  32.707  38.813  1.00  0.00     0.167 HD
ATOM     57  C   UNL A   1      43.255  33.035  35.655  1.00  0.00     0.034 A 
ATOM     58  C   UNL A   1      39.260  32.097  41.383  1.00  0.00     0.034 A 
ATOM     59  C   UNL A   1      43.977  32.774  36.873  1.00  0.00     0.049 A 
ATOM     60  C   UNL A   1      40.767  31.956  41.420  1.00  0.00     0.074 A 
ATOM     61  C   UNL A   1      45.345  32.714  37.067  1.00  0.00     0.029 A 
ATOM     62  N   UNL A   1      43.388  32.513  38.103  1.00  0.00    -0.354 N 
ATOM     63  N   UNL A   1      41.638  32.110  40.447  1.00  0.00    -0.248 NA
ATOM     64  C   UNL A   1      41.374  31.597  42.710  1.00  0.00     0.031 C 
ATOM     65  C   UNL A   1      45.581  32.335  38.391  1.00  0.00     0.029 A 
ATOM     66  C   UNL A   1      44.364  32.262  39.052  1.00  0.00     0.049 A 
ATOM     67  H   UNL A   1      42.419  32.508  38.275  1.00  0.00     0.167 HD
ATOM     68  C   UNL A   1      42.893  31.919  41.023  1.00  0.00     0.074 A 
ATOM     69  C   UNL A   1      42.668  31.628  42.423  1.00  0.00     0.031 C 
ATOM     70  C   UNL A   1      44.121  31.991  40.449  1.00  0.00     0.034 A 
BRANCH  57  71
ATOM     71  C   UNL A   1      44.025  33.224  34.371  1.00  0.00     0.023 A 
ATOM     72  C   UNL A   1      44.392  32.137  33.559  1.00  0.00     0.031 A 
ATOM     73  C   UNL A   1      44.428  34.511  33.969  1.00  0.00     0.131 A 
ATOM     74  C   UNL A   1      45.199  32.348  32.430  1.00  0.00     0.055 A 
ATOM     75  C   UNL A   1      45.154  34.722  32.797  1.00  0.00     0.041 A 
ATOM     76  F   UNL A   1      44.133  35.584  34.719  1.00  0.00    -0.206 F 
ATOM     77  C   UNL A   1      45.558  33.636  32.028  1.00  0.00     0.022 A 
BRANCH  74  78
ATOM     78  S   UNL A   1      45.899  30.903  31.585  1.00  0.00     0.124 S 
ATOM     79  O   UNL A   1      46.542  31.522  30.428  1.00  0.00    -0.237 OA
ATOM     80  O   UNL A   1      46.796  30.352  32.594  1.00  0.00    -0.237 OA
ATOM     81  O   UNL A   1      44.728  30.086  31.276  1.00  0.00    -0.744 OA
ENDBRANCH  74  78
ENDBRANCH  57  71
BRANCH  58  82
ATOM     82  C   UNL A   1      38.445  31.833  42.604  1.00  0.00     0.023 A 
ATOM     83  C   UNL A   1      38.220  32.838  43.558  1.00  0.00     0.031 A 
ATOM     84  C   UNL A   1      37.929  30.550  42.871  1.00  0.00     0.131 A 
ATOM     85  C   UNL A   1      37.547  32.534  44.753  1.00  0.00     0.055 A 
ATOM     86  C   UNL A   1      37.206  30.269  44.031  1.00  0.00     0.041 A 
ATOM     87  F   UNL A   1      38.120  29.547  41.999  1.00  0.00    -0.206 F 
ATOM     88  C   UNL A   1      37.024  31.261  44.988  1.00  0.00     0.022 A 
BRANCH  85  89
ATOM     89  S   UNL A   1      37.459  33.804  46.045  1.00  0.00     0.124 S 
ATOM     90  O   UNL A   1      36.936  33.042  47.173  1.00  0.00    -0.237 OA
ATOM     91  O   UNL A   1      38.851  34.230  46.145  1.00  0.00    -0.237 OA
ATOM     92  O   UNL A   1      36.545  34.797  45.484  1.00  0.00    -0.744 OA
ENDBRANCH  85  89
ENDBRANCH  58  82
BRANCH  70  93
ATOM     93  C   UNL A   1      45.329  31.851  41.345  1.00  0.00     0.023 A 
ATOM     94  C   UNL A   1      45.922  32.949  41.988  1.00  0.00     0.031 A 
ATOM     95  C   UNL A   1      45.856  30.570  41.597  1.00  0.00     0.131 A 
ATOM     96  C   UNL A   1      47.026  32.747  42.832  1.00  0.00     0.055 A 
ATOM     97  C   UNL A   1      46.914  30.370  42.483  1.00  0.00     0.041 A 
ATOM     98  F   UNL A   1      45.329  29.486  41.004  1.00  0.00    -0.206 F 
ATOM     99  C   UNL A   1      47.510  31.463  43.100  1.00  0.00     0.022 A 
BRANCH  96 100
ATOM    100  S   UNL A   1      47.868  34.192  43.535  1.00  0.00     0.124 S 
ATOM    101  O   UNL A   1      48.583  33.607  44.664  1.00  0.00    -0.237 OA
ATOM    102  O   UNL A   1      48.695  34.647  42.423  1.00  0.00    -0.237 OA
ATOM    103  O   UNL A   1      46.770  35.088  43.895  1.00  0.00    -0.744 OA
ENDBRANCH  96 100
ENDBRANCH  70  93
ENDBRANCH  44  45
ENDBRANCH  37  39
ENDBRANCH  36  37
ENDBRANCH  35  36
ENDBRANCH  34  35
ENDBRANCH  33  34
ENDBRANCH  32  33
ENDBRANCH   1  32
TORSDOF 27
ENDMDL
MODEL 3
REMARK VINA RESULT:      -8.4      4.909      9.289
REMARK SMILES COc1cccc([C@@H]2C[N@@H+](Cc3nccn3C)C[C@H]2C(=O)OCCOCCOCCOCCOC(=O)c2ccc(-c3c4nc(c(-c5cc(S(=O)(=O)[O-])ccc5F)c5ccc([nH]5)c(-c5cc(S(=O)(=O)[O-])ccc5F)c5nc(c(-c6cc(S(=O)(=O)[O-])ccc6F)c6ccc3[nH]6)C=C5)C=C4)cc2)c1
REMARK SMILES IDX 29 1 28 2 27 3 26 4 25 5 24 6 23 7 22 8 20 9 21 10 19 11
REMARK SMILES IDX 8 12 9 13 10 14 18 15 7 17 3 18 4 19 100 20 5 21 6 22 2 23
REMARK SMILES IDX 1 24 11 25 12 26 13 27 16 28 14 29 15 30 17 31 30 32 31 33
REMARK SMILES IDX 32 34 33 35 34 36 35 37 36 38 37 39 38 40 99 41 39 42 98 43
REMARK SMILES IDX 40 44 41 45 42 46 92 47 43 48 97 49 91 50 93 51 44 52 96 53
REMARK SMILES IDX 90 54 89 55 45 57 77 58 57 59 76 60 58 61 61 62 75 63 94 64
REMARK SMILES IDX 59 65 60 66 74 68 95 69 62 70 46 71 47 72 55 73 48 74 54 75
REMARK SMILES IDX 56 76 53 77 49 78 50 79 51 80 52 81 78 82 79 83 87 84 80 85
REMARK SMILES IDX 86 86 88 87 85 88 81 89 82 90 83 91 84 92 63 93 64 94 72 95
REMARK SMILES IDX 65 96 71 97 73 98 70 99 66 100 67 101 68 102 69 103
REMARK H PARENT 10 16 93 56 61 67
REMARK Flexibility Score: inf
ROOT
ATOM      1  C   UNL A   1      34.614  32.091  27.631  1.00  0.00     0.188 C 
ENDROOT
BRANCH   1   2
ATOM      2  O   UNL A   1      33.451  31.361  27.277  1.00  0.00    -0.377 OA
BRANCH   2   3
ATOM      3  C   UNL A   1      33.386  29.976  27.538  1.00  0.00     0.188 C 
BRANCH   3   4
ATOM      4  C   UNL A   1      32.138  29.232  27.052  1.00  0.00     0.188 C 
BRANCH   4   5
ATOM      5  O   UNL A   1      31.797  29.257  25.681  1.00  0.00    -0.376 OA
BRANCH   5   6
ATOM      6  C   UNL A   1      32.717  28.793  24.708  1.00  0.00     0.202 C 
BRANCH   6   7
ATOM      7  C   UNL A   1      32.654  27.390  24.073  1.00  0.00     0.261 C 
BRANCH   7   8
ATOM      8  O   UNL A   1      33.886  26.660  23.880  1.00  0.00    -0.463 OA
BRANCH   8   9
ATOM      9  C   UNL A   1      34.150  25.664  24.754  1.00  0.00     0.315 C 
ATOM     10  O   UNL A   1      33.977  25.771  25.967  1.00  0.00    -0.252 OA
BRANCH   9  11
ATOM     11  C   UNL A   1      34.778  24.399  24.186  1.00  0.00     0.167 C 
ATOM     12  C   UNL A   1      35.153  23.156  25.022  1.00  0.00     0.094 C 
ATOM     13  C   UNL A   1      34.841  22.000  24.057  1.00  0.00     0.272 C 
ATOM     14  N   UNL A   1      33.696  22.431  23.249  1.00  0.00    -0.327 N 
ATOM     15  C   UNL A   1      33.817  23.880  23.111  1.00  0.00     0.278 C 
ATOM     16  H   UNL A   1      33.715  21.998  22.325  1.00  0.00     0.348 HD
BRANCH  12  17
ATOM     17  C   UNL A   1      36.585  22.983  25.533  1.00  0.00    -0.035 A 
ATOM     18  C   UNL A   1      38.631  21.690  25.862  1.00  0.00     0.119 A 
ATOM     19  C   UNL A   1      39.252  22.805  26.420  1.00  0.00     0.046 A 
ATOM     20  C   UNL A   1      37.295  21.775  25.451  1.00  0.00     0.050 A 
ATOM     21  C   UNL A   1      38.552  24.001  26.557  1.00  0.00     0.004 A 
ATOM     22  C   UNL A   1      37.231  24.091  26.115  1.00  0.00     0.004 A 
BRANCH  18  23
ATOM     23  O   UNL A   1      39.406  20.563  25.796  1.00  0.00    -0.497 OA
ATOM     24  C   UNL A   1      40.632  20.608  26.520  1.00  0.00     0.278 C 
ENDBRANCH  18  23
ENDBRANCH  12  17
BRANCH  14  25
ATOM     25  C   UNL A   1      32.395  21.955  23.763  1.00  0.00     0.339 C 
BRANCH  25  26
ATOM     26  C   UNL A   1      31.768  22.743  24.878  1.00  0.00     0.164 A 
ATOM     27  N   UNL A   1      31.936  22.489  26.166  1.00  0.00    -0.236 NA
ATOM     28  N   UNL A   1      30.932  23.825  24.717  1.00  0.00    -0.333 N 
ATOM     29  C   UNL A   1      31.234  23.451  26.842  1.00  0.00     0.131 A 
ATOM     30  C   UNL A   1      30.618  24.303  25.960  1.00  0.00     0.107 A 
ATOM     31  C   UNL A   1      30.446  24.381  23.480  1.00  0.00     0.151 C 
ENDBRANCH  25  26
ENDBRANCH  14  25
ENDBRANCH   9  11
ENDBRANCH   8   9
ENDBRANCH   7   8
ENDBRANCH   6   7
ENDBRANCH   5   6
ENDBRANCH   4   5
ENDBRANCH   3   4
ENDBRANCH   2   3
ENDBRANCH   1   2
BRANCH   1  32
ATOM     32  C   UNL A   1      34.487  33.468  28.305  1.00  0.00     0.188 C 
BRANCH  32  33
ATOM     33  O   UNL A   1      33.937  33.442  29.612  1.00  0.00    -0.376 OA
BRANCH  33  34
ATOM     34  C   UNL A   1      34.777  33.713  30.723  1.00  0.00     0.202 C 
BRANCH  34  35
ATOM     35  C   UNL A   1      34.435  33.104  32.092  1.00  0.00     0.261 C 
BRANCH  35  36
ATOM     36  O   UNL A   1      34.128  34.008  33.161  1.00  0.00    -0.460 OA
BRANCH  36  37
ATOM     37  C   UNL A   1      34.945  35.060  33.356  1.00  0.00     0.338 C 
ATOM     38  O   UNL A   1      34.673  36.240  33.202  1.00  0.00    -0.246 OA
BRANCH  37  39
ATOM     39  C   UNL A   1      36.190  34.541  33.956  1.00  0.00     0.060 A 
ATOM     40  C   UNL A   1      36.142  33.901  35.201  1.00  0.00     0.016 A 
ATOM     41  C   UNL A   1      37.403  34.695  33.281  1.00  0.00     0.016 A 
ATOM     42  C   UNL A   1      37.322  33.460  35.804  1.00  0.00     0.010 A 
ATOM     43  C   UNL A   1      38.583  34.274  33.894  1.00  0.00     0.010 A 
ATOM     44  C   UNL A   1      38.551  33.696  35.177  1.00  0.00    -0.014 A 
BRANCH  44  45
ATOM     45  C   UNL A   1      39.816  33.603  35.947  1.00  0.00     0.031 A 
ATOM     46  C   UNL A   1      40.646  32.361  35.762  1.00  0.00     0.074 A 
ATOM     47  C   UNL A   1      40.207  34.568  36.797  1.00  0.00     0.049 A 
ATOM     48  N   UNL A   1      41.694  31.951  36.426  1.00  0.00    -0.248 NA
ATOM     49  C   UNL A   1      40.220  31.453  34.684  1.00  0.00     0.031 C 
ATOM     50  C   UNL A   1      39.521  35.841  37.005  1.00  0.00     0.029 A 
ATOM     51  N   UNL A   1      41.273  34.612  37.661  1.00  0.00    -0.354 N 
ATOM     52  C   UNL A   1      42.040  30.727  35.860  1.00  0.00     0.074 A 
ATOM     53  C   UNL A   1      41.072  30.450  34.822  1.00  0.00     0.031 C 
ATOM     54  C   UNL A   1      40.173  36.534  37.955  1.00  0.00     0.029 A 
ATOM     55  C   UNL A   1      41.287  35.730  38.462  1.00  0.00     0.049 A 
ATOM     56  H   UNL A   1      41.962  33.911  37.703  1.00  0.00     0.167 HD
ATOM     57  C   UNL A   1      43.074  29.913  36.180  1.00  0.00     0.034 A 
ATOM     58  C   UNL A   1      42.079  36.043  39.509  1.00  0.00     0.034 A 
ATOM     59  C   UNL A   1      44.015  30.202  37.231  1.00  0.00     0.049 A 
ATOM     60  C   UNL A   1      43.159  35.067  39.925  1.00  0.00     0.074 A 
ATOM     61  C   UNL A   1      45.099  29.451  37.647  1.00  0.00     0.029 A 
ATOM     62  N   UNL A   1      43.974  31.328  38.043  1.00  0.00    -0.354 N 
ATOM     63  N   UNL A   1      43.470  33.903  39.399  1.00  0.00    -0.248 NA
ATOM     64  C   UNL A   1      43.996  35.444  41.073  1.00  0.00     0.031 C 
ATOM     65  C   UNL A   1      45.661  30.079  38.761  1.00  0.00     0.029 A 
ATOM     66  C   UNL A   1      44.995  31.276  38.977  1.00  0.00     0.049 A 
ATOM     67  H   UNL A   1      43.316  32.056  37.966  1.00  0.00     0.167 HD
ATOM     68  C   UNL A   1      44.569  33.438  40.120  1.00  0.00     0.074 A 
ATOM     69  C   UNL A   1      44.861  34.440  41.123  1.00  0.00     0.031 C 
ATOM     70  C   UNL A   1      45.281  32.294  39.959  1.00  0.00     0.034 A 
BRANCH  57  71
ATOM     71  C   UNL A   1      43.192  28.610  35.427  1.00  0.00     0.023 A 
ATOM     72  C   UNL A   1      42.506  27.453  35.835  1.00  0.00     0.031 A 
ATOM     73  C   UNL A   1      44.031  28.516  34.302  1.00  0.00     0.131 A 
ATOM     74  C   UNL A   1      42.728  26.238  35.169  1.00  0.00     0.055 A 
ATOM     75  C   UNL A   1      44.177  27.325  33.590  1.00  0.00     0.041 A 
ATOM     76  F   UNL A   1      44.734  29.579  33.883  1.00  0.00    -0.206 F 
ATOM     77  C   UNL A   1      43.536  26.172  34.031  1.00  0.00     0.022 A 
BRANCH  74  78
ATOM     78  S   UNL A   1      42.068  24.716  35.903  1.00  0.00     0.124 S 
ATOM     79  O   UNL A   1      42.901  24.579  37.096  1.00  0.00    -0.237 OA
ATOM     80  O   UNL A   1      40.670  25.059  36.137  1.00  0.00    -0.237 OA
ATOM     81  O   UNL A   1      42.300  23.708  34.871  1.00  0.00    -0.744 OA
ENDBRANCH  74  78
ENDBRANCH  57  71
BRANCH  58  82
ATOM     82  C   UNL A   1      41.862  37.304  40.277  1.00  0.00     0.023 A 
ATOM     83  C   UNL A   1      42.436  38.515  39.858  1.00  0.00     0.031 A 
ATOM     84  C   UNL A   1      41.130  37.307  41.479  1.00  0.00     0.131 A 
ATOM     85  C   UNL A   1      42.312  39.663  40.659  1.00  0.00     0.055 A 
ATOM     86  C   UNL A   1      40.958  38.465  42.238  1.00  0.00     0.041 A 
ATOM     87  F   UNL A   1      40.567  36.175  41.934  1.00  0.00    -0.206 F 
ATOM     88  C   UNL A   1      41.563  39.650  41.837  1.00  0.00     0.022 A 
BRANCH  85  89
ATOM     89  S   UNL A   1      43.237  41.150  40.188  1.00  0.00     0.124 S 
ATOM     90  O   UNL A   1      42.168  42.131  40.045  1.00  0.00    -0.237 OA
ATOM     91  O   UNL A   1      44.126  41.329  41.332  1.00  0.00    -0.237 OA
ATOM     92  O   UNL A   1      43.899  40.760  38.945  1.00  0.00    -0.744 OA
ENDBRANCH  85  89
ENDBRANCH  58  82
BRANCH  70  93
ATOM     93  C   UNL A   1      46.509  32.099  40.817  1.00  0.00     0.023 A 
ATOM     94  C   UNL A   1      47.775  32.579  40.444  1.00  0.00     0.031 A 
ATOM     95  C   UNL A   1      46.383  31.461  42.066  1.00  0.00     0.131 A 
ATOM     96  C   UNL A   1      48.871  32.389  41.301  1.00  0.00     0.055 A 
ATOM     97  C   UNL A   1      47.462  31.330  42.938  1.00  0.00     0.041 A 
ATOM     98  F   UNL A   1      45.196  30.979  42.470  1.00  0.00    -0.206 F 
ATOM     99  C   UNL A   1      48.717  31.789  42.554  1.00  0.00     0.022 A 
BRANCH  96 100
ATOM    100  S   UNL A   1      50.522  32.885  40.736  1.00  0.00     0.124 S 
ATOM    101  O   UNL A   1      50.870  33.928  41.695  1.00  0.00    -0.237 OA
ATOM    102  O   UNL A   1      51.277  31.642  40.843  1.00  0.00    -0.237 OA
ATOM    103  O   UNL A   1      50.291  33.352  39.370  1.00  0.00    -0.744 OA
ENDBRANCH  96 100
ENDBRANCH  70  93
ENDBRANCH  44  45
ENDBRANCH  37  39
ENDBRANCH  36  37
ENDBRANCH  35  36
ENDBRANCH  34  35
ENDBRANCH  33  34
ENDBRANCH  32  33
ENDBRANCH   1  32
TORSDOF 27
ENDMDL
