MODEL 1
REMARK VINA RESULT:      -7.1      0.000      0.000
REMARK SMILES O=C(OCCOCCOCCOCCOC(=O)[C@@H](Cc1c[nH]c2ccccc12)Nc1ncnc2ccccc12)c1ccc(-c2c3nc(c(-c4cc(S(=O)(=O)[O-])ccc4F)c4ccc([nH]4)c(-c4cc(S(=O)(=O)[O-])ccc4F)c4nc(c(-c5cc(S(=O)(=O)[O-])ccc5F)c5ccc2[nH]5)C=C4)C=C3)cc1
REMARK SMILES IDX 8 1 7 2 6 3 5 4 4 5 3 6 2 7 1 8 40 9 41 10 102 11 42 12
REMARK SMILES IDX 101 13 43 14 44 15 45 16 95 17 46 18 100 19 94 20 96 21
REMARK SMILES IDX 47 22 99 23 93 24 92 25 48 27 80 28 60 29 79 30 61 31 64 32
REMARK SMILES IDX 78 33 97 34 62 35 63 36 77 38 98 39 65 40 49 41 50 42 58 43
REMARK SMILES IDX 51 44 57 45 59 46 56 47 52 48 53 49 54 50 55 51 81 52 82 53
REMARK SMILES IDX 90 54 83 55 89 56 91 57 88 58 84 59 85 60 86 61 87 62 66 63
REMARK SMILES IDX 67 64 75 65 68 66 74 67 76 68 73 69 69 70 70 71 71 72 72 73
REMARK SMILES IDX 9 74 10 75 11 76 12 77 13 78 14 79 15 80 16 81 17 82 18 83
REMARK SMILES IDX 19 84 20 85 21 86 28 87 22 88 23 89 27 90 24 92 26 93 25 94
REMARK SMILES IDX 29 95 30 97 31 98 39 99 32 100 34 101 38 102 33 103 35 104
REMARK SMILES IDX 37 105 36 106
REMARK H PARENT 96 26 64 37 22 91 29 96
REMARK Flexibility Score: inf
ROOT
ATOM      1  C   UNL A   1      41.978  33.506  41.068  1.00  0.00     0.188 C 
ENDROOT
BRANCH   1   2
ATOM      2  C   UNL A   1      43.289  33.999  41.655  1.00  0.00     0.188 C 
BRANCH   2   3
ATOM      3  O   UNL A   1      43.275  35.407  41.517  1.00  0.00    -0.376 OA
BRANCH   3   4
ATOM      4  C   UNL A   1      44.282  36.032  40.761  1.00  0.00     0.202 C 
BRANCH   4   5
ATOM      5  C   UNL A   1      44.005  37.458  40.273  1.00  0.00     0.261 C 
BRANCH   5   6
ATOM      6  O   UNL A   1      43.432  37.576  38.952  1.00  0.00    -0.460 OA
BRANCH   6   7
ATOM      7  C   UNL A   1      42.338  36.919  38.482  1.00  0.00     0.338 C 
ATOM      8  O   UNL A   1      41.228  37.151  38.950  1.00  0.00    -0.246 OA
BRANCH   7   9
ATOM      9  C   UNL A   1      42.475  35.879  37.434  1.00  0.00     0.060 A 
ATOM     10  C   UNL A   1      43.704  35.308  37.139  1.00  0.00     0.016 A 
ATOM     11  C   UNL A   1      41.342  35.365  36.798  1.00  0.00     0.016 A 
ATOM     12  C   UNL A   1      43.871  34.459  36.064  1.00  0.00     0.010 A 
ATOM     13  C   UNL A   1      41.481  34.381  35.807  1.00  0.00     0.010 A 
ATOM     14  C   UNL A   1      42.759  33.977  35.385  1.00  0.00    -0.014 A 
BRANCH  14  15
ATOM     15  C   UNL A   1      42.991  33.171  34.162  1.00  0.00     0.031 A 
ATOM     16  C   UNL A   1      42.978  31.674  34.293  1.00  0.00     0.074 A 
ATOM     17  C   UNL A   1      43.028  33.762  32.949  1.00  0.00     0.049 A 
ATOM     18  N   UNL A   1      43.243  30.758  33.402  1.00  0.00    -0.248 NA
ATOM     19  C   UNL A   1      42.613  31.138  35.615  1.00  0.00     0.031 C 
ATOM     20  C   UNL A   1      42.896  35.204  32.708  1.00  0.00     0.029 A 
ATOM     21  N   UNL A   1      43.128  33.231  31.689  1.00  0.00    -0.354 N 
ATOM     22  C   UNL A   1      43.115  29.541  34.065  1.00  0.00     0.074 A 
ATOM     23  C   UNL A   1      42.775  29.838  35.437  1.00  0.00     0.031 C 
ATOM     24  C   UNL A   1      42.859  35.430  31.386  1.00  0.00     0.029 A 
ATOM     25  C   UNL A   1      43.087  34.175  30.685  1.00  0.00     0.049 A 
ATOM     26  H   UNL A   1      43.222  32.266  31.518  1.00  0.00     0.167 HD
ATOM     27  C   UNL A   1      43.270  28.292  33.565  1.00  0.00     0.034 A 
ATOM     28  C   UNL A   1      43.268  34.040  29.356  1.00  0.00     0.034 A 
ATOM     29  C   UNL A   1      43.608  28.047  32.187  1.00  0.00     0.049 A 
ATOM     30  C   UNL A   1      43.547  32.651  28.839  1.00  0.00     0.074 A 
ATOM     31  C   UNL A   1      43.939  26.857  31.567  1.00  0.00     0.029 A 
ATOM     32  N   UNL A   1      43.644  29.033  31.206  1.00  0.00    -0.354 N 
ATOM     33  N   UNL A   1      43.579  31.515  29.503  1.00  0.00    -0.248 NA
ATOM     34  C   UNL A   1      43.832  32.521  27.407  1.00  0.00     0.031 C 
ATOM     35  C   UNL A   1      44.219  27.133  30.222  1.00  0.00     0.029 A 
ATOM     36  C   UNL A   1      43.999  28.483  29.987  1.00  0.00     0.049 A 
ATOM     37  H   UNL A   1      43.447  29.985  31.356  1.00  0.00     0.167 HD
ATOM     38  C   UNL A   1      43.886  30.535  28.567  1.00  0.00     0.074 A 
ATOM     39  C   UNL A   1      43.985  31.211  27.286  1.00  0.00     0.031 C 
ATOM     40  C   UNL A   1      44.091  29.203  28.738  1.00  0.00     0.034 A 
BRANCH  27  41
ATOM     41  C   UNL A   1      43.171  27.153  34.550  1.00  0.00     0.023 A 
ATOM     42  C   UNL A   1      44.304  26.648  35.216  1.00  0.00     0.031 A 
ATOM     43  C   UNL A   1      41.950  26.480  34.724  1.00  0.00     0.131 A 
ATOM     44  C   UNL A   1      44.209  25.452  35.947  1.00  0.00     0.055 A 
ATOM     45  C   UNL A   1      41.846  25.337  35.521  1.00  0.00     0.041 A 
ATOM     46  F   UNL A   1      40.844  26.892  34.087  1.00  0.00    -0.206 F 
ATOM     47  C   UNL A   1      42.984  24.806  36.123  1.00  0.00     0.022 A 
BRANCH  44  48
ATOM     48  S   UNL A   1      45.741  24.670  36.524  1.00  0.00     0.124 S 
ATOM     49  O   UNL A   1      46.713  25.171  35.540  1.00  0.00    -0.237 OA
ATOM     50  O   UNL A   1      45.878  25.171  37.869  1.00  0.00    -0.237 OA
ATOM     51  O   UNL A   1      45.453  23.231  36.408  1.00  0.00    -0.744 OA
ENDBRANCH  44  48
ENDBRANCH  27  41
BRANCH  28  52
ATOM     52  C   UNL A   1      43.304  35.234  28.453  1.00  0.00     0.023 A 
ATOM     53  C   UNL A   1      44.514  35.840  28.071  1.00  0.00     0.031 A 
ATOM     54  C   UNL A   1      42.109  35.836  28.009  1.00  0.00     0.131 A 
ATOM     55  C   UNL A   1      44.499  37.028  27.317  1.00  0.00     0.055 A 
ATOM     56  C   UNL A   1      42.102  36.977  27.203  1.00  0.00     0.041 A 
ATOM     57  F   UNL A   1      40.918  35.321  28.350  1.00  0.00    -0.206 F 
ATOM     58  C   UNL A   1      43.302  37.589  26.867  1.00  0.00     0.022 A 
BRANCH  55  59
ATOM     59  S   UNL A   1      46.064  37.903  27.033  1.00  0.00     0.124 S 
ATOM     60  O   UNL A   1      46.580  38.040  28.390  1.00  0.00    -0.237 OA
ATOM     61  O   UNL A   1      46.777  36.972  26.165  1.00  0.00    -0.237 OA
ATOM     62  O   UNL A   1      45.646  39.150  26.396  1.00  0.00    -0.744 OA
ENDBRANCH  55  59
ENDBRANCH  28  52
BRANCH  40  63
ATOM     63  C   UNL A   1      44.408  28.415  27.497  1.00  0.00     0.023 A 
ATOM     64  C   UNL A   1      45.724  28.314  27.013  1.00  0.00     0.031 A 
ATOM     65  C   UNL A   1      43.380  27.781  26.779  1.00  0.00     0.131 A 
ATOM     66  C   UNL A   1      45.969  27.650  25.804  1.00  0.00     0.055 A 
ATOM     67  C   UNL A   1      43.640  27.068  25.609  1.00  0.00     0.041 A 
ATOM     68  F   UNL A   1      42.109  27.850  27.202  1.00  0.00    -0.206 F 
ATOM     69  C   UNL A   1      44.939  27.013  25.108  1.00  0.00     0.022 A 
BRANCH  66  70
ATOM     70  S   UNL A   1      47.638  27.722  25.102  1.00  0.00     0.124 S 
ATOM     71  O   UNL A   1      48.029  26.316  25.102  1.00  0.00    -0.237 OA
ATOM     72  O   UNL A   1      47.400  28.317  23.791  1.00  0.00    -0.237 OA
ATOM     73  O   UNL A   1      48.368  28.569  26.043  1.00  0.00    -0.744 OA
ENDBRANCH  66  70
ENDBRANCH  40  63
ENDBRANCH  14  15
ENDBRANCH   7   9
ENDBRANCH   6   7
ENDBRANCH   5   6
ENDBRANCH   4   5
ENDBRANCH   3   4
ENDBRANCH   2   3
ENDBRANCH   1   2
BRANCH   1  74
ATOM     74  O   UNL A   1      40.877  34.307  41.499  1.00  0.00    -0.377 OA
BRANCH  74  75
ATOM     75  C   UNL A   1      39.664  33.651  41.862  1.00  0.00     0.188 C 
BRANCH  75  76
ATOM     76  C   UNL A   1      39.409  32.287  41.206  1.00  0.00     0.188 C 
BRANCH  76  77
ATOM     77  O   UNL A   1      38.426  32.379  40.195  1.00  0.00    -0.376 OA
BRANCH  77  78
ATOM     78  C   UNL A   1      38.713  33.202  39.075  1.00  0.00     0.202 C 
BRANCH  78  79
ATOM     79  C   UNL A   1      38.962  32.624  37.658  1.00  0.00     0.261 C 
BRANCH  79  80
ATOM     80  O   UNL A   1      37.847  32.548  36.740  1.00  0.00    -0.462 OA
BRANCH  80  81
ATOM     81  C   UNL A   1      38.004  31.676  35.712  1.00  0.00     0.329 C 
ATOM     82  O   UNL A   1      38.011  30.455  35.887  1.00  0.00    -0.250 OA
BRANCH  81  83
ATOM     83  C   UNL A   1      38.125  32.237  34.261  1.00  0.00     0.195 C 
BRANCH  83  84
ATOM     84  C   UNL A   1      37.856  33.681  33.790  1.00  0.00     0.074 C 
BRANCH  84  85
ATOM     85  C   UNL A   1      36.724  33.997  32.870  1.00  0.00    -0.020 A 
ATOM     86  C   UNL A   1      35.849  35.057  33.031  1.00  0.00     0.087 A 
ATOM     87  C   UNL A   1      36.196  33.219  31.795  1.00  0.00     0.003 A 
ATOM     88  N   UNL A   1      35.004  35.094  31.961  1.00  0.00    -0.361 N 
ATOM     89  C   UNL A   1      35.182  33.970  31.195  1.00  0.00     0.046 A 
ATOM     90  C   UNL A   1      36.468  31.939  31.279  1.00  0.00     0.010 A 
ATOM     91  H   UNL A   1      34.364  35.816  31.769  1.00  0.00     0.166 HD
ATOM     92  C   UNL A   1      34.509  33.554  30.043  1.00  0.00     0.026 A 
ATOM     93  C   UNL A   1      35.789  31.494  30.142  1.00  0.00     0.001 A 
ATOM     94  C   UNL A   1      34.841  32.303  29.521  1.00  0.00     0.002 A 
ENDBRANCH  84  85
ENDBRANCH  83  84
BRANCH  83  95
ATOM     95  N   UNL A   1      39.436  31.810  33.715  1.00  0.00    -0.356 N 
ATOM     96  H   UNL A   1      40.226  31.853  34.301  1.00  0.00     0.163 HD
BRANCH  95  97
ATOM     97  C   UNL A   1      39.595  31.356  32.422  1.00  0.00     0.137 A 
ATOM     98  N   UNL A   1      39.997  32.338  31.599  1.00  0.00    -0.219 NA
ATOM     99  C   UNL A   1      39.318  30.051  31.967  1.00  0.00     0.043 A 
ATOM    100  C   UNL A   1      40.199  32.005  30.324  1.00  0.00     0.224 A 
ATOM    101  C   UNL A   1      39.533  29.851  30.595  1.00  0.00     0.076 A 
ATOM    102  C   UNL A   1      38.815  28.965  32.736  1.00  0.00     0.014 A 
ATOM    103  N   UNL A   1      39.978  30.807  29.776  1.00  0.00    -0.236 NA
ATOM    104  C   UNL A   1      39.258  28.605  30.044  1.00  0.00     0.029 A 
ATOM    105  C   UNL A   1      38.557  27.721  32.165  1.00  0.00     0.001 A 
ATOM    106  C   UNL A   1      38.776  27.541  30.810  1.00  0.00     0.002 A 
ENDBRANCH  95  97
ENDBRANCH  83  95
ENDBRANCH  81  83
ENDBRANCH  80  81
ENDBRANCH  79  80
ENDBRANCH  78  79
ENDBRANCH  77  78
ENDBRANCH  76  77
ENDBRANCH  75  76
ENDBRANCH  74  75
ENDBRANCH   1  74
TORSDOF 27
ENDMDL
MODEL 2
REMARK VINA RESULT:      -7.0      6.607     10.858
REMARK SMILES O=C(OCCOCCOCCOCCOC(=O)[C@@H](Cc1c[nH]c2ccccc12)Nc1ncnc2ccccc12)c1ccc(-c2c3nc(c(-c4cc(S(=O)(=O)[O-])ccc4F)c4ccc([nH]4)c(-c4cc(S(=O)(=O)[O-])ccc4F)c4nc(c(-c5cc(S(=O)(=O)[O-])ccc5F)c5ccc2[nH]5)C=C4)C=C3)cc1
REMARK SMILES IDX 8 1 7 2 6 3 5 4 4 5 3 6 2 7 1 8 40 9 41 10 102 11 42 12
REMARK SMILES IDX 101 13 43 14 44 15 45 16 95 17 46 18 100 19 94 20 96 21
REMARK SMILES IDX 47 22 99 23 93 24 92 25 48 27 80 28 60 29 79 30 61 31 64 32
REMARK SMILES IDX 78 33 97 34 62 35 63 36 77 38 98 39 65 40 49 41 50 42 58 43
REMARK SMILES IDX 51 44 57 45 59 46 56 47 52 48 53 49 54 50 55 51 81 52 82 53
REMARK SMILES IDX 90 54 83 55 89 56 91 57 88 58 84 59 85 60 86 61 87 62 66 63
REMARK SMILES IDX 67 64 75 65 68 66 74 67 76 68 73 69 69 70 70 71 71 72 72 73
REMARK SMILES IDX 9 74 10 75 11 76 12 77 13 78 14 79 15 80 16 81 17 82 18 83
REMARK SMILES IDX 19 84 20 85 21 86 28 87 22 88 23 89 27 90 24 92 26 93 25 94
REMARK SMILES IDX 29 95 30 97 31 98 39 99 32 100 34 101 38 102 33 103 35 104
REMARK SMILES IDX 37 105 36 106
REMARK H PARENT 96 26 64 37 22 91 29 96
REMARK Flexibility Score: inf
ROOT
ATOM      1  C   UNL A   1      35.256  31.445  28.151  1.00  0.00     0.188 C 
ENDROOT
BRANCH   1   2
ATOM      2  C   UNL A   1      34.659  32.691  28.782  1.00  0.00     0.188 C 
BRANCH   2   3
ATOM      3  O   UNL A   1      34.148  32.288  30.039  1.00  0.00    -0.376 OA
BRANCH   3   4
ATOM      4  C   UNL A   1      34.894  32.553  31.200  1.00  0.00     0.202 C 
BRANCH   4   5
ATOM      5  C   UNL A   1      35.507  33.951  31.332  1.00  0.00     0.261 C 
BRANCH   5   6
ATOM      6  O   UNL A   1      36.951  34.010  31.366  1.00  0.00    -0.460 OA
BRANCH   6   7
ATOM      7  C   UNL A   1      37.785  34.036  30.291  1.00  0.00     0.338 C 
ATOM      8  O   UNL A   1      37.515  34.726  29.314  1.00  0.00    -0.246 OA
BRANCH   7   9
ATOM      9  C   UNL A   1      39.006  33.195  30.266  1.00  0.00     0.060 A 
ATOM     10  C   UNL A   1      38.931  31.811  30.291  1.00  0.00     0.016 A 
ATOM     11  C   UNL A   1      40.263  33.782  30.097  1.00  0.00     0.016 A 
ATOM     12  C   UNL A   1      40.057  31.024  30.427  1.00  0.00     0.010 A 
ATOM     13  C   UNL A   1      41.413  32.979  30.074  1.00  0.00     0.010 A 
ATOM     14  C   UNL A   1      41.318  31.598  30.313  1.00  0.00    -0.014 A 
BRANCH  14  15
ATOM     15  C   UNL A   1      42.495  30.740  30.591  1.00  0.00     0.031 A 
ATOM     16  C   UNL A   1      43.219  30.938  31.893  1.00  0.00     0.074 A 
ATOM     17  C   UNL A   1      42.787  29.697  29.786  1.00  0.00     0.049 A 
ATOM     18  N   UNL A   1      44.318  30.385  32.328  1.00  0.00    -0.248 NA
ATOM     19  C   UNL A   1      42.616  31.896  32.835  1.00  0.00     0.031 C 
ATOM     20  C   UNL A   1      42.044  29.330  28.574  1.00  0.00     0.029 A 
ATOM     21  N   UNL A   1      43.743  28.719  29.887  1.00  0.00    -0.354 N 
ATOM     22  C   UNL A   1      44.558  30.955  33.574  1.00  0.00     0.074 A 
ATOM     23  C   UNL A   1      43.505  31.915  33.813  1.00  0.00     0.031 C 
ATOM     24  C   UNL A   1      42.530  28.180  28.087  1.00  0.00     0.029 A 
ATOM     25  C   UNL A   1      43.693  27.788  28.871  1.00  0.00     0.049 A 
ATOM     26  H   UNL A   1      44.403  28.685  30.616  1.00  0.00     0.167 HD
ATOM     27  C   UNL A   1      45.569  30.694  34.436  1.00  0.00     0.034 A 
ATOM     28  C   UNL A   1      44.528  26.769  28.582  1.00  0.00     0.034 A 
ATOM     29  C   UNL A   1      46.596  29.724  34.154  1.00  0.00     0.049 A 
ATOM     30  C   UNL A   1      45.709  26.569  29.499  1.00  0.00     0.074 A 
ATOM     31  C   UNL A   1      47.756  29.451  34.852  1.00  0.00     0.029 A 
ATOM     32  N   UNL A   1      46.567  28.851  33.070  1.00  0.00    -0.354 N 
ATOM     33  N   UNL A   1      46.017  27.219  30.600  1.00  0.00    -0.248 NA
ATOM     34  C   UNL A   1      46.662  25.519  29.131  1.00  0.00     0.031 C 
ATOM     35  C   UNL A   1      48.450  28.446  34.165  1.00  0.00     0.029 A 
ATOM     36  C   UNL A   1      47.690  28.045  33.075  1.00  0.00     0.049 A 
ATOM     37  H   UNL A   1      45.850  28.813  32.397  1.00  0.00     0.167 HD
ATOM     38  C   UNL A   1      47.201  26.654  31.058  1.00  0.00     0.074 A 
ATOM     39  C   UNL A   1      47.524  25.581  30.136  1.00  0.00     0.031 C 
ATOM     40  C   UNL A   1      47.970  26.992  32.126  1.00  0.00     0.034 A 
BRANCH  27  41
ATOM     41  C   UNL A   1      45.634  31.546  35.680  1.00  0.00     0.023 A 
ATOM     42  C   UNL A   1      44.916  31.216  36.844  1.00  0.00     0.031 A 
ATOM     43  C   UNL A   1      46.319  32.773  35.654  1.00  0.00     0.131 A 
ATOM     44  C   UNL A   1      44.823  32.144  37.895  1.00  0.00     0.055 A 
ATOM     45  C   UNL A   1      46.290  33.656  36.737  1.00  0.00     0.041 A 
ATOM     46  F   UNL A   1      46.991  33.159  34.559  1.00  0.00    -0.206 F 
ATOM     47  C   UNL A   1      45.524  33.351  37.859  1.00  0.00     0.022 A 
BRANCH  44  48
ATOM     48  S   UNL A   1      43.642  31.817  39.233  1.00  0.00     0.124 S 
ATOM     49  O   UNL A   1      44.279  30.680  39.914  1.00  0.00    -0.237 OA
ATOM     50  O   UNL A   1      43.616  33.063  39.958  1.00  0.00    -0.237 OA
ATOM     51  O   UNL A   1      42.403  31.473  38.516  1.00  0.00    -0.744 OA
ENDBRANCH  44  48
ENDBRANCH  27  41
BRANCH  28  52
ATOM     52  C   UNL A   1      44.351  25.950  27.342  1.00  0.00     0.023 A 
ATOM     53  C   UNL A   1      43.480  24.847  27.298  1.00  0.00     0.031 A 
ATOM     54  C   UNL A   1      45.113  26.219  26.187  1.00  0.00     0.131 A 
ATOM     55  C   UNL A   1      43.430  24.034  26.151  1.00  0.00     0.055 A 
ATOM     56  C   UNL A   1      45.009  25.449  25.026  1.00  0.00     0.041 A 
ATOM     57  F   UNL A   1      45.978  27.246  26.164  1.00  0.00    -0.206 F 
ATOM     58  C   UNL A   1      44.176  24.338  25.010  1.00  0.00     0.022 A 
BRANCH  55  59
ATOM     59  S   UNL A   1      42.467  22.496  26.210  1.00  0.00     0.124 S 
ATOM     60  O   UNL A   1      41.107  23.002  26.369  1.00  0.00    -0.237 OA
ATOM     61  O   UNL A   1      42.781  21.894  24.919  1.00  0.00    -0.237 OA
ATOM     62  O   UNL A   1      43.011  21.798  27.372  1.00  0.00    -0.744 OA
ENDBRANCH  55  59
ENDBRANCH  28  52
BRANCH  40  63
ATOM     63  C   UNL A   1      49.205  26.162  32.344  1.00  0.00     0.023 A 
ATOM     64  C   UNL A   1      49.172  24.995  33.127  1.00  0.00     0.031 A 
ATOM     65  C   UNL A   1      50.432  26.559  31.785  1.00  0.00     0.131 A 
ATOM     66  C   UNL A   1      50.360  24.300  33.384  1.00  0.00     0.055 A 
ATOM     67  C   UNL A   1      51.599  25.826  31.995  1.00  0.00     0.041 A 
ATOM     68  F   UNL A   1      50.513  27.666  31.032  1.00  0.00    -0.206 F 
ATOM     69  C   UNL A   1      51.570  24.698  32.811  1.00  0.00     0.022 A 
BRANCH  66  70
ATOM     70  S   UNL A   1      50.318  22.927  34.567  1.00  0.00     0.124 S 
ATOM     71  O   UNL A   1      51.531  23.158  35.344  1.00  0.00    -0.237 OA
ATOM     72  O   UNL A   1      49.059  23.157  35.268  1.00  0.00    -0.237 OA
ATOM     73  O   UNL A   1      50.344  21.740  33.714  1.00  0.00    -0.744 OA
ENDBRANCH  66  70
ENDBRANCH  40  63
ENDBRANCH  14  15
ENDBRANCH   7   9
ENDBRANCH   6   7
ENDBRANCH   5   6
ENDBRANCH   4   5
ENDBRANCH   3   4
ENDBRANCH   2   3
ENDBRANCH   1   2
BRANCH   1  74
ATOM     74  O   UNL A   1      34.479  30.998  27.039  1.00  0.00    -0.377 OA
BRANCH  74  75
ATOM     75  C   UNL A   1      33.236  30.348  27.299  1.00  0.00     0.188 C 
BRANCH  75  76
ATOM     76  C   UNL A   1      32.586  29.630  26.108  1.00  0.00     0.188 C 
BRANCH  76  77
ATOM     77  O   UNL A   1      33.487  29.510  25.027  1.00  0.00    -0.376 OA
BRANCH  77  78
ATOM     78  C   UNL A   1      33.532  28.266  24.346  1.00  0.00     0.202 C 
BRANCH  78  79
ATOM     79  C   UNL A   1      33.200  28.127  22.837  1.00  0.00     0.261 C 
BRANCH  79  80
ATOM     80  O   UNL A   1      33.792  27.033  22.100  1.00  0.00    -0.462 OA
BRANCH  80  81
ATOM     81  C   UNL A   1      32.964  25.986  21.857  1.00  0.00     0.329 C 
ATOM     82  O   UNL A   1      32.474  25.786  20.742  1.00  0.00    -0.250 OA
BRANCH  81  83
ATOM     83  C   UNL A   1      32.666  24.978  23.010  1.00  0.00     0.195 C 
BRANCH  83  84
ATOM     84  C   UNL A   1      31.553  25.075  24.074  1.00  0.00     0.074 C 
BRANCH  84  85
ATOM     85  C   UNL A   1      31.537  24.173  25.263  1.00  0.00    -0.020 A 
ATOM     86  C   UNL A   1      30.393  23.693  25.874  1.00  0.00     0.087 A 
ATOM     87  C   UNL A   1      32.619  23.784  26.110  1.00  0.00     0.003 A 
ATOM     88  N   UNL A   1      30.754  22.830  26.866  1.00  0.00    -0.361 N 
ATOM     89  C   UNL A   1      32.113  22.879  27.045  1.00  0.00     0.046 A 
ATOM     90  C   UNL A   1      33.983  24.125  26.186  1.00  0.00     0.010 A 
ATOM     91  H   UNL A   1      30.134  22.261  27.376  1.00  0.00     0.166 HD
ATOM     92  C   UNL A   1      32.919  22.216  27.974  1.00  0.00     0.026 A 
ATOM     93  C   UNL A   1      34.801  23.492  27.124  1.00  0.00     0.001 A 
ATOM     94  C   UNL A   1      34.279  22.533  27.988  1.00  0.00     0.002 A 
ENDBRANCH  84  85
ENDBRANCH  83  84
BRANCH  83  95
ATOM     95  N   UNL A   1      32.629  23.615  22.425  1.00  0.00    -0.356 N 
ATOM     96  H   UNL A   1      32.269  23.503  21.517  1.00  0.00     0.163 HD
BRANCH  95  97
ATOM     97  C   UNL A   1      33.077  22.500  23.103  1.00  0.00     0.137 A 
ATOM     98  N   UNL A   1      32.077  21.642  23.361  1.00  0.00    -0.219 NA
ATOM     99  C   UNL A   1      34.398  22.280  23.545  1.00  0.00     0.043 A 
ATOM    100  C   UNL A   1      32.402  20.517  23.998  1.00  0.00     0.224 A 
ATOM    101  C   UNL A   1      34.589  21.076  24.240  1.00  0.00     0.076 A 
ATOM    102  C   UNL A   1      35.508  23.157  23.395  1.00  0.00     0.014 A 
ATOM    103  N   UNL A   1      33.612  20.194  24.461  1.00  0.00    -0.236 NA
ATOM    104  C   UNL A   1      35.851  20.782  24.745  1.00  0.00     0.029 A 
ATOM    105  C   UNL A   1      36.766  22.836  23.899  1.00  0.00     0.001 A 
ATOM    106  C   UNL A   1      36.938  21.644  24.581  1.00  0.00     0.002 A 
ENDBRANCH  95  97
ENDBRANCH  83  95
ENDBRANCH  81  83
ENDBRANCH  80  81
ENDBRANCH  79  80
ENDBRANCH  78  79
ENDBRANCH  77  78
ENDBRANCH  76  77
ENDBRANCH  75  76
ENDBRANCH  74  75
ENDBRANCH   1  74
TORSDOF 27
ENDMDL
MODEL 3
REMARK VINA RESULT:      -7.0      7.040     10.739
REMARK SMILES O=C(OCCOCCOCCOCCOC(=O)[C@@H](Cc1c[nH]c2ccccc12)Nc1ncnc2ccccc12)c1ccc(-c2c3nc(c(-c4cc(S(=O)(=O)[O-])ccc4F)c4ccc([nH]4)c(-c4cc(S(=O)(=O)[O-])ccc4F)c4nc(c(-c5cc(S(=O)(=O)[O-])ccc5F)c5ccc2[nH]5)C=C4)C=C3)cc1
REMARK SMILES IDX 8 1 7 2 6 3 5 4 4 5 3 6 2 7 1 8 40 9 41 10 102 11 42 12
REMARK SMILES IDX 101 13 43 14 44 15 45 16 95 17 46 18 100 19 94 20 96 21
REMARK SMILES IDX 47 22 99 23 93 24 92 25 48 27 80 28 60 29 79 30 61 31 64 32
REMARK SMILES IDX 78 33 97 34 62 35 63 36 77 38 98 39 65 40 49 41 50 42 58 43
REMARK SMILES IDX 51 44 57 45 59 46 56 47 52 48 53 49 54 50 55 51 81 52 82 53
REMARK SMILES IDX 90 54 83 55 89 56 91 57 88 58 84 59 85 60 86 61 87 62 66 63
REMARK SMILES IDX 67 64 75 65 68 66 74 67 76 68 73 69 69 70 70 71 71 72 72 73
REMARK SMILES IDX 9 74 10 75 11 76 12 77 13 78 14 79 15 80 16 81 17 82 18 83
REMARK SMILES IDX 19 84 20 85 21 86 28 87 22 88 23 89 27 90 24 92 26 93 25 94
REMARK SMILES IDX 29 95 30 97 31 98 39 99 32 100 34 101 38 102 33 103 35 104
REMARK SMILES IDX 37 105 36 106
REMARK H PARENT 96 26 64 37 22 91 29 96
REMARK Flexibility Score: inf
ROOT
ATOM      1  C   UNL A   1      35.018  31.276  28.155  1.00  0.00     0.188 C 
ENDROOT
BRANCH   1   2
ATOM      2  C   UNL A   1      34.584  32.698  28.459  1.00  0.00     0.188 C 
BRANCH   2   3
ATOM      3  O   UNL A   1      34.001  32.664  29.748  1.00  0.00    -0.376 OA
BRANCH   3   4
ATOM      4  C   UNL A   1      34.803  32.932  30.871  1.00  0.00     0.202 C 
BRANCH   4   5
ATOM      5  C   UNL A   1      35.659  34.201  30.831  1.00  0.00     0.261 C 
BRANCH   5   6
ATOM      6  O   UNL A   1      37.049  34.040  31.190  1.00  0.00    -0.460 OA
BRANCH   6   7
ATOM      7  C   UNL A   1      37.990  33.346  30.494  1.00  0.00     0.338 C 
ATOM      8  O   UNL A   1      37.758  32.205  30.107  1.00  0.00    -0.246 OA
BRANCH   7   9
ATOM      9  C   UNL A   1      39.325  33.938  30.235  1.00  0.00     0.060 A 
ATOM     10  C   UNL A   1      39.603  34.602  29.051  1.00  0.00     0.016 A 
ATOM     11  C   UNL A   1      40.300  33.942  31.235  1.00  0.00     0.016 A 
ATOM     12  C   UNL A   1      40.881  35.017  28.733  1.00  0.00     0.010 A 
ATOM     13  C   UNL A   1      41.561  34.504  30.982  1.00  0.00     0.010 A 
ATOM     14  C   UNL A   1      41.880  34.981  29.700  1.00  0.00    -0.014 A 
BRANCH  14  15
ATOM     15  C   UNL A   1      43.261  35.316  29.279  1.00  0.00     0.031 A 
ATOM     16  C   UNL A   1      44.250  34.193  29.151  1.00  0.00     0.074 A 
ATOM     17  C   UNL A   1      43.562  36.559  28.848  1.00  0.00     0.049 A 
ATOM     18  N   UNL A   1      45.528  34.233  28.892  1.00  0.00    -0.248 NA
ATOM     19  C   UNL A   1      43.721  32.832  29.343  1.00  0.00     0.031 C 
ATOM     20  C   UNL A   1      42.622  37.685  28.791  1.00  0.00     0.029 A 
ATOM     21  N   UNL A   1      44.719  37.077  28.324  1.00  0.00    -0.354 N 
ATOM     22  C   UNL A   1      45.962  32.911  28.928  1.00  0.00     0.074 A 
ATOM     23  C   UNL A   1      44.816  32.097  29.260  1.00  0.00     0.031 C 
ATOM     24  C   UNL A   1      43.220  38.733  28.205  1.00  0.00     0.029 A 
ATOM     25  C   UNL A   1      44.616  38.401  27.956  1.00  0.00     0.049 A 
ATOM     26  H   UNL A   1      45.545  36.552  28.221  1.00  0.00     0.167 HD
ATOM     27  C   UNL A   1      47.207  32.430  28.702  1.00  0.00     0.034 A 
ATOM     28  C   UNL A   1      45.561  39.260  27.520  1.00  0.00     0.034 A 
ATOM     29  C   UNL A   1      48.319  33.283  28.371  1.00  0.00     0.049 A 
ATOM     30  C   UNL A   1      46.964  38.723  27.382  1.00  0.00     0.074 A 
ATOM     31  C   UNL A   1      49.659  32.968  28.258  1.00  0.00     0.029 A 
ATOM     32  N   UNL A   1      48.202  34.641  28.088  1.00  0.00    -0.354 N 
ATOM     33  N   UNL A   1      47.399  37.496  27.570  1.00  0.00    -0.248 NA
ATOM     34  C   UNL A   1      48.003  39.680  26.994  1.00  0.00     0.031 C 
ATOM     35  C   UNL A   1      50.357  34.144  27.950  1.00  0.00     0.029 A 
ATOM     36  C   UNL A   1      49.444  35.179  27.806  1.00  0.00     0.049 A 
ATOM     37  H   UNL A   1      47.357  35.146  28.087  1.00  0.00     0.167 HD
ATOM     38  C   UNL A   1      48.766  37.534  27.320  1.00  0.00     0.074 A 
ATOM     39  C   UNL A   1      49.070  38.897  26.925  1.00  0.00     0.031 C 
ATOM     40  C   UNL A   1      49.696  36.550  27.424  1.00  0.00     0.034 A 
BRANCH  27  41
ATOM     41  C   UNL A   1      47.408  30.949  28.914  1.00  0.00     0.023 A 
ATOM     42  C   UNL A   1      47.822  30.427  30.154  1.00  0.00     0.031 A 
ATOM     43  C   UNL A   1      47.310  30.065  27.827  1.00  0.00     0.131 A 
ATOM     44  C   UNL A   1      48.212  29.080  30.250  1.00  0.00     0.055 A 
ATOM     45  C   UNL A   1      47.620  28.708  27.950  1.00  0.00     0.041 A 
ATOM     46  F   UNL A   1      46.955  30.511  26.612  1.00  0.00    -0.206 F 
ATOM     47  C   UNL A   1      48.092  28.212  29.162  1.00  0.00     0.022 A 
BRANCH  44  48
ATOM     48  S   UNL A   1      49.032  28.526  31.770  1.00  0.00     0.124 S 
ATOM     49  O   UNL A   1      48.021  28.858  32.785  1.00  0.00    -0.237 OA
ATOM     50  O   UNL A   1      49.257  27.123  31.527  1.00  0.00    -0.237 OA
ATOM     51  O   UNL A   1      50.243  29.363  31.828  1.00  0.00    -0.744 OA
ENDBRANCH  44  48
ENDBRANCH  27  41
BRANCH  28  52
ATOM     52  C   UNL A   1      45.249  40.707  27.294  1.00  0.00     0.023 A 
ATOM     53  C   UNL A   1      44.964  41.214  26.015  1.00  0.00     0.031 A 
ATOM     54  C   UNL A   1      45.301  41.628  28.360  1.00  0.00     0.131 A 
ATOM     55  C   UNL A   1      44.792  42.599  25.829  1.00  0.00     0.055 A 
ATOM     56  C   UNL A   1      45.061  42.992  28.181  1.00  0.00     0.041 A 
ATOM     57  F   UNL A   1      45.585  41.216  29.606  1.00  0.00    -0.206 F 
ATOM     58  C   UNL A   1      44.822  43.487  26.906  1.00  0.00     0.022 A 
BRANCH  55  59
ATOM     59  S   UNL A   1      44.649  43.243  24.137  1.00  0.00     0.124 S 
ATOM     60  O   UNL A   1      46.017  43.669  23.864  1.00  0.00    -0.237 OA
ATOM     61  O   UNL A   1      44.184  42.069  23.407  1.00  0.00    -0.237 OA
ATOM     62  O   UNL A   1      43.674  44.323  24.266  1.00  0.00    -0.744 OA
ENDBRANCH  55  59
ENDBRANCH  28  52
BRANCH  40  63
ATOM     63  C   UNL A   1      51.108  36.931  27.073  1.00  0.00     0.023 A 
ATOM     64  C   UNL A   1      51.596  36.795  25.761  1.00  0.00     0.031 A 
ATOM     65  C   UNL A   1      51.980  37.408  28.066  1.00  0.00     0.131 A 
ATOM     66  C   UNL A   1      52.942  37.072  25.492  1.00  0.00     0.055 A 
ATOM     67  C   UNL A   1      53.302  37.742  27.776  1.00  0.00     0.041 A 
ATOM     68  F   UNL A   1      51.559  37.554  29.331  1.00  0.00    -0.206 F 
ATOM     69  C   UNL A   1      53.794  37.559  26.485  1.00  0.00     0.022 A 
BRANCH  66  70
ATOM     70  S   UNL A   1      53.590  36.683  23.843  1.00  0.00     0.124 S 
ATOM     71  O   UNL A   1      52.459  35.996  23.227  1.00  0.00    -0.237 OA
ATOM     72  O   UNL A   1      53.899  38.006  23.310  1.00  0.00    -0.237 OA
ATOM     73  O   UNL A   1      54.751  35.841  24.122  1.00  0.00    -0.744 OA
ENDBRANCH  66  70
ENDBRANCH  40  63
ENDBRANCH  14  15
ENDBRANCH   7   9
ENDBRANCH   6   7
ENDBRANCH   5   6
ENDBRANCH   4   5
ENDBRANCH   3   4
ENDBRANCH   2   3
ENDBRANCH   1   2
BRANCH   1  74
ATOM     74  O   UNL A   1      34.413  30.788  26.957  1.00  0.00    -0.377 OA
BRANCH  74  75
ATOM     75  C   UNL A   1      33.099  30.241  27.036  1.00  0.00     0.188 C 
BRANCH  75  76
ATOM     76  C   UNL A   1      32.595  29.505  25.787  1.00  0.00     0.188 C 
BRANCH  76  77
ATOM     77  O   UNL A   1      33.616  29.380  24.818  1.00  0.00    -0.376 OA
BRANCH  77  78
ATOM     78  C   UNL A   1      33.705  28.151  24.114  1.00  0.00     0.202 C 
BRANCH  78  79
ATOM     79  C   UNL A   1      33.200  27.985  22.658  1.00  0.00     0.261 C 
BRANCH  79  80
ATOM     80  O   UNL A   1      33.770  26.931  21.848  1.00  0.00    -0.462 OA
BRANCH  80  81
ATOM     81  C   UNL A   1      32.974  25.848  21.665  1.00  0.00     0.329 C 
ATOM     82  O   UNL A   1      32.495  25.567  20.563  1.00  0.00    -0.250 OA
BRANCH  81  83
ATOM     83  C   UNL A   1      32.699  24.902  22.876  1.00  0.00     0.195 C 
BRANCH  83  84
ATOM     84  C   UNL A   1      31.639  25.082  23.982  1.00  0.00     0.074 C 
BRANCH  84  85
ATOM     85  C   UNL A   1      31.586  24.167  25.160  1.00  0.00    -0.020 A 
ATOM     86  C   UNL A   1      30.423  23.674  25.724  1.00  0.00     0.087 A 
ATOM     87  C   UNL A   1      32.639  23.773  26.041  1.00  0.00     0.003 A 
ATOM     88  N   UNL A   1      30.753  22.802  26.718  1.00  0.00    -0.361 N 
ATOM     89  C   UNL A   1      32.105  22.854  26.946  1.00  0.00     0.046 A 
ATOM     90  C   UNL A   1      33.997  24.120  26.169  1.00  0.00     0.010 A 
ATOM     91  H   UNL A   1      30.119  22.223  27.200  1.00  0.00     0.166 HD
ATOM     92  C   UNL A   1      32.881  22.184  27.896  1.00  0.00     0.026 A 
ATOM     93  C   UNL A   1      34.786  23.479  27.128  1.00  0.00     0.001 A 
ATOM     94  C   UNL A   1      34.238  22.508  27.962  1.00  0.00     0.002 A 
ENDBRANCH  84  85
ENDBRANCH  83  84
BRANCH  83  95
ATOM     95  N   UNL A   1      32.595  23.517  22.357  1.00  0.00    -0.356 N 
ATOM     96  H   UNL A   1      32.182  23.374  21.476  1.00  0.00     0.163 HD
BRANCH  95  97
ATOM     97  C   UNL A   1      33.053  22.421  23.059  1.00  0.00     0.137 A 
ATOM     98  N   UNL A   1      32.062  21.556  23.329  1.00  0.00    -0.219 NA
ATOM     99  C   UNL A   1      34.373  22.226  23.513  1.00  0.00     0.043 A 
ATOM    100  C   UNL A   1      32.396  20.448  23.990  1.00  0.00     0.224 A 
ATOM    101  C   UNL A   1      34.575  21.038  24.233  1.00  0.00     0.076 A 
ATOM    102  C   UNL A   1      35.474  23.112  23.351  1.00  0.00     0.014 A 
ATOM    103  N   UNL A   1      33.607  20.148  24.466  1.00  0.00    -0.236 NA
ATOM    104  C   UNL A   1      35.837  20.770  24.750  1.00  0.00     0.029 A 
ATOM    105  C   UNL A   1      36.733  22.817  23.869  1.00  0.00     0.001 A 
ATOM    106  C   UNL A   1      36.915  21.641  24.575  1.00  0.00     0.002 A 
ENDBRANCH  95  97
ENDBRANCH  83  95
ENDBRANCH  81  83
ENDBRANCH  80  81
ENDBRANCH  79  80
ENDBRANCH  78  79
ENDBRANCH  77  78
ENDBRANCH  76  77
ENDBRANCH  75  76
ENDBRANCH  74  75
ENDBRANCH   1  74
TORSDOF 27
ENDMDL
