MODEL 1
REMARK VINA RESULT:      -8.4      0.000      0.000
REMARK SMILES Cc1ccc(S(=O)(=O)Nc2cc3c(cc2C(=O)OCCOCCOCCOCCOC(=O)c2ccc(-c4c5nc(c(-c6cc(S(=O)(=O)[O-])ccc6F)c6ccc([nH]6)c(-c6cc(S(=O)(=O)[O-])ccc6F)c6nc(c(-c7cc(S(=O)(=O)[O-])ccc7F)c7ccc4[nH]7)C=C6)C=C5)cc2)OCCO3)s1
REMARK SMILES IDX 24 1 23 2 22 3 21 4 20 5 19 6 18 7 16 8 17 9 15 10 10 11
REMARK SMILES IDX 11 12 12 13 14 14 13 15 99 16 96 17 98 18 97 19 9 20 6 22
REMARK SMILES IDX 7 23 8 24 5 25 1 26 2 27 3 28 100 29 4 30 25 31 26 32 27 33
REMARK SMILES IDX 28 34 29 35 30 36 31 37 32 38 33 39 34 40 95 41 35 42 94 43
REMARK SMILES IDX 36 44 37 45 38 46 88 47 39 48 93 49 87 50 89 51 40 52 92 53
REMARK SMILES IDX 86 54 85 55 41 57 73 58 53 59 72 60 54 61 57 62 71 63 90 64
REMARK SMILES IDX 55 65 56 66 70 68 91 69 58 70 42 71 43 72 51 73 44 74 50 75
REMARK SMILES IDX 52 76 49 77 45 78 46 79 47 80 48 81 74 82 75 83 83 84 76 85
REMARK SMILES IDX 82 86 84 87 81 88 77 89 78 90 79 91 80 92 59 93 60 94 68 95
REMARK SMILES IDX 61 96 67 97 69 98 66 99 62 100 63 101 64 102 65 103
REMARK H PARENT 9 21 89 56 57 67
REMARK Flexibility Score: inf
ROOT
ATOM      1  O   UNL A   1      35.752  33.315  28.793  1.00  0.00    -0.377 OA
ENDROOT
BRANCH   1   2
ATOM      2  C   UNL A   1      36.541  32.177  28.476  1.00  0.00     0.188 C 
BRANCH   2   3
ATOM      3  C   UNL A   1      36.233  31.035  29.443  1.00  0.00     0.188 C 
BRANCH   3   4
ATOM      4  O   UNL A   1      35.923  29.741  28.931  1.00  0.00    -0.376 OA
BRANCH   4   5
ATOM      5  C   UNL A   1      35.524  29.616  27.575  1.00  0.00     0.202 C 
BRANCH   5   6
ATOM      6  C   UNL A   1      34.017  29.571  27.333  1.00  0.00     0.261 C 
BRANCH   6   7
ATOM      7  O   UNL A   1      33.598  28.671  26.291  1.00  0.00    -0.460 OA
BRANCH   7   8
ATOM      8  C   UNL A   1      32.602  27.821  26.644  1.00  0.00     0.340 C 
ATOM      9  O   UNL A   1      31.735  28.013  27.483  1.00  0.00    -0.246 OA
BRANCH   8  10
ATOM     10  C   UNL A   1      32.736  26.521  25.956  1.00  0.00     0.088 A 
ATOM     11  C   UNL A   1      31.598  25.721  25.747  1.00  0.00     0.067 A 
ATOM     12  C   UNL A   1      31.746  24.349  25.555  1.00  0.00     0.078 A 
ATOM     13  C   UNL A   1      33.014  23.825  25.318  1.00  0.00     0.163 A 
ATOM     14  C   UNL A   1      34.011  25.996  25.704  1.00  0.00     0.068 A 
ATOM     15  C   UNL A   1      34.134  24.664  25.318  1.00  0.00     0.162 A 
ATOM     16  O   UNL A   1      33.064  22.496  24.987  1.00  0.00    -0.486 OA
ATOM     17  O   UNL A   1      35.381  24.231  24.949  1.00  0.00    -0.486 OA
ATOM     18  C   UNL A   1      34.410  22.017  24.890  1.00  0.00     0.271 C 
ATOM     19  C   UNL A   1      35.293  23.027  24.177  1.00  0.00     0.271 C 
BRANCH  11  20
ATOM     20  N   UNL A   1      30.307  26.331  25.576  1.00  0.00    -0.278 N 
ATOM     21  H   UNL A   1      29.742  26.579  26.343  1.00  0.00     0.180 HD
BRANCH  20  22
ATOM     22  S   UNL A   1      29.804  26.602  23.955  1.00  0.00     0.271 S 
ATOM     23  O   UNL A   1      28.455  26.096  23.840  1.00  0.00    -0.200 OA
ATOM     24  O   UNL A   1      30.861  26.105  23.097  1.00  0.00    -0.200 OA
BRANCH  22  25
ATOM     25  C   UNL A   1      29.766  28.364  23.651  1.00  0.00     0.140 A 
ATOM     26  C   UNL A   1      27.678  31.625  23.268  1.00  0.00     0.056 C 
ATOM     27  C   UNL A   1      28.722  30.570  23.376  1.00  0.00     0.003 A 
ATOM     28  C   UNL A   1      29.981  30.666  23.927  1.00  0.00     0.016 A 
ATOM     29  S   UNL A   1      28.448  28.991  22.782  1.00  0.00    -0.127 S 
ATOM     30  C   UNL A   1      30.624  29.395  23.999  1.00  0.00     0.034 A 
ENDBRANCH  22  25
ENDBRANCH  20  22
ENDBRANCH  11  20
ENDBRANCH   8  10
ENDBRANCH   7   8
ENDBRANCH   6   7
ENDBRANCH   5   6
ENDBRANCH   4   5
ENDBRANCH   3   4
ENDBRANCH   2   3
ENDBRANCH   1   2
BRANCH   1  31
ATOM     31  C   UNL A   1      34.566  33.025  29.517  1.00  0.00     0.188 C 
BRANCH  31  32
ATOM     32  C   UNL A   1      34.152  34.226  30.369  1.00  0.00     0.188 C 
BRANCH  32  33
ATOM     33  O   UNL A   1      34.852  34.174  31.615  1.00  0.00    -0.376 OA
BRANCH  33  34
ATOM     34  C   UNL A   1      34.002  34.125  32.759  1.00  0.00     0.202 C 
BRANCH  34  35
ATOM     35  C   UNL A   1      34.859  33.995  34.028  1.00  0.00     0.261 C 
BRANCH  35  36
ATOM     36  O   UNL A   1      35.626  32.774  34.078  1.00  0.00    -0.460 OA
BRANCH  36  37
ATOM     37  C   UNL A   1      36.823  32.868  34.696  1.00  0.00     0.338 C 
ATOM     38  O   UNL A   1      37.009  32.950  35.899  1.00  0.00    -0.246 OA
BRANCH  37  39
ATOM     39  C   UNL A   1      37.908  32.664  33.711  1.00  0.00     0.060 A 
ATOM     40  C   UNL A   1      38.981  31.848  34.090  1.00  0.00     0.016 A 
ATOM     41  C   UNL A   1      37.909  33.293  32.462  1.00  0.00     0.016 A 
ATOM     42  C   UNL A   1      40.083  31.705  33.253  1.00  0.00     0.010 A 
ATOM     43  C   UNL A   1      39.027  33.168  31.629  1.00  0.00     0.010 A 
ATOM     44  C   UNL A   1      40.138  32.415  32.047  1.00  0.00    -0.014 A 
BRANCH  44  45
ATOM     45  C   UNL A   1      41.459  32.578  31.392  1.00  0.00     0.031 A 
ATOM     46  C   UNL A   1      41.869  31.540  30.381  1.00  0.00     0.074 A 
ATOM     47  C   UNL A   1      42.231  33.655  31.621  1.00  0.00     0.049 A 
ATOM     48  N   UNL A   1      42.939  31.480  29.631  1.00  0.00    -0.248 NA
ATOM     49  C   UNL A   1      40.939  30.414  30.189  1.00  0.00     0.031 C 
ATOM     50  C   UNL A   1      41.910  34.746  32.540  1.00  0.00     0.029 A 
ATOM     51  N   UNL A   1      43.445  34.011  31.088  1.00  0.00    -0.354 N 
ATOM     52  C   UNL A   1      42.804  30.321  28.873  1.00  0.00     0.074 A 
ATOM     53  C   UNL A   1      41.574  29.685  29.286  1.00  0.00     0.031 C 
ATOM     54  C   UNL A   1      42.908  35.648  32.511  1.00  0.00     0.029 A 
ATOM     55  C   UNL A   1      43.948  35.188  31.590  1.00  0.00     0.049 A 
ATOM     56  H   UNL A   1      43.912  33.473  30.408  1.00  0.00     0.167 HD
ATOM     57  C   UNL A   1      43.626  29.839  27.910  1.00  0.00     0.034 A 
ATOM     58  C   UNL A   1      45.119  35.810  31.343  1.00  0.00     0.034 A 
ATOM     59  C   UNL A   1      44.861  30.475  27.525  1.00  0.00     0.049 A 
ATOM     60  C   UNL A   1      46.062  35.205  30.326  1.00  0.00     0.074 A 
ATOM     61  C   UNL A   1      45.772  30.076  26.564  1.00  0.00     0.029 A 
ATOM     62  N   UNL A   1      45.365  31.637  28.097  1.00  0.00    -0.354 N 
ATOM     63  N   UNL A   1      45.913  34.120  29.600  1.00  0.00    -0.248 NA
ATOM     64  C   UNL A   1      47.324  35.916  30.088  1.00  0.00     0.031 C 
ATOM     65  C   UNL A   1      46.862  30.954  26.607  1.00  0.00     0.029 A 
ATOM     66  C   UNL A   1      46.593  31.948  27.535  1.00  0.00     0.049 A 
ATOM     67  H   UNL A   1      44.916  32.162  28.798  1.00  0.00     0.167 HD
ATOM     68  C   UNL A   1      47.049  34.040  28.796  1.00  0.00     0.074 A 
ATOM     69  C   UNL A   1      47.861  35.196  29.114  1.00  0.00     0.031 C 
ATOM     70  C   UNL A   1      47.393  33.100  27.877  1.00  0.00     0.034 A 
BRANCH  57  71
ATOM     71  C   UNL A   1      43.238  28.534  27.260  1.00  0.00     0.023 A 
ATOM     72  C   UNL A   1      43.695  27.296  27.748  1.00  0.00     0.031 A 
ATOM     73  C   UNL A   1      42.426  28.530  26.112  1.00  0.00     0.131 A 
ATOM     74  C   UNL A   1      43.391  26.115  27.054  1.00  0.00     0.055 A 
ATOM     75  C   UNL A   1      42.065  27.345  25.470  1.00  0.00     0.041 A 
ATOM     76  F   UNL A   1      41.985  29.683  25.585  1.00  0.00    -0.206 F 
ATOM     77  C   UNL A   1      42.558  26.129  25.932  1.00  0.00     0.022 A 
BRANCH  74  78
ATOM     78  S   UNL A   1      44.208  24.575  27.556  1.00  0.00     0.124 S 
ATOM     79  O   UNL A   1      43.066  23.678  27.725  1.00  0.00    -0.237 OA
ATOM     80  O   UNL A   1      45.078  24.294  26.420  1.00  0.00    -0.237 OA
ATOM     81  O   UNL A   1      44.895  24.938  28.794  1.00  0.00    -0.744 OA
ENDBRANCH  74  78
ENDBRANCH  57  71
BRANCH  58  82
ATOM     82  C   UNL A   1      45.499  37.047  32.088  1.00  0.00     0.023 A 
ATOM     83  C   UNL A   1      45.122  38.322  31.635  1.00  0.00     0.031 A 
ATOM     84  C   UNL A   1      46.321  36.972  33.227  1.00  0.00     0.131 A 
ATOM     85  C   UNL A   1      45.609  39.468  32.286  1.00  0.00     0.055 A 
ATOM     86  C   UNL A   1      46.756  38.113  33.903  1.00  0.00     0.041 A 
ATOM     87  F   UNL A   1      46.718  35.780  33.702  1.00  0.00    -0.206 F 
ATOM     88  C   UNL A   1      46.413  39.372  33.423  1.00  0.00     0.022 A 
BRANCH  85  89
ATOM     89  S   UNL A   1      45.262  41.095  31.559  1.00  0.00     0.124 S 
ATOM     90  O   UNL A   1      43.815  41.039  31.385  1.00  0.00    -0.237 OA
ATOM     91  O   UNL A   1      45.751  41.998  32.594  1.00  0.00    -0.237 OA
ATOM     92  O   UNL A   1      46.040  41.088  30.322  1.00  0.00    -0.744 OA
ENDBRANCH  85  89
ENDBRANCH  58  82
BRANCH  70  93
ATOM     93  C   UNL A   1      48.686  33.315  27.127  1.00  0.00     0.023 A 
ATOM     94  C   UNL A   1      49.889  32.715  27.539  1.00  0.00     0.031 A 
ATOM     95  C   UNL A   1      48.717  34.143  25.990  1.00  0.00     0.131 A 
ATOM     96  C   UNL A   1      51.082  33.003  26.861  1.00  0.00     0.055 A 
ATOM     97  C   UNL A   1      49.896  34.372  25.279  1.00  0.00     0.041 A 
ATOM     98  F   UNL A   1      47.599  34.742  25.550  1.00  0.00    -0.206 F 
ATOM     99  C   UNL A   1      51.091  33.813  25.723  1.00  0.00     0.022 A 
BRANCH  96 100
ATOM    100  S   UNL A   1      52.644  32.388  27.550  1.00  0.00     0.124 S 
ATOM    101  O   UNL A   1      53.282  33.620  28.001  1.00  0.00    -0.237 OA
ATOM    102  O   UNL A   1      52.186  31.485  28.602  1.00  0.00    -0.237 OA
ATOM    103  O   UNL A   1      53.288  31.736  26.411  1.00  0.00    -0.744 OA
ENDBRANCH  96 100
ENDBRANCH  70  93
ENDBRANCH  44  45
ENDBRANCH  37  39
ENDBRANCH  36  37
ENDBRANCH  35  36
ENDBRANCH  34  35
ENDBRANCH  33  34
ENDBRANCH  32  33
ENDBRANCH  31  32
ENDBRANCH   1  31
TORSDOF 26
ENDMDL
MODEL 2
REMARK VINA RESULT:      -8.4      5.110     10.957
REMARK SMILES Cc1ccc(S(=O)(=O)Nc2cc3c(cc2C(=O)OCCOCCOCCOCCOC(=O)c2ccc(-c4c5nc(c(-c6cc(S(=O)(=O)[O-])ccc6F)c6ccc([nH]6)c(-c6cc(S(=O)(=O)[O-])ccc6F)c6nc(c(-c7cc(S(=O)(=O)[O-])ccc7F)c7ccc4[nH]7)C=C6)C=C5)cc2)OCCO3)s1
REMARK SMILES IDX 24 1 23 2 22 3 21 4 20 5 19 6 18 7 16 8 17 9 15 10 10 11
REMARK SMILES IDX 11 12 12 13 14 14 13 15 99 16 96 17 98 18 97 19 9 20 6 22
REMARK SMILES IDX 7 23 8 24 5 25 1 26 2 27 3 28 100 29 4 30 25 31 26 32 27 33
REMARK SMILES IDX 28 34 29 35 30 36 31 37 32 38 33 39 34 40 95 41 35 42 94 43
REMARK SMILES IDX 36 44 37 45 38 46 88 47 39 48 93 49 87 50 89 51 40 52 92 53
REMARK SMILES IDX 86 54 85 55 41 57 73 58 53 59 72 60 54 61 57 62 71 63 90 64
REMARK SMILES IDX 55 65 56 66 70 68 91 69 58 70 42 71 43 72 51 73 44 74 50 75
REMARK SMILES IDX 52 76 49 77 45 78 46 79 47 80 48 81 74 82 75 83 83 84 76 85
REMARK SMILES IDX 82 86 84 87 81 88 77 89 78 90 79 91 80 92 59 93 60 94 68 95
REMARK SMILES IDX 61 96 67 97 69 98 66 99 62 100 63 101 64 102 65 103
REMARK H PARENT 9 21 89 56 57 67
REMARK Flexibility Score: inf
ROOT
ATOM      1  O   UNL A   1      36.159  32.962  30.057  1.00  0.00    -0.377 OA
ENDROOT
BRANCH   1   2
ATOM      2  C   UNL A   1      35.807  32.885  28.683  1.00  0.00     0.188 C 
BRANCH   2   3
ATOM      3  C   UNL A   1      36.405  31.627  28.054  1.00  0.00     0.188 C 
BRANCH   3   4
ATOM      4  O   UNL A   1      35.541  30.607  27.558  1.00  0.00    -0.376 OA
BRANCH   4   5
ATOM      5  C   UNL A   1      34.179  30.919  27.313  1.00  0.00     0.202 C 
BRANCH   5   6
ATOM      6  C   UNL A   1      33.452  29.984  26.349  1.00  0.00     0.261 C 
BRANCH   6   7
ATOM      7  O   UNL A   1      33.985  28.649  26.283  1.00  0.00    -0.460 OA
BRANCH   7   8
ATOM      8  C   UNL A   1      33.677  27.971  25.150  1.00  0.00     0.340 C 
ATOM      9  O   UNL A   1      33.695  28.404  24.008  1.00  0.00    -0.246 OA
BRANCH   8  10
ATOM     10  C   UNL A   1      33.184  26.612  25.454  1.00  0.00     0.088 A 
ATOM     11  C   UNL A   1      31.821  26.413  25.737  1.00  0.00     0.067 A 
ATOM     12  C   UNL A   1      31.426  25.294  26.469  1.00  0.00     0.078 A 
ATOM     13  C   UNL A   1      32.338  24.266  26.691  1.00  0.00     0.163 A 
ATOM     14  C   UNL A   1      34.099  25.572  25.666  1.00  0.00     0.068 A 
ATOM     15  C   UNL A   1      33.652  24.376  26.221  1.00  0.00     0.162 A 
ATOM     16  O   UNL A   1      31.839  23.135  27.284  1.00  0.00    -0.486 OA
ATOM     17  O   UNL A   1      34.548  23.341  26.283  1.00  0.00    -0.486 OA
ATOM     18  C   UNL A   1      32.869  22.190  27.589  1.00  0.00     0.271 C 
ATOM     19  C   UNL A   1      33.867  22.090  26.448  1.00  0.00     0.271 C 
BRANCH  11  20
ATOM     20  N   UNL A   1      30.826  27.265  25.145  1.00  0.00    -0.278 N 
ATOM     21  H   UNL A   1      30.518  28.090  25.586  1.00  0.00     0.180 HD
BRANCH  20  22
ATOM     22  S   UNL A   1      30.204  26.764  23.623  1.00  0.00     0.271 S 
ATOM     23  O   UNL A   1      30.632  27.743  22.648  1.00  0.00    -0.200 OA
ATOM     24  O   UNL A   1      28.798  26.474  23.817  1.00  0.00    -0.200 OA
BRANCH  22  25
ATOM     25  C   UNL A   1      30.935  25.190  23.192  1.00  0.00     0.140 A 
ATOM     26  C   UNL A   1      34.142  23.052  22.657  1.00  0.00     0.056 C 
ATOM     27  C   UNL A   1      32.766  23.601  22.799  1.00  0.00     0.003 A 
ATOM     28  C   UNL A   1      31.642  22.973  23.289  1.00  0.00     0.016 A 
ATOM     29  S   UNL A   1      32.402  25.205  22.334  1.00  0.00    -0.127 S 
ATOM     30  C   UNL A   1      30.550  23.881  23.427  1.00  0.00     0.034 A 
ENDBRANCH  22  25
ENDBRANCH  20  22
ENDBRANCH  11  20
ENDBRANCH   8  10
ENDBRANCH   7   8
ENDBRANCH   6   7
ENDBRANCH   5   6
ENDBRANCH   4   5
ENDBRANCH   3   4
ENDBRANCH   2   3
ENDBRANCH   1   2
BRANCH   1  31
ATOM     31  C   UNL A   1      35.179  32.444  30.944  1.00  0.00     0.188 C 
BRANCH  31  32
ATOM     32  C   UNL A   1      35.845  31.670  32.084  1.00  0.00     0.188 C 
BRANCH  32  33
ATOM     33  O   UNL A   1      35.994  30.303  31.691  1.00  0.00    -0.376 OA
BRANCH  33  34
ATOM     34  C   UNL A   1      37.122  29.651  32.271  1.00  0.00     0.202 C 
BRANCH  34  35
ATOM     35  C   UNL A   1      37.887  28.884  31.181  1.00  0.00     0.261 C 
BRANCH  35  36
ATOM     36  O   UNL A   1      38.376  29.733  30.121  1.00  0.00    -0.460 OA
BRANCH  36  37
ATOM     37  C   UNL A   1      39.720  29.817  30.021  1.00  0.00     0.338 C 
ATOM     38  O   UNL A   1      40.420  29.235  29.208  1.00  0.00    -0.246 OA
BRANCH  37  39
ATOM     39  C   UNL A   1      40.221  30.875  30.925  1.00  0.00     0.060 A 
ATOM     40  C   UNL A   1      41.206  30.520  31.855  1.00  0.00     0.016 A 
ATOM     41  C   UNL A   1      39.708  32.176  30.906  1.00  0.00     0.016 A 
ATOM     42  C   UNL A   1      41.638  31.440  32.806  1.00  0.00     0.010 A 
ATOM     43  C   UNL A   1      40.125  33.096  31.876  1.00  0.00     0.010 A 
ATOM     44  C   UNL A   1      41.053  32.711  32.859  1.00  0.00    -0.014 A 
BRANCH  44  45
ATOM     45  C   UNL A   1      41.217  33.504  34.103  1.00  0.00     0.031 A 
ATOM     46  C   UNL A   1      42.262  34.588  34.107  1.00  0.00     0.074 A 
ATOM     47  C   UNL A   1      40.409  33.326  35.163  1.00  0.00     0.049 A 
ATOM     48  N   UNL A   1      42.565  35.453  35.039  1.00  0.00    -0.248 NA
ATOM     49  C   UNL A   1      43.076  34.713  32.885  1.00  0.00     0.031 C 
ATOM     50  C   UNL A   1      39.332  32.341  35.250  1.00  0.00     0.029 A 
ATOM     51  N   UNL A   1      40.366  33.978  36.370  1.00  0.00    -0.354 N 
ATOM     52  C   UNL A   1      43.592  36.231  34.513  1.00  0.00     0.074 A 
ATOM     53  C   UNL A   1      43.893  35.705  33.201  1.00  0.00     0.031 C 
ATOM     54  C   UNL A   1      38.738  32.450  36.453  1.00  0.00     0.029 A 
ATOM     55  C   UNL A   1      39.407  33.495  37.227  1.00  0.00     0.049 A 
ATOM     56  H   UNL A   1      40.968  34.723  36.601  1.00  0.00     0.167 HD
ATOM     57  C   UNL A   1      44.219  37.295  35.070  1.00  0.00     0.034 A 
ATOM     58  C   UNL A   1      39.115  33.851  38.496  1.00  0.00     0.034 A 
ATOM     59  C   UNL A   1      43.923  37.793  36.389  1.00  0.00     0.049 A 
ATOM     60  C   UNL A   1      39.889  34.986  39.129  1.00  0.00     0.074 A 
ATOM     61  C   UNL A   1      44.495  38.862  37.055  1.00  0.00     0.029 A 
ATOM     62  N   UNL A   1      42.982  37.242  37.251  1.00  0.00    -0.354 N 
ATOM     63  N   UNL A   1      40.844  35.727  38.613  1.00  0.00    -0.248 NA
ATOM     64  C   UNL A   1      39.537  35.339  40.510  1.00  0.00     0.031 C 
ATOM     65  C   UNL A   1      43.953  38.910  38.345  1.00  0.00     0.029 A 
ATOM     66  C   UNL A   1      42.984  37.926  38.456  1.00  0.00     0.049 A 
ATOM     67  H   UNL A   1      42.400  36.478  37.036  1.00  0.00     0.167 HD
ATOM     68  C   UNL A   1      41.181  36.654  39.598  1.00  0.00     0.074 A 
ATOM     69  C   UNL A   1      40.314  36.389  40.727  1.00  0.00     0.031 C 
ATOM     70  C   UNL A   1      42.119  37.637  39.575  1.00  0.00     0.034 A 
BRANCH  57  71
ATOM     71  C   UNL A   1      45.325  37.941  34.271  1.00  0.00     0.023 A 
ATOM     72  C   UNL A   1      45.084  39.030  33.414  1.00  0.00     0.031 A 
ATOM     73  C   UNL A   1      46.635  37.435  34.340  1.00  0.00     0.131 A 
ATOM     74  C   UNL A   1      46.120  39.534  32.615  1.00  0.00     0.055 A 
ATOM     75  C   UNL A   1      47.678  37.991  33.599  1.00  0.00     0.041 A 
ATOM     76  F   UNL A   1      46.918  36.378  35.119  1.00  0.00    -0.206 F 
ATOM     77  C   UNL A   1      47.422  39.039  32.720  1.00  0.00     0.022 A 
BRANCH  74  78
ATOM     78  S   UNL A   1      45.719  40.757  31.337  1.00  0.00     0.124 S 
ATOM     79  O   UNL A   1      44.358  40.368  30.974  1.00  0.00    -0.237 OA
ATOM     80  O   UNL A   1      45.853  42.020  32.054  1.00  0.00    -0.237 OA
ATOM     81  O   UNL A   1      46.724  40.517  30.303  1.00  0.00    -0.744 OA
ENDBRANCH  74  78
ENDBRANCH  57  71
BRANCH  58  82
ATOM     82  C   UNL A   1      38.079  33.111  39.277  1.00  0.00     0.023 A 
ATOM     83  C   UNL A   1      38.397  32.441  40.469  1.00  0.00     0.031 A 
ATOM     84  C   UNL A   1      36.763  32.998  38.792  1.00  0.00     0.131 A 
ATOM     85  C   UNL A   1      37.429  31.646  41.106  1.00  0.00     0.055 A 
ATOM     86  C   UNL A   1      35.789  32.252  39.459  1.00  0.00     0.041 A 
ATOM     87  F   UNL A   1      36.402  33.613  37.654  1.00  0.00    -0.206 F 
ATOM     88  C   UNL A   1      36.124  31.557  40.615  1.00  0.00     0.022 A 
BRANCH  85  89
ATOM     89  S   UNL A   1      37.929  30.640  42.532  1.00  0.00     0.124 S 
ATOM     90  O   UNL A   1      36.732  30.690  43.364  1.00  0.00    -0.237 OA
ATOM     91  O   UNL A   1      38.224  29.356  41.907  1.00  0.00    -0.237 OA
ATOM     92  O   UNL A   1      39.088  31.355  43.062  1.00  0.00    -0.744 OA
ENDBRANCH  85  89
ENDBRANCH  58  82
BRANCH  70  93
ATOM     93  C   UNL A   1      42.220  38.517  40.797  1.00  0.00     0.023 A 
ATOM     94  C   UNL A   1      41.445  39.682  40.936  1.00  0.00     0.031 A 
ATOM     95  C   UNL A   1      43.114  38.192  41.834  1.00  0.00     0.131 A 
ATOM     96  C   UNL A   1      41.626  40.514  42.051  1.00  0.00     0.055 A 
ATOM     97  C   UNL A   1      43.241  38.989  42.972  1.00  0.00     0.041 A 
ATOM     98  F   UNL A   1      43.879  37.092  41.756  1.00  0.00    -0.206 F 
ATOM     99  C   UNL A   1      42.505  40.165  43.079  1.00  0.00     0.022 A 
BRANCH  96 100
ATOM    100  S   UNL A   1      40.771  42.114  42.089  1.00  0.00     0.124 S 
ATOM    101  O   UNL A   1      41.827  43.031  41.674  1.00  0.00    -0.237 OA
ATOM    102  O   UNL A   1      39.688  41.912  41.133  1.00  0.00    -0.237 OA
ATOM    103  O   UNL A   1      40.350  42.243  43.483  1.00  0.00    -0.744 OA
ENDBRANCH  96 100
ENDBRANCH  70  93
ENDBRANCH  44  45
ENDBRANCH  37  39
ENDBRANCH  36  37
ENDBRANCH  35  36
ENDBRANCH  34  35
ENDBRANCH  33  34
ENDBRANCH  32  33
ENDBRANCH  31  32
ENDBRANCH   1  31
TORSDOF 26
ENDMDL
MODEL 3
REMARK VINA RESULT:      -8.1      4.603      8.016
REMARK SMILES Cc1ccc(S(=O)(=O)Nc2cc3c(cc2C(=O)OCCOCCOCCOCCOC(=O)c2ccc(-c4c5nc(c(-c6cc(S(=O)(=O)[O-])ccc6F)c6ccc([nH]6)c(-c6cc(S(=O)(=O)[O-])ccc6F)c6nc(c(-c7cc(S(=O)(=O)[O-])ccc7F)c7ccc4[nH]7)C=C6)C=C5)cc2)OCCO3)s1
REMARK SMILES IDX 24 1 23 2 22 3 21 4 20 5 19 6 18 7 16 8 17 9 15 10 10 11
REMARK SMILES IDX 11 12 12 13 14 14 13 15 99 16 96 17 98 18 97 19 9 20 6 22
REMARK SMILES IDX 7 23 8 24 5 25 1 26 2 27 3 28 100 29 4 30 25 31 26 32 27 33
REMARK SMILES IDX 28 34 29 35 30 36 31 37 32 38 33 39 34 40 95 41 35 42 94 43
REMARK SMILES IDX 36 44 37 45 38 46 88 47 39 48 93 49 87 50 89 51 40 52 92 53
REMARK SMILES IDX 86 54 85 55 41 57 73 58 53 59 72 60 54 61 57 62 71 63 90 64
REMARK SMILES IDX 55 65 56 66 70 68 91 69 58 70 42 71 43 72 51 73 44 74 50 75
REMARK SMILES IDX 52 76 49 77 45 78 46 79 47 80 48 81 74 82 75 83 83 84 76 85
REMARK SMILES IDX 82 86 84 87 81 88 77 89 78 90 79 91 80 92 59 93 60 94 68 95
REMARK SMILES IDX 61 96 67 97 69 98 66 99 62 100 63 101 64 102 65 103
REMARK H PARENT 9 21 89 56 57 67
REMARK Flexibility Score: inf
ROOT
ATOM      1  O   UNL A   1      34.699  31.172  27.296  1.00  0.00    -0.377 OA
ENDROOT
BRANCH   1   2
ATOM      2  C   UNL A   1      33.350  31.283  27.728  1.00  0.00     0.188 C 
BRANCH   2   3
ATOM      3  C   UNL A   1      32.496  30.196  27.080  1.00  0.00     0.188 C 
BRANCH   3   4
ATOM      4  O   UNL A   1      32.716  28.828  27.419  1.00  0.00    -0.376 OA
BRANCH   4   5
ATOM      5  C   UNL A   1      33.670  28.082  26.679  1.00  0.00     0.202 C 
BRANCH   5   6
ATOM      6  C   UNL A   1      33.468  28.073  25.166  1.00  0.00     0.261 C 
BRANCH   6   7
ATOM      7  O   UNL A   1      34.135  27.002  24.473  1.00  0.00    -0.460 OA
BRANCH   7   8
ATOM      8  C   UNL A   1      33.468  26.524  23.394  1.00  0.00     0.340 C 
ATOM      9  O   UNL A   1      33.128  27.152  22.402  1.00  0.00    -0.246 OA
BRANCH   8  10
ATOM     10  C   UNL A   1      33.070  25.115  23.589  1.00  0.00     0.088 A 
ATOM     11  C   UNL A   1      31.706  24.776  23.641  1.00  0.00     0.067 A 
ATOM     12  C   UNL A   1      31.312  23.601  24.279  1.00  0.00     0.078 A 
ATOM     13  C   UNL A   1      32.275  22.658  24.629  1.00  0.00     0.163 A 
ATOM     14  C   UNL A   1      34.038  24.161  23.930  1.00  0.00     0.068 A 
ATOM     15  C   UNL A   1      33.629  22.909  24.383  1.00  0.00     0.162 A 
ATOM     16  O   UNL A   1      31.801  21.465  25.113  1.00  0.00    -0.486 OA
ATOM     17  O   UNL A   1      34.602  21.963  24.573  1.00  0.00    -0.486 OA
ATOM     18  C   UNL A   1      32.858  20.613  25.566  1.00  0.00     0.271 C 
ATOM     19  C   UNL A   1      34.033  20.648  24.603  1.00  0.00     0.271 C 
BRANCH  11  20
ATOM     20  N   UNL A   1      30.740  25.549  22.908  1.00  0.00    -0.278 N 
ATOM     21  H   UNL A   1      30.717  25.555  21.924  1.00  0.00     0.180 HD
BRANCH  20  22
ATOM     22  S   UNL A   1      29.626  26.461  23.847  1.00  0.00     0.271 S 
ATOM     23  O   UNL A   1      30.238  26.675  25.140  1.00  0.00    -0.200 OA
ATOM     24  O   UNL A   1      28.341  25.802  23.734  1.00  0.00    -0.200 OA
BRANCH  22  25
ATOM     25  C   UNL A   1      29.387  28.054  23.072  1.00  0.00     0.140 A 
ATOM     26  C   UNL A   1      27.735  31.576  23.157  1.00  0.00     0.056 C 
ATOM     27  C   UNL A   1      28.503  30.336  22.862  1.00  0.00     0.003 A 
ATOM     28  C   UNL A   1      29.754  30.219  22.296  1.00  0.00     0.016 A 
ATOM     29  S   UNL A   1      27.866  28.793  23.229  1.00  0.00    -0.127 S 
ATOM     30  C   UNL A   1      30.226  28.874  22.334  1.00  0.00     0.034 A 
ENDBRANCH  22  25
ENDBRANCH  20  22
ENDBRANCH  11  20
ENDBRANCH   8  10
ENDBRANCH   7   8
ENDBRANCH   6   7
ENDBRANCH   5   6
ENDBRANCH   4   5
ENDBRANCH   3   4
ENDBRANCH   2   3
ENDBRANCH   1   2
BRANCH   1  31
ATOM     31  C   UNL A   1      35.593  32.081  27.920  1.00  0.00     0.188 C 
BRANCH  31  32
ATOM     32  C   UNL A   1      36.843  31.350  28.412  1.00  0.00     0.188 C 
BRANCH  32  33
ATOM     33  O   UNL A   1      36.898  30.059  27.798  1.00  0.00    -0.376 OA
BRANCH  33  34
ATOM     34  C   UNL A   1      38.212  29.516  27.700  1.00  0.00     0.202 C 
BRANCH  34  35
ATOM     35  C   UNL A   1      38.380  28.390  28.733  1.00  0.00     0.261 C 
BRANCH  35  36
ATOM     36  O   UNL A   1      39.574  28.521  29.532  1.00  0.00    -0.460 OA
BRANCH  36  37
ATOM     37  C   UNL A   1      39.399  29.087  30.746  1.00  0.00     0.338 C 
ATOM     38  O   UNL A   1      39.000  28.523  31.752  1.00  0.00    -0.246 OA
BRANCH  37  39
ATOM     39  C   UNL A   1      39.946  30.461  30.737  1.00  0.00     0.060 A 
ATOM     40  C   UNL A   1      41.337  30.603  30.677  1.00  0.00     0.016 A 
ATOM     41  C   UNL A   1      39.127  31.590  30.837  1.00  0.00     0.016 A 
ATOM     42  C   UNL A   1      41.919  31.863  30.777  1.00  0.00     0.010 A 
ATOM     43  C   UNL A   1      39.711  32.856  30.960  1.00  0.00     0.010 A 
ATOM     44  C   UNL A   1      41.110  32.988  30.982  1.00  0.00    -0.014 A 
BRANCH  44  45
ATOM     45  C   UNL A   1      41.750  34.225  31.495  1.00  0.00     0.031 A 
ATOM     46  C   UNL A   1      41.864  34.384  32.989  1.00  0.00     0.074 A 
ATOM     47  C   UNL A   1      42.288  35.135  30.665  1.00  0.00     0.049 A 
ATOM     48  N   UNL A   1      42.426  35.335  33.687  1.00  0.00    -0.248 NA
ATOM     49  C   UNL A   1      41.261  33.317  33.805  1.00  0.00     0.031 C 
ATOM     50  C   UNL A   1      42.281  35.058  29.205  1.00  0.00     0.029 A 
ATOM     51  N   UNL A   1      42.957  36.303  30.936  1.00  0.00    -0.354 N 
ATOM     52  C   UNL A   1      42.256  34.976  35.020  1.00  0.00     0.074 A 
ATOM     53  C   UNL A   1      41.498  33.746  35.034  1.00  0.00     0.031 C 
ATOM     54  C   UNL A   1      42.910  36.139  28.708  1.00  0.00     0.029 A 
ATOM     55  C   UNL A   1      43.344  36.994  29.813  1.00  0.00     0.049 A 
ATOM     56  H   UNL A   1      43.142  36.617  31.851  1.00  0.00     0.167 HD
ATOM     57  C   UNL A   1      42.702  35.609  36.131  1.00  0.00     0.034 A 
ATOM     58  C   UNL A   1      43.964  38.187  29.695  1.00  0.00     0.034 A 
ATOM     59  C   UNL A   1      43.438  36.848  36.101  1.00  0.00     0.049 A 
ATOM     60  C   UNL A   1      44.376  38.919  30.954  1.00  0.00     0.074 A 
ATOM     61  C   UNL A   1      43.939  37.579  37.163  1.00  0.00     0.029 A 
ATOM     62  N   UNL A   1      43.763  37.548  34.945  1.00  0.00    -0.354 N 
ATOM     63  N   UNL A   1      44.228  38.558  32.209  1.00  0.00    -0.248 NA
ATOM     64  C   UNL A   1      45.049  40.212  30.778  1.00  0.00     0.031 C 
ATOM     65  C   UNL A   1      44.500  38.757  36.654  1.00  0.00     0.029 A 
ATOM     66  C   UNL A   1      44.424  38.722  35.271  1.00  0.00     0.049 A 
ATOM     67  H   UNL A   1      43.553  37.254  34.029  1.00  0.00     0.167 HD
ATOM     68  C   UNL A   1      44.820  39.566  32.967  1.00  0.00     0.074 A 
ATOM     69  C   UNL A   1      45.343  40.536  32.028  1.00  0.00     0.031 C 
ATOM     70  C   UNL A   1      44.926  39.682  34.317  1.00  0.00     0.034 A 
BRANCH  57  71
ATOM     71  C   UNL A   1      42.348  34.997  37.464  1.00  0.00     0.023 A 
ATOM     72  C   UNL A   1      43.138  33.995  38.056  1.00  0.00     0.031 A 
ATOM     73  C   UNL A   1      41.179  35.397  38.137  1.00  0.00     0.131 A 
ATOM     74  C   UNL A   1      42.718  33.384  39.246  1.00  0.00     0.055 A 
ATOM     75  C   UNL A   1      40.807  34.838  39.360  1.00  0.00     0.041 A 
ATOM     76  F   UNL A   1      40.371  36.328  37.606  1.00  0.00    -0.206 F 
ATOM     77  C   UNL A   1      41.570  33.816  39.916  1.00  0.00     0.022 A 
BRANCH  74  78
ATOM     78  S   UNL A   1      43.616  31.924  39.841  1.00  0.00     0.124 S 
ATOM     79  O   UNL A   1      44.894  32.509  40.242  1.00  0.00    -0.237 OA
ATOM     80  O   UNL A   1      42.764  31.447  40.923  1.00  0.00    -0.237 OA
ATOM     81  O   UNL A   1      43.678  31.056  38.666  1.00  0.00    -0.744 OA
ENDBRANCH  74  78
ENDBRANCH  57  71
BRANCH  58  82
ATOM     82  C   UNL A   1      44.201  38.795  28.352  1.00  0.00     0.023 A 
ATOM     83  C   UNL A   1      45.383  38.551  27.634  1.00  0.00     0.031 A 
ATOM     84  C   UNL A   1      43.275  39.701  27.803  1.00  0.00     0.131 A 
ATOM     85  C   UNL A   1      45.631  39.244  26.437  1.00  0.00     0.055 A 
ATOM     86  C   UNL A   1      43.501  40.344  26.585  1.00  0.00     0.041 A 
ATOM     87  F   UNL A   1      42.130  39.977  28.447  1.00  0.00    -0.206 F 
ATOM     88  C   UNL A   1      44.693  40.129  25.902  1.00  0.00     0.022 A 
BRANCH  85  89
ATOM     89  S   UNL A   1      47.251  39.052  25.639  1.00  0.00     0.124 S 
ATOM     90  O   UNL A   1      48.153  39.535  26.678  1.00  0.00    -0.237 OA
ATOM     91  O   UNL A   1      47.286  37.618  25.372  1.00  0.00    -0.237 OA
ATOM     92  O   UNL A   1      47.149  39.902  24.455  1.00  0.00    -0.744 OA
ENDBRANCH  85  89
ENDBRANCH  58  82
BRANCH  70  93
ATOM     93  C   UNL A   1      45.671  40.885  34.845  1.00  0.00     0.023 A 
ATOM     94  C   UNL A   1      47.059  40.859  35.063  1.00  0.00     0.031 A 
ATOM     95  C   UNL A   1      44.978  42.072  35.147  1.00  0.00     0.131 A 
ATOM     96  C   UNL A   1      47.700  41.972  35.628  1.00  0.00     0.055 A 
ATOM     97  C   UNL A   1      45.632  43.198  35.646  1.00  0.00     0.041 A 
ATOM     98  F   UNL A   1      43.651  42.155  34.959  1.00  0.00    -0.206 F 
ATOM     99  C   UNL A   1      46.998  43.148  35.904  1.00  0.00     0.022 A 
BRANCH  96 100
ATOM    100  S   UNL A   1      49.446  41.824  36.097  1.00  0.00     0.124 S 
ATOM    101  O   UNL A   1      49.352  41.317  37.462  1.00  0.00    -0.237 OA
ATOM    102  O   UNL A   1      49.958  40.886  35.102  1.00  0.00    -0.237 OA
ATOM    103  O   UNL A   1      49.950  43.191  35.976  1.00  0.00    -0.744 OA
ENDBRANCH  96 100
ENDBRANCH  70  93
ENDBRANCH  44  45
ENDBRANCH  37  39
ENDBRANCH  36  37
ENDBRANCH  35  36
ENDBRANCH  34  35
ENDBRANCH  33  34
ENDBRANCH  32  33
ENDBRANCH  31  32
ENDBRANCH   1  31
TORSDOF 26
ENDMDL
