MODEL 1
REMARK VINA RESULT:      -9.3      0.000      0.000
REMARK SMILES Cc1nc(-c2ccc(C(F)(F)F)cc2)nc(SCC(=O)OCCOCCOCCOCCOC(=O)c2ccc(-c3c4nc(c(-c5cc(S(=O)(=O)[O-])ccc5F)c5ccc([nH]5)c(-c5cc(S(=O)(=O)[O-])ccc5F)c5nc(c(-c6cc(S(=O)(=O)[O-])ccc6F)c6ccc3[nH]6)C=C5)C=C4)cc2)c1C
REMARK SMILES IDX 26 1 25 2 24 3 23 4 22 5 21 6 19 7 20 8 18 9 17 10 16 11
REMARK SMILES IDX 1 12 2 13 3 14 99 15 4 16 100 17 15 18 5 19 6 20 14 21 7 22
REMARK SMILES IDX 13 23 8 24 9 25 10 26 11 27 12 28 27 29 28 30 29 31 30 32
REMARK SMILES IDX 31 33 32 34 33 35 34 36 35 37 36 38 37 39 98 40 38 41 97 42
REMARK SMILES IDX 39 43 40 44 41 45 91 46 42 47 96 48 90 49 92 50 43 51 95 52
REMARK SMILES IDX 89 53 88 54 44 56 76 57 56 58 75 59 57 60 60 61 74 62 93 63
REMARK SMILES IDX 58 64 59 65 73 67 94 68 61 69 45 70 46 71 54 72 47 73 53 74
REMARK SMILES IDX 55 75 52 76 48 77 49 78 50 79 51 80 77 81 78 82 86 83 79 84
REMARK SMILES IDX 85 85 87 86 84 87 80 88 81 89 82 90 83 91 62 92 63 93 71 94
REMARK SMILES IDX 64 95 70 96 72 97 69 98 65 99 66 100 67 101 68 102
REMARK H PARENT 92 55 60 66
REMARK Flexibility Score: inf
ROOT
ATOM      1  C   UNL A   1      34.323  24.387  23.497  1.00  0.00     0.188 C 
ENDROOT
BRANCH   1   2
ATOM      2  C   UNL A   1      33.601  25.555  22.806  1.00  0.00     0.188 C 
BRANCH   2   3
ATOM      3  O   UNL A   1      33.383  26.764  23.504  1.00  0.00    -0.376 OA
BRANCH   3   4
ATOM      4  C   UNL A   1      32.230  27.548  23.266  1.00  0.00     0.202 C 
BRANCH   4   5
ATOM      5  C   UNL A   1      31.616  28.496  24.317  1.00  0.00     0.261 C 
BRANCH   5   6
ATOM      6  O   UNL A   1      32.272  28.629  25.602  1.00  0.00    -0.463 OA
BRANCH   6   7
ATOM      7  C   UNL A   1      32.263  29.863  26.174  1.00  0.00     0.316 C 
ATOM      8  O   UNL A   1      31.541  30.777  25.775  1.00  0.00    -0.251 OA
BRANCH   7   9
ATOM      9  C   UNL A   1      33.293  30.113  27.267  1.00  0.00     0.199 C 
BRANCH   9  10
ATOM     10  S   UNL A   1      33.793  31.802  27.738  1.00  0.00    -0.094 SA
BRANCH  10  11
ATOM     11  C   UNL A   1      35.101  31.864  28.995  1.00  0.00     0.104 A 
ATOM     12  C   UNL A   1      36.022  32.556  32.585  1.00  0.00     0.067 C 
ATOM     13  C   UNL A   1      36.036  32.101  31.150  1.00  0.00     0.045 A 
ATOM     14  N   UNL A   1      36.934  31.131  30.897  1.00  0.00    -0.233 NA
ATOM     15  C   UNL A   1      35.127  32.577  30.196  1.00  0.00     0.003 A 
ATOM     16  C   UNL A   1      36.938  30.596  29.671  1.00  0.00     0.160 A 
ATOM     17  C   UNL A   1      34.247  33.740  30.519  1.00  0.00     0.049 C 
ATOM     18  N   UNL A   1      36.053  30.922  28.714  1.00  0.00    -0.221 NA
BRANCH  16  19
ATOM     19  C   UNL A   1      37.955  29.548  29.441  1.00  0.00     0.019 A 
ATOM     20  C   UNL A   1      38.723  29.545  28.262  1.00  0.00     0.012 A 
ATOM     21  C   UNL A   1      38.133  28.458  30.303  1.00  0.00     0.012 A 
ATOM     22  C   UNL A   1      39.614  28.517  27.937  1.00  0.00     0.014 A 
ATOM     23  C   UNL A   1      39.013  27.404  29.977  1.00  0.00     0.014 A 
ATOM     24  C   UNL A   1      39.755  27.419  28.786  1.00  0.00     0.056 A 
BRANCH  24  25
ATOM     25  C   UNL A   1      40.678  26.291  28.389  1.00  0.00     0.416 C 
ATOM     26  F   UNL A   1      41.846  26.303  29.093  1.00  0.00    -0.166 F 
ATOM     27  F   UNL A   1      40.131  25.062  28.597  1.00  0.00    -0.166 F 
ATOM     28  F   UNL A   1      41.043  26.322  27.077  1.00  0.00    -0.166 F 
ENDBRANCH  24  25
ENDBRANCH  16  19
ENDBRANCH  10  11
ENDBRANCH   9  10
ENDBRANCH   7   9
ENDBRANCH   6   7
ENDBRANCH   5   6
ENDBRANCH   4   5
ENDBRANCH   3   4
ENDBRANCH   2   3
ENDBRANCH   1   2
BRANCH   1  29
ATOM     29  O   UNL A   1      33.699  23.450  24.336  1.00  0.00    -0.377 OA
BRANCH  29  30
ATOM     30  C   UNL A   1      34.450  22.975  25.424  1.00  0.00     0.188 C 
BRANCH  30  31
ATOM     31  C   UNL A   1      34.367  21.452  25.509  1.00  0.00     0.188 C 
BRANCH  31  32
ATOM     32  O   UNL A   1      35.496  20.812  24.933  1.00  0.00    -0.376 OA
BRANCH  32  33
ATOM     33  C   UNL A   1      36.782  21.390  25.138  1.00  0.00     0.202 C 
BRANCH  33  34
ATOM     34  C   UNL A   1      38.081  20.569  25.226  1.00  0.00     0.261 C 
BRANCH  34  35
ATOM     35  O   UNL A   1      39.269  21.187  25.729  1.00  0.00    -0.460 OA
BRANCH  35  36
ATOM     36  C   UNL A   1      40.368  20.445  25.936  1.00  0.00     0.338 C 
ATOM     37  O   UNL A   1      40.511  19.261  25.691  1.00  0.00    -0.246 OA
BRANCH  36  38
ATOM     38  C   UNL A   1      41.432  21.412  26.288  1.00  0.00     0.060 A 
ATOM     39  C   UNL A   1      42.698  20.901  26.601  1.00  0.00     0.016 A 
ATOM     40  C   UNL A   1      41.228  22.795  26.192  1.00  0.00     0.016 A 
ATOM     41  C   UNL A   1      43.764  21.767  26.809  1.00  0.00     0.010 A 
ATOM     42  C   UNL A   1      42.289  23.668  26.462  1.00  0.00     0.010 A 
ATOM     43  C   UNL A   1      43.552  23.153  26.794  1.00  0.00    -0.014 A 
BRANCH  43  44
ATOM     44  C   UNL A   1      44.582  24.000  27.436  1.00  0.00     0.031 A 
ATOM     45  C   UNL A   1      44.499  24.141  28.932  1.00  0.00     0.074 A 
ATOM     46  C   UNL A   1      45.620  24.501  26.746  1.00  0.00     0.049 A 
ATOM     47  N   UNL A   1      45.318  24.734  29.758  1.00  0.00    -0.248 NA
ATOM     48  C   UNL A   1      43.344  23.499  29.584  1.00  0.00     0.031 C 
ATOM     49  C   UNL A   1      45.840  24.338  25.310  1.00  0.00     0.029 A 
ATOM     50  N   UNL A   1      46.707  25.223  27.173  1.00  0.00    -0.354 N 
ATOM     51  C   UNL A   1      44.795  24.506  31.026  1.00  0.00     0.074 A 
ATOM     52  C   UNL A   1      43.566  23.765  30.859  1.00  0.00     0.031 C 
ATOM     53  C   UNL A   1      47.006  24.924  24.979  1.00  0.00     0.029 A 
ATOM     54  C   UNL A   1      47.598  25.529  26.172  1.00  0.00     0.049 A 
ATOM     55  H   UNL A   1      46.836  25.495  28.110  1.00  0.00     0.167 HD
ATOM     56  C   UNL A   1      45.306  24.865  32.226  1.00  0.00     0.034 A 
ATOM     57  C   UNL A   1      48.755  26.220  26.222  1.00  0.00     0.034 A 
ATOM     58  C   UNL A   1      46.509  25.635  32.371  1.00  0.00     0.049 A 
ATOM     59  C   UNL A   1      49.221  26.754  27.555  1.00  0.00     0.074 A 
ATOM     60  C   UNL A   1      47.090  26.115  33.530  1.00  0.00     0.029 A 
ATOM     61  N   UNL A   1      47.313  26.048  31.316  1.00  0.00    -0.354 N 
ATOM     62  N   UNL A   1      48.690  26.580  28.745  1.00  0.00    -0.248 NA
ATOM     63  C   UNL A   1      50.438  27.578  27.554  1.00  0.00     0.031 C 
ATOM     64  C   UNL A   1      48.210  26.871  33.170  1.00  0.00     0.029 A 
ATOM     65  C   UNL A   1      48.369  26.802  31.794  1.00  0.00     0.049 A 
ATOM     66  H   UNL A   1      47.152  25.836  30.368  1.00  0.00     0.167 HD
ATOM     67  C   UNL A   1      49.520  27.255  29.635  1.00  0.00     0.074 A 
ATOM     68  C   UNL A   1      50.590  27.834  28.847  1.00  0.00     0.031 C 
ATOM     69  C   UNL A   1      49.413  27.380  30.982  1.00  0.00     0.034 A 
BRANCH  56  70
ATOM     70  C   UNL A   1      44.530  24.464  33.451  1.00  0.00     0.023 A 
ATOM     71  C   UNL A   1      43.605  25.337  34.049  1.00  0.00     0.031 A 
ATOM     72  C   UNL A   1      44.739  23.209  34.046  1.00  0.00     0.131 A 
ATOM     73  C   UNL A   1      42.955  24.961  35.233  1.00  0.00     0.055 A 
ATOM     74  C   UNL A   1      44.041  22.815  35.188  1.00  0.00     0.041 A 
ATOM     75  F   UNL A   1      45.634  22.350  33.533  1.00  0.00    -0.206 F 
ATOM     76  C   UNL A   1      43.149  23.696  35.794  1.00  0.00     0.022 A 
BRANCH  73  77
ATOM     77  S   UNL A   1      41.924  26.184  36.087  1.00  0.00     0.124 S 
ATOM     78  O   UNL A   1      40.582  25.774  35.678  1.00  0.00    -0.237 OA
ATOM     79  O   UNL A   1      42.260  25.960  37.489  1.00  0.00    -0.237 OA
ATOM     80  O   UNL A   1      42.375  27.459  35.534  1.00  0.00    -0.744 OA
ENDBRANCH  73  77
ENDBRANCH  56  70
BRANCH  57  81
ATOM     81  C   UNL A   1      49.542  26.463  24.980  1.00  0.00     0.023 A 
ATOM     82  C   UNL A   1      48.945  27.019  23.838  1.00  0.00     0.031 A 
ATOM     83  C   UNL A   1      50.908  26.133  24.915  1.00  0.00     0.131 A 
ATOM     84  C   UNL A   1      49.708  27.221  22.676  1.00  0.00     0.055 A 
ATOM     85  C   UNL A   1      51.671  26.367  23.769  1.00  0.00     0.041 A 
ATOM     86  F   UNL A   1      51.527  25.596  25.978  1.00  0.00    -0.206 F 
ATOM     87  C   UNL A   1      51.070  26.910  22.639  1.00  0.00     0.022 A 
BRANCH  84  88
ATOM     88  S   UNL A   1      48.892  27.882  21.196  1.00  0.00     0.124 S 
ATOM     89  O   UNL A   1      48.243  26.692  20.658  1.00  0.00    -0.237 OA
ATOM     90  O   UNL A   1      48.010  28.896  21.764  1.00  0.00    -0.237 OA
ATOM     91  O   UNL A   1      50.001  28.403  20.400  1.00  0.00    -0.744 OA
ENDBRANCH  84  88
ENDBRANCH  57  81
BRANCH  69  92
ATOM     92  C   UNL A   1      50.486  28.158  31.697  1.00  0.00     0.023 A 
ATOM     93  C   UNL A   1      50.334  29.525  31.976  1.00  0.00     0.031 A 
ATOM     94  C   UNL A   1      51.642  27.505  32.162  1.00  0.00     0.131 A 
ATOM     95  C   UNL A   1      51.338  30.206  32.679  1.00  0.00     0.055 A 
ATOM     96  C   UNL A   1      52.611  28.176  32.906  1.00  0.00     0.041 A 
ATOM     97  F   UNL A   1      51.828  26.196  31.927  1.00  0.00    -0.206 F 
ATOM     98  C   UNL A   1      52.465  29.536  33.164  1.00  0.00     0.022 A 
BRANCH  95  99
ATOM     99  S   UNL A   1      51.168  31.993  32.923  1.00  0.00     0.124 S 
ATOM    100  O   UNL A   1      49.780  32.108  33.359  1.00  0.00    -0.237 OA
ATOM    101  O   UNL A   1      52.180  32.271  33.937  1.00  0.00    -0.237 OA
ATOM    102  O   UNL A   1      51.450  32.549  31.601  1.00  0.00    -0.744 OA
ENDBRANCH  95  99
ENDBRANCH  69  92
ENDBRANCH  43  44
ENDBRANCH  36  38
ENDBRANCH  35  36
ENDBRANCH  34  35
ENDBRANCH  33  34
ENDBRANCH  32  33
ENDBRANCH  31  32
ENDBRANCH  30  31
ENDBRANCH  29  30
ENDBRANCH   1  29
TORSDOF 27
ENDMDL
MODEL 2
REMARK VINA RESULT:      -8.8      1.738      2.073
REMARK SMILES Cc1nc(-c2ccc(C(F)(F)F)cc2)nc(SCC(=O)OCCOCCOCCOCCOC(=O)c2ccc(-c3c4nc(c(-c5cc(S(=O)(=O)[O-])ccc5F)c5ccc([nH]5)c(-c5cc(S(=O)(=O)[O-])ccc5F)c5nc(c(-c6cc(S(=O)(=O)[O-])ccc6F)c6ccc3[nH]6)C=C5)C=C4)cc2)c1C
REMARK SMILES IDX 26 1 25 2 24 3 23 4 22 5 21 6 19 7 20 8 18 9 17 10 16 11
REMARK SMILES IDX 1 12 2 13 3 14 99 15 4 16 100 17 15 18 5 19 6 20 14 21 7 22
REMARK SMILES IDX 13 23 8 24 9 25 10 26 11 27 12 28 27 29 28 30 29 31 30 32
REMARK SMILES IDX 31 33 32 34 33 35 34 36 35 37 36 38 37 39 98 40 38 41 97 42
REMARK SMILES IDX 39 43 40 44 41 45 91 46 42 47 96 48 90 49 92 50 43 51 95 52
REMARK SMILES IDX 89 53 88 54 44 56 76 57 56 58 75 59 57 60 60 61 74 62 93 63
REMARK SMILES IDX 58 64 59 65 73 67 94 68 61 69 45 70 46 71 54 72 47 73 53 74
REMARK SMILES IDX 55 75 52 76 48 77 49 78 50 79 51 80 77 81 78 82 86 83 79 84
REMARK SMILES IDX 85 85 87 86 84 87 80 88 81 89 82 90 83 91 62 92 63 93 71 94
REMARK SMILES IDX 64 95 70 96 72 97 69 98 65 99 66 100 67 101 68 102
REMARK H PARENT 92 55 60 66
REMARK Flexibility Score: inf
ROOT
ATOM      1  C   UNL A   1      34.043  24.426  22.859  1.00  0.00     0.188 C 
ENDROOT
BRANCH   1   2
ATOM      2  C   UNL A   1      32.879  25.363  22.502  1.00  0.00     0.188 C 
BRANCH   2   3
ATOM      3  O   UNL A   1      32.743  26.606  23.159  1.00  0.00    -0.376 OA
BRANCH   3   4
ATOM      4  C   UNL A   1      31.523  26.981  23.770  1.00  0.00     0.202 C 
BRANCH   4   5
ATOM      5  C   UNL A   1      31.443  27.849  25.042  1.00  0.00     0.261 C 
BRANCH   5   6
ATOM      6  O   UNL A   1      32.408  28.915  25.221  1.00  0.00    -0.463 OA
BRANCH   6   7
ATOM      7  C   UNL A   1      32.537  29.427  26.473  1.00  0.00     0.316 C 
ATOM      8  O   UNL A   1      31.704  29.239  27.360  1.00  0.00    -0.251 OA
BRANCH   7   9
ATOM      9  C   UNL A   1      33.714  30.367  26.706  1.00  0.00     0.199 C 
BRANCH   9  10
ATOM     10  S   UNL A   1      33.639  31.699  27.949  1.00  0.00    -0.094 SA
BRANCH  10  11
ATOM     11  C   UNL A   1      35.154  31.882  28.930  1.00  0.00     0.104 A 
ATOM     12  C   UNL A   1      36.717  32.964  32.186  1.00  0.00     0.067 C 
ATOM     13  C   UNL A   1      36.469  32.349  30.835  1.00  0.00     0.045 A 
ATOM     14  N   UNL A   1      37.310  31.341  30.535  1.00  0.00    -0.233 NA
ATOM     15  C   UNL A   1      35.398  32.728  30.015  1.00  0.00     0.003 A 
ATOM     16  C   UNL A   1      37.091  30.670  29.399  1.00  0.00     0.160 A 
ATOM     17  C   UNL A   1      34.587  33.934  30.357  1.00  0.00     0.049 C 
ATOM     18  N   UNL A   1      36.044  30.899  28.589  1.00  0.00    -0.221 NA
BRANCH  16  19
ATOM     19  C   UNL A   1      38.053  29.586  29.109  1.00  0.00     0.019 A 
ATOM     20  C   UNL A   1      38.822  29.609  27.931  1.00  0.00     0.012 A 
ATOM     21  C   UNL A   1      38.174  28.441  29.908  1.00  0.00     0.012 A 
ATOM     22  C   UNL A   1      39.659  28.557  27.547  1.00  0.00     0.014 A 
ATOM     23  C   UNL A   1      38.999  27.364  29.522  1.00  0.00     0.014 A 
ATOM     24  C   UNL A   1      39.743  27.408  28.332  1.00  0.00     0.056 A 
BRANCH  24  25
ATOM     25  C   UNL A   1      40.607  26.258  27.872  1.00  0.00     0.416 C 
ATOM     26  F   UNL A   1      40.310  25.860  26.601  1.00  0.00    -0.166 F 
ATOM     27  F   UNL A   1      41.934  26.564  27.863  1.00  0.00    -0.166 F 
ATOM     28  F   UNL A   1      40.485  25.141  28.642  1.00  0.00    -0.166 F 
ENDBRANCH  24  25
ENDBRANCH  16  19
ENDBRANCH  10  11
ENDBRANCH   9  10
ENDBRANCH   7   9
ENDBRANCH   6   7
ENDBRANCH   5   6
ENDBRANCH   4   5
ENDBRANCH   3   4
ENDBRANCH   2   3
ENDBRANCH   1   2
BRANCH   1  29
ATOM     29  O   UNL A   1      33.913  23.246  23.610  1.00  0.00    -0.377 OA
BRANCH  29  30
ATOM     30  C   UNL A   1      34.934  22.966  24.533  1.00  0.00     0.188 C 
BRANCH  30  31
ATOM     31  C   UNL A   1      34.752  21.572  25.130  1.00  0.00     0.188 C 
BRANCH  31  32
ATOM     32  O   UNL A   1      35.812  20.691  24.791  1.00  0.00    -0.376 OA
BRANCH  32  33
ATOM     33  C   UNL A   1      37.151  21.158  24.922  1.00  0.00     0.202 C 
BRANCH  33  34
ATOM     34  C   UNL A   1      38.269  20.355  25.611  1.00  0.00     0.261 C 
BRANCH  34  35
ATOM     35  O   UNL A   1      39.477  21.021  25.993  1.00  0.00    -0.460 OA
BRANCH  35  36
ATOM     36  C   UNL A   1      40.648  20.368  25.919  1.00  0.00     0.338 C 
ATOM     37  O   UNL A   1      40.839  19.253  25.472  1.00  0.00    -0.246 OA
BRANCH  36  38
ATOM     38  C   UNL A   1      41.678  21.374  26.263  1.00  0.00     0.060 A 
ATOM     39  C   UNL A   1      42.929  20.905  26.684  1.00  0.00     0.016 A 
ATOM     40  C   UNL A   1      41.465  22.744  26.058  1.00  0.00     0.016 A 
ATOM     41  C   UNL A   1      43.972  21.800  26.893  1.00  0.00     0.010 A 
ATOM     42  C   UNL A   1      42.498  23.649  26.327  1.00  0.00     0.010 A 
ATOM     43  C   UNL A   1      43.745  23.178  26.767  1.00  0.00    -0.014 A 
BRANCH  43  44
ATOM     44  C   UNL A   1      44.725  24.084  27.407  1.00  0.00     0.031 A 
ATOM     45  C   UNL A   1      44.619  24.245  28.899  1.00  0.00     0.074 A 
ATOM     46  C   UNL A   1      45.747  24.623  26.720  1.00  0.00     0.049 A 
ATOM     47  N   UNL A   1      45.398  24.889  29.724  1.00  0.00    -0.248 NA
ATOM     48  C   UNL A   1      43.488  23.559  29.549  1.00  0.00     0.031 C 
ATOM     49  C   UNL A   1      45.992  24.447  25.289  1.00  0.00     0.029 A 
ATOM     50  N   UNL A   1      46.793  25.402  27.148  1.00  0.00    -0.354 N 
ATOM     51  C   UNL A   1      44.871  24.656  30.990  1.00  0.00     0.074 A 
ATOM     52  C   UNL A   1      43.681  23.855  30.822  1.00  0.00     0.031 C 
ATOM     53  C   UNL A   1      47.132  25.084  24.962  1.00  0.00     0.029 A 
ATOM     54  C   UNL A   1      47.680  25.734  26.151  1.00  0.00     0.049 A 
ATOM     55  H   UNL A   1      46.898  25.696  28.081  1.00  0.00     0.167 HD
ATOM     56  C   UNL A   1      45.350  25.059  32.189  1.00  0.00     0.034 A 
ATOM     57  C   UNL A   1      48.802  26.481  26.203  1.00  0.00     0.034 A 
ATOM     58  C   UNL A   1      46.513  25.888  32.335  1.00  0.00     0.049 A 
ATOM     59  C   UNL A   1      49.227  27.058  27.531  1.00  0.00     0.074 A 
ATOM     60  C   UNL A   1      47.057  26.414  33.492  1.00  0.00     0.029 A 
ATOM     61  N   UNL A   1      47.309  26.322  31.282  1.00  0.00    -0.354 N 
ATOM     62  N   UNL A   1      48.690  26.878  28.718  1.00  0.00    -0.248 NA
ATOM     63  C   UNL A   1      50.402  27.939  27.531  1.00  0.00     0.031 C 
ATOM     64  C   UNL A   1      48.143  27.216  33.133  1.00  0.00     0.029 A 
ATOM     65  C   UNL A   1      48.323  27.133  31.760  1.00  0.00     0.049 A 
ATOM     66  H   UNL A   1      47.170  26.088  30.336  1.00  0.00     0.167 HD
ATOM     67  C   UNL A   1      49.476  27.606  29.607  1.00  0.00     0.074 A 
ATOM     68  C   UNL A   1      50.527  28.223  28.821  1.00  0.00     0.031 C 
ATOM     69  C   UNL A   1      49.348  27.748  30.950  1.00  0.00     0.034 A 
BRANCH  56  70
ATOM     70  C   UNL A   1      44.580  24.641  33.412  1.00  0.00     0.023 A 
ATOM     71  C   UNL A   1      43.631  25.492  34.005  1.00  0.00     0.031 A 
ATOM     72  C   UNL A   1      44.817  23.392  34.010  1.00  0.00     0.131 A 
ATOM     73  C   UNL A   1      42.986  25.102  35.188  1.00  0.00     0.055 A 
ATOM     74  C   UNL A   1      44.125  22.983  35.151  1.00  0.00     0.041 A 
ATOM     75  F   UNL A   1      45.735  22.555  33.502  1.00  0.00    -0.206 F 
ATOM     76  C   UNL A   1      43.209  23.843  35.751  1.00  0.00     0.022 A 
BRANCH  73  77
ATOM     77  S   UNL A   1      41.921  26.300  36.035  1.00  0.00     0.124 S 
ATOM     78  O   UNL A   1      42.836  27.424  36.227  1.00  0.00    -0.237 OA
ATOM     79  O   UNL A   1      40.848  26.510  35.070  1.00  0.00    -0.237 OA
ATOM     80  O   UNL A   1      41.531  25.606  37.260  1.00  0.00    -0.744 OA
ENDBRANCH  73  77
ENDBRANCH  56  70
BRANCH  57  81
ATOM     81  C   UNL A   1      49.591  26.741  24.965  1.00  0.00     0.023 A 
ATOM     82  C   UNL A   1      50.940  26.364  24.871  1.00  0.00     0.031 A 
ATOM     83  C   UNL A   1      49.006  27.378  23.856  1.00  0.00     0.131 A 
ATOM     84  C   UNL A   1      51.663  26.637  23.697  1.00  0.00     0.055 A 
ATOM     85  C   UNL A   1      49.719  27.616  22.679  1.00  0.00     0.041 A 
ATOM     86  F   UNL A   1      47.720  27.761  23.895  1.00  0.00    -0.206 F 
ATOM     87  C   UNL A   1      51.057  27.248  22.597  1.00  0.00     0.022 A 
BRANCH  84  88
ATOM     88  S   UNL A   1      53.422  26.196  23.631  1.00  0.00     0.124 S 
ATOM     89  O   UNL A   1      53.426  24.890  24.280  1.00  0.00    -0.237 OA
ATOM     90  O   UNL A   1      53.683  26.202  22.195  1.00  0.00    -0.237 OA
ATOM     91  O   UNL A   1      54.070  27.269  24.381  1.00  0.00    -0.744 OA
ENDBRANCH  84  88
ENDBRANCH  57  81
BRANCH  69  92
ATOM     92  C   UNL A   1      50.374  28.587  31.664  1.00  0.00     0.023 A 
ATOM     93  C   UNL A   1      51.505  28.008  32.257  1.00  0.00     0.031 A 
ATOM     94  C   UNL A   1      50.249  29.988  31.690  1.00  0.00     0.131 A 
ATOM     95  C   UNL A   1      52.460  28.826  32.878  1.00  0.00     0.055 A 
ATOM     96  C   UNL A   1      51.227  30.799  32.262  1.00  0.00     0.041 A 
ATOM     97  F   UNL A   1      49.186  30.589  31.128  1.00  0.00    -0.206 F 
ATOM     98  C   UNL A   1      52.338  30.218  32.866  1.00  0.00     0.022 A 
BRANCH  95  99
ATOM     99  S   UNL A   1      53.851  28.042  33.736  1.00  0.00     0.124 S 
ATOM    100  O   UNL A   1      53.483  26.631  33.681  1.00  0.00    -0.237 OA
ATOM    101  O   UNL A   1      54.991  28.436  32.914  1.00  0.00    -0.237 OA
ATOM    102  O   UNL A   1      53.814  28.641  35.069  1.00  0.00    -0.744 OA
ENDBRANCH  95  99
ENDBRANCH  69  92
ENDBRANCH  43  44
ENDBRANCH  36  38
ENDBRANCH  35  36
ENDBRANCH  34  35
ENDBRANCH  33  34
ENDBRANCH  32  33
ENDBRANCH  31  32
ENDBRANCH  30  31
ENDBRANCH  29  30
ENDBRANCH   1  29
TORSDOF 27
ENDMDL
MODEL 3
REMARK VINA RESULT:      -8.7      5.811     10.792
REMARK SMILES Cc1nc(-c2ccc(C(F)(F)F)cc2)nc(SCC(=O)OCCOCCOCCOCCOC(=O)c2ccc(-c3c4nc(c(-c5cc(S(=O)(=O)[O-])ccc5F)c5ccc([nH]5)c(-c5cc(S(=O)(=O)[O-])ccc5F)c5nc(c(-c6cc(S(=O)(=O)[O-])ccc6F)c6ccc3[nH]6)C=C5)C=C4)cc2)c1C
REMARK SMILES IDX 26 1 25 2 24 3 23 4 22 5 21 6 19 7 20 8 18 9 17 10 16 11
REMARK SMILES IDX 1 12 2 13 3 14 99 15 4 16 100 17 15 18 5 19 6 20 14 21 7 22
REMARK SMILES IDX 13 23 8 24 9 25 10 26 11 27 12 28 27 29 28 30 29 31 30 32
REMARK SMILES IDX 31 33 32 34 33 35 34 36 35 37 36 38 37 39 98 40 38 41 97 42
REMARK SMILES IDX 39 43 40 44 41 45 91 46 42 47 96 48 90 49 92 50 43 51 95 52
REMARK SMILES IDX 89 53 88 54 44 56 76 57 56 58 75 59 57 60 60 61 74 62 93 63
REMARK SMILES IDX 58 64 59 65 73 67 94 68 61 69 45 70 46 71 54 72 47 73 53 74
REMARK SMILES IDX 55 75 52 76 48 77 49 78 50 79 51 80 77 81 78 82 86 83 79 84
REMARK SMILES IDX 85 85 87 86 84 87 80 88 81 89 82 90 83 91 62 92 63 93 71 94
REMARK SMILES IDX 64 95 70 96 72 97 69 98 65 99 66 100 67 101 68 102
REMARK H PARENT 92 55 60 66
REMARK Flexibility Score: inf
ROOT
ATOM      1  C   UNL A   1      37.416  33.462  36.200  1.00  0.00     0.188 C 
ENDROOT
BRANCH   1   2
ATOM      2  C   UNL A   1      36.894  33.319  34.761  1.00  0.00     0.188 C 
BRANCH   2   3
ATOM      3  O   UNL A   1      37.226  34.287  33.788  1.00  0.00    -0.376 OA
BRANCH   3   4
ATOM      4  C   UNL A   1      36.222  34.956  33.049  1.00  0.00     0.202 C 
BRANCH   4   5
ATOM      5  C   UNL A   1      34.792  35.189  33.577  1.00  0.00     0.261 C 
BRANCH   5   6
ATOM      6  O   UNL A   1      33.670  34.839  32.730  1.00  0.00    -0.463 OA
BRANCH   6   7
ATOM      7  C   UNL A   1      33.849  34.959  31.388  1.00  0.00     0.316 C 
ATOM      8  O   UNL A   1      33.651  36.011  30.781  1.00  0.00    -0.251 OA
BRANCH   7   9
ATOM      9  C   UNL A   1      34.188  33.682  30.630  1.00  0.00     0.199 C 
BRANCH   9  10
ATOM     10  S   UNL A   1      34.028  33.579  28.816  1.00  0.00    -0.094 SA
BRANCH  10  11
ATOM     11  C   UNL A   1      34.738  32.073  28.095  1.00  0.00     0.104 A 
ATOM     12  C   UNL A   1      37.339  29.354  28.345  1.00  0.00     0.067 C 
ATOM     13  C   UNL A   1      36.134  30.173  27.965  1.00  0.00     0.045 A 
ATOM     14  N   UNL A   1      35.150  29.455  27.392  1.00  0.00    -0.233 NA
ATOM     15  C   UNL A   1      36.014  31.534  28.274  1.00  0.00     0.003 A 
ATOM     16  C   UNL A   1      34.001  30.086  27.120  1.00  0.00     0.160 A 
ATOM     17  C   UNL A   1      37.194  32.287  28.795  1.00  0.00     0.049 C 
ATOM     18  N   UNL A   1      33.757  31.364  27.455  1.00  0.00    -0.221 NA
BRANCH  16  19
ATOM     19  C   UNL A   1      32.961  29.257  26.476  1.00  0.00     0.019 A 
ATOM     20  C   UNL A   1      32.747  27.930  26.889  1.00  0.00     0.012 A 
ATOM     21  C   UNL A   1      32.221  29.691  25.367  1.00  0.00     0.012 A 
ATOM     22  C   UNL A   1      31.861  27.063  26.241  1.00  0.00     0.014 A 
ATOM     23  C   UNL A   1      31.340  28.820  24.691  1.00  0.00     0.014 A 
ATOM     24  C   UNL A   1      31.159  27.495  25.116  1.00  0.00     0.056 A 
BRANCH  24  25
ATOM     25  C   UNL A   1      30.251  26.527  24.394  1.00  0.00     0.416 C 
ATOM     26  F   UNL A   1      30.690  26.244  23.134  1.00  0.00    -0.166 F 
ATOM     27  F   UNL A   1      30.146  25.327  25.028  1.00  0.00    -0.166 F 
ATOM     28  F   UNL A   1      28.977  26.985  24.242  1.00  0.00    -0.166 F 
ENDBRANCH  24  25
ENDBRANCH  16  19
ENDBRANCH  10  11
ENDBRANCH   9  10
ENDBRANCH   7   9
ENDBRANCH   6   7
ENDBRANCH   5   6
ENDBRANCH   4   5
ENDBRANCH   3   4
ENDBRANCH   2   3
ENDBRANCH   1   2
BRANCH   1  29
ATOM     29  O   UNL A   1      36.705  33.073  37.347  1.00  0.00    -0.377 OA
BRANCH  29  30
ATOM     30  C   UNL A   1      37.361  32.203  38.234  1.00  0.00     0.188 C 
BRANCH  30  31
ATOM     31  C   UNL A   1      36.711  32.252  39.614  1.00  0.00     0.188 C 
BRANCH  31  32
ATOM     32  O   UNL A   1      37.440  33.053  40.532  1.00  0.00    -0.376 OA
BRANCH  32  33
ATOM     33  C   UNL A   1      38.168  32.405  41.570  1.00  0.00     0.202 C 
BRANCH  33  34
ATOM     34  C   UNL A   1      39.705  32.342  41.622  1.00  0.00     0.261 C 
BRANCH  34  35
ATOM     35  O   UNL A   1      40.449  32.329  40.400  1.00  0.00    -0.460 OA
BRANCH  35  36
ATOM     36  C   UNL A   1      41.167  33.407  40.047  1.00  0.00     0.338 C 
ATOM     37  O   UNL A   1      41.504  34.331  40.763  1.00  0.00    -0.246 OA
BRANCH  36  38
ATOM     38  C   UNL A   1      41.662  33.117  38.682  1.00  0.00     0.060 A 
ATOM     39  C   UNL A   1      40.714  32.997  37.659  1.00  0.00     0.016 A 
ATOM     40  C   UNL A   1      43.032  33.089  38.389  1.00  0.00     0.016 A 
ATOM     41  C   UNL A   1      41.130  32.857  36.340  1.00  0.00     0.010 A 
ATOM     42  C   UNL A   1      43.450  32.887  37.069  1.00  0.00     0.010 A 
ATOM     43  C   UNL A   1      42.497  32.747  36.047  1.00  0.00    -0.014 A 
BRANCH  43  44
ATOM     44  C   UNL A   1      42.861  32.175  34.731  1.00  0.00     0.031 A 
ATOM     45  C   UNL A   1      43.033  30.681  34.672  1.00  0.00     0.074 A 
ATOM     46  C   UNL A   1      42.895  32.924  33.616  1.00  0.00     0.049 A 
ATOM     47  N   UNL A   1      43.249  29.909  33.642  1.00  0.00    -0.248 NA
ATOM     48  C   UNL A   1      42.916  29.961  35.952  1.00  0.00     0.031 C 
ATOM     49  C   UNL A   1      42.648  34.364  33.555  1.00  0.00     0.029 A 
ATOM     50  N   UNL A   1      43.119  32.565  32.310  1.00  0.00    -0.354 N 
ATOM     51  C   UNL A   1      43.260  28.613  34.147  1.00  0.00     0.074 A 
ATOM     52  C   UNL A   1      43.078  28.705  35.577  1.00  0.00     0.031 C 
ATOM     53  C   UNL A   1      42.711  34.762  32.271  1.00  0.00     0.029 A 
ATOM     54  C   UNL A   1      43.033  33.614  31.425  1.00  0.00     0.049 A 
ATOM     55  H   UNL A   1      43.323  31.643  32.034  1.00  0.00     0.167 HD
ATOM     56  C   UNL A   1      43.390  27.448  33.473  1.00  0.00     0.034 A 
ATOM     57  C   UNL A   1      43.199  33.634  30.086  1.00  0.00     0.034 A 
ATOM     58  C   UNL A   1      43.610  27.377  32.056  1.00  0.00     0.049 A 
ATOM     59  C   UNL A   1      43.507  32.338  29.376  1.00  0.00     0.074 A 
ATOM     60  C   UNL A   1      43.822  26.259  31.272  1.00  0.00     0.029 A 
ATOM     61  N   UNL A   1      43.657  28.478  31.210  1.00  0.00    -0.354 N 
ATOM     62  N   UNL A   1      43.571  31.121  29.869  1.00  0.00    -0.248 NA
ATOM     63  C   UNL A   1      43.771  32.416  27.932  1.00  0.00     0.031 C 
ATOM     64  C   UNL A   1      44.059  26.688  29.963  1.00  0.00     0.029 A 
ATOM     65  C   UNL A   1      43.923  28.068  29.916  1.00  0.00     0.049 A 
ATOM     66  H   UNL A   1      43.522  29.411  31.490  1.00  0.00     0.167 HD
ATOM     67  C   UNL A   1      43.859  30.288  28.794  1.00  0.00     0.074 A 
ATOM     68  C   UNL A   1      43.952  31.138  27.623  1.00  0.00     0.031 C 
ATOM     69  C   UNL A   1      44.026  28.941  28.771  1.00  0.00     0.034 A 
BRANCH  56  70
ATOM     70  C   UNL A   1      43.344  26.178  34.280  1.00  0.00     0.023 A 
ATOM     71  C   UNL A   1      44.511  25.440  34.548  1.00  0.00     0.031 A 
ATOM     72  C   UNL A   1      42.121  25.685  34.760  1.00  0.00     0.131 A 
ATOM     73  C   UNL A   1      44.422  24.223  35.238  1.00  0.00     0.055 A 
ATOM     74  C   UNL A   1      42.047  24.505  35.502  1.00  0.00     0.041 A 
ATOM     75  F   UNL A   1      40.974  26.335  34.505  1.00  0.00    -0.206 F 
ATOM     76  C   UNL A   1      43.201  23.762  35.738  1.00  0.00     0.022 A 
BRANCH  73  77
ATOM     77  S   UNL A   1      45.910  23.198  35.392  1.00  0.00     0.124 S 
ATOM     78  O   UNL A   1      46.968  24.178  35.153  1.00  0.00    -0.237 OA
ATOM     79  O   UNL A   1      45.807  22.691  36.756  1.00  0.00    -0.237 OA
ATOM     80  O   UNL A   1      45.748  22.197  34.340  1.00  0.00    -0.744 OA
ENDBRANCH  73  77
ENDBRANCH  56  70
BRANCH  57  81
ATOM     81  C   UNL A   1      43.095  34.917  29.334  1.00  0.00     0.023 A 
ATOM     82  C   UNL A   1      44.222  35.723  29.112  1.00  0.00     0.031 A 
ATOM     83  C   UNL A   1      41.858  35.359  28.829  1.00  0.00     0.131 A 
ATOM     84  C   UNL A   1      44.090  36.935  28.413  1.00  0.00     0.055 A 
ATOM     85  C   UNL A   1      41.738  36.547  28.105  1.00  0.00     0.041 A 
ATOM     86  F   UNL A   1      40.749  34.627  29.016  1.00  0.00    -0.206 F 
ATOM     87  C   UNL A   1      42.858  37.345  27.898  1.00  0.00     0.022 A 
BRANCH  84  88
ATOM     88  S   UNL A   1      45.554  37.985  28.199  1.00  0.00     0.124 S 
ATOM     89  O   UNL A   1      45.616  38.116  26.747  1.00  0.00    -0.237 OA
ATOM     90  O   UNL A   1      45.177  39.186  28.939  1.00  0.00    -0.237 OA
ATOM     91  O   UNL A   1      46.628  37.199  28.802  1.00  0.00    -0.744 OA
ENDBRANCH  84  88
ENDBRANCH  57  81
BRANCH  69  92
ATOM     92  C   UNL A   1      44.308  28.296  27.440  1.00  0.00     0.023 A 
ATOM     93  C   UNL A   1      45.622  28.068  27.004  1.00  0.00     0.031 A 
ATOM     94  C   UNL A   1      43.248  27.845  26.632  1.00  0.00     0.131 A 
ATOM     95  C   UNL A   1      45.846  27.428  25.777  1.00  0.00     0.055 A 
ATOM     96  C   UNL A   1      43.477  27.163  25.439  1.00  0.00     0.041 A 
ATOM     97  F   UNL A   1      41.973  28.034  27.011  1.00  0.00    -0.206 F 
ATOM     98  C   UNL A   1      44.782  26.956  25.001  1.00  0.00     0.022 A 
BRANCH  95  99
ATOM     99  S   UNL A   1      47.550  27.250  25.187  1.00  0.00     0.124 S 
ATOM    100  O   UNL A   1      48.099  28.578  25.443  1.00  0.00    -0.237 OA
ATOM    101  O   UNL A   1      48.065  26.175  26.028  1.00  0.00    -0.237 OA
ATOM    102  O   UNL A   1      47.391  26.907  23.774  1.00  0.00    -0.744 OA
ENDBRANCH  95  99
ENDBRANCH  69  92
ENDBRANCH  43  44
ENDBRANCH  36  38
ENDBRANCH  35  36
ENDBRANCH  34  35
ENDBRANCH  33  34
ENDBRANCH  32  33
ENDBRANCH  31  32
ENDBRANCH  30  31
ENDBRANCH  29  30
ENDBRANCH   1  29
TORSDOF 27
ENDMDL
