MODEL 1
REMARK VINA RESULT:     -10.3      0.000      0.000
REMARK SMILES CCCc1cc(OC(F)(F)F)cc2c1O[C@@H](C(F)(F)F)C(C(=O)OCCOCCOCCOCCOC(=O)c1ccc(-c3c4nc(c(-c5cc(S(=O)(=O)[O-])ccc5F)c5ccc([nH]5)c(-c5cc(S(=O)(=O)[O-])ccc5F)c5nc(c(-c6cc(S(=O)(=O)[O-])ccc6F)c6ccc3[nH]6)C=C5)C=C4)cc1)=C2
REMARK SMILES IDX 31 1 30 2 29 3 28 4 27 5 26 6 25 7 24 8 22 9 23 10 21 11
REMARK SMILES IDX 4 12 5 13 14 14 6 15 13 16 15 17 12 18 102 19 16 20 3 21
REMARK SMILES IDX 2 22 1 23 7 24 8 25 9 26 10 27 11 28 17 29 18 30 19 31 20 32
REMARK SMILES IDX 32 33 33 34 34 35 35 36 36 37 37 38 38 39 39 40 40 41 101 42
REMARK SMILES IDX 41 43 100 44 42 45 43 46 44 47 94 48 45 49 99 50 93 51 95 52
REMARK SMILES IDX 46 53 98 54 92 55 91 56 47 58 79 59 59 60 78 61 60 62 63 63
REMARK SMILES IDX 77 64 96 65 61 66 62 67 76 69 97 70 64 71 48 72 49 73 57 74
REMARK SMILES IDX 50 75 56 76 58 77 55 78 51 79 52 80 53 81 54 82 80 83 81 84
REMARK SMILES IDX 89 85 82 86 88 87 90 88 87 89 83 90 84 91 85 92 86 93 65 94
REMARK SMILES IDX 66 95 74 96 67 97 73 98 75 99 72 100 68 101 69 102 70 103
REMARK SMILES IDX 71 104
REMARK H PARENT 95 57 63 68
REMARK Flexibility Score: inf
ROOT
ATOM      1  C   UNL A   1      31.119  29.651  24.885  1.00  0.00     0.188 C 
ENDROOT
BRANCH   1   2
ATOM      2  O   UNL A   1      31.866  29.138  23.784  1.00  0.00    -0.377 OA
BRANCH   2   3
ATOM      3  C   UNL A   1      31.186  28.491  22.728  1.00  0.00     0.188 C 
BRANCH   3   4
ATOM      4  C   UNL A   1      29.712  28.874  22.514  1.00  0.00     0.188 C 
BRANCH   4   5
ATOM      5  O   UNL A   1      28.803  28.217  23.390  1.00  0.00    -0.376 OA
BRANCH   5   6
ATOM      6  C   UNL A   1      28.939  26.806  23.503  1.00  0.00     0.202 C 
BRANCH   6   7
ATOM      7  C   UNL A   1      29.588  26.330  24.807  1.00  0.00     0.261 C 
BRANCH   7   8
ATOM      8  O   UNL A   1      30.050  24.969  24.772  1.00  0.00    -0.460 OA
BRANCH   8   9
ATOM      9  C   UNL A   1      30.933  24.633  23.808  1.00  0.00     0.338 C 
ATOM     10  O   UNL A   1      31.034  25.140  22.707  1.00  0.00    -0.246 OA
BRANCH   9  11
ATOM     11  C   UNL A   1      31.871  23.626  24.342  1.00  0.00     0.087 C 
ATOM     12  C   UNL A   1      35.026  21.027  25.220  1.00  0.00    -0.002 A 
ATOM     13  C   UNL A   1      34.884  19.670  24.879  1.00  0.00     0.054 A 
ATOM     14  C   UNL A   1      33.944  21.885  24.977  1.00  0.00     0.131 A 
ATOM     15  C   UNL A   1      33.684  19.162  24.373  1.00  0.00     0.130 A 
ATOM     16  C   UNL A   1      32.759  21.400  24.405  1.00  0.00     0.021 A 
ATOM     17  O   UNL A   1      34.123  23.224  25.217  1.00  0.00    -0.475 OA
ATOM     18  C   UNL A   1      32.619  20.035  24.145  1.00  0.00     0.058 A 
ATOM     19  C   UNL A   1      31.750  22.350  23.943  1.00  0.00     0.027 C 
ATOM     20  C   UNL A   1      32.908  24.006  25.370  1.00  0.00     0.316 C 
BRANCH  12  21
ATOM     21  C   UNL A   1      36.354  21.542  25.735  1.00  0.00     0.039 C 
BRANCH  21  22
ATOM     22  C   UNL A   1      37.320  22.098  24.679  1.00  0.00     0.001 C 
ATOM     23  C   UNL A   1      36.654  22.574  23.395  1.00  0.00     0.004 C 
ENDBRANCH  21  22
ENDBRANCH  12  21
BRANCH  15  24
ATOM     24  O   UNL A   1      33.442  17.862  24.033  1.00  0.00    -0.406 OA
BRANCH  24  25
ATOM     25  C   UNL A   1      33.241  16.931  25.083  1.00  0.00     0.573 C 
ATOM     26  F   UNL A   1      32.605  17.507  26.129  1.00  0.00    -0.132 F 
ATOM     27  F   UNL A   1      32.528  15.864  24.661  1.00  0.00    -0.132 F 
ATOM     28  F   UNL A   1      34.441  16.488  25.516  1.00  0.00    -0.132 F 
ENDBRANCH  24  25
ENDBRANCH  15  24
BRANCH  20  29
ATOM     29  C   UNL A   1      33.317  25.484  25.505  1.00  0.00     0.430 C 
ATOM     30  F   UNL A   1      33.225  26.146  24.330  1.00  0.00    -0.167 F 
ATOM     31  F   UNL A   1      32.462  26.124  26.349  1.00  0.00    -0.167 F 
ATOM     32  F   UNL A   1      34.558  25.650  26.002  1.00  0.00    -0.167 F 
ENDBRANCH  20  29
ENDBRANCH   9  11
ENDBRANCH   8   9
ENDBRANCH   7   8
ENDBRANCH   6   7
ENDBRANCH   5   6
ENDBRANCH   4   5
ENDBRANCH   3   4
ENDBRANCH   2   3
ENDBRANCH   1   2
BRANCH   1  33
ATOM     33  C   UNL A   1      31.755  30.562  25.961  1.00  0.00     0.188 C 
BRANCH  33  34
ATOM     34  O   UNL A   1      33.035  30.147  26.424  1.00  0.00    -0.376 OA
BRANCH  34  35
ATOM     35  C   UNL A   1      33.727  31.061  27.264  1.00  0.00     0.202 C 
BRANCH  35  36
ATOM     36  C   UNL A   1      32.927  32.332  27.569  1.00  0.00     0.261 C 
BRANCH  36  37
ATOM     37  O   UNL A   1      33.714  33.528  27.665  1.00  0.00    -0.460 OA
BRANCH  37  38
ATOM     38  C   UNL A   1      33.565  34.265  28.791  1.00  0.00     0.338 C 
ATOM     39  O   UNL A   1      32.618  34.975  29.080  1.00  0.00    -0.246 OA
BRANCH  38  40
ATOM     40  C   UNL A   1      34.662  33.909  29.708  1.00  0.00     0.060 A 
ATOM     41  C   UNL A   1      35.965  34.314  29.392  1.00  0.00     0.016 A 
ATOM     42  C   UNL A   1      34.403  33.193  30.879  1.00  0.00     0.016 A 
ATOM     43  C   UNL A   1      37.022  33.968  30.233  1.00  0.00     0.010 A 
ATOM     44  C   UNL A   1      35.464  32.830  31.709  1.00  0.00     0.010 A 
ATOM     45  C   UNL A   1      36.781  33.186  31.371  1.00  0.00    -0.014 A 
BRANCH  45  46
ATOM     46  C   UNL A   1      37.920  32.552  32.074  1.00  0.00     0.031 A 
ATOM     47  C   UNL A   1      38.656  31.446  31.369  1.00  0.00     0.074 A 
ATOM     48  C   UNL A   1      38.307  32.959  33.297  1.00  0.00     0.049 A 
ATOM     49  N   UNL A   1      39.669  30.725  31.777  1.00  0.00    -0.248 NA
ATOM     50  C   UNL A   1      38.179  31.107  30.019  1.00  0.00     0.031 C 
ATOM     51  C   UNL A   1      37.693  34.043  34.061  1.00  0.00     0.029 A 
ATOM     52  N   UNL A   1      39.312  32.500  34.110  1.00  0.00    -0.354 N 
ATOM     53  C   UNL A   1      39.954  29.854  30.732  1.00  0.00     0.074 A 
ATOM     54  C   UNL A   1      38.978  30.104  29.693  1.00  0.00     0.031 C 
ATOM     55  C   UNL A   1      38.331  34.160  35.239  1.00  0.00     0.029 A 
ATOM     56  C   UNL A   1      39.377  33.141  35.325  1.00  0.00     0.049 A 
ATOM     57  H   UNL A   1      39.930  31.779  33.848  1.00  0.00     0.167 HD
ATOM     58  C   UNL A   1      40.946  28.936  30.641  1.00  0.00     0.034 A 
ATOM     59  C   UNL A   1      40.175  32.913  36.388  1.00  0.00     0.034 A 
ATOM     60  C   UNL A   1      41.895  28.677  31.694  1.00  0.00     0.049 A 
ATOM     61  C   UNL A   1      41.214  31.817  36.302  1.00  0.00     0.074 A 
ATOM     62  C   UNL A   1      42.945  27.776  31.709  1.00  0.00     0.029 A 
ATOM     63  N   UNL A   1      41.899  29.310  32.932  1.00  0.00    -0.354 N 
ATOM     64  N   UNL A   1      41.489  31.012  35.301  1.00  0.00    -0.248 NA
ATOM     65  C   UNL A   1      42.053  31.606  37.489  1.00  0.00     0.031 C 
ATOM     66  C   UNL A   1      43.536  27.812  32.977  1.00  0.00     0.029 A 
ATOM     67  C   UNL A   1      42.907  28.793  33.729  1.00  0.00     0.049 A 
ATOM     68  H   UNL A   1      41.274  30.022  33.203  1.00  0.00     0.167 HD
ATOM     69  C   UNL A   1      42.554  30.221  35.728  1.00  0.00     0.074 A 
ATOM     70  C   UNL A   1      42.879  30.657  37.071  1.00  0.00     0.031 C 
ATOM     71  C   UNL A   1      43.210  29.229  35.072  1.00  0.00     0.034 A 
BRANCH  58  72
ATOM     72  C   UNL A   1      41.008  28.113  29.377  1.00  0.00     0.023 A 
ATOM     73  C   UNL A   1      41.986  28.344  28.393  1.00  0.00     0.031 A 
ATOM     74  C   UNL A   1      40.050  27.115  29.133  1.00  0.00     0.131 A 
ATOM     75  C   UNL A   1      41.938  27.639  27.181  1.00  0.00     0.055 A 
ATOM     76  C   UNL A   1      40.055  26.361  27.957  1.00  0.00     0.041 A 
ATOM     77  F   UNL A   1      39.077  26.868  30.024  1.00  0.00    -0.206 F 
ATOM     78  C   UNL A   1      40.995  26.632  26.966  1.00  0.00     0.022 A 
BRANCH  75  79
ATOM     79  S   UNL A   1      43.033  28.160  25.832  1.00  0.00     0.124 S 
ATOM     80  O   UNL A   1      43.158  29.592  26.088  1.00  0.00    -0.237 OA
ATOM     81  O   UNL A   1      44.230  27.361  26.069  1.00  0.00    -0.237 OA
ATOM     82  O   UNL A   1      42.281  27.813  24.627  1.00  0.00    -0.744 OA
ENDBRANCH  75  79
ENDBRANCH  58  72
BRANCH  59  83
ATOM     83  C   UNL A   1      40.012  33.700  37.645  1.00  0.00     0.023 A 
ATOM     84  C   UNL A   1      39.307  33.180  38.743  1.00  0.00     0.031 A 
ATOM     85  C   UNL A   1      40.499  35.016  37.737  1.00  0.00     0.131 A 
ATOM     86  C   UNL A   1      39.068  33.988  39.867  1.00  0.00     0.055 A 
ATOM     87  C   UNL A   1      40.305  35.797  38.878  1.00  0.00     0.041 A 
ATOM     88  F   UNL A   1      41.176  35.563  36.715  1.00  0.00    -0.206 F 
ATOM     89  C   UNL A   1      39.574  35.288  39.947  1.00  0.00     0.022 A 
BRANCH  86  90
ATOM     90  S   UNL A   1      38.009  33.345  41.192  1.00  0.00     0.124 S 
ATOM     91  O   UNL A   1      36.686  33.447  40.589  1.00  0.00    -0.237 OA
ATOM     92  O   UNL A   1      38.533  31.995  41.369  1.00  0.00    -0.237 OA
ATOM     93  O   UNL A   1      38.262  34.259  42.304  1.00  0.00    -0.744 OA
ENDBRANCH  86  90
ENDBRANCH  59  83
BRANCH  71  94
ATOM     94  C   UNL A   1      44.371  28.580  35.788  1.00  0.00     0.023 A 
ATOM     95  C   UNL A   1      44.189  27.500  36.668  1.00  0.00     0.031 A 
ATOM     96  C   UNL A   1      45.680  29.056  35.588  1.00  0.00     0.131 A 
ATOM     97  C   UNL A   1      45.289  26.968  37.359  1.00  0.00     0.055 A 
ATOM     98  C   UNL A   1      46.778  28.483  36.230  1.00  0.00     0.041 A 
ATOM     99  F   UNL A   1      45.913  30.086  34.759  1.00  0.00    -0.206 F 
ATOM    100  C   UNL A   1      46.584  27.441  37.132  1.00  0.00     0.022 A 
BRANCH  97 101
ATOM    101  S   UNL A   1      44.994  25.707  38.630  1.00  0.00     0.124 S 
ATOM    102  O   UNL A   1      44.361  24.642  37.860  1.00  0.00    -0.237 OA
ATOM    103  O   UNL A   1      46.343  25.429  39.113  1.00  0.00    -0.237 OA
ATOM    104  O   UNL A   1      44.122  26.383  39.588  1.00  0.00    -0.744 OA
ENDBRANCH  97 101
ENDBRANCH  71  94
ENDBRANCH  45  46
ENDBRANCH  38  40
ENDBRANCH  37  38
ENDBRANCH  36  37
ENDBRANCH  35  36
ENDBRANCH  34  35
ENDBRANCH  33  34
ENDBRANCH   1  33
TORSDOF 28
ENDMDL
MODEL 2
REMARK VINA RESULT:     -10.1      2.444      7.536
REMARK SMILES CCCc1cc(OC(F)(F)F)cc2c1O[C@@H](C(F)(F)F)C(C(=O)OCCOCCOCCOCCOC(=O)c1ccc(-c3c4nc(c(-c5cc(S(=O)(=O)[O-])ccc5F)c5ccc([nH]5)c(-c5cc(S(=O)(=O)[O-])ccc5F)c5nc(c(-c6cc(S(=O)(=O)[O-])ccc6F)c6ccc3[nH]6)C=C5)C=C4)cc1)=C2
REMARK SMILES IDX 31 1 30 2 29 3 28 4 27 5 26 6 25 7 24 8 22 9 23 10 21 11
REMARK SMILES IDX 4 12 5 13 14 14 6 15 13 16 15 17 12 18 102 19 16 20 3 21
REMARK SMILES IDX 2 22 1 23 7 24 8 25 9 26 10 27 11 28 17 29 18 30 19 31 20 32
REMARK SMILES IDX 32 33 33 34 34 35 35 36 36 37 37 38 38 39 39 40 40 41 101 42
REMARK SMILES IDX 41 43 100 44 42 45 43 46 44 47 94 48 45 49 99 50 93 51 95 52
REMARK SMILES IDX 46 53 98 54 92 55 91 56 47 58 79 59 59 60 78 61 60 62 63 63
REMARK SMILES IDX 77 64 96 65 61 66 62 67 76 69 97 70 64 71 48 72 49 73 57 74
REMARK SMILES IDX 50 75 56 76 58 77 55 78 51 79 52 80 53 81 54 82 80 83 81 84
REMARK SMILES IDX 89 85 82 86 88 87 90 88 87 89 83 90 84 91 85 92 86 93 65 94
REMARK SMILES IDX 66 95 74 96 67 97 73 98 75 99 72 100 68 101 69 102 70 103
REMARK SMILES IDX 71 104
REMARK H PARENT 95 57 63 68
REMARK Flexibility Score: inf
ROOT
ATOM      1  C   UNL A   1      30.732  29.733  24.275  1.00  0.00     0.188 C 
ENDROOT
BRANCH   1   2
ATOM      2  O   UNL A   1      30.858  29.288  22.926  1.00  0.00    -0.377 OA
BRANCH   2   3
ATOM      3  C   UNL A   1      29.819  28.524  22.351  1.00  0.00     0.188 C 
BRANCH   3   4
ATOM      4  C   UNL A   1      28.415  28.693  22.954  1.00  0.00     0.188 C 
BRANCH   4   5
ATOM      5  O   UNL A   1      28.050  27.679  23.883  1.00  0.00    -0.376 OA
BRANCH   5   6
ATOM      6  C   UNL A   1      28.748  26.444  23.779  1.00  0.00     0.202 C 
BRANCH   6   7
ATOM      7  C   UNL A   1      29.909  26.282  24.766  1.00  0.00     0.261 C 
BRANCH   7   8
ATOM      8  O   UNL A   1      30.490  24.967  24.780  1.00  0.00    -0.460 OA
BRANCH   8   9
ATOM      9  C   UNL A   1      31.404  24.677  23.829  1.00  0.00     0.338 C 
ATOM     10  O   UNL A   1      31.594  25.288  22.794  1.00  0.00    -0.246 OA
BRANCH   9  11
ATOM     11  C   UNL A   1      32.253  23.565  24.298  1.00  0.00     0.087 C 
ATOM     12  C   UNL A   1      35.058  20.521  24.890  1.00  0.00    -0.002 A 
ATOM     13  C   UNL A   1      34.636  19.189  24.732  1.00  0.00     0.054 A 
ATOM     14  C   UNL A   1      34.101  21.536  24.748  1.00  0.00     0.131 A 
ATOM     15  C   UNL A   1      33.295  18.865  24.506  1.00  0.00     0.130 A 
ATOM     16  C   UNL A   1      32.766  21.228  24.451  1.00  0.00     0.021 A 
ATOM     17  O   UNL A   1      34.537  22.837  24.801  1.00  0.00    -0.475 OA
ATOM     18  C   UNL A   1      32.360  19.893  24.373  1.00  0.00     0.058 A 
ATOM     19  C   UNL A   1      31.854  22.303  24.071  1.00  0.00     0.027 C 
ATOM     20  C   UNL A   1      33.516  23.834  25.078  1.00  0.00     0.316 C 
BRANCH  12  21
ATOM     21  C   UNL A   1      36.525  20.829  25.102  1.00  0.00     0.039 C 
BRANCH  21  22
ATOM     22  C   UNL A   1      37.515  19.734  24.680  1.00  0.00     0.001 C 
ATOM     23  C   UNL A   1      38.863  19.788  25.385  1.00  0.00     0.004 C 
ENDBRANCH  21  22
ENDBRANCH  12  21
BRANCH  15  24
ATOM     24  O   UNL A   1      32.786  17.606  24.361  1.00  0.00    -0.406 OA
BRANCH  24  25
ATOM     25  C   UNL A   1      33.701  16.542  24.163  1.00  0.00     0.573 C 
ATOM     26  F   UNL A   1      34.251  16.597  22.929  1.00  0.00    -0.132 F 
ATOM     27  F   UNL A   1      34.684  16.563  25.090  1.00  0.00    -0.132 F 
ATOM     28  F   UNL A   1      33.044  15.368  24.276  1.00  0.00    -0.132 F 
ENDBRANCH  24  25
ENDBRANCH  15  24
BRANCH  20  29
ATOM     29  C   UNL A   1      34.176  25.220  24.973  1.00  0.00     0.430 C 
ATOM     30  F   UNL A   1      33.416  26.188  25.533  1.00  0.00    -0.167 F 
ATOM     31  F   UNL A   1      35.345  25.228  25.672  1.00  0.00    -0.167 F 
ATOM     32  F   UNL A   1      34.472  25.575  23.708  1.00  0.00    -0.167 F 
ENDBRANCH  20  29
ENDBRANCH   9  11
ENDBRANCH   8   9
ENDBRANCH   7   8
ENDBRANCH   6   7
ENDBRANCH   5   6
ENDBRANCH   4   5
ENDBRANCH   3   4
ENDBRANCH   2   3
ENDBRANCH   1   2
BRANCH   1  33
ATOM     33  C   UNL A   1      31.842  29.499  25.328  1.00  0.00     0.188 C 
BRANCH  33  34
ATOM     34  O   UNL A   1      31.903  30.469  26.368  1.00  0.00    -0.376 OA
BRANCH  34  35
ATOM     35  C   UNL A   1      32.997  30.359  27.266  1.00  0.00     0.202 C 
BRANCH  35  36
ATOM     36  C   UNL A   1      33.901  31.597  27.278  1.00  0.00     0.261 C 
BRANCH  36  37
ATOM     37  O   UNL A   1      33.383  32.712  28.017  1.00  0.00    -0.460 OA
BRANCH  37  38
ATOM     38  C   UNL A   1      34.246  33.721  28.280  1.00  0.00     0.338 C 
ATOM     39  O   UNL A   1      34.054  34.912  28.107  1.00  0.00    -0.246 OA
BRANCH  38  40
ATOM     40  C   UNL A   1      35.397  33.151  29.002  1.00  0.00     0.060 A 
ATOM     41  C   UNL A   1      36.690  33.516  28.606  1.00  0.00     0.016 A 
ATOM     42  C   UNL A   1      35.200  32.273  30.070  1.00  0.00     0.016 A 
ATOM     43  C   UNL A   1      37.795  32.970  29.258  1.00  0.00     0.010 A 
ATOM     44  C   UNL A   1      36.307  31.712  30.709  1.00  0.00     0.010 A 
ATOM     45  C   UNL A   1      37.608  32.032  30.282  1.00  0.00    -0.014 A 
BRANCH  45  46
ATOM     46  C   UNL A   1      38.756  31.220  30.746  1.00  0.00     0.031 A 
ATOM     47  C   UNL A   1      39.378  31.571  32.070  1.00  0.00     0.074 A 
ATOM     48  C   UNL A   1      39.224  30.185  30.025  1.00  0.00     0.049 A 
ATOM     49  N   UNL A   1      40.397  31.027  32.683  1.00  0.00    -0.248 NA
ATOM     50  C   UNL A   1      38.764  32.693  32.798  1.00  0.00     0.031 C 
ATOM     51  C   UNL A   1      38.679  29.730  28.747  1.00  0.00     0.029 A 
ATOM     52  N   UNL A   1      40.269  29.330  30.269  1.00  0.00    -0.354 N 
ATOM     53  C   UNL A   1      40.542  31.735  33.871  1.00  0.00     0.074 A 
ATOM     54  C   UNL A   1      39.537  32.776  33.868  1.00  0.00     0.031 C 
ATOM     55  C   UNL A   1      39.403  28.682  28.315  1.00  0.00     0.029 A 
ATOM     56  C   UNL A   1      40.479  28.412  29.267  1.00  0.00     0.049 A 
ATOM     57  H   UNL A   1      40.818  29.371  31.086  1.00  0.00     0.167 HD
ATOM     58  C   UNL A   1      41.425  31.530  34.878  1.00  0.00     0.034 A 
ATOM     59  C   UNL A   1      41.443  27.478  29.131  1.00  0.00     0.034 A 
ATOM     60  C   UNL A   1      42.439  30.506  34.855  1.00  0.00     0.049 A 
ATOM     61  C   UNL A   1      42.479  27.329  30.222  1.00  0.00     0.074 A 
ATOM     62  C   UNL A   1      43.382  30.203  35.822  1.00  0.00     0.029 A 
ATOM     63  N   UNL A   1      42.655  29.626  33.801  1.00  0.00    -0.354 N 
ATOM     64  N   UNL A   1      42.594  27.991  31.352  1.00  0.00    -0.248 NA
ATOM     65  C   UNL A   1      43.509  26.302  30.022  1.00  0.00     0.031 C 
ATOM     66  C   UNL A   1      44.211  29.192  35.323  1.00  0.00     0.029 A 
ATOM     67  C   UNL A   1      43.738  28.807  34.078  1.00  0.00     0.049 A 
ATOM     68  H   UNL A   1      42.117  29.591  32.977  1.00  0.00     0.167 HD
ATOM     69  C   UNL A   1      43.691  27.436  32.009  1.00  0.00     0.074 A 
ATOM     70  C   UNL A   1      44.192  26.379  31.155  1.00  0.00     0.031 C 
ATOM     71  C   UNL A   1      44.234  27.765  33.210  1.00  0.00     0.034 A 
BRANCH  58  72
ATOM     72  C   UNL A   1      41.357  32.472  36.054  1.00  0.00     0.023 A 
ATOM     73  C   UNL A   1      40.402  32.312  37.075  1.00  0.00     0.031 A 
ATOM     74  C   UNL A   1      42.230  33.571  36.135  1.00  0.00     0.131 A 
ATOM     75  C   UNL A   1      40.294  33.275  38.089  1.00  0.00     0.055 A 
ATOM     76  C   UNL A   1      42.169  34.483  37.191  1.00  0.00     0.041 A 
ATOM     77  F   UNL A   1      43.144  33.789  35.177  1.00  0.00    -0.206 F 
ATOM     78  C   UNL A   1      41.186  34.347  38.168  1.00  0.00     0.022 A 
BRANCH  75  79
ATOM     79  S   UNL A   1      38.876  33.190  39.218  1.00  0.00     0.124 S 
ATOM     80  O   UNL A   1      39.376  32.290  40.254  1.00  0.00    -0.237 OA
ATOM     81  O   UNL A   1      38.701  34.584  39.611  1.00  0.00    -0.237 OA
ATOM     82  O   UNL A   1      37.808  32.638  38.386  1.00  0.00    -0.744 OA
ENDBRANCH  75  79
ENDBRANCH  58  72
BRANCH  59  83
ATOM     83  C   UNL A   1      41.512  26.632  27.904  1.00  0.00     0.023 A 
ATOM     84  C   UNL A   1      41.167  25.271  27.938  1.00  0.00     0.031 A 
ATOM     85  C   UNL A   1      41.995  27.160  26.694  1.00  0.00     0.131 A 
ATOM     86  C   UNL A   1      41.356  24.473  26.798  1.00  0.00     0.055 A 
ATOM     87  C   UNL A   1      42.130  26.374  25.547  1.00  0.00     0.041 A 
ATOM     88  F   UNL A   1      42.343  28.453  26.607  1.00  0.00    -0.206 F 
ATOM     89  C   UNL A   1      41.822  25.018  25.599  1.00  0.00     0.022 A 
BRANCH  86  90
ATOM     90  S   UNL A   1      41.063  22.687  26.927  1.00  0.00     0.124 S 
ATOM     91  O   UNL A   1      39.634  22.641  27.210  1.00  0.00    -0.237 OA
ATOM     92  O   UNL A   1      41.474  22.217  25.608  1.00  0.00    -0.237 OA
ATOM     93  O   UNL A   1      41.932  22.279  28.029  1.00  0.00    -0.744 OA
ENDBRANCH  86  90
ENDBRANCH  59  83
BRANCH  71  94
ATOM     94  C   UNL A   1      45.407  26.940  33.685  1.00  0.00     0.023 A 
ATOM     95  C   UNL A   1      46.734  27.318  33.423  1.00  0.00     0.031 A 
ATOM     96  C   UNL A   1      45.188  25.752  34.406  1.00  0.00     0.131 A 
ATOM     97  C   UNL A   1      47.791  26.489  33.829  1.00  0.00     0.055 A 
ATOM     98  C   UNL A   1      46.245  24.963  34.862  1.00  0.00     0.041 A 
ATOM     99  F   UNL A   1      43.941  25.341  34.685  1.00  0.00    -0.206 F 
ATOM    100  C   UNL A   1      47.555  25.323  34.562  1.00  0.00     0.022 A 
BRANCH  97 101
ATOM    101  S   UNL A   1      49.478  26.905  33.307  1.00  0.00     0.124 S 
ATOM    102  O   UNL A   1      50.276  26.377  34.409  1.00  0.00    -0.237 OA
ATOM    103  O   UNL A   1      49.597  26.195  32.037  1.00  0.00    -0.237 OA
ATOM    104  O   UNL A   1      49.454  28.363  33.201  1.00  0.00    -0.744 OA
ENDBRANCH  97 101
ENDBRANCH  71  94
ENDBRANCH  45  46
ENDBRANCH  38  40
ENDBRANCH  37  38
ENDBRANCH  36  37
ENDBRANCH  35  36
ENDBRANCH  34  35
ENDBRANCH  33  34
ENDBRANCH   1  33
TORSDOF 28
ENDMDL
MODEL 3
REMARK VINA RESULT:      -9.9      2.862      7.584
REMARK SMILES CCCc1cc(OC(F)(F)F)cc2c1O[C@@H](C(F)(F)F)C(C(=O)OCCOCCOCCOCCOC(=O)c1ccc(-c3c4nc(c(-c5cc(S(=O)(=O)[O-])ccc5F)c5ccc([nH]5)c(-c5cc(S(=O)(=O)[O-])ccc5F)c5nc(c(-c6cc(S(=O)(=O)[O-])ccc6F)c6ccc3[nH]6)C=C5)C=C4)cc1)=C2
REMARK SMILES IDX 31 1 30 2 29 3 28 4 27 5 26 6 25 7 24 8 22 9 23 10 21 11
REMARK SMILES IDX 4 12 5 13 14 14 6 15 13 16 15 17 12 18 102 19 16 20 3 21
REMARK SMILES IDX 2 22 1 23 7 24 8 25 9 26 10 27 11 28 17 29 18 30 19 31 20 32
REMARK SMILES IDX 32 33 33 34 34 35 35 36 36 37 37 38 38 39 39 40 40 41 101 42
REMARK SMILES IDX 41 43 100 44 42 45 43 46 44 47 94 48 45 49 99 50 93 51 95 52
REMARK SMILES IDX 46 53 98 54 92 55 91 56 47 58 79 59 59 60 78 61 60 62 63 63
REMARK SMILES IDX 77 64 96 65 61 66 62 67 76 69 97 70 64 71 48 72 49 73 57 74
REMARK SMILES IDX 50 75 56 76 58 77 55 78 51 79 52 80 53 81 54 82 80 83 81 84
REMARK SMILES IDX 89 85 82 86 88 87 90 88 87 89 83 90 84 91 85 92 86 93 65 94
REMARK SMILES IDX 66 95 74 96 67 97 73 98 75 99 72 100 68 101 69 102 70 103
REMARK SMILES IDX 71 104
REMARK H PARENT 95 57 63 68
REMARK Flexibility Score: inf
ROOT
ATOM      1  C   UNL A   1      31.675  27.953  23.888  1.00  0.00     0.188 C 
ENDROOT
BRANCH   1   2
ATOM      2  O   UNL A   1      32.488  28.106  22.726  1.00  0.00    -0.377 OA
BRANCH   2   3
ATOM      3  C   UNL A   1      33.330  27.045  22.327  1.00  0.00     0.188 C 
BRANCH   3   4
ATOM      4  C   UNL A   1      32.679  25.906  21.524  1.00  0.00     0.188 C 
BRANCH   4   5
ATOM      5  O   UNL A   1      33.457  24.716  21.461  1.00  0.00    -0.376 OA
BRANCH   5   6
ATOM      6  C   UNL A   1      32.951  23.592  22.170  1.00  0.00     0.202 C 
BRANCH   6   7
ATOM      7  C   UNL A   1      31.649  23.852  22.934  1.00  0.00     0.261 C 
BRANCH   7   8
ATOM      8  O   UNL A   1      31.838  24.361  24.265  1.00  0.00    -0.460 OA
BRANCH   8   9
ATOM      9  C   UNL A   1      31.495  23.561  25.296  1.00  0.00     0.338 C 
ATOM     10  O   UNL A   1      30.516  23.677  26.010  1.00  0.00    -0.246 OA
BRANCH   9  11
ATOM     11  C   UNL A   1      32.427  22.418  25.354  1.00  0.00     0.087 C 
ATOM     12  C   UNL A   1      35.284  19.428  24.742  1.00  0.00    -0.002 A 
ATOM     13  C   UNL A   1      34.833  18.126  24.457  1.00  0.00     0.054 A 
ATOM     14  C   UNL A   1      34.323  20.415  25.004  1.00  0.00     0.131 A 
ATOM     15  C   UNL A   1      33.476  17.795  24.495  1.00  0.00     0.130 A 
ATOM     16  C   UNL A   1      32.955  20.111  24.976  1.00  0.00     0.021 A 
ATOM     17  O   UNL A   1      34.763  21.703  25.180  1.00  0.00    -0.475 OA
ATOM     18  C   UNL A   1      32.539  18.794  24.764  1.00  0.00     0.058 A 
ATOM     19  C   UNL A   1      31.982  21.199  25.011  1.00  0.00     0.027 C 
ATOM     20  C   UNL A   1      33.839  22.599  25.855  1.00  0.00     0.316 C 
BRANCH  12  21
ATOM     21  C   UNL A   1      36.761  19.751  24.658  1.00  0.00     0.039 C 
BRANCH  21  22
ATOM     22  C   UNL A   1      37.285  20.785  25.665  1.00  0.00     0.001 C 
ATOM     23  C   UNL A   1      37.955  22.001  25.039  1.00  0.00     0.004 C 
ENDBRANCH  21  22
ENDBRANCH  12  21
BRANCH  15  24
ATOM     24  O   UNL A   1      32.943  16.560  24.256  1.00  0.00    -0.406 OA
BRANCH  24  25
ATOM     25  C   UNL A   1      33.063  15.580  25.273  1.00  0.00     0.573 C 
ATOM     26  F   UNL A   1      32.313  14.491  24.991  1.00  0.00    -0.132 F 
ATOM     27  F   UNL A   1      34.350  15.204  25.441  1.00  0.00    -0.132 F 
ATOM     28  F   UNL A   1      32.624  16.100  26.440  1.00  0.00    -0.132 F 
ENDBRANCH  24  25
ENDBRANCH  15  24
BRANCH  20  29
ATOM     29  C   UNL A   1      34.459  24.007  25.843  1.00  0.00     0.430 C 
ATOM     30  F   UNL A   1      33.720  24.894  26.545  1.00  0.00    -0.167 F 
ATOM     31  F   UNL A   1      35.674  23.981  26.458  1.00  0.00    -0.167 F 
ATOM     32  F   UNL A   1      34.658  24.492  24.601  1.00  0.00    -0.167 F 
ENDBRANCH  20  29
ENDBRANCH   9  11
ENDBRANCH   8   9
ENDBRANCH   7   8
ENDBRANCH   6   7
ENDBRANCH   5   6
ENDBRANCH   4   5
ENDBRANCH   3   4
ENDBRANCH   2   3
ENDBRANCH   1   2
BRANCH   1  33
ATOM     33  C   UNL A   1      32.146  28.405  25.290  1.00  0.00     0.188 C 
BRANCH  33  34
ATOM     34  O   UNL A   1      32.503  29.778  25.394  1.00  0.00    -0.376 OA
BRANCH  34  35
ATOM     35  C   UNL A   1      31.449  30.682  25.692  1.00  0.00     0.202 C 
BRANCH  35  36
ATOM     36  C   UNL A   1      31.731  31.567  26.910  1.00  0.00     0.261 C 
BRANCH  36  37
ATOM     37  O   UNL A   1      33.122  31.718  27.233  1.00  0.00    -0.460 OA
BRANCH  37  38
ATOM     38  C   UNL A   1      33.474  32.848  27.889  1.00  0.00     0.338 C 
ATOM     39  O   UNL A   1      32.776  33.828  28.085  1.00  0.00    -0.246 OA
BRANCH  38  40
ATOM     40  C   UNL A   1      34.794  32.619  28.503  1.00  0.00     0.060 A 
ATOM     41  C   UNL A   1      35.907  33.290  27.982  1.00  0.00     0.016 A 
ATOM     42  C   UNL A   1      34.927  31.757  29.595  1.00  0.00     0.016 A 
ATOM     43  C   UNL A   1      37.169  33.068  28.531  1.00  0.00     0.010 A 
ATOM     44  C   UNL A   1      36.194  31.522  30.131  1.00  0.00     0.010 A 
ATOM     45  C   UNL A   1      37.324  32.150  29.579  1.00  0.00    -0.014 A 
BRANCH  45  46
ATOM     46  C   UNL A   1      38.680  31.677  29.939  1.00  0.00     0.031 A 
ATOM     47  C   UNL A   1      39.428  32.429  31.007  1.00  0.00     0.074 A 
ATOM     48  C   UNL A   1      39.228  30.597  29.353  1.00  0.00     0.049 A 
ATOM     49  N   UNL A   1      40.628  32.225  31.485  1.00  0.00    -0.248 NA
ATOM     50  C   UNL A   1      38.722  33.569  31.612  1.00  0.00     0.031 C 
ATOM     51  C   UNL A   1      38.585  29.770  28.335  1.00  0.00     0.029 A 
ATOM     52  N   UNL A   1      40.457  30.014  29.534  1.00  0.00    -0.354 N 
ATOM     53  C   UNL A   1      40.818  33.206  32.452  1.00  0.00     0.074 A 
ATOM     54  C   UNL A   1      39.629  34.031  32.458  1.00  0.00     0.031 C 
ATOM     55  C   UNL A   1      39.431  28.789  27.974  1.00  0.00     0.029 A 
ATOM     56  C   UNL A   1      40.685  28.937  28.711  1.00  0.00     0.049 A 
ATOM     57  H   UNL A   1      41.115  30.338  30.192  1.00  0.00     0.167 HD
ATOM     58  C   UNL A   1      41.881  33.395  33.270  1.00  0.00     0.034 A 
ATOM     59  C   UNL A   1      41.788  28.175  28.560  1.00  0.00     0.034 A 
ATOM     60  C   UNL A   1      43.071  32.583  33.235  1.00  0.00     0.049 A 
ATOM     61  C   UNL A   1      43.001  28.464  29.415  1.00  0.00     0.074 A 
ATOM     62  C   UNL A   1      44.206  32.679  34.020  1.00  0.00     0.029 A 
ATOM     63  N   UNL A   1      43.288  31.531  32.352  1.00  0.00    -0.354 N 
ATOM     64  N   UNL A   1      43.163  29.382  30.342  1.00  0.00    -0.248 NA
ATOM     65  C   UNL A   1      44.177  27.610  29.208  1.00  0.00     0.031 C 
ATOM     66  C   UNL A   1      45.135  31.736  33.566  1.00  0.00     0.029 A 
ATOM     67  C   UNL A   1      44.551  30.996  32.549  1.00  0.00     0.049 A 
ATOM     68  H   UNL A   1      42.638  31.212  31.684  1.00  0.00     0.167 HD
ATOM     69  C   UNL A   1      44.447  29.191  30.848  1.00  0.00     0.074 A 
ATOM     70  C   UNL A   1      45.010  28.064  30.133  1.00  0.00     0.031 C 
ATOM     71  C   UNL A   1      45.103  29.879  31.818  1.00  0.00     0.034 A 
BRANCH  58  72
ATOM     72  C   UNL A   1      41.814  34.561  34.225  1.00  0.00     0.023 A 
ATOM     73  C   UNL A   1      41.196  34.450  35.484  1.00  0.00     0.031 A 
ATOM     74  C   UNL A   1      42.338  35.812  33.856  1.00  0.00     0.131 A 
ATOM     75  C   UNL A   1      41.049  35.586  36.294  1.00  0.00     0.055 A 
ATOM     76  C   UNL A   1      42.259  36.921  34.701  1.00  0.00     0.041 A 
ATOM     77  F   UNL A   1      42.915  35.985  32.657  1.00  0.00    -0.206 F 
ATOM     78  C   UNL A   1      41.598  36.816  35.922  1.00  0.00     0.022 A 
BRANCH  75  79
ATOM     79  S   UNL A   1      40.002  35.469  37.770  1.00  0.00     0.124 S 
ATOM     80  O   UNL A   1      40.962  35.034  38.781  1.00  0.00    -0.237 OA
ATOM     81  O   UNL A   1      39.499  36.831  37.910  1.00  0.00    -0.237 OA
ATOM     82  O   UNL A   1      39.001  34.470  37.402  1.00  0.00    -0.744 OA
ENDBRANCH  75  79
ENDBRANCH  58  72
BRANCH  59  83
ATOM     83  C   UNL A   1      41.828  27.089  27.537  1.00  0.00     0.023 A 
ATOM     84  C   UNL A   1      41.497  25.765  27.868  1.00  0.00     0.031 A 
ATOM     85  C   UNL A   1      42.266  27.352  26.228  1.00  0.00     0.131 A 
ATOM     86  C   UNL A   1      41.658  24.745  26.915  1.00  0.00     0.055 A 
ATOM     87  C   UNL A   1      42.373  26.343  25.268  1.00  0.00     0.041 A 
ATOM     88  F   UNL A   1      42.598  28.600  25.859  1.00  0.00    -0.206 F 
ATOM     89  C   UNL A   1      42.081  25.028  25.614  1.00  0.00     0.022 A 
BRANCH  86  90
ATOM     90  S   UNL A   1      41.388  23.026  27.427  1.00  0.00     0.124 S 
ATOM     91  O   UNL A   1      42.160  22.960  28.662  1.00  0.00    -0.237 OA
ATOM     92  O   UNL A   1      39.937  22.978  27.573  1.00  0.00    -0.237 OA
ATOM     93  O   UNL A   1      41.926  22.250  26.311  1.00  0.00    -0.744 OA
ENDBRANCH  86  90
ENDBRANCH  59  83
BRANCH  71  94
ATOM     94  C   UNL A   1      46.487  29.400  32.188  1.00  0.00     0.023 A 
ATOM     95  C   UNL A   1      46.697  28.446  33.198  1.00  0.00     0.031 A 
ATOM     96  C   UNL A   1      47.614  29.914  31.520  1.00  0.00     0.131 A 
ATOM     97  C   UNL A   1      48.004  28.077  33.551  1.00  0.00     0.055 A 
ATOM     98  C   UNL A   1      48.908  29.496  31.833  1.00  0.00     0.041 A 
ATOM     99  F   UNL A   1      47.474  30.828  30.547  1.00  0.00    -0.206 F 
ATOM    100  C   UNL A   1      49.109  28.582  32.863  1.00  0.00     0.022 A 
BRANCH  97 101
ATOM    101  S   UNL A   1      48.247  26.993  34.986  1.00  0.00     0.124 S 
ATOM    102  O   UNL A   1      46.979  26.274  35.042  1.00  0.00    -0.237 OA
ATOM    103  O   UNL A   1      49.409  26.205  34.589  1.00  0.00    -0.237 OA
ATOM    104  O   UNL A   1      48.479  27.928  36.086  1.00  0.00    -0.744 OA
ENDBRANCH  97 101
ENDBRANCH  71  94
ENDBRANCH  45  46
ENDBRANCH  38  40
ENDBRANCH  37  38
ENDBRANCH  36  37
ENDBRANCH  35  36
ENDBRANCH  34  35
ENDBRANCH  33  34
ENDBRANCH   1  33
TORSDOF 28
ENDMDL
