MODEL 1
REMARK VINA RESULT:      -8.5      0.000      0.000
REMARK SMILES CCCN(C(=O)NCC(=O)OCCOCCOCCOCCOC(=O)c1ccc(-c2c3nc(c(-c4cc(S(=O)(=O)[O-])ccc4F)c4ccc([nH]4)c(-c4cc(S(=O)(=O)[O-])ccc4F)c4nc(c(-c5cc(S(=O)(=O)[O-])ccc5F)c5ccc2[nH]5)C=C4)C=C3)cc1)C(C)C
REMARK SMILES IDX 16 1 15 2 14 3 13 4 12 5 11 6 9 7 10 8 8 9 7 10 5 11 6 12
REMARK SMILES IDX 4 14 3 15 2 16 1 17 89 18 90 19 91 20 17 21 18 22 19 23
REMARK SMILES IDX 20 24 21 25 22 26 23 27 24 28 25 29 26 30 27 31 88 32 28 33
REMARK SMILES IDX 87 34 29 35 30 36 31 37 81 38 32 39 86 40 80 41 82 42 33 43
REMARK SMILES IDX 85 44 79 45 78 46 34 48 66 49 46 50 65 51 47 52 50 53 64 54
REMARK SMILES IDX 83 55 48 56 49 57 63 59 84 60 51 61 35 62 36 63 44 64 37 65
REMARK SMILES IDX 43 66 45 67 42 68 38 69 39 70 40 71 41 72 67 73 68 74 76 75
REMARK SMILES IDX 69 76 75 77 77 78 74 79 70 80 71 81 72 82 73 83 52 84 53 85
REMARK SMILES IDX 61 86 54 87 60 88 62 89 59 90 55 91 56 92 57 93 58 94
REMARK H PARENT 7 13 82 47 50 58
REMARK Flexibility Score: inf
ROOT
ATOM      1  C   UNL A   1      32.562  28.128  23.946  1.00  0.00     0.188 C 
ENDROOT
BRANCH   1   2
ATOM      2  C   UNL A   1      31.399  27.715  23.024  1.00  0.00     0.188 C 
BRANCH   2   3
ATOM      3  O   UNL A   1      30.075  27.545  23.515  1.00  0.00    -0.376 OA
BRANCH   3   4
ATOM      4  C   UNL A   1      29.606  26.272  23.940  1.00  0.00     0.202 C 
BRANCH   4   5
ATOM      5  C   UNL A   1      29.729  25.829  25.410  1.00  0.00     0.261 C 
BRANCH   5   6
ATOM      6  O   UNL A   1      31.006  25.298  25.800  1.00  0.00    -0.462 OA
BRANCH   6   7
ATOM      7  C   UNL A   1      31.331  24.083  25.302  1.00  0.00     0.325 C 
ATOM      8  O   UNL A   1      31.851  23.892  24.206  1.00  0.00    -0.250 OA
BRANCH   7   9
ATOM      9  C   UNL A   1      31.164  22.944  26.315  1.00  0.00     0.240 C 
BRANCH   9  10
ATOM     10  N   UNL A   1      32.289  22.239  26.920  1.00  0.00    -0.327 N 
ATOM     11  C   UNL A   1      33.449  21.683  26.546  1.00  0.00     0.318 C 
ATOM     12  O   UNL A   1      34.164  21.345  27.497  1.00  0.00    -0.249 OA
ATOM     13  H   UNL A   1      32.158  22.144  27.891  1.00  0.00     0.166 HD
BRANCH  11  14
ATOM     14  N   UNL A   1      33.829  21.512  25.241  1.00  0.00    -0.322 N 
BRANCH  14  15
ATOM     15  C   UNL A   1      33.230  20.560  24.306  1.00  0.00     0.121 C 
BRANCH  15  16
ATOM     16  C   UNL A   1      32.513  19.379  24.972  1.00  0.00     0.018 C 
ATOM     17  C   UNL A   1      32.680  18.051  24.263  1.00  0.00     0.006 C 
ENDBRANCH  15  16
ENDBRANCH  14  15
BRANCH  14  18
ATOM     18  C   UNL A   1      34.943  22.377  24.770  1.00  0.00     0.080 C 
ATOM     19  C   UNL A   1      35.117  23.673  25.567  1.00  0.00     0.031 C 
ATOM     20  C   UNL A   1      36.259  21.611  24.666  1.00  0.00     0.031 C 
ENDBRANCH  14  18
ENDBRANCH  11  14
ENDBRANCH   9  10
ENDBRANCH   7   9
ENDBRANCH   6   7
ENDBRANCH   5   6
ENDBRANCH   4   5
ENDBRANCH   3   4
ENDBRANCH   2   3
ENDBRANCH   1   2
BRANCH   1  21
ATOM     21  O   UNL A   1      32.540  29.476  24.363  1.00  0.00    -0.377 OA
BRANCH  21  22
ATOM     22  C   UNL A   1      31.339  29.926  24.975  1.00  0.00     0.188 C 
BRANCH  22  23
ATOM     23  C   UNL A   1      31.478  30.686  26.310  1.00  0.00     0.188 C 
BRANCH  23  24
ATOM     24  O   UNL A   1      32.762  30.560  26.916  1.00  0.00    -0.376 OA
BRANCH  24  25
ATOM     25  C   UNL A   1      33.442  31.740  27.323  1.00  0.00     0.202 C 
BRANCH  25  26
ATOM     26  C   UNL A   1      32.679  33.075  27.257  1.00  0.00     0.261 C 
BRANCH  26  27
ATOM     27  O   UNL A   1      32.515  33.787  28.492  1.00  0.00    -0.460 OA
BRANCH  27  28
ATOM     28  C   UNL A   1      33.496  34.637  28.863  1.00  0.00     0.338 C 
ATOM     29  O   UNL A   1      33.399  35.846  28.991  1.00  0.00    -0.246 OA
BRANCH  28  30
ATOM     30  C   UNL A   1      34.653  33.832  29.308  1.00  0.00     0.060 A 
ATOM     31  C   UNL A   1      34.433  32.777  30.204  1.00  0.00     0.016 A 
ATOM     32  C   UNL A   1      35.942  34.112  28.850  1.00  0.00     0.016 A 
ATOM     33  C   UNL A   1      35.508  32.033  30.686  1.00  0.00     0.010 A 
ATOM     34  C   UNL A   1      37.022  33.380  29.353  1.00  0.00     0.010 A 
ATOM     35  C   UNL A   1      36.813  32.367  30.306  1.00  0.00    -0.014 A 
BRANCH  35  36
ATOM     36  C   UNL A   1      37.956  31.821  31.082  1.00  0.00     0.031 A 
ATOM     37  C   UNL A   1      38.828  30.788  30.421  1.00  0.00     0.074 A 
ATOM     38  C   UNL A   1      38.241  32.259  32.320  1.00  0.00     0.049 A 
ATOM     39  N   UNL A   1      39.857  30.136  30.897  1.00  0.00    -0.248 NA
ATOM     40  C   UNL A   1      38.483  30.441  29.035  1.00  0.00     0.031 C 
ATOM     41  C   UNL A   1      37.503  33.294  33.041  1.00  0.00     0.029 A 
ATOM     42  N   UNL A   1      39.231  31.880  33.192  1.00  0.00    -0.354 N 
ATOM     43  C   UNL A   1      40.276  29.295  29.871  1.00  0.00     0.074 A 
ATOM     44  C   UNL A   1      39.362  29.489  28.767  1.00  0.00     0.031 C 
ATOM     45  C   UNL A   1      38.062  33.461  34.252  1.00  0.00     0.029 A 
ATOM     46  C   UNL A   1      39.168  32.517  34.409  1.00  0.00     0.049 A 
ATOM     47  H   UNL A   1      39.921  31.215  32.968  1.00  0.00     0.167 HD
ATOM     48  C   UNL A   1      41.332  28.443  29.850  1.00  0.00     0.034 A 
ATOM     49  C   UNL A   1      39.900  32.336  35.528  1.00  0.00     0.034 A 
ATOM     50  C   UNL A   1      42.222  28.249  30.970  1.00  0.00     0.049 A 
ATOM     51  C   UNL A   1      41.011  31.313  35.519  1.00  0.00     0.074 A 
ATOM     52  C   UNL A   1      43.330  27.425  31.056  1.00  0.00     0.029 A 
ATOM     53  N   UNL A   1      42.093  28.873  32.205  1.00  0.00    -0.354 N 
ATOM     54  N   UNL A   1      41.407  30.526  34.543  1.00  0.00    -0.248 NA
ATOM     55  C   UNL A   1      41.780  31.159  36.761  1.00  0.00     0.031 C 
ATOM     56  C   UNL A   1      43.815  27.482  32.367  1.00  0.00     0.029 A 
ATOM     57  C   UNL A   1      43.076  28.417  33.073  1.00  0.00     0.049 A 
ATOM     58  H   UNL A   1      41.406  29.540  32.432  1.00  0.00     0.167 HD
ATOM     59  C   UNL A   1      42.494  29.811  35.045  1.00  0.00     0.074 A 
ATOM     60  C   UNL A   1      42.695  30.269  36.405  1.00  0.00     0.031 C 
ATOM     61  C   UNL A   1      43.260  28.870  34.434  1.00  0.00     0.034 A 
BRANCH  48  62
ATOM     62  C   UNL A   1      41.526  27.614  28.602  1.00  0.00     0.023 A 
ATOM     63  C   UNL A   1      41.088  26.279  28.518  1.00  0.00     0.031 A 
ATOM     64  C   UNL A   1      42.212  28.149  27.497  1.00  0.00     0.131 A 
ATOM     65  C   UNL A   1      41.419  25.503  27.397  1.00  0.00     0.055 A 
ATOM     66  C   UNL A   1      42.454  27.398  26.344  1.00  0.00     0.041 A 
ATOM     67  F   UNL A   1      42.679  29.406  27.525  1.00  0.00    -0.206 F 
ATOM     68  C   UNL A   1      42.073  26.060  26.297  1.00  0.00     0.022 A 
BRANCH  65  69
ATOM     69  S   UNL A   1      41.141  23.711  27.473  1.00  0.00     0.124 S 
ATOM     70  O   UNL A   1      39.684  23.642  27.557  1.00  0.00    -0.237 OA
ATOM     71  O   UNL A   1      41.732  23.246  26.223  1.00  0.00    -0.237 OA
ATOM     72  O   UNL A   1      41.847  23.306  28.687  1.00  0.00    -0.744 OA
ENDBRANCH  65  69
ENDBRANCH  48  62
BRANCH  49  73
ATOM     73  C   UNL A   1      39.581  33.104  36.766  1.00  0.00     0.023 A 
ATOM     74  C   UNL A   1      38.726  32.585  37.752  1.00  0.00     0.031 A 
ATOM     75  C   UNL A   1      40.101  34.398  36.962  1.00  0.00     0.131 A 
ATOM     76  C   UNL A   1      38.388  33.368  38.868  1.00  0.00     0.055 A 
ATOM     77  C   UNL A   1      39.805  35.150  38.100  1.00  0.00     0.041 A 
ATOM     78  F   UNL A   1      40.917  34.947  36.048  1.00  0.00    -0.206 F 
ATOM     79  C   UNL A   1      38.936  34.639  39.057  1.00  0.00     0.022 A 
BRANCH  76  80
ATOM     80  S   UNL A   1      37.157  32.730  40.039  1.00  0.00     0.124 S 
ATOM     81  O   UNL A   1      35.984  32.582  39.185  1.00  0.00    -0.237 OA
ATOM     82  O   UNL A   1      37.782  31.492  40.492  1.00  0.00    -0.237 OA
ATOM     83  O   UNL A   1      37.068  33.785  41.046  1.00  0.00    -0.744 OA
ENDBRANCH  76  80
ENDBRANCH  49  73
BRANCH  61  84
ATOM     84  C   UNL A   1      44.426  28.308  35.218  1.00  0.00     0.023 A 
ATOM     85  C   UNL A   1      44.264  27.288  36.171  1.00  0.00     0.031 A 
ATOM     86  C   UNL A   1      45.723  28.813  35.008  1.00  0.00     0.131 A 
ATOM     87  C   UNL A   1      45.366  26.849  36.921  1.00  0.00     0.055 A 
ATOM     88  C   UNL A   1      46.827  28.320  35.704  1.00  0.00     0.041 A 
ATOM     89  F   UNL A   1      45.941  29.792  34.115  1.00  0.00    -0.206 F 
ATOM     90  C   UNL A   1      46.651  27.343  36.679  1.00  0.00     0.022 A 
BRANCH  87  91
ATOM     91  S   UNL A   1      45.083  25.703  38.299  1.00  0.00     0.124 S 
ATOM     92  O   UNL A   1      44.496  26.579  39.306  1.00  0.00    -0.237 OA
ATOM     93  O   UNL A   1      44.185  24.718  37.707  1.00  0.00    -0.237 OA
ATOM     94  O   UNL A   1      46.423  25.208  38.615  1.00  0.00    -0.744 OA
ENDBRANCH  87  91
ENDBRANCH  61  84
ENDBRANCH  35  36
ENDBRANCH  28  30
ENDBRANCH  27  28
ENDBRANCH  26  27
ENDBRANCH  25  26
ENDBRANCH  24  25
ENDBRANCH  23  24
ENDBRANCH  22  23
ENDBRANCH  21  22
ENDBRANCH   1  21
TORSDOF 28
ENDMDL
MODEL 2
REMARK VINA RESULT:      -8.0      3.934      6.020
REMARK SMILES CCCN(C(=O)NCC(=O)OCCOCCOCCOCCOC(=O)c1ccc(-c2c3nc(c(-c4cc(S(=O)(=O)[O-])ccc4F)c4ccc([nH]4)c(-c4cc(S(=O)(=O)[O-])ccc4F)c4nc(c(-c5cc(S(=O)(=O)[O-])ccc5F)c5ccc2[nH]5)C=C4)C=C3)cc1)C(C)C
REMARK SMILES IDX 16 1 15 2 14 3 13 4 12 5 11 6 9 7 10 8 8 9 7 10 5 11 6 12
REMARK SMILES IDX 4 14 3 15 2 16 1 17 89 18 90 19 91 20 17 21 18 22 19 23
REMARK SMILES IDX 20 24 21 25 22 26 23 27 24 28 25 29 26 30 27 31 88 32 28 33
REMARK SMILES IDX 87 34 29 35 30 36 31 37 81 38 32 39 86 40 80 41 82 42 33 43
REMARK SMILES IDX 85 44 79 45 78 46 34 48 66 49 46 50 65 51 47 52 50 53 64 54
REMARK SMILES IDX 83 55 48 56 49 57 63 59 84 60 51 61 35 62 36 63 44 64 37 65
REMARK SMILES IDX 43 66 45 67 42 68 38 69 39 70 40 71 41 72 67 73 68 74 76 75
REMARK SMILES IDX 69 76 75 77 77 78 74 79 70 80 71 81 72 82 73 83 52 84 53 85
REMARK SMILES IDX 61 86 54 87 60 88 62 89 59 90 55 91 56 92 57 93 58 94
REMARK H PARENT 7 13 82 47 50 58
REMARK Flexibility Score: inf
ROOT
ATOM      1  C   UNL A   1      33.861  28.148  24.043  1.00  0.00     0.188 C 
ENDROOT
BRANCH   1   2
ATOM      2  C   UNL A   1      32.956  28.954  23.092  1.00  0.00     0.188 C 
BRANCH   2   3
ATOM      3  O   UNL A   1      31.539  28.936  23.208  1.00  0.00    -0.376 OA
BRANCH   3   4
ATOM      4  C   UNL A   1      30.750  28.016  22.465  1.00  0.00     0.202 C 
BRANCH   4   5
ATOM      5  C   UNL A   1      30.864  26.498  22.700  1.00  0.00     0.261 C 
BRANCH   5   6
ATOM      6  O   UNL A   1      31.903  25.828  21.968  1.00  0.00    -0.462 OA
BRANCH   6   7
ATOM      7  C   UNL A   1      32.524  24.807  22.602  1.00  0.00     0.325 C 
ATOM      8  O   UNL A   1      33.455  24.155  22.135  1.00  0.00    -0.250 OA
BRANCH   7   9
ATOM      9  C   UNL A   1      32.088  24.640  24.063  1.00  0.00     0.240 C 
BRANCH   9  10
ATOM     10  N   UNL A   1      31.550  23.395  24.601  1.00  0.00    -0.327 N 
ATOM     11  C   UNL A   1      31.996  22.267  25.169  1.00  0.00     0.318 C 
ATOM     12  O   UNL A   1      31.095  21.555  25.627  1.00  0.00    -0.249 OA
ATOM     13  H   UNL A   1      30.569  23.380  24.526  1.00  0.00     0.166 HD
BRANCH  11  14
ATOM     14  N   UNL A   1      33.320  21.927  25.256  1.00  0.00    -0.322 N 
BRANCH  14  15
ATOM     15  C   UNL A   1      34.000  20.957  24.398  1.00  0.00     0.121 C 
BRANCH  15  16
ATOM     16  C   UNL A   1      33.728  19.491  24.755  1.00  0.00     0.018 C 
ATOM     17  C   UNL A   1      32.836  18.752  23.777  1.00  0.00     0.006 C 
ENDBRANCH  15  16
ENDBRANCH  14  15
BRANCH  14  18
ATOM     18  C   UNL A   1      34.098  22.615  26.321  1.00  0.00     0.080 C 
ATOM     19  C   UNL A   1      33.721  22.202  27.745  1.00  0.00     0.031 C 
ATOM     20  C   UNL A   1      35.603  22.504  26.092  1.00  0.00     0.031 C 
ENDBRANCH  14  18
ENDBRANCH  11  14
ENDBRANCH   9  10
ENDBRANCH   7   9
ENDBRANCH   6   7
ENDBRANCH   5   6
ENDBRANCH   4   5
ENDBRANCH   3   4
ENDBRANCH   2   3
ENDBRANCH   1   2
BRANCH   1  21
ATOM     21  O   UNL A   1      34.298  28.850  25.186  1.00  0.00    -0.377 OA
BRANCH  21  22
ATOM     22  C   UNL A   1      33.333  29.047  26.210  1.00  0.00     0.188 C 
BRANCH  22  23
ATOM     23  C   UNL A   1      33.215  30.471  26.792  1.00  0.00     0.188 C 
BRANCH  23  24
ATOM     24  O   UNL A   1      33.865  30.638  28.049  1.00  0.00    -0.376 OA
BRANCH  24  25
ATOM     25  C   UNL A   1      35.282  30.742  28.075  1.00  0.00     0.202 C 
BRANCH  25  26
ATOM     26  C   UNL A   1      36.078  29.613  28.755  1.00  0.00     0.261 C 
BRANCH  26  27
ATOM     27  O   UNL A   1      37.148  30.012  29.625  1.00  0.00    -0.460 OA
BRANCH  27  28
ATOM     28  C   UNL A   1      36.964  29.869  30.954  1.00  0.00     0.338 C 
ATOM     29  O   UNL A   1      35.900  29.909  31.549  1.00  0.00    -0.246 OA
BRANCH  28  30
ATOM     30  C   UNL A   1      38.246  29.430  31.547  1.00  0.00     0.060 A 
ATOM     31  C   UNL A   1      39.282  30.364  31.675  1.00  0.00     0.016 A 
ATOM     32  C   UNL A   1      38.427  28.112  31.972  1.00  0.00     0.016 A 
ATOM     33  C   UNL A   1      40.520  29.971  32.179  1.00  0.00     0.010 A 
ATOM     34  C   UNL A   1      39.676  27.713  32.455  1.00  0.00     0.010 A 
ATOM     35  C   UNL A   1      40.740  28.631  32.519  1.00  0.00    -0.014 A 
BRANCH  35  36
ATOM     36  C   UNL A   1      42.133  28.151  32.708  1.00  0.00     0.031 A 
ATOM     37  C   UNL A   1      42.925  27.784  31.482  1.00  0.00     0.074 A 
ATOM     38  C   UNL A   1      42.697  28.083  33.926  1.00  0.00     0.049 A 
ATOM     39  N   UNL A   1      44.140  27.309  31.384  1.00  0.00    -0.248 NA
ATOM     40  C   UNL A   1      42.247  27.977  30.192  1.00  0.00     0.031 C 
ATOM     41  C   UNL A   1      42.048  28.463  35.180  1.00  0.00     0.029 A 
ATOM     42  N   UNL A   1      43.948  27.663  34.306  1.00  0.00    -0.354 N 
ATOM     43  C   UNL A   1      44.367  27.136  30.022  1.00  0.00     0.074 A 
ATOM     44  C   UNL A   1      43.149  27.516  29.341  1.00  0.00     0.031 C 
ATOM     45  C   UNL A   1      42.906  28.250  36.193  1.00  0.00     0.029 A 
ATOM     46  C   UNL A   1      44.145  27.679  35.666  1.00  0.00     0.049 A 
ATOM     47  H   UNL A   1      44.638  27.379  33.665  1.00  0.00     0.167 HD
ATOM     48  C   UNL A   1      45.491  26.706  29.398  1.00  0.00     0.034 A 
ATOM     49  C   UNL A   1      45.194  27.254  36.401  1.00  0.00     0.034 A 
ATOM     50  C   UNL A   1      46.691  26.313  30.097  1.00  0.00     0.049 A 
ATOM     51  C   UNL A   1      46.402  26.686  35.694  1.00  0.00     0.074 A 
ATOM     52  C   UNL A   1      47.892  25.876  29.568  1.00  0.00     0.029 A 
ATOM     53  N   UNL A   1      46.835  26.291  31.479  1.00  0.00    -0.354 N 
ATOM     54  N   UNL A   1      46.613  26.533  34.406  1.00  0.00    -0.248 NA
ATOM     55  C   UNL A   1      47.518  26.243  36.540  1.00  0.00     0.031 C 
ATOM     56  C   UNL A   1      48.727  25.505  30.627  1.00  0.00     0.029 A 
ATOM     57  C   UNL A   1      48.089  25.805  31.821  1.00  0.00     0.049 A 
ATOM     58  H   UNL A   1      46.148  26.577  32.123  1.00  0.00     0.167 HD
ATOM     59  C   UNL A   1      47.899  26.008  34.288  1.00  0.00     0.074 A 
ATOM     60  C   UNL A   1      48.417  25.883  35.636  1.00  0.00     0.031 C 
ATOM     61  C   UNL A   1      48.592  25.670  33.170  1.00  0.00     0.034 A 
BRANCH  48  62
ATOM     62  C   UNL A   1      45.439  26.574  27.894  1.00  0.00     0.023 A 
ATOM     63  C   UNL A   1      45.207  25.339  27.260  1.00  0.00     0.031 A 
ATOM     64  C   UNL A   1      45.682  27.693  27.077  1.00  0.00     0.131 A 
ATOM     65  C   UNL A   1      45.313  25.237  25.865  1.00  0.00     0.055 A 
ATOM     66  C   UNL A   1      45.690  27.602  25.683  1.00  0.00     0.041 A 
ATOM     67  F   UNL A   1      45.937  28.894  27.619  1.00  0.00    -0.206 F 
ATOM     68  C   UNL A   1      45.524  26.364  25.070  1.00  0.00     0.022 A 
BRANCH  65  69
ATOM     69  S   UNL A   1      45.349  23.582  25.119  1.00  0.00     0.124 S 
ATOM     70  O   UNL A   1      43.925  23.273  25.019  1.00  0.00    -0.237 OA
ATOM     71  O   UNL A   1      46.043  23.820  23.858  1.00  0.00    -0.237 OA
ATOM     72  O   UNL A   1      46.085  22.783  26.096  1.00  0.00    -0.744 OA
ENDBRANCH  65  69
ENDBRANCH  48  62
BRANCH  49  73
ATOM     73  C   UNL A   1      45.135  27.302  37.891  1.00  0.00     0.023 A 
ATOM     74  C   UNL A   1      45.578  28.426  38.607  1.00  0.00     0.031 A 
ATOM     75  C   UNL A   1      44.669  26.196  38.627  1.00  0.00     0.131 A 
ATOM     76  C   UNL A   1      45.580  28.406  40.011  1.00  0.00     0.055 A 
ATOM     77  C   UNL A   1      44.621  26.202  40.022  1.00  0.00     0.041 A 
ATOM     78  F   UNL A   1      44.242  25.092  37.995  1.00  0.00    -0.206 F 
ATOM     79  C   UNL A   1      45.088  27.309  40.723  1.00  0.00     0.022 A 
BRANCH  76  80
ATOM     80  S   UNL A   1      46.307  29.810  40.901  1.00  0.00     0.124 S 
ATOM     81  O   UNL A   1      47.731  29.610  40.659  1.00  0.00    -0.237 OA
ATOM     82  O   UNL A   1      45.693  30.949  40.227  1.00  0.00    -0.237 OA
ATOM     83  O   UNL A   1      45.872  29.599  42.281  1.00  0.00    -0.744 OA
ENDBRANCH  76  80
ENDBRANCH  49  73
BRANCH  61  84
ATOM     84  C   UNL A   1      50.012  25.180  33.353  1.00  0.00     0.023 A 
ATOM     85  C   UNL A   1      50.333  23.812  33.374  1.00  0.00     0.031 A 
ATOM     86  C   UNL A   1      51.060  26.105  33.517  1.00  0.00     0.131 A 
ATOM     87  C   UNL A   1      51.655  23.407  33.616  1.00  0.00     0.055 A 
ATOM     88  C   UNL A   1      52.384  25.697  33.683  1.00  0.00     0.041 A 
ATOM     89  F   UNL A   1      50.814  27.425  33.511  1.00  0.00    -0.206 F 
ATOM     90  C   UNL A   1      52.686  24.341  33.749  1.00  0.00     0.022 A 
BRANCH  87  91
ATOM     91  S   UNL A   1      51.995  21.643  33.869  1.00  0.00     0.124 S 
ATOM     92  O   UNL A   1      50.885  21.240  34.726  1.00  0.00    -0.237 OA
ATOM     93  O   UNL A   1      51.972  21.122  32.507  1.00  0.00    -0.237 OA
ATOM     94  O   UNL A   1      53.309  21.635  34.512  1.00  0.00    -0.744 OA
ENDBRANCH  87  91
ENDBRANCH  61  84
ENDBRANCH  35  36
ENDBRANCH  28  30
ENDBRANCH  27  28
ENDBRANCH  26  27
ENDBRANCH  25  26
ENDBRANCH  24  25
ENDBRANCH  23  24
ENDBRANCH  22  23
ENDBRANCH  21  22
ENDBRANCH   1  21
TORSDOF 28
ENDMDL
MODEL 3
REMARK VINA RESULT:      -7.9      5.460      9.425
REMARK SMILES CCCN(C(=O)NCC(=O)OCCOCCOCCOCCOC(=O)c1ccc(-c2c3nc(c(-c4cc(S(=O)(=O)[O-])ccc4F)c4ccc([nH]4)c(-c4cc(S(=O)(=O)[O-])ccc4F)c4nc(c(-c5cc(S(=O)(=O)[O-])ccc5F)c5ccc2[nH]5)C=C4)C=C3)cc1)C(C)C
REMARK SMILES IDX 16 1 15 2 14 3 13 4 12 5 11 6 9 7 10 8 8 9 7 10 5 11 6 12
REMARK SMILES IDX 4 14 3 15 2 16 1 17 89 18 90 19 91 20 17 21 18 22 19 23
REMARK SMILES IDX 20 24 21 25 22 26 23 27 24 28 25 29 26 30 27 31 88 32 28 33
REMARK SMILES IDX 87 34 29 35 30 36 31 37 81 38 32 39 86 40 80 41 82 42 33 43
REMARK SMILES IDX 85 44 79 45 78 46 34 48 66 49 46 50 65 51 47 52 50 53 64 54
REMARK SMILES IDX 83 55 48 56 49 57 63 59 84 60 51 61 35 62 36 63 44 64 37 65
REMARK SMILES IDX 43 66 45 67 42 68 38 69 39 70 40 71 41 72 67 73 68 74 76 75
REMARK SMILES IDX 69 76 75 77 77 78 74 79 70 80 71 81 72 82 73 83 52 84 53 85
REMARK SMILES IDX 61 86 54 87 60 88 62 89 59 90 55 91 56 92 57 93 58 94
REMARK H PARENT 7 13 82 47 50 58
REMARK Flexibility Score: inf
ROOT
ATOM      1  C   UNL A   1      37.290  33.834  29.838  1.00  0.00     0.188 C 
ENDROOT
BRANCH   1   2
ATOM      2  C   UNL A   1      38.041  32.505  30.048  1.00  0.00     0.188 C 
BRANCH   2   3
ATOM      3  O   UNL A   1      37.357  31.261  30.129  1.00  0.00    -0.376 OA
BRANCH   3   4
ATOM      4  C   UNL A   1      37.621  30.214  29.204  1.00  0.00     0.202 C 
BRANCH   4   5
ATOM      5  C   UNL A   1      39.032  29.611  29.064  1.00  0.00     0.261 C 
BRANCH   5   6
ATOM      6  O   UNL A   1      39.187  28.610  28.046  1.00  0.00    -0.462 OA
BRANCH   6   7
ATOM      7  C   UNL A   1      40.395  28.006  27.974  1.00  0.00     0.325 C 
ATOM      8  O   UNL A   1      41.397  28.370  28.584  1.00  0.00    -0.250 OA
BRANCH   7   9
ATOM      9  C   UNL A   1      40.373  26.687  27.193  1.00  0.00     0.240 C 
BRANCH   9  10
ATOM     10  N   UNL A   1      41.289  26.387  26.098  1.00  0.00    -0.327 N 
ATOM     11  C   UNL A   1      42.286  25.537  25.822  1.00  0.00     0.318 C 
ATOM     12  O   UNL A   1      42.650  25.568  24.640  1.00  0.00    -0.249 OA
ATOM     13  H   UNL A   1      41.126  26.988  25.335  1.00  0.00     0.166 HD
BRANCH  11  14
ATOM     14  N   UNL A   1      42.850  24.695  26.745  1.00  0.00    -0.322 N 
BRANCH  14  15
ATOM     15  C   UNL A   1      42.568  23.266  26.867  1.00  0.00     0.121 C 
BRANCH  15  16
ATOM     16  C   UNL A   1      41.185  22.937  27.443  1.00  0.00     0.018 C 
ATOM     17  C   UNL A   1      40.721  21.514  27.212  1.00  0.00     0.006 C 
ENDBRANCH  15  16
ENDBRANCH  14  15
BRANCH  14  18
ATOM     18  C   UNL A   1      43.819  25.320  27.684  1.00  0.00     0.080 C 
ATOM     19  C   UNL A   1      43.275  25.546  29.097  1.00  0.00     0.031 C 
ATOM     20  C   UNL A   1      45.150  24.572  27.717  1.00  0.00     0.031 C 
ENDBRANCH  14  18
ENDBRANCH  11  14
ENDBRANCH   9  10
ENDBRANCH   7   9
ENDBRANCH   6   7
ENDBRANCH   5   6
ENDBRANCH   4   5
ENDBRANCH   3   4
ENDBRANCH   2   3
ENDBRANCH   1   2
BRANCH   1  21
ATOM     21  O   UNL A   1      36.238  33.780  28.899  1.00  0.00    -0.377 OA
BRANCH  21  22
ATOM     22  C   UNL A   1      34.965  33.399  29.401  1.00  0.00     0.188 C 
BRANCH  22  23
ATOM     23  C   UNL A   1      34.242  34.414  30.311  1.00  0.00     0.188 C 
BRANCH  23  24
ATOM     24  O   UNL A   1      33.972  33.925  31.622  1.00  0.00    -0.376 OA
BRANCH  24  25
ATOM     25  C   UNL A   1      34.738  32.833  32.115  1.00  0.00     0.202 C 
BRANCH  25  26
ATOM     26  C   UNL A   1      35.727  33.102  33.263  1.00  0.00     0.261 C 
BRANCH  26  27
ATOM     27  O   UNL A   1      36.346  31.955  33.863  1.00  0.00    -0.460 OA
BRANCH  27  28
ATOM     28  C   UNL A   1      37.391  32.165  34.691  1.00  0.00     0.338 C 
ATOM     29  O   UNL A   1      37.351  32.679  35.797  1.00  0.00    -0.246 OA
BRANCH  28  30
ATOM     30  C   UNL A   1      38.566  31.465  34.129  1.00  0.00     0.060 A 
ATOM     31  C   UNL A   1      39.847  31.902  34.492  1.00  0.00     0.016 A 
ATOM     32  C   UNL A   1      38.409  30.388  33.253  1.00  0.00     0.016 A 
ATOM     33  C   UNL A   1      40.974  31.299  33.938  1.00  0.00     0.010 A 
ATOM     34  C   UNL A   1      39.540  29.800  32.680  1.00  0.00     0.010 A 
ATOM     35  C   UNL A   1      40.826  30.282  32.988  1.00  0.00    -0.014 A 
BRANCH  35  36
ATOM     36  C   UNL A   1      41.990  29.899  32.149  1.00  0.00     0.031 A 
ATOM     37  C   UNL A   1      42.716  28.625  32.491  1.00  0.00     0.074 A 
ATOM     38  C   UNL A   1      42.369  30.633  31.089  1.00  0.00     0.049 A 
ATOM     39  N   UNL A   1      43.776  28.094  31.939  1.00  0.00    -0.248 NA
ATOM     40  C   UNL A   1      42.169  27.850  33.614  1.00  0.00     0.031 C 
ATOM     41  C   UNL A   1      41.711  31.854  30.629  1.00  0.00     0.029 A 
ATOM     42  N   UNL A   1      43.407  30.455  30.209  1.00  0.00    -0.354 N 
ATOM     43  C   UNL A   1      44.029  26.929  32.655  1.00  0.00     0.074 A 
ATOM     44  C   UNL A   1      43.038  26.857  33.706  1.00  0.00     0.031 C 
ATOM     45  C   UNL A   1      42.369  32.321  29.554  1.00  0.00     0.029 A 
ATOM     46  C   UNL A   1      43.518  31.459  29.276  1.00  0.00     0.049 A 
ATOM     47  H   UNL A   1      44.015  29.682  30.243  1.00  0.00     0.167 HD
ATOM     48  C   UNL A   1      44.996  26.000  32.450  1.00  0.00     0.034 A 
ATOM     49  C   UNL A   1      44.455  31.672  28.330  1.00  0.00     0.034 A 
ATOM     50  C   UNL A   1      45.988  26.100  31.406  1.00  0.00     0.049 A 
ATOM     51  C   UNL A   1      45.582  30.678  28.177  1.00  0.00     0.074 A 
ATOM     52  C   UNL A   1      47.004  25.213  31.097  1.00  0.00     0.029 A 
ATOM     53  N   UNL A   1      46.101  27.160  30.515  1.00  0.00    -0.354 N 
ATOM     54  N   UNL A   1      45.811  29.573  28.853  1.00  0.00    -0.248 NA
ATOM     55  C   UNL A   1      46.572  30.954  27.128  1.00  0.00     0.031 C 
ATOM     56  C   UNL A   1      47.783  25.778  30.081  1.00  0.00     0.029 A 
ATOM     57  C   UNL A   1      47.197  26.970  29.684  1.00  0.00     0.049 A 
ATOM     58  H   UNL A   1      45.493  27.933  30.477  1.00  0.00     0.167 HD
ATOM     59  C   UNL A   1      46.951  29.007  28.285  1.00  0.00     0.074 A 
ATOM     60  C   UNL A   1      47.354  29.887  27.207  1.00  0.00     0.031 C 
ATOM     61  C   UNL A   1      47.600  27.861  28.620  1.00  0.00     0.034 A 
BRANCH  48  62
ATOM     62  C   UNL A   1      45.061  24.843  33.419  1.00  0.00     0.023 A 
ATOM     63  C   UNL A   1      45.772  24.925  34.631  1.00  0.00     0.031 A 
ATOM     64  C   UNL A   1      44.447  23.619  33.101  1.00  0.00     0.131 A 
ATOM     65  C   UNL A   1      45.927  23.781  35.430  1.00  0.00     0.055 A 
ATOM     66  C   UNL A   1      44.525  22.511  33.950  1.00  0.00     0.041 A 
ATOM     67  F   UNL A   1      43.776  23.468  31.949  1.00  0.00    -0.206 F 
ATOM     68  C   UNL A   1      45.285  22.583  35.113  1.00  0.00     0.022 A 
BRANCH  65  69
ATOM     69  S   UNL A   1      47.125  23.834  36.793  1.00  0.00     0.124 S 
ATOM     70  O   UNL A   1      47.084  22.456  37.274  1.00  0.00    -0.237 OA
ATOM     71  O   UNL A   1      48.353  24.240  36.117  1.00  0.00    -0.237 OA
ATOM     72  O   UNL A   1      46.559  24.823  37.708  1.00  0.00    -0.744 OA
ENDBRANCH  65  69
ENDBRANCH  48  62
BRANCH  49  73
ATOM     73  C   UNL A   1      44.400  32.898  27.480  1.00  0.00     0.023 A 
ATOM     74  C   UNL A   1      44.855  34.139  27.954  1.00  0.00     0.031 A 
ATOM     75  C   UNL A   1      43.848  32.849  26.186  1.00  0.00     0.131 A 
ATOM     76  C   UNL A   1      44.717  35.286  27.154  1.00  0.00     0.055 A 
ATOM     77  C   UNL A   1      43.764  33.982  25.375  1.00  0.00     0.041 A 
ATOM     78  F   UNL A   1      43.390  31.690  25.686  1.00  0.00    -0.206 F 
ATOM     79  C   UNL A   1      44.191  35.212  25.862  1.00  0.00     0.022 A 
BRANCH  76  80
ATOM     80  S   UNL A   1      45.167  36.897  27.858  1.00  0.00     0.124 S 
ATOM     81  O   UNL A   1      43.868  37.411  28.275  1.00  0.00    -0.237 OA
ATOM     82  O   UNL A   1      46.082  36.516  28.928  1.00  0.00    -0.237 OA
ATOM     83  O   UNL A   1      45.785  37.597  26.734  1.00  0.00    -0.744 OA
ENDBRANCH  76  80
ENDBRANCH  49  73
BRANCH  61  84
ATOM     84  C   UNL A   1      48.788  27.463  27.771  1.00  0.00     0.023 A 
ATOM     85  C   UNL A   1      50.097  27.872  28.078  1.00  0.00     0.031 A 
ATOM     86  C   UNL A   1      48.599  26.663  26.628  1.00  0.00     0.131 A 
ATOM     87  C   UNL A   1      51.155  27.533  27.221  1.00  0.00     0.055 A 
ATOM     88  C   UNL A   1      49.667  26.268  25.821  1.00  0.00     0.041 A 
ATOM     89  F   UNL A   1      47.371  26.246  26.279  1.00  0.00    -0.206 F 
ATOM     90  C   UNL A   1      50.953  26.715  26.107  1.00  0.00     0.022 A 
BRANCH  87  91
ATOM     91  S   UNL A   1      52.788  28.269  27.518  1.00  0.00     0.124 S 
ATOM     92  O   UNL A   1      53.364  28.277  26.179  1.00  0.00    -0.237 OA
ATOM     93  O   UNL A   1      52.446  29.573  28.075  1.00  0.00    -0.237 OA
ATOM     94  O   UNL A   1      53.416  27.340  28.458  1.00  0.00    -0.744 OA
ENDBRANCH  87  91
ENDBRANCH  61  84
ENDBRANCH  35  36
ENDBRANCH  28  30
ENDBRANCH  27  28
ENDBRANCH  26  27
ENDBRANCH  25  26
ENDBRANCH  24  25
ENDBRANCH  23  24
ENDBRANCH  22  23
ENDBRANCH  21  22
ENDBRANCH   1  21
TORSDOF 28
ENDMDL
