MODEL 1
REMARK VINA RESULT:      -7.1      0.000      0.000
REMARK SMILES Cc1ccc(S(=O)(=O)n2cc(C(=O)C(=O)N[C@@H](Cc3c[nH]c4ccccc34)C(=O)NCC(=O)OCCOCCOCCOCCOC(=O)c3ccc(-c4c5nc(c(-c6cc(S(=O)(=O)[O-])ccc6F)c6ccc([nH]6)c(-c6cc(S(=O)(=O)[O-])ccc6F)c6nc(c(-c7cc(S(=O)(=O)[O-])ccc7F)c7ccc4[nH]7)C=C6)C=C5)cc3)c3ccccc32)cc1
REMARK SMILES IDX 38 1 37 2 36 3 35 4 34 5 32 6 33 7 31 8 30 9 28 10 29 11
REMARK SMILES IDX 17 13 16 14 14 15 15 16 12 18 13 19 11 20 9 21 10 22 117 23
REMARK SMILES IDX 112 24 116 25 113 26 115 27 114 28 6 29 7 30 8 31 5 32 1 33
REMARK SMILES IDX 2 34 3 35 119 36 4 37 118 38 18 39 19 40 20 41 27 42 21 43
REMARK SMILES IDX 22 44 26 45 23 47 25 48 24 49 39 50 40 51 41 52 42 53 43 54
REMARK SMILES IDX 44 55 45 56 46 57 47 58 48 59 49 60 50 61 111 62 51 63
REMARK SMILES IDX 110 64 52 65 53 66 54 67 104 68 55 69 109 70 103 71 105 72
REMARK SMILES IDX 56 73 108 74 102 75 101 76 57 78 89 79 69 80 88 81 70 82
REMARK SMILES IDX 73 83 87 84 106 85 71 86 72 87 86 89 107 90 74 91 58 92
REMARK SMILES IDX 59 93 67 94 60 95 66 96 68 97 65 98 61 99 62 100 63 101
REMARK SMILES IDX 64 102 90 103 91 104 99 105 92 106 98 107 100 108 97 109
REMARK SMILES IDX 93 110 94 111 95 112 96 113 75 114 76 115 84 116 77 117
REMARK SMILES IDX 83 118 85 119 82 120 78 121 79 122 80 123 81 124
REMARK H PARENT 30 12 16 17 21 46 105 77 73 88
REMARK Flexibility Score: inf
ROOT
ATOM      1  C   UNL A   1      41.144  29.703  34.367  1.00  0.00     0.188 C 
ENDROOT
BRANCH   1   2
ATOM      2  O   UNL A   1      40.779  29.230  32.974  1.00  0.00    -0.376 OA
BRANCH   2   3
ATOM      3  C   UNL A   1      39.552  28.305  32.387  1.00  0.00     0.202 C 
BRANCH   3   4
ATOM      4  C   UNL A   1      38.951  27.619  30.754  1.00  0.00     0.261 C 
BRANCH   4   5
ATOM      5  O   UNL A   1      39.686  27.529  29.086  1.00  0.00    -0.462 OA
BRANCH   5   6
ATOM      6  C   UNL A   1      39.981  26.615  27.808  1.00  0.00     0.325 C 
ATOM      7  O   UNL A   1      39.554  25.454  27.748  1.00  0.00    -0.250 OA
BRANCH   6   8
ATOM      8  C   UNL A   1      41.050  27.014  26.392  1.00  0.00     0.238 C 
BRANCH   8   9
ATOM      9  N   UNL A   1      42.531  27.321  25.944  1.00  0.00    -0.343 N 
ATOM     10  C   UNL A   1      43.877  27.127  26.132  1.00  0.00     0.243 C 
ATOM     11  O   UNL A   1      44.500  27.560  25.130  1.00  0.00    -0.273 OA
ATOM     12  H   UNL A   1      42.456  27.934  25.177  1.00  0.00     0.164 HD
BRANCH  10  13
ATOM     13  C   UNL A   1      44.835  26.300  27.164  1.00  0.00     0.176 C 
BRANCH  13  14
ATOM     14  N   UNL A   1      45.854  26.837  28.127  1.00  0.00    -0.337 N 
ATOM     15  C   UNL A   1      45.944  27.926  29.012  1.00  0.00     0.293 C 
ATOM     16  O   UNL A   1      47.029  28.149  29.555  1.00  0.00    -0.265 OA
ATOM     17  H   UNL A   1      46.669  26.284  28.142  1.00  0.00     0.164 HD
BRANCH  15  18
ATOM     18  C   UNL A   1      44.761  28.837  29.410  1.00  0.00     0.252 C 
ATOM     19  O   UNL A   1      43.959  28.376  30.215  1.00  0.00    -0.283 OA
BRANCH  18  20
ATOM     20  C   UNL A   1      44.505  30.153  28.739  1.00  0.00     0.054 A 
ATOM     21  N   UNL A   1      43.905  31.903  27.409  1.00  0.00    -0.240 N 
ATOM     22  C   UNL A   1      44.307  30.560  27.398  1.00  0.00     0.117 A 
ATOM     23  C   UNL A   1      43.767  32.280  28.758  1.00  0.00     0.065 A 
ATOM     24  C   UNL A   1      44.538  31.374  29.474  1.00  0.00     0.012 A 
ATOM     25  C   UNL A   1      43.303  33.475  29.341  1.00  0.00     0.028 A 
ATOM     26  C   UNL A   1      45.075  31.781  30.711  1.00  0.00     0.011 A 
ATOM     27  C   UNL A   1      43.886  33.881  30.537  1.00  0.00     0.002 A 
ATOM     28  C   UNL A   1      44.808  33.069  31.185  1.00  0.00     0.001 A 
BRANCH  21  29
ATOM     29  S   UNL A   1      44.378  33.273  26.437  1.00  0.00     0.268 S 
ATOM     30  O   UNL A   1      43.914  32.897  25.109  1.00  0.00    -0.201 OA
ATOM     31  O   UNL A   1      45.810  33.320  26.727  1.00  0.00    -0.201 OA
BRANCH  29  32
ATOM     32  C   UNL A   1      44.030  34.997  26.508  1.00  0.00     0.088 A 
ATOM     33  C   UNL A   1      44.163  39.243  27.391  1.00  0.00     0.044 C 
ATOM     34  C   UNL A   1      44.093  37.790  27.015  1.00  0.00    -0.051 A 
ATOM     35  C   UNL A   1      45.272  37.065  27.067  1.00  0.00     0.005 A 
ATOM     36  C   UNL A   1      42.897  37.116  26.671  1.00  0.00     0.005 A 
ATOM     37  C   UNL A   1      45.234  35.705  26.804  1.00  0.00     0.022 A 
ATOM     38  C   UNL A   1      42.853  35.713  26.418  1.00  0.00     0.022 A 
ENDBRANCH  29  32
ENDBRANCH  21  29
ENDBRANCH  18  20
ENDBRANCH  15  18
ENDBRANCH  13  14
BRANCH  13  39
ATOM     39  C   UNL A   1      43.957  25.203  27.886  1.00  0.00     0.072 C 
BRANCH  39  40
ATOM     40  C   UNL A   1      44.187  23.823  27.342  1.00  0.00    -0.020 A 
ATOM     41  C   UNL A   1      45.083  23.458  26.354  1.00  0.00     0.087 A 
ATOM     42  C   UNL A   1      43.311  22.716  27.545  1.00  0.00     0.003 A 
ATOM     43  N   UNL A   1      44.661  22.259  25.832  1.00  0.00    -0.361 N 
ATOM     44  C   UNL A   1      43.456  21.928  26.407  1.00  0.00     0.046 A 
ATOM     45  C   UNL A   1      42.202  22.533  28.390  1.00  0.00     0.010 A 
ATOM     46  H   UNL A   1      45.141  21.727  25.157  1.00  0.00     0.166 HD
ATOM     47  C   UNL A   1      42.419  21.145  25.917  1.00  0.00     0.026 A 
ATOM     48  C   UNL A   1      41.091  21.929  27.823  1.00  0.00     0.001 A 
ATOM     49  C   UNL A   1      41.207  21.319  26.582  1.00  0.00     0.002 A 
ENDBRANCH  39  40
ENDBRANCH  13  39
ENDBRANCH  10  13
ENDBRANCH   8   9
ENDBRANCH   6   8
ENDBRANCH   5   6
ENDBRANCH   4   5
ENDBRANCH   3   4
ENDBRANCH   2   3
ENDBRANCH   1   2
BRANCH   1  50
ATOM     50  C   UNL A   1      41.568  28.853  35.591  1.00  0.00     0.188 C 
BRANCH  50  51
ATOM     51  O   UNL A   1      41.012  27.616  35.893  1.00  0.00    -0.377 OA
BRANCH  51  52
ATOM     52  C   UNL A   1      41.650  26.473  35.382  1.00  0.00     0.188 C 
BRANCH  52  53
ATOM     53  C   UNL A   1      43.149  26.507  35.032  1.00  0.00     0.188 C 
BRANCH  53  54
ATOM     54  O   UNL A   1      44.028  26.013  36.026  1.00  0.00    -0.376 OA
BRANCH  54  55
ATOM     55  C   UNL A   1      44.459  26.856  37.066  1.00  0.00     0.202 C 
BRANCH  55  56
ATOM     56  C   UNL A   1      45.637  27.702  36.593  1.00  0.00     0.261 C 
BRANCH  56  57
ATOM     57  O   UNL A   1      45.181  29.039  36.267  1.00  0.00    -0.460 OA
BRANCH  57  58
ATOM     58  C   UNL A   1      46.028  30.056  36.607  1.00  0.00     0.338 C 
ATOM     59  O   UNL A   1      46.216  30.463  37.734  1.00  0.00    -0.246 OA
BRANCH  58  60
ATOM     60  C   UNL A   1      46.553  30.692  35.349  1.00  0.00     0.060 A 
ATOM     61  C   UNL A   1      46.173  30.217  34.103  1.00  0.00     0.016 A 
ATOM     62  C   UNL A   1      47.634  31.577  35.399  1.00  0.00     0.016 A 
ATOM     63  C   UNL A   1      47.028  30.440  33.004  1.00  0.00     0.010 A 
ATOM     64  C   UNL A   1      48.578  31.584  34.358  1.00  0.00     0.010 A 
ATOM     65  C   UNL A   1      48.387  30.803  33.208  1.00  0.00    -0.014 A 
BRANCH  65  66
ATOM     66  C   UNL A   1      49.686  30.476  32.146  1.00  0.00     0.031 A 
ATOM     67  C   UNL A   1      49.047  31.651  31.014  1.00  0.00     0.074 A 
ATOM     68  C   UNL A   1      50.773  29.201  31.985  1.00  0.00     0.049 A 
ATOM     69  N   UNL A   1      48.580  31.415  29.804  1.00  0.00    -0.248 NA
ATOM     70  C   UNL A   1      48.644  33.024  31.402  1.00  0.00     0.031 C 
ATOM     71  C   UNL A   1      51.754  28.642  30.757  1.00  0.00     0.029 A 
ATOM     72  N   UNL A   1      51.021  27.842  32.630  1.00  0.00    -0.354 N 
ATOM     73  C   UNL A   1      48.474  32.620  29.165  1.00  0.00     0.074 A 
ATOM     74  C   UNL A   1      48.172  33.514  30.249  1.00  0.00     0.031 C 
ATOM     75  C   UNL A   1      52.172  27.398  30.788  1.00  0.00     0.029 A 
ATOM     76  C   UNL A   1      51.334  26.790  31.702  1.00  0.00     0.049 A 
ATOM     77  H   UNL A   1      50.973  27.698  33.603  1.00  0.00     0.167 HD
ATOM     78  C   UNL A   1      48.985  32.843  27.908  1.00  0.00     0.034 A 
ATOM     79  C   UNL A   1      50.588  25.773  31.154  1.00  0.00     0.034 A 
ATOM     80  C   UNL A   1      49.682  31.662  27.294  1.00  0.00     0.049 A 
ATOM     81  C   UNL A   1      50.338  25.977  29.573  1.00  0.00     0.074 A 
ATOM     82  C   UNL A   1      50.947  31.524  26.740  1.00  0.00     0.029 A 
ATOM     83  N   UNL A   1      49.200  30.329  27.381  1.00  0.00    -0.354 N 
ATOM     84  N   UNL A   1      50.240  27.137  28.932  1.00  0.00    -0.248 NA
ATOM     85  C   UNL A   1      50.380  24.877  28.623  1.00  0.00     0.031 C 
ATOM     86  C   UNL A   1      51.174  30.167  26.428  1.00  0.00     0.029 A 
ATOM     87  C   UNL A   1      50.135  29.394  26.917  1.00  0.00     0.049 A 
ATOM     88  H   UNL A   1      48.312  30.089  27.730  1.00  0.00     0.167 HD
ATOM     89  C   UNL A   1      50.115  26.973  27.563  1.00  0.00     0.074 A 
ATOM     90  C   UNL A   1      50.315  25.526  27.443  1.00  0.00     0.031 C 
ATOM     91  C   UNL A   1      49.879  27.967  26.613  1.00  0.00     0.034 A 
BRANCH  78  92
ATOM     92  C   UNL A   1      49.213  34.314  27.459  1.00  0.00     0.023 A 
ATOM     93  C   UNL A   1      49.372  35.370  28.380  1.00  0.00     0.031 A 
ATOM     94  C   UNL A   1      49.213  34.740  26.112  1.00  0.00     0.131 A 
ATOM     95  C   UNL A   1      49.317  36.729  27.999  1.00  0.00     0.055 A 
ATOM     96  C   UNL A   1      49.119  36.090  25.723  1.00  0.00     0.041 A 
ATOM     97  F   UNL A   1      49.348  33.860  25.107  1.00  0.00    -0.206 F 
ATOM     98  C   UNL A   1      49.142  37.097  26.673  1.00  0.00     0.022 A 
BRANCH  95  99
ATOM     99  S   UNL A   1      49.489  38.016  29.273  1.00  0.00     0.124 S 
ATOM    100  O   UNL A   1      48.185  38.672  29.224  1.00  0.00    -0.237 OA
ATOM    101  O   UNL A   1      49.774  37.239  30.474  1.00  0.00    -0.237 OA
ATOM    102  O   UNL A   1      50.605  38.826  28.787  1.00  0.00    -0.744 OA
ENDBRANCH  95  99
ENDBRANCH  78  92
BRANCH  79 103
ATOM    103  C   UNL A   1      49.804  24.937  32.107  1.00  0.00     0.023 A 
ATOM    104  C   UNL A   1      50.478  23.875  32.758  1.00  0.00     0.031 A 
ATOM    105  C   UNL A   1      48.570  25.342  32.634  1.00  0.00     0.131 A 
ATOM    106  C   UNL A   1      50.018  23.382  33.988  1.00  0.00     0.055 A 
ATOM    107  C   UNL A   1      48.132  24.875  33.881  1.00  0.00     0.041 A 
ATOM    108  F   UNL A   1      47.891  26.352  32.069  1.00  0.00    -0.206 F 
ATOM    109  C   UNL A   1      48.879  23.927  34.582  1.00  0.00     0.022 A 
BRANCH 106 110
ATOM    110  S   UNL A   1      51.008  22.175  34.930  1.00  0.00     0.124 S 
ATOM    111  O   UNL A   1      50.360  20.916  34.583  1.00  0.00    -0.237 OA
ATOM    112  O   UNL A   1      52.356  22.359  34.408  1.00  0.00    -0.237 OA
ATOM    113  O   UNL A   1      50.818  22.607  36.314  1.00  0.00    -0.744 OA
ENDBRANCH 106 110
ENDBRANCH  79 103
BRANCH  91 114
ATOM    114  C   UNL A   1      49.619  27.713  25.105  1.00  0.00     0.023 A 
ATOM    115  C   UNL A   1      50.494  28.114  24.098  1.00  0.00     0.031 A 
ATOM    116  C   UNL A   1      48.458  27.032  24.622  1.00  0.00     0.131 A 
ATOM    117  C   UNL A   1      50.148  28.026  22.736  1.00  0.00     0.055 A 
ATOM    118  C   UNL A   1      48.120  26.920  23.270  1.00  0.00     0.041 A 
ATOM    119  F   UNL A   1      47.606  26.384  25.431  1.00  0.00    -0.206 F 
ATOM    120  C   UNL A   1      48.958  27.446  22.311  1.00  0.00     0.022 A 
BRANCH 117 121
ATOM    121  S   UNL A   1      51.309  28.716  21.538  1.00  0.00     0.124 S 
ATOM    122  O   UNL A   1      51.280  30.135  21.880  1.00  0.00    -0.237 OA
ATOM    123  O   UNL A   1      52.546  28.014  21.867  1.00  0.00    -0.237 OA
ATOM    124  O   UNL A   1      50.720  28.368  20.248  1.00  0.00    -0.744 OA
ENDBRANCH 117 121
ENDBRANCH  91 114
ENDBRANCH  65  66
ENDBRANCH  58  60
ENDBRANCH  57  58
ENDBRANCH  56  57
ENDBRANCH  55  56
ENDBRANCH  54  55
ENDBRANCH  53  54
ENDBRANCH  52  53
ENDBRANCH  51  52
ENDBRANCH  50  51
ENDBRANCH   1  50
TORSDOF 32
ENDMDL
MODEL 2
REMARK VINA RESULT:      -6.7      3.288      9.897
REMARK SMILES Cc1ccc(S(=O)(=O)n2cc(C(=O)C(=O)N[C@@H](Cc3c[nH]c4ccccc34)C(=O)NCC(=O)OCCOCCOCCOCCOC(=O)c3ccc(-c4c5nc(c(-c6cc(S(=O)(=O)[O-])ccc6F)c6ccc([nH]6)c(-c6cc(S(=O)(=O)[O-])ccc6F)c6nc(c(-c7cc(S(=O)(=O)[O-])ccc7F)c7ccc4[nH]7)C=C6)C=C5)cc3)c3ccccc32)cc1
REMARK SMILES IDX 38 1 37 2 36 3 35 4 34 5 32 6 33 7 31 8 30 9 28 10 29 11
REMARK SMILES IDX 17 13 16 14 14 15 15 16 12 18 13 19 11 20 9 21 10 22 117 23
REMARK SMILES IDX 112 24 116 25 113 26 115 27 114 28 6 29 7 30 8 31 5 32 1 33
REMARK SMILES IDX 2 34 3 35 119 36 4 37 118 38 18 39 19 40 20 41 27 42 21 43
REMARK SMILES IDX 22 44 26 45 23 47 25 48 24 49 39 50 40 51 41 52 42 53 43 54
REMARK SMILES IDX 44 55 45 56 46 57 47 58 48 59 49 60 50 61 111 62 51 63
REMARK SMILES IDX 110 64 52 65 53 66 54 67 104 68 55 69 109 70 103 71 105 72
REMARK SMILES IDX 56 73 108 74 102 75 101 76 57 78 89 79 69 80 88 81 70 82
REMARK SMILES IDX 73 83 87 84 106 85 71 86 72 87 86 89 107 90 74 91 58 92
REMARK SMILES IDX 59 93 67 94 60 95 66 96 68 97 65 98 61 99 62 100 63 101
REMARK SMILES IDX 64 102 90 103 91 104 99 105 92 106 98 107 100 108 97 109
REMARK SMILES IDX 93 110 94 111 95 112 96 113 75 114 76 115 84 116 77 117
REMARK SMILES IDX 83 118 85 119 82 120 78 121 79 122 80 123 81 124
REMARK H PARENT 30 12 16 17 21 46 105 77 73 88
REMARK Flexibility Score: inf
ROOT
ATOM      1  C   UNL A   1      41.622  27.529  28.720  1.00  0.00     0.188 C 
ENDROOT
BRANCH   1   2
ATOM      2  O   UNL A   1      41.034  28.747  29.406  1.00  0.00    -0.376 OA
BRANCH   2   3
ATOM      3  C   UNL A   1      41.502  29.639  30.707  1.00  0.00     0.202 C 
BRANCH   3   4
ATOM      4  C   UNL A   1      41.981  31.399  31.119  1.00  0.00     0.261 C 
BRANCH   4   5
ATOM      5  O   UNL A   1      43.494  32.383  30.850  1.00  0.00    -0.462 OA
BRANCH   5   6
ATOM      6  C   UNL A   1      44.283  33.732  31.185  1.00  0.00     0.325 C 
ATOM      7  O   UNL A   1      45.299  33.712  31.893  1.00  0.00    -0.250 OA
BRANCH   6   8
ATOM      8  C   UNL A   1      43.786  35.430  30.766  1.00  0.00     0.238 C 
BRANCH   8   9
ATOM      9  N   UNL A   1      43.782  36.929  31.259  1.00  0.00    -0.343 N 
ATOM     10  C   UNL A   1      44.096  38.243  31.017  1.00  0.00     0.243 C 
ATOM     11  O   UNL A   1      43.509  38.969  31.859  1.00  0.00    -0.273 OA
ATOM     12  H   UNL A   1      43.359  36.916  32.148  1.00  0.00     0.164 HD
BRANCH  10  13
ATOM     13  C   UNL A   1      44.811  39.105  29.829  1.00  0.00     0.176 C 
BRANCH  13  14
ATOM     14  N   UNL A   1      44.256  39.485  28.487  1.00  0.00    -0.337 N 
ATOM     15  C   UNL A   1      43.576  38.831  27.443  1.00  0.00     0.293 C 
ATOM     16  O   UNL A   1      43.399  39.444  26.387  1.00  0.00    -0.265 OA
ATOM     17  H   UNL A   1      44.406  40.437  28.286  1.00  0.00     0.164 HD
BRANCH  15  18
ATOM     18  C   UNL A   1      42.972  37.413  27.540  1.00  0.00     0.252 C 
ATOM     19  O   UNL A   1      41.881  37.316  28.092  1.00  0.00    -0.283 OA
BRANCH  18  20
ATOM     20  C   UNL A   1      43.735  36.189  27.129  1.00  0.00     0.054 A 
ATOM     21  N   UNL A   1      44.493  34.183  26.360  1.00  0.00    -0.240 N 
ATOM     22  C   UNL A   1      43.404  34.822  26.969  1.00  0.00     0.117 A 
ATOM     23  C   UNL A   1      45.443  35.179  26.065  1.00  0.00     0.065 A 
ATOM     24  C   UNL A   1      45.143  36.237  26.915  1.00  0.00     0.012 A 
ATOM     25  C   UNL A   1      46.669  35.113  25.376  1.00  0.00     0.028 A 
ATOM     26  C   UNL A   1      46.182  37.111  27.287  1.00  0.00     0.011 A 
ATOM     27  C   UNL A   1      47.695  35.952  25.798  1.00  0.00     0.002 A 
ATOM     28  C   UNL A   1      47.470  36.902  26.785  1.00  0.00     0.001 A 
BRANCH  21  29
ATOM     29  S   UNL A   1      45.285  32.661  26.682  1.00  0.00     0.268 S 
ATOM     30  O   UNL A   1      45.277  32.016  25.376  1.00  0.00    -0.201 OA
ATOM     31  O   UNL A   1      44.440  32.147  27.758  1.00  0.00    -0.201 OA
BRANCH  29  32
ATOM     32  C   UNL A   1      46.858  32.219  27.336  1.00  0.00     0.088 A 
ATOM     33  C   UNL A   1      50.655  32.243  29.434  1.00  0.00     0.044 C 
ATOM     34  C   UNL A   1      49.333  32.161  28.725  1.00  0.00    -0.051 A 
ATOM     35  C   UNL A   1      48.311  32.968  29.196  1.00  0.00     0.005 A 
ATOM     36  C   UNL A   1      49.094  31.360  27.584  1.00  0.00     0.005 A 
ATOM     37  C   UNL A   1      47.101  32.979  28.520  1.00  0.00     0.022 A 
ATOM     38  C   UNL A   1      47.856  31.384  26.876  1.00  0.00     0.022 A 
ENDBRANCH  29  32
ENDBRANCH  21  29
ENDBRANCH  18  20
ENDBRANCH  15  18
ENDBRANCH  13  14
BRANCH  13  39
ATOM     39  C   UNL A   1      45.517  40.360  30.480  1.00  0.00     0.072 C 
BRANCH  39  40
ATOM     40  C   UNL A   1      46.978  40.443  30.147  1.00  0.00    -0.020 A 
ATOM     41  C   UNL A   1      47.565  40.203  28.918  1.00  0.00     0.087 A 
ATOM     42  C   UNL A   1      48.026  40.490  31.113  1.00  0.00     0.003 A 
ATOM     43  N   UNL A   1      48.892  39.920  29.140  1.00  0.00    -0.361 N 
ATOM     44  C   UNL A   1      49.112  39.874  30.496  1.00  0.00     0.046 A 
ATOM     45  C   UNL A   1      48.018  40.668  32.507  1.00  0.00     0.010 A 
ATOM     46  H   UNL A   1      49.571  39.774  28.442  1.00  0.00     0.166 HD
ATOM     47  C   UNL A   1      50.075  39.183  31.221  1.00  0.00     0.026 A 
ATOM     48  C   UNL A   1      48.839  39.823  33.239  1.00  0.00     0.001 A 
ATOM     49  C   UNL A   1      49.788  39.056  32.579  1.00  0.00     0.002 A 
ENDBRANCH  39  40
ENDBRANCH  13  39
ENDBRANCH  10  13
ENDBRANCH   8   9
ENDBRANCH   6   8
ENDBRANCH   5   6
ENDBRANCH   4   5
ENDBRANCH   3   4
ENDBRANCH   2   3
ENDBRANCH   1   2
BRANCH   1  50
ATOM     50  C   UNL A   1      41.023  26.104  28.611  1.00  0.00     0.188 C 
BRANCH  50  51
ATOM     51  O   UNL A   1      39.660  25.854  28.516  1.00  0.00    -0.377 OA
BRANCH  51  52
ATOM     52  C   UNL A   1      39.252  24.754  27.742  1.00  0.00     0.188 C 
BRANCH  52  53
ATOM     53  C   UNL A   1      40.241  24.065  26.784  1.00  0.00     0.188 C 
BRANCH  53  54
ATOM     54  O   UNL A   1      40.717  22.796  27.193  1.00  0.00    -0.376 OA
BRANCH  54  55
ATOM     55  C   UNL A   1      40.895  21.773  26.244  1.00  0.00     0.202 C 
BRANCH  55  56
ATOM     56  C   UNL A   1      42.375  21.643  25.895  1.00  0.00     0.261 C 
BRANCH  56  57
ATOM     57  O   UNL A   1      42.649  22.341  24.655  1.00  0.00    -0.460 OA
BRANCH  57  58
ATOM     58  C   UNL A   1      43.800  23.077  24.628  1.00  0.00     0.338 C 
ATOM     59  O   UNL A   1      44.826  22.750  24.070  1.00  0.00    -0.246 OA
BRANCH  58  60
ATOM     60  C   UNL A   1      43.639  24.265  25.536  1.00  0.00     0.060 A 
ATOM     61  C   UNL A   1      43.457  25.536  25.014  1.00  0.00     0.016 A 
ATOM     62  C   UNL A   1      43.942  24.165  26.896  1.00  0.00     0.016 A 
ATOM     63  C   UNL A   1      43.828  26.649  25.797  1.00  0.00     0.010 A 
ATOM     64  C   UNL A   1      44.523  25.257  27.564  1.00  0.00     0.010 A 
ATOM     65  C   UNL A   1      44.689  26.490  26.916  1.00  0.00    -0.014 A 
BRANCH  65  66
ATOM     66  C   UNL A   1      45.748  27.676  27.546  1.00  0.00     0.031 A 
ATOM     67  C   UNL A   1      47.070  26.965  26.642  1.00  0.00     0.074 A 
ATOM     68  C   UNL A   1      45.690  28.709  28.874  1.00  0.00     0.049 A 
ATOM     69  N   UNL A   1      48.144  26.381  27.135  1.00  0.00    -0.248 NA
ATOM     70  C   UNL A   1      46.989  26.637  25.199  1.00  0.00     0.031 C 
ATOM     71  C   UNL A   1      46.826  29.556  29.753  1.00  0.00     0.029 A 
ATOM     72  N   UNL A   1      44.761  28.980  30.052  1.00  0.00    -0.354 N 
ATOM     73  C   UNL A   1      49.042  26.249  26.111  1.00  0.00     0.074 A 
ATOM     74  C   UNL A   1      48.182  26.072  24.973  1.00  0.00     0.031 C 
ATOM     75  C   UNL A   1      46.533  29.942  30.973  1.00  0.00     0.029 A 
ATOM     76  C   UNL A   1      45.433  29.177  31.307  1.00  0.00     0.049 A 
ATOM     77  H   UNL A   1      43.781  29.019  29.960  1.00  0.00     0.167 HD
ATOM     78  C   UNL A   1      50.354  26.645  26.216  1.00  0.00     0.034 A 
ATOM     79  C   UNL A   1      45.657  28.357  32.388  1.00  0.00     0.034 A 
ATOM     80  C   UNL A   1      50.724  27.250  27.540  1.00  0.00     0.049 A 
ATOM     81  C   UNL A   1      47.214  27.966  32.551  1.00  0.00     0.074 A 
ATOM     82  C   UNL A   1      51.334  28.455  27.866  1.00  0.00     0.029 A 
ATOM     83  N   UNL A   1      50.280  26.744  28.791  1.00  0.00    -0.354 N 
ATOM     84  N   UNL A   1      48.103  27.839  31.572  1.00  0.00    -0.248 NA
ATOM     85  C   UNL A   1      47.873  27.890  33.845  1.00  0.00     0.031 C 
ATOM     86  C   UNL A   1      51.330  28.615  29.268  1.00  0.00     0.029 A 
ATOM     87  C   UNL A   1      50.584  27.606  29.853  1.00  0.00     0.049 A 
ATOM     88  H   UNL A   1      49.810  25.886  28.899  1.00  0.00     0.167 HD
ATOM     89  C   UNL A   1      49.377  27.583  32.049  1.00  0.00     0.074 A 
ATOM     90  C   UNL A   1      49.164  27.732  33.491  1.00  0.00     0.031 C 
ATOM     91  C   UNL A   1      50.514  27.285  31.297  1.00  0.00     0.034 A 
BRANCH  78  92
ATOM     92  C   UNL A   1      51.160  26.869  24.905  1.00  0.00     0.023 A 
ATOM     93  C   UNL A   1      50.692  27.693  23.861  1.00  0.00     0.031 A 
ATOM     94  C   UNL A   1      52.383  26.227  24.608  1.00  0.00     0.131 A 
ATOM     95  C   UNL A   1      51.275  27.700  22.575  1.00  0.00     0.055 A 
ATOM     96  C   UNL A   1      52.952  26.195  23.320  1.00  0.00     0.041 A 
ATOM     97  F   UNL A   1      53.105  25.632  25.570  1.00  0.00    -0.206 F 
ATOM     98  C   UNL A   1      52.380  26.914  22.283  1.00  0.00     0.022 A 
BRANCH  95  99
ATOM     99  S   UNL A   1      50.566  28.767  21.283  1.00  0.00     0.124 S 
ATOM    100  O   UNL A   1      49.132  28.578  21.483  1.00  0.00    -0.237 OA
ATOM    101  O   UNL A   1      51.097  30.081  21.630  1.00  0.00    -0.237 OA
ATOM    102  O   UNL A   1      51.097  28.199  20.045  1.00  0.00    -0.744 OA
ENDBRANCH  95  99
ENDBRANCH  78  92
BRANCH  79 103
ATOM    103  C   UNL A   1      44.469  27.644  32.937  1.00  0.00     0.023 A 
ATOM    104  C   UNL A   1      44.545  26.234  33.056  1.00  0.00     0.031 A 
ATOM    105  C   UNL A   1      43.446  28.299  33.636  1.00  0.00     0.131 A 
ATOM    106  C   UNL A   1      43.749  25.550  33.985  1.00  0.00     0.055 A 
ATOM    107  C   UNL A   1      42.676  27.619  34.590  1.00  0.00     0.041 A 
ATOM    108  F   UNL A   1      43.330  29.634  33.572  1.00  0.00    -0.206 F 
ATOM    109  C   UNL A   1      42.857  26.251  34.799  1.00  0.00     0.022 A 
BRANCH 106 110
ATOM    110  S   UNL A   1      44.007  23.772  34.295  1.00  0.00     0.124 S 
ATOM    111  O   UNL A   1      44.389  23.287  32.974  1.00  0.00    -0.237 OA
ATOM    112  O   UNL A   1      45.057  23.751  35.306  1.00  0.00    -0.237 OA
ATOM    113  O   UNL A   1      42.694  23.328  34.762  1.00  0.00    -0.744 OA
ENDBRANCH 106 110
ENDBRANCH  79 103
BRANCH  91 114
ATOM    114  C   UNL A   1      51.890  26.879  31.887  1.00  0.00     0.023 A 
ATOM    115  C   UNL A   1      52.804  27.796  32.402  1.00  0.00     0.031 A 
ATOM    116  C   UNL A   1      52.332  25.521  31.962  1.00  0.00     0.131 A 
ATOM    117  C   UNL A   1      54.110  27.416  32.768  1.00  0.00     0.055 A 
ATOM    118  C   UNL A   1      53.620  25.135  32.346  1.00  0.00     0.041 A 
ATOM    119  F   UNL A   1      51.523  24.480  31.719  1.00  0.00    -0.206 F 
ATOM    120  C   UNL A   1      54.534  26.093  32.729  1.00  0.00     0.022 A 
BRANCH 117 121
ATOM    121  S   UNL A   1      55.242  28.726  33.282  1.00  0.00     0.124 S 
ATOM    122  O   UNL A   1      56.404  27.957  33.719  1.00  0.00    -0.237 OA
ATOM    123  O   UNL A   1      55.417  29.485  32.048  1.00  0.00    -0.237 OA
ATOM    124  O   UNL A   1      54.511  29.417  34.341  1.00  0.00    -0.744 OA
ENDBRANCH 117 121
ENDBRANCH  91 114
ENDBRANCH  65  66
ENDBRANCH  58  60
ENDBRANCH  57  58
ENDBRANCH  56  57
ENDBRANCH  55  56
ENDBRANCH  54  55
ENDBRANCH  53  54
ENDBRANCH  52  53
ENDBRANCH  51  52
ENDBRANCH  50  51
ENDBRANCH   1  50
TORSDOF 32
ENDMDL
MODEL 3
REMARK VINA RESULT:      -6.7      4.425      8.441
REMARK SMILES Cc1ccc(S(=O)(=O)n2cc(C(=O)C(=O)N[C@@H](Cc3c[nH]c4ccccc34)C(=O)NCC(=O)OCCOCCOCCOCCOC(=O)c3ccc(-c4c5nc(c(-c6cc(S(=O)(=O)[O-])ccc6F)c6ccc([nH]6)c(-c6cc(S(=O)(=O)[O-])ccc6F)c6nc(c(-c7cc(S(=O)(=O)[O-])ccc7F)c7ccc4[nH]7)C=C6)C=C5)cc3)c3ccccc32)cc1
REMARK SMILES IDX 38 1 37 2 36 3 35 4 34 5 32 6 33 7 31 8 30 9 28 10 29 11
REMARK SMILES IDX 17 13 16 14 14 15 15 16 12 18 13 19 11 20 9 21 10 22 117 23
REMARK SMILES IDX 112 24 116 25 113 26 115 27 114 28 6 29 7 30 8 31 5 32 1 33
REMARK SMILES IDX 2 34 3 35 119 36 4 37 118 38 18 39 19 40 20 41 27 42 21 43
REMARK SMILES IDX 22 44 26 45 23 47 25 48 24 49 39 50 40 51 41 52 42 53 43 54
REMARK SMILES IDX 44 55 45 56 46 57 47 58 48 59 49 60 50 61 111 62 51 63
REMARK SMILES IDX 110 64 52 65 53 66 54 67 104 68 55 69 109 70 103 71 105 72
REMARK SMILES IDX 56 73 108 74 102 75 101 76 57 78 89 79 69 80 88 81 70 82
REMARK SMILES IDX 73 83 87 84 106 85 71 86 72 87 86 89 107 90 74 91 58 92
REMARK SMILES IDX 59 93 67 94 60 95 66 96 68 97 65 98 61 99 62 100 63 101
REMARK SMILES IDX 64 102 90 103 91 104 99 105 92 106 98 107 100 108 97 109
REMARK SMILES IDX 93 110 94 111 95 112 96 113 75 114 76 115 84 116 77 117
REMARK SMILES IDX 83 118 85 119 82 120 78 121 79 122 80 123 81 124
REMARK H PARENT 30 12 16 17 21 46 105 77 73 88
REMARK Flexibility Score: inf
ROOT
ATOM      1  C   UNL A   1      41.862  32.125  34.988  1.00  0.00     0.188 C 
ENDROOT
BRANCH   1   2
ATOM      2  O   UNL A   1      42.618  31.124  34.137  1.00  0.00    -0.376 OA
BRANCH   2   3
ATOM      3  C   UNL A   1      42.815  30.952  32.513  1.00  0.00     0.202 C 
BRANCH   3   4
ATOM      4  C   UNL A   1      44.171  31.072  31.230  1.00  0.00     0.261 C 
BRANCH   4   5
ATOM      5  O   UNL A   1      44.482  30.210  29.652  1.00  0.00    -0.462 OA
BRANCH   5   6
ATOM      6  C   UNL A   1      44.833  30.360  28.099  1.00  0.00     0.325 C 
ATOM      7  O   UNL A   1      45.214  31.445  27.638  1.00  0.00    -0.250 OA
BRANCH   6   8
ATOM      8  C   UNL A   1      44.598  29.118  26.793  1.00  0.00     0.238 C 
BRANCH   8   9
ATOM      9  N   UNL A   1      45.325  28.260  25.687  1.00  0.00    -0.343 N 
ATOM     10  C   UNL A   1      46.484  27.697  25.213  1.00  0.00     0.243 C 
ATOM     11  O   UNL A   1      46.203  26.872  24.307  1.00  0.00    -0.273 OA
ATOM     12  H   UNL A   1      44.627  28.015  25.037  1.00  0.00     0.164 HD
BRANCH  10  13
ATOM     13  C   UNL A   1      48.054  27.635  25.658  1.00  0.00     0.176 C 
BRANCH  13  14
ATOM     14  N   UNL A   1      48.631  27.550  27.042  1.00  0.00    -0.337 N 
ATOM     15  C   UNL A   1      48.730  26.568  28.044  1.00  0.00     0.293 C 
ATOM     16  O   UNL A   1      49.154  26.906  29.152  1.00  0.00    -0.265 OA
ATOM     17  H   UNL A   1      49.046  28.398  27.318  1.00  0.00     0.164 HD
BRANCH  15  18
ATOM     18  C   UNL A   1      48.406  25.071  27.846  1.00  0.00     0.252 C 
ATOM     19  O   UNL A   1      49.362  24.313  27.718  1.00  0.00    -0.283 OA
BRANCH  18  20
ATOM     20  C   UNL A   1      47.004  24.574  27.656  1.00  0.00     0.054 A 
ATOM     21  N   UNL A   1      45.049  23.590  27.024  1.00  0.00    -0.240 N 
ATOM     22  C   UNL A   1      46.255  24.119  26.545  1.00  0.00     0.117 A 
ATOM     23  C   UNL A   1      45.109  23.636  28.429  1.00  0.00     0.065 A 
ATOM     24  C   UNL A   1      46.062  24.603  28.726  1.00  0.00     0.012 A 
ATOM     25  C   UNL A   1      44.220  23.153  29.410  1.00  0.00     0.028 A 
ATOM     26  C   UNL A   1      45.961  25.289  29.951  1.00  0.00     0.011 A 
ATOM     27  C   UNL A   1      44.102  23.879  30.590  1.00  0.00     0.002 A 
ATOM     28  C   UNL A   1      44.923  24.973  30.833  1.00  0.00     0.001 A 
BRANCH  21  29
ATOM     29  S   UNL A   1      43.399  23.755  26.477  1.00  0.00     0.268 S 
ATOM     30  O   UNL A   1      42.980  22.371  26.311  1.00  0.00    -0.201 OA
ATOM     31  O   UNL A   1      43.594  24.608  25.307  1.00  0.00    -0.201 OA
BRANCH  29  32
ATOM     32  C   UNL A   1      41.967  24.530  27.143  1.00  0.00     0.088 A 
ATOM     33  C   UNL A   1      39.267  27.007  29.467  1.00  0.00     0.044 C 
ATOM     34  C   UNL A   1      40.157  26.160  28.602  1.00  0.00    -0.051 A 
ATOM     35  C   UNL A   1      41.462  26.588  28.425  1.00  0.00     0.005 A 
ATOM     36  C   UNL A   1      39.758  24.937  28.013  1.00  0.00     0.005 A 
ATOM     37  C   UNL A   1      42.334  25.792  27.699  1.00  0.00     0.022 A 
ATOM     38  C   UNL A   1      40.659  24.108  27.281  1.00  0.00     0.022 A 
ENDBRANCH  29  32
ENDBRANCH  21  29
ENDBRANCH  18  20
ENDBRANCH  15  18
ENDBRANCH  13  14
BRANCH  13  39
ATOM     39  C   UNL A   1      48.798  26.609  24.715  1.00  0.00     0.072 C 
BRANCH  39  40
ATOM     40  C   UNL A   1      50.154  27.090  24.287  1.00  0.00    -0.020 A 
ATOM     41  C   UNL A   1      50.467  27.764  23.120  1.00  0.00     0.087 A 
ATOM     42  C   UNL A   1      51.384  26.667  24.871  1.00  0.00     0.003 A 
ATOM     43  N   UNL A   1      51.812  27.596  22.891  1.00  0.00    -0.361 N 
ATOM     44  C   UNL A   1      52.317  26.739  23.840  1.00  0.00     0.046 A 
ATOM     45  C   UNL A   1      51.673  25.924  26.029  1.00  0.00     0.010 A 
ATOM     46  H   UNL A   1      52.327  28.020  22.167  1.00  0.00     0.166 HD
ATOM     47  C   UNL A   1      53.416  25.892  23.782  1.00  0.00     0.026 A 
ATOM     48  C   UNL A   1      52.636  24.935  25.900  1.00  0.00     0.001 A 
ATOM     49  C   UNL A   1      53.427  24.900  24.760  1.00  0.00     0.002 A 
ENDBRANCH  39  40
ENDBRANCH  13  39
ENDBRANCH  10  13
ENDBRANCH   8   9
ENDBRANCH   6   8
ENDBRANCH   5   6
ENDBRANCH   4   5
ENDBRANCH   3   4
ENDBRANCH   2   3
ENDBRANCH   1   2
BRANCH   1  50
ATOM     50  C   UNL A   1      40.483  32.775  34.711  1.00  0.00     0.188 C 
BRANCH  50  51
ATOM     51  O   UNL A   1      39.275  32.115  34.900  1.00  0.00    -0.377 OA
BRANCH  51  52
ATOM     52  C   UNL A   1      38.706  31.467  33.791  1.00  0.00     0.188 C 
BRANCH  52  53
ATOM     53  C   UNL A   1      38.670  29.929  33.721  1.00  0.00     0.188 C 
BRANCH  53  54
ATOM     54  O   UNL A   1      39.912  29.272  33.894  1.00  0.00    -0.376 OA
BRANCH  54  55
ATOM     55  C   UNL A   1      40.234  28.155  33.102  1.00  0.00     0.202 C 
BRANCH  55  56
ATOM     56  C   UNL A   1      41.557  27.554  33.568  1.00  0.00     0.261 C 
BRANCH  56  57
ATOM     57  O   UNL A   1      41.379  26.920  34.859  1.00  0.00    -0.460 OA
BRANCH  57  58
ATOM     58  C   UNL A   1      42.203  25.862  35.122  1.00  0.00     0.338 C 
ATOM     59  O   UNL A   1      41.848  24.794  35.572  1.00  0.00    -0.246 OA
BRANCH  58  60
ATOM     60  C   UNL A   1      43.629  26.297  34.924  1.00  0.00     0.060 A 
ATOM     61  C   UNL A   1      44.566  25.428  34.388  1.00  0.00     0.016 A 
ATOM     62  C   UNL A   1      44.103  27.468  35.521  1.00  0.00     0.016 A 
ATOM     63  C   UNL A   1      45.929  25.633  34.688  1.00  0.00     0.010 A 
ATOM     64  C   UNL A   1      45.423  27.520  36.001  1.00  0.00     0.010 A 
ATOM     65  C   UNL A   1      46.312  26.458  35.779  1.00  0.00    -0.014 A 
BRANCH  65  66
ATOM     66  C   UNL A   1      47.752  26.315  36.691  1.00  0.00     0.031 A 
ATOM     67  C   UNL A   1      48.499  27.543  35.688  1.00  0.00     0.074 A 
ATOM     68  C   UNL A   1      48.375  25.136  37.717  1.00  0.00     0.049 A 
ATOM     69  N   UNL A   1      49.524  27.386  34.874  1.00  0.00    -0.248 NA
ATOM     70  C   UNL A   1      47.861  28.844  35.379  1.00  0.00     0.031 C 
ATOM     71  C   UNL A   1      49.898  24.758  38.283  1.00  0.00     0.029 A 
ATOM     72  N   UNL A   1      47.987  23.744  38.203  1.00  0.00    -0.354 N 
ATOM     73  C   UNL A   1      49.967  28.634  34.531  1.00  0.00     0.074 A 
ATOM     74  C   UNL A   1      48.754  29.405  34.552  1.00  0.00     0.031 C 
ATOM     75  C   UNL A   1      50.130  23.546  38.734  1.00  0.00     0.029 A 
ATOM     76  C   UNL A   1      49.073  22.804  38.247  1.00  0.00     0.049 A 
ATOM     77  H   UNL A   1      47.068  23.510  38.467  1.00  0.00     0.167 HD
ATOM     78  C   UNL A   1      51.288  29.004  34.613  1.00  0.00     0.034 A 
ATOM     79  C   UNL A   1      49.470  21.793  37.403  1.00  0.00     0.034 A 
ATOM     80  C   UNL A   1      52.210  27.933  35.124  1.00  0.00     0.049 A 
ATOM     81  C   UNL A   1      50.866  22.122  36.663  1.00  0.00     0.074 A 
ATOM     82  C   UNL A   1      53.139  27.931  36.157  1.00  0.00     0.029 A 
ATOM     83  N   UNL A   1      52.122  26.568  34.742  1.00  0.00    -0.354 N 
ATOM     84  N   UNL A   1      51.317  23.326  36.328  1.00  0.00    -0.248 NA
ATOM     85  C   UNL A   1      51.894  21.117  36.444  1.00  0.00     0.031 C 
ATOM     86  C   UNL A   1      53.649  26.625  36.322  1.00  0.00     0.029 A 
ATOM     87  C   UNL A   1      52.949  25.743  35.517  1.00  0.00     0.049 A 
ATOM     88  H   UNL A   1      51.544  26.238  34.017  1.00  0.00     0.167 HD
ATOM     89  C   UNL A   1      52.590  23.278  35.786  1.00  0.00     0.074 A 
ATOM     90  C   UNL A   1      52.920  21.865  35.990  1.00  0.00     0.031 C 
ATOM     91  C   UNL A   1      53.309  24.336  35.229  1.00  0.00     0.034 A 
BRANCH  78  92
ATOM     92  C   UNL A   1      51.627  30.522  34.637  1.00  0.00     0.023 A 
ATOM     93  C   UNL A   1      51.602  31.283  35.824  1.00  0.00     0.031 A 
ATOM     94  C   UNL A   1      51.917  31.287  33.485  1.00  0.00     0.131 A 
ATOM     95  C   UNL A   1      51.647  32.695  35.825  1.00  0.00     0.055 A 
ATOM     96  C   UNL A   1      51.926  32.694  33.469  1.00  0.00     0.041 A 
ATOM     97  F   UNL A   1      52.249  30.695  32.327  1.00  0.00    -0.206 F 
ATOM     98  C   UNL A   1      51.761  33.411  34.643  1.00  0.00     0.022 A 
BRANCH  95  99
ATOM     99  S   UNL A   1      51.563  33.585  37.410  1.00  0.00     0.124 S 
ATOM    100  O   UNL A   1      50.939  34.846  37.020  1.00  0.00    -0.237 OA
ATOM    101  O   UNL A   1      50.753  32.693  38.233  1.00  0.00    -0.237 OA
ATOM    102  O   UNL A   1      52.965  33.689  37.814  1.00  0.00    -0.744 OA
ENDBRANCH  95  99
ENDBRANCH  78  92
BRANCH  79 103
ATOM    103  C   UNL A   1      48.417  20.824  36.988  1.00  0.00     0.023 A 
ATOM    104  C   UNL A   1      47.937  19.915  37.963  1.00  0.00     0.031 A 
ATOM    105  C   UNL A   1      47.657  20.982  35.821  1.00  0.00     0.131 A 
ATOM    106  C   UNL A   1      46.661  19.347  37.846  1.00  0.00     0.055 A 
ATOM    107  C   UNL A   1      46.367  20.443  35.722  1.00  0.00     0.041 A 
ATOM    108  F   UNL A   1      48.053  21.838  34.866  1.00  0.00    -0.206 F 
ATOM    109  C   UNL A   1      45.848  19.660  36.755  1.00  0.00     0.022 A 
BRANCH 106 110
ATOM    110  S   UNL A   1      45.959  18.358  39.208  1.00  0.00     0.124 S 
ATOM    111  O   UNL A   1      47.097  17.537  39.603  1.00  0.00    -0.237 OA
ATOM    112  O   UNL A   1      45.536  19.363  40.175  1.00  0.00    -0.237 OA
ATOM    113  O   UNL A   1      44.868  17.633  38.556  1.00  0.00    -0.744 OA
ENDBRANCH 106 110
ENDBRANCH  79 103
BRANCH  91 114
ATOM    114  C   UNL A   1      54.682  24.202  34.519  1.00  0.00     0.023 A 
ATOM    115  C   UNL A   1      54.903  24.591  33.199  1.00  0.00     0.031 A 
ATOM    116  C   UNL A   1      55.843  23.676  35.167  1.00  0.00     0.131 A 
ATOM    117  C   UNL A   1      56.107  24.295  32.531  1.00  0.00     0.055 A 
ATOM    118  C   UNL A   1      57.049  23.402  34.514  1.00  0.00     0.041 A 
ATOM    119  F   UNL A   1      55.897  23.446  36.487  1.00  0.00    -0.206 F 
ATOM    120  C   UNL A   1      57.180  23.688  33.173  1.00  0.00     0.022 A 
BRANCH 117 121
ATOM    121  S   UNL A   1      56.210  24.722  30.780  1.00  0.00     0.124 S 
ATOM    122  O   UNL A   1      57.381  25.595  30.756  1.00  0.00    -0.237 OA
ATOM    123  O   UNL A   1      56.386  23.415  30.153  1.00  0.00    -0.237 OA
ATOM    124  O   UNL A   1      54.933  25.377  30.508  1.00  0.00    -0.744 OA
ENDBRANCH 117 121
ENDBRANCH  91 114
ENDBRANCH  65  66
ENDBRANCH  58  60
ENDBRANCH  57  58
ENDBRANCH  56  57
ENDBRANCH  55  56
ENDBRANCH  54  55
ENDBRANCH  53  54
ENDBRANCH  52  53
ENDBRANCH  51  52
ENDBRANCH  50  51
ENDBRANCH   1  50
TORSDOF 32
ENDMDL
