MODEL 1
REMARK VINA RESULT:      -7.2      0.000      0.000
REMARK SMILES O=C(CNC(=O)OCC1=Cc2ccccc2S1(=O)=O)OCCOCCOCCOCCOC(=O)c1ccc(-c2c3nc(c(-c4cc(S(=O)(=O)[O-])ccc4F)c4ccc([nH]4)c(-c4cc(S(=O)(=O)[O-])ccc4F)c4nc(c(-c5cc(S(=O)(=O)[O-])ccc5F)c5ccc2[nH]5)C=C4)C=C3)cc1
REMARK SMILES IDX 25 1 24 2 23 3 22 4 21 5 20 6 2 7 1 8 3 9 4 10 5 11 6 13
REMARK SMILES IDX 7 14 8 15 9 16 10 17 17 18 11 19 16 20 18 21 19 22 12 23
REMARK SMILES IDX 15 24 13 25 14 26 26 27 27 28 28 29 29 30 30 31 31 32 32 33
REMARK SMILES IDX 33 34 34 35 35 36 36 37 97 38 37 39 96 40 38 41 39 42 40 43
REMARK SMILES IDX 90 44 41 45 95 46 89 47 91 48 42 49 94 50 88 51 87 52 43 54
REMARK SMILES IDX 75 55 55 56 74 57 56 58 59 59 73 60 92 61 57 62 58 63 72 65
REMARK SMILES IDX 93 66 60 67 44 68 45 69 53 70 46 71 52 72 54 73 51 74 47 75
REMARK SMILES IDX 48 76 49 77 50 78 76 79 77 80 85 81 78 82 84 83 86 84 83 85
REMARK SMILES IDX 79 86 80 87 81 88 82 89 61 90 62 91 70 92 63 93 69 94 71 95
REMARK SMILES IDX 68 96 64 97 65 98 66 99 67 100
REMARK H PARENT 4 12 91 53 59 64
REMARK Flexibility Score: inf
ROOT
ATOM      1  C   UNL A   1      45.284  19.586  23.751  1.00  0.00     0.188 C 
ENDROOT
BRANCH   1   2
ATOM      2  C   UNL A   1      45.994  20.535  24.712  1.00  0.00     0.188 C 
BRANCH   2   3
ATOM      3  O   UNL A   1      45.283  21.611  25.323  1.00  0.00    -0.376 OA
BRANCH   3   4
ATOM      4  C   UNL A   1      45.401  22.947  24.865  1.00  0.00     0.202 C 
BRANCH   4   5
ATOM      5  C   UNL A   1      45.711  24.063  25.854  1.00  0.00     0.261 C 
BRANCH   5   6
ATOM      6  O   UNL A   1      45.095  25.321  25.572  1.00  0.00    -0.462 OA
BRANCH   6   7
ATOM      7  C   UNL A   1      45.714  26.380  25.007  1.00  0.00     0.325 C 
ATOM      8  O   UNL A   1      46.681  26.174  24.270  1.00  0.00    -0.250 OA
BRANCH   7   9
ATOM      9  C   UNL A   1      45.362  27.812  25.417  1.00  0.00     0.242 C 
BRANCH   9  10
ATOM     10  N   UNL A   1      46.447  28.763  25.508  1.00  0.00    -0.311 N 
ATOM     11  C   UNL A   1      46.419  30.009  26.054  1.00  0.00     0.407 C 
ATOM     12  H   UNL A   1      47.309  28.476  25.128  1.00  0.00     0.167 HD
ATOM     13  O   UNL A   1      47.417  30.709  26.053  1.00  0.00    -0.225 OA
BRANCH  11  14
ATOM     14  O   UNL A   1      45.209  30.369  26.546  1.00  0.00    -0.444 OA
BRANCH  14  15
ATOM     15  C   UNL A   1      45.248  31.168  27.748  1.00  0.00     0.283 C 
BRANCH  15  16
ATOM     16  C   UNL A   1      44.414  32.375  27.564  1.00  0.00     0.087 C 
ATOM     17  C   UNL A   1      43.635  32.984  28.477  1.00  0.00     0.029 C 
ATOM     18  S   UNL A   1      44.527  33.283  26.084  1.00  0.00     0.206 S 
ATOM     19  C   UNL A   1      43.197  34.303  28.042  1.00  0.00    -0.005 A 
ATOM     20  C   UNL A   1      43.651  34.633  26.768  1.00  0.00     0.079 A 
ATOM     21  O   UNL A   1      45.875  33.730  25.819  1.00  0.00    -0.219 OA
ATOM     22  O   UNL A   1      43.683  32.691  25.066  1.00  0.00    -0.219 OA
ATOM     23  C   UNL A   1      42.516  35.249  28.789  1.00  0.00     0.009 A 
ATOM     24  C   UNL A   1      43.513  35.890  26.210  1.00  0.00     0.021 A 
ATOM     25  C   UNL A   1      42.341  36.527  28.245  1.00  0.00     0.001 A 
ATOM     26  C   UNL A   1      42.846  36.849  26.971  1.00  0.00     0.001 A 
ENDBRANCH  15  16
ENDBRANCH  14  15
ENDBRANCH  11  14
ENDBRANCH   9  10
ENDBRANCH   7   9
ENDBRANCH   6   7
ENDBRANCH   5   6
ENDBRANCH   4   5
ENDBRANCH   3   4
ENDBRANCH   2   3
ENDBRANCH   1   2
BRANCH   1  27
ATOM     27  O   UNL A   1      44.732  18.439  24.378  1.00  0.00    -0.377 OA
BRANCH  27  28
ATOM     28  C   UNL A   1      44.850  18.430  25.789  1.00  0.00     0.188 C 
BRANCH  28  29
ATOM     29  C   UNL A   1      43.624  17.872  26.529  1.00  0.00     0.188 C 
BRANCH  29  30
ATOM     30  O   UNL A   1      42.343  17.910  25.931  1.00  0.00    -0.376 OA
BRANCH  30  31
ATOM     31  C   UNL A   1      41.589  19.102  25.821  1.00  0.00     0.202 C 
BRANCH  31  32
ATOM     32  C   UNL A   1      41.034  19.921  27.007  1.00  0.00     0.261 C 
BRANCH  32  33
ATOM     33  O   UNL A   1      41.554  21.228  27.237  1.00  0.00    -0.460 OA
BRANCH  33  34
ATOM     34  C   UNL A   1      40.782  22.267  26.841  1.00  0.00     0.338 C 
ATOM     35  O   UNL A   1      39.676  22.201  26.340  1.00  0.00    -0.246 OA
BRANCH  34  36
ATOM     36  C   UNL A   1      41.416  23.513  27.345  1.00  0.00     0.060 A 
ATOM     37  C   UNL A   1      42.057  23.468  28.590  1.00  0.00     0.016 A 
ATOM     38  C   UNL A   1      41.465  24.681  26.574  1.00  0.00     0.016 A 
ATOM     39  C   UNL A   1      42.725  24.591  29.078  1.00  0.00     0.010 A 
ATOM     40  C   UNL A   1      42.111  25.817  27.077  1.00  0.00     0.010 A 
ATOM     41  C   UNL A   1      42.717  25.784  28.345  1.00  0.00    -0.014 A 
BRANCH  41  42
ATOM     42  C   UNL A   1      43.115  27.044  29.023  1.00  0.00     0.031 A 
ATOM     43  C   UNL A   1      42.013  27.941  29.524  1.00  0.00     0.074 A 
ATOM     44  C   UNL A   1      44.404  27.362  29.244  1.00  0.00     0.049 A 
ATOM     45  N   UNL A   1      42.088  29.088  30.145  1.00  0.00    -0.248 NA
ATOM     46  C   UNL A   1      40.637  27.471  29.290  1.00  0.00     0.031 C 
ATOM     47  C   UNL A   1      45.555  26.549  28.855  1.00  0.00     0.029 A 
ATOM     48  N   UNL A   1      44.959  28.459  29.857  1.00  0.00    -0.354 N 
ATOM     49  C   UNL A   1      40.774  29.471  30.386  1.00  0.00     0.074 A 
ATOM     50  C   UNL A   1      39.922  28.458  29.805  1.00  0.00     0.031 C 
ATOM     51  C   UNL A   1      46.683  27.183  29.231  1.00  0.00     0.029 A 
ATOM     52  C   UNL A   1      46.336  28.459  29.858  1.00  0.00     0.049 A 
ATOM     53  H   UNL A   1      44.422  29.180  30.258  1.00  0.00     0.167 HD
ATOM     54  C   UNL A   1      40.316  30.564  31.044  1.00  0.00     0.034 A 
ATOM     55  C   UNL A   1      47.208  29.391  30.295  1.00  0.00     0.034 A 
ATOM     56  C   UNL A   1      41.172  31.581  31.598  1.00  0.00     0.049 A 
ATOM     57  C   UNL A   1      46.669  30.655  30.931  1.00  0.00     0.074 A 
ATOM     58  C   UNL A   1      40.814  32.735  32.274  1.00  0.00     0.029 A 
ATOM     59  N   UNL A   1      42.559  31.575  31.528  1.00  0.00    -0.354 N 
ATOM     60  N   UNL A   1      45.423  31.002  31.160  1.00  0.00    -0.248 NA
ATOM     61  C   UNL A   1      47.658  31.647  31.377  1.00  0.00     0.031 C 
ATOM     62  C   UNL A   1      41.979  33.460  32.548  1.00  0.00     0.029 A 
ATOM     63  C   UNL A   1      43.070  32.720  32.119  1.00  0.00     0.049 A 
ATOM     64  H   UNL A   1      43.101  30.862  31.118  1.00  0.00     0.167 HD
ATOM     65  C   UNL A   1      45.484  32.236  31.807  1.00  0.00     0.074 A 
ATOM     66  C   UNL A   1      46.887  32.559  31.950  1.00  0.00     0.031 C 
ATOM     67  C   UNL A   1      44.473  33.032  32.245  1.00  0.00     0.034 A 
BRANCH  54  68
ATOM     68  C   UNL A   1      38.821  30.731  31.146  1.00  0.00     0.023 A 
ATOM     69  C   UNL A   1      38.082  31.398  30.153  1.00  0.00     0.031 A 
ATOM     70  C   UNL A   1      38.128  30.238  32.264  1.00  0.00     0.131 A 
ATOM     71  C   UNL A   1      36.704  31.605  30.326  1.00  0.00     0.055 A 
ATOM     72  C   UNL A   1      36.746  30.380  32.395  1.00  0.00     0.041 A 
ATOM     73  F   UNL A   1      38.785  29.618  33.257  1.00  0.00    -0.206 F 
ATOM     74  C   UNL A   1      36.027  31.078  31.429  1.00  0.00     0.022 A 
BRANCH  71  75
ATOM     75  S   UNL A   1      35.833  32.681  29.155  1.00  0.00     0.124 S 
ATOM     76  O   UNL A   1      36.047  31.978  27.893  1.00  0.00    -0.237 OA
ATOM     77  O   UNL A   1      34.468  32.667  29.670  1.00  0.00    -0.237 OA
ATOM     78  O   UNL A   1      36.533  33.957  29.277  1.00  0.00    -0.744 OA
ENDBRANCH  71  75
ENDBRANCH  54  68
BRANCH  55  79
ATOM     79  C   UNL A   1      48.681  29.215  30.110  1.00  0.00     0.023 A 
ATOM     80  C   UNL A   1      49.315  29.570  28.907  1.00  0.00     0.031 A 
ATOM     81  C   UNL A   1      49.461  28.594  31.102  1.00  0.00     0.131 A 
ATOM     82  C   UNL A   1      50.666  29.245  28.704  1.00  0.00     0.055 A 
ATOM     83  C   UNL A   1      50.819  28.328  30.919  1.00  0.00     0.041 A 
ATOM     84  F   UNL A   1      48.908  28.225  32.269  1.00  0.00    -0.206 F 
ATOM     85  C   UNL A   1      51.426  28.639  29.706  1.00  0.00     0.022 A 
BRANCH  82  86
ATOM     86  S   UNL A   1      51.390  29.521  27.062  1.00  0.00     0.124 S 
ATOM     87  O   UNL A   1      50.689  28.525  26.259  1.00  0.00    -0.237 OA
ATOM     88  O   UNL A   1      51.038  30.913  26.808  1.00  0.00    -0.237 OA
ATOM     89  O   UNL A   1      52.814  29.266  27.271  1.00  0.00    -0.744 OA
ENDBRANCH  82  86
ENDBRANCH  55  79
BRANCH  67  90
ATOM     90  C   UNL A   1      44.861  34.305  32.961  1.00  0.00     0.023 A 
ATOM     91  C   UNL A   1      44.956  34.369  34.362  1.00  0.00     0.031 A 
ATOM     92  C   UNL A   1      45.125  35.477  32.228  1.00  0.00     0.131 A 
ATOM     93  C   UNL A   1      45.236  35.592  34.991  1.00  0.00     0.055 A 
ATOM     94  C   UNL A   1      45.470  36.675  32.855  1.00  0.00     0.041 A 
ATOM     95  F   UNL A   1      45.050  35.477  30.888  1.00  0.00    -0.206 F 
ATOM     96  C   UNL A   1      45.512  36.741  34.245  1.00  0.00     0.022 A 
BRANCH  93  97
ATOM     97  S   UNL A   1      45.129  35.686  36.798  1.00  0.00     0.124 S 
ATOM     98  O   UNL A   1      46.319  36.462  37.133  1.00  0.00    -0.237 OA
ATOM     99  O   UNL A   1      43.850  36.360  37.000  1.00  0.00    -0.237 OA
ATOM    100  O   UNL A   1      45.163  34.286  37.216  1.00  0.00    -0.744 OA
ENDBRANCH  93  97
ENDBRANCH  67  90
ENDBRANCH  41  42
ENDBRANCH  34  36
ENDBRANCH  33  34
ENDBRANCH  32  33
ENDBRANCH  31  32
ENDBRANCH  30  31
ENDBRANCH  29  30
ENDBRANCH  28  29
ENDBRANCH  27  28
ENDBRANCH   1  27
TORSDOF 27
ENDMDL
MODEL 2
REMARK VINA RESULT:      -7.0      5.131     12.234
REMARK SMILES O=C(CNC(=O)OCC1=Cc2ccccc2S1(=O)=O)OCCOCCOCCOCCOC(=O)c1ccc(-c2c3nc(c(-c4cc(S(=O)(=O)[O-])ccc4F)c4ccc([nH]4)c(-c4cc(S(=O)(=O)[O-])ccc4F)c4nc(c(-c5cc(S(=O)(=O)[O-])ccc5F)c5ccc2[nH]5)C=C4)C=C3)cc1
REMARK SMILES IDX 25 1 24 2 23 3 22 4 21 5 20 6 2 7 1 8 3 9 4 10 5 11 6 13
REMARK SMILES IDX 7 14 8 15 9 16 10 17 17 18 11 19 16 20 18 21 19 22 12 23
REMARK SMILES IDX 15 24 13 25 14 26 26 27 27 28 28 29 29 30 30 31 31 32 32 33
REMARK SMILES IDX 33 34 34 35 35 36 36 37 97 38 37 39 96 40 38 41 39 42 40 43
REMARK SMILES IDX 90 44 41 45 95 46 89 47 91 48 42 49 94 50 88 51 87 52 43 54
REMARK SMILES IDX 75 55 55 56 74 57 56 58 59 59 73 60 92 61 57 62 58 63 72 65
REMARK SMILES IDX 93 66 60 67 44 68 45 69 53 70 46 71 52 72 54 73 51 74 47 75
REMARK SMILES IDX 48 76 49 77 50 78 76 79 77 80 85 81 78 82 84 83 86 84 83 85
REMARK SMILES IDX 79 86 80 87 81 88 82 89 61 90 62 91 70 92 63 93 69 94 71 95
REMARK SMILES IDX 68 96 64 97 65 98 66 99 67 100
REMARK H PARENT 4 12 91 53 59 64
REMARK Flexibility Score: inf
ROOT
ATOM      1  C   UNL A   1      33.828  33.693  28.560  1.00  0.00     0.188 C 
ENDROOT
BRANCH   1   2
ATOM      2  C   UNL A   1      34.439  32.299  28.449  1.00  0.00     0.188 C 
BRANCH   2   3
ATOM      3  O   UNL A   1      33.815  31.297  27.647  1.00  0.00    -0.376 OA
BRANCH   3   4
ATOM      4  C   UNL A   1      32.503  31.452  27.136  1.00  0.00     0.202 C 
BRANCH   4   5
ATOM      5  C   UNL A   1      31.948  30.434  26.148  1.00  0.00     0.261 C 
BRANCH   5   6
ATOM      6  O   UNL A   1      32.901  29.509  25.621  1.00  0.00    -0.462 OA
BRANCH   6   7
ATOM      7  C   UNL A   1      32.856  28.169  25.786  1.00  0.00     0.325 C 
ATOM      8  O   UNL A   1      33.895  27.575  26.081  1.00  0.00    -0.250 OA
BRANCH   7   9
ATOM      9  C   UNL A   1      31.601  27.371  25.425  1.00  0.00     0.242 C 
BRANCH   9  10
ATOM     10  N   UNL A   1      30.951  27.686  24.172  1.00  0.00    -0.311 N 
ATOM     11  C   UNL A   1      31.172  27.121  22.954  1.00  0.00     0.407 C 
ATOM     12  H   UNL A   1      30.267  28.394  24.204  1.00  0.00     0.167 HD
ATOM     13  O   UNL A   1      30.549  27.495  21.975  1.00  0.00    -0.225 OA
BRANCH  11  14
ATOM     14  O   UNL A   1      32.134  26.167  22.954  1.00  0.00    -0.444 OA
BRANCH  14  15
ATOM     15  C   UNL A   1      31.651  24.808  23.013  1.00  0.00     0.283 C 
BRANCH  15  16
ATOM     16  C   UNL A   1      32.795  23.885  23.173  1.00  0.00     0.087 C 
ATOM     17  C   UNL A   1      34.102  24.156  22.997  1.00  0.00     0.029 C 
ATOM     18  S   UNL A   1      32.535  22.297  23.835  1.00  0.00     0.206 S 
ATOM     19  C   UNL A   1      34.962  23.107  23.526  1.00  0.00    -0.005 A 
ATOM     20  C   UNL A   1      34.249  22.042  24.069  1.00  0.00     0.079 A 
ATOM     21  O   UNL A   1      31.921  22.343  25.141  1.00  0.00    -0.219 OA
ATOM     22  O   UNL A   1      32.100  21.385  22.796  1.00  0.00    -0.219 OA
ATOM     23  C   UNL A   1      36.342  23.134  23.643  1.00  0.00     0.009 A 
ATOM     24  C   UNL A   1      34.836  21.014  24.782  1.00  0.00     0.021 A 
ATOM     25  C   UNL A   1      36.970  22.097  24.343  1.00  0.00     0.001 A 
ATOM     26  C   UNL A   1      36.224  21.052  24.918  1.00  0.00     0.001 A 
ENDBRANCH  15  16
ENDBRANCH  14  15
ENDBRANCH  11  14
ENDBRANCH   9  10
ENDBRANCH   7   9
ENDBRANCH   6   7
ENDBRANCH   5   6
ENDBRANCH   4   5
ENDBRANCH   3   4
ENDBRANCH   2   3
ENDBRANCH   1   2
BRANCH   1  27
ATOM     27  O   UNL A   1      34.221  34.402  29.723  1.00  0.00    -0.377 OA
BRANCH  27  28
ATOM     28  C   UNL A   1      33.560  35.642  29.904  1.00  0.00     0.188 C 
BRANCH  28  29
ATOM     29  C   UNL A   1      32.528  35.657  31.042  1.00  0.00     0.188 C 
BRANCH  29  30
ATOM     30  O   UNL A   1      32.942  35.799  32.387  1.00  0.00    -0.376 OA
BRANCH  30  31
ATOM     31  C   UNL A   1      34.266  36.149  32.743  1.00  0.00     0.202 C 
BRANCH  31  32
ATOM     32  C   UNL A   1      35.216  35.290  33.605  1.00  0.00     0.261 C 
BRANCH  32  33
ATOM     33  O   UNL A   1      34.768  34.010  34.046  1.00  0.00    -0.460 OA
BRANCH  33  34
ATOM     34  C   UNL A   1      34.754  33.020  33.123  1.00  0.00     0.338 C 
ATOM     35  O   UNL A   1      33.779  32.582  32.541  1.00  0.00    -0.246 OA
BRANCH  34  36
ATOM     36  C   UNL A   1      36.165  32.722  32.766  1.00  0.00     0.060 A 
ATOM     37  C   UNL A   1      37.156  32.992  33.718  1.00  0.00     0.016 A 
ATOM     38  C   UNL A   1      36.505  32.100  31.557  1.00  0.00     0.016 A 
ATOM     39  C   UNL A   1      38.488  32.668  33.459  1.00  0.00     0.010 A 
ATOM     40  C   UNL A   1      37.846  31.801  31.286  1.00  0.00     0.010 A 
ATOM     41  C   UNL A   1      38.846  32.112  32.224  1.00  0.00    -0.014 A 
BRANCH  41  42
ATOM     42  C   UNL A   1      40.277  32.103  31.830  1.00  0.00     0.031 A 
ATOM     43  C   UNL A   1      41.116  30.938  32.286  1.00  0.00     0.074 A 
ATOM     44  C   UNL A   1      40.809  33.059  31.046  1.00  0.00     0.049 A 
ATOM     45  N   UNL A   1      42.382  30.690  32.078  1.00  0.00    -0.248 NA
ATOM     46  C   UNL A   1      40.423  29.912  33.083  1.00  0.00     0.031 C 
ATOM     47  C   UNL A   1      40.086  34.206  30.499  1.00  0.00     0.029 A 
ATOM     48  N   UNL A   1      42.090  33.213  30.572  1.00  0.00    -0.354 N 
ATOM     49  C   UNL A   1      42.635  29.477  32.709  1.00  0.00     0.074 A 
ATOM     50  C   UNL A   1      41.404  29.063  33.344  1.00  0.00     0.031 C 
ATOM     51  C   UNL A   1      40.938  34.952  29.771  1.00  0.00     0.029 A 
ATOM     52  C   UNL A   1      42.273  34.355  29.825  1.00  0.00     0.049 A 
ATOM     53  H   UNL A   1      42.810  32.567  30.750  1.00  0.00     0.167 HD
ATOM     54  C   UNL A   1      43.787  28.765  32.748  1.00  0.00     0.034 A 
ATOM     55  C   UNL A   1      43.394  34.864  29.271  1.00  0.00     0.034 A 
ATOM     56  C   UNL A   1      45.016  29.199  32.134  1.00  0.00     0.049 A 
ATOM     57  C   UNL A   1      44.694  34.101  29.418  1.00  0.00     0.074 A 
ATOM     58  C   UNL A   1      46.244  28.561  32.121  1.00  0.00     0.029 A 
ATOM     59  N   UNL A   1      45.178  30.388  31.436  1.00  0.00    -0.354 N 
ATOM     60  N   UNL A   1      44.917  32.951  30.012  1.00  0.00    -0.248 NA
ATOM     61  C   UNL A   1      45.889  34.704  28.812  1.00  0.00     0.031 C 
ATOM     62  C   UNL A   1      47.164  29.397  31.479  1.00  0.00     0.029 A 
ATOM     63  C   UNL A   1      46.493  30.518  31.017  1.00  0.00     0.049 A 
ATOM     64  H   UNL A   1      44.464  31.043  31.264  1.00  0.00     0.167 HD
ATOM     65  C   UNL A   1      46.271  32.680  29.818  1.00  0.00     0.074 A 
ATOM     66  C   UNL A   1      46.805  33.774  29.035  1.00  0.00     0.031 C 
ATOM     67  C   UNL A   1      47.010  31.622  30.244  1.00  0.00     0.034 A 
BRANCH  54  68
ATOM     68  C   UNL A   1      43.774  27.473  33.525  1.00  0.00     0.023 A 
ATOM     69  C   UNL A   1      43.799  27.456  34.931  1.00  0.00     0.031 A 
ATOM     70  C   UNL A   1      43.760  26.241  32.850  1.00  0.00     0.131 A 
ATOM     71  C   UNL A   1      43.870  26.231  35.614  1.00  0.00     0.055 A 
ATOM     72  C   UNL A   1      43.753  25.026  33.537  1.00  0.00     0.041 A 
ATOM     73  F   UNL A   1      43.764  26.196  31.508  1.00  0.00    -0.206 F 
ATOM     74  C   UNL A   1      43.821  25.016  34.927  1.00  0.00     0.022 A 
BRANCH  71  75
ATOM     75  S   UNL A   1      44.153  26.250  37.405  1.00  0.00     0.124 S 
ATOM     76  O   UNL A   1      45.182  27.280  37.530  1.00  0.00    -0.237 OA
ATOM     77  O   UNL A   1      42.837  26.596  37.930  1.00  0.00    -0.237 OA
ATOM     78  O   UNL A   1      44.604  24.891  37.695  1.00  0.00    -0.744 OA
ENDBRANCH  71  75
ENDBRANCH  54  68
BRANCH  55  79
ATOM     79  C   UNL A   1      43.374  36.183  28.568  1.00  0.00     0.023 A 
ATOM     80  C   UNL A   1      43.691  37.375  29.242  1.00  0.00     0.031 A 
ATOM     81  C   UNL A   1      42.942  36.281  27.234  1.00  0.00     0.131 A 
ATOM     82  C   UNL A   1      43.509  38.612  28.602  1.00  0.00     0.055 A 
ATOM     83  C   UNL A   1      42.821  37.510  26.582  1.00  0.00     0.041 A 
ATOM     84  F   UNL A   1      42.618  35.177  26.542  1.00  0.00    -0.206 F 
ATOM     85  C   UNL A   1      43.089  38.687  27.273  1.00  0.00     0.022 A 
BRANCH  82  86
ATOM     86  S   UNL A   1      43.717  40.133  29.572  1.00  0.00     0.124 S 
ATOM     87  O   UNL A   1      43.590  39.633  30.937  1.00  0.00    -0.237 OA
ATOM     88  O   UNL A   1      45.050  40.566  29.169  1.00  0.00    -0.237 OA
ATOM     89  O   UNL A   1      42.621  40.982  29.113  1.00  0.00    -0.744 OA
ENDBRANCH  82  86
ENDBRANCH  55  79
BRANCH  67  90
ATOM     90  C   UNL A   1      48.463  31.585  29.829  1.00  0.00     0.023 A 
ATOM     91  C   UNL A   1      48.863  31.094  28.574  1.00  0.00     0.031 A 
ATOM     92  C   UNL A   1      49.463  32.032  30.712  1.00  0.00     0.131 A 
ATOM     93  C   UNL A   1      50.229  30.999  28.262  1.00  0.00     0.055 A 
ATOM     94  C   UNL A   1      50.815  31.999  30.370  1.00  0.00     0.041 A 
ATOM     95  F   UNL A   1      49.141  32.511  31.924  1.00  0.00    -0.206 F 
ATOM     96  C   UNL A   1      51.206  31.465  29.145  1.00  0.00     0.022 A 
BRANCH  93  97
ATOM     97  S   UNL A   1      50.714  30.158  26.731  1.00  0.00     0.124 S 
ATOM     98  O   UNL A   1      51.850  29.355  27.172  1.00  0.00    -0.237 OA
ATOM     99  O   UNL A   1      49.505  29.416  26.385  1.00  0.00    -0.237 OA
ATOM    100  O   UNL A   1      51.046  31.257  25.826  1.00  0.00    -0.744 OA
ENDBRANCH  93  97
ENDBRANCH  67  90
ENDBRANCH  41  42
ENDBRANCH  34  36
ENDBRANCH  33  34
ENDBRANCH  32  33
ENDBRANCH  31  32
ENDBRANCH  30  31
ENDBRANCH  29  30
ENDBRANCH  28  29
ENDBRANCH  27  28
ENDBRANCH   1  27
TORSDOF 27
ENDMDL
MODEL 3
REMARK VINA RESULT:      -6.8      5.189     11.630
REMARK SMILES O=C(CNC(=O)OCC1=Cc2ccccc2S1(=O)=O)OCCOCCOCCOCCOC(=O)c1ccc(-c2c3nc(c(-c4cc(S(=O)(=O)[O-])ccc4F)c4ccc([nH]4)c(-c4cc(S(=O)(=O)[O-])ccc4F)c4nc(c(-c5cc(S(=O)(=O)[O-])ccc5F)c5ccc2[nH]5)C=C4)C=C3)cc1
REMARK SMILES IDX 25 1 24 2 23 3 22 4 21 5 20 6 2 7 1 8 3 9 4 10 5 11 6 13
REMARK SMILES IDX 7 14 8 15 9 16 10 17 17 18 11 19 16 20 18 21 19 22 12 23
REMARK SMILES IDX 15 24 13 25 14 26 26 27 27 28 28 29 29 30 30 31 31 32 32 33
REMARK SMILES IDX 33 34 34 35 35 36 36 37 97 38 37 39 96 40 38 41 39 42 40 43
REMARK SMILES IDX 90 44 41 45 95 46 89 47 91 48 42 49 94 50 88 51 87 52 43 54
REMARK SMILES IDX 75 55 55 56 74 57 56 58 59 59 73 60 92 61 57 62 58 63 72 65
REMARK SMILES IDX 93 66 60 67 44 68 45 69 53 70 46 71 52 72 54 73 51 74 47 75
REMARK SMILES IDX 48 76 49 77 50 78 76 79 77 80 85 81 78 82 84 83 86 84 83 85
REMARK SMILES IDX 79 86 80 87 81 88 82 89 61 90 62 91 70 92 63 93 69 94 71 95
REMARK SMILES IDX 68 96 64 97 65 98 66 99 67 100
REMARK H PARENT 4 12 91 53 59 64
REMARK Flexibility Score: inf
ROOT
ATOM      1  C   UNL A   1      35.192  32.967  28.399  1.00  0.00     0.188 C 
ENDROOT
BRANCH   1   2
ATOM      2  C   UNL A   1      35.250  31.450  28.551  1.00  0.00     0.188 C 
BRANCH   2   3
ATOM      3  O   UNL A   1      34.466  30.608  27.707  1.00  0.00    -0.376 OA
BRANCH   3   4
ATOM      4  C   UNL A   1      33.231  31.034  27.158  1.00  0.00     0.202 C 
BRANCH   4   5
ATOM      5  C   UNL A   1      32.130  30.016  26.888  1.00  0.00     0.261 C 
BRANCH   5   6
ATOM      6  O   UNL A   1      32.573  28.673  26.684  1.00  0.00    -0.462 OA
BRANCH   6   7
ATOM      7  C   UNL A   1      31.799  27.573  26.805  1.00  0.00     0.325 C 
ATOM      8  O   UNL A   1      30.993  27.519  27.737  1.00  0.00    -0.250 OA
BRANCH   7   9
ATOM      9  C   UNL A   1      32.043  26.336  25.938  1.00  0.00     0.242 C 
BRANCH   9  10
ATOM     10  N   UNL A   1      31.335  26.256  24.679  1.00  0.00    -0.311 N 
ATOM     11  C   UNL A   1      31.763  25.694  23.517  1.00  0.00     0.407 C 
ATOM     12  H   UNL A   1      30.435  26.658  24.662  1.00  0.00     0.167 HD
ATOM     13  O   UNL A   1      31.055  25.708  22.524  1.00  0.00    -0.225 OA
BRANCH  11  14
ATOM     14  O   UNL A   1      33.012  25.173  23.583  1.00  0.00    -0.444 OA
BRANCH  14  15
ATOM     15  C   UNL A   1      33.285  24.113  22.641  1.00  0.00     0.283 C 
BRANCH  15  16
ATOM     16  C   UNL A   1      32.887  22.817  23.231  1.00  0.00     0.087 C 
ATOM     17  C   UNL A   1      32.423  21.728  22.589  1.00  0.00     0.029 C 
ATOM     18  S   UNL A   1      33.185  22.509  24.917  1.00  0.00     0.206 S 
ATOM     19  C   UNL A   1      32.417  20.544  23.437  1.00  0.00    -0.005 A 
ATOM     20  C   UNL A   1      32.860  20.801  24.732  1.00  0.00     0.079 A 
ATOM     21  O   UNL A   1      34.581  22.651  25.261  1.00  0.00    -0.219 OA
ATOM     22  O   UNL A   1      32.118  23.068  25.725  1.00  0.00    -0.219 OA
ATOM     23  C   UNL A   1      32.146  19.241  23.056  1.00  0.00     0.009 A 
ATOM     24  C   UNL A   1      33.105  19.813  25.665  1.00  0.00     0.021 A 
ATOM     25  C   UNL A   1      32.365  18.217  23.984  1.00  0.00     0.001 A 
ATOM     26  C   UNL A   1      32.852  18.498  25.275  1.00  0.00     0.001 A 
ENDBRANCH  15  16
ENDBRANCH  14  15
ENDBRANCH  11  14
ENDBRANCH   9  10
ENDBRANCH   7   9
ENDBRANCH   6   7
ENDBRANCH   5   6
ENDBRANCH   4   5
ENDBRANCH   3   4
ENDBRANCH   2   3
ENDBRANCH   1   2
BRANCH   1  27
ATOM     27  O   UNL A   1      35.681  33.677  29.525  1.00  0.00    -0.377 OA
BRANCH  27  28
ATOM     28  C   UNL A   1      34.699  34.433  30.211  1.00  0.00     0.188 C 
BRANCH  28  29
ATOM     29  C   UNL A   1      34.305  33.870  31.586  1.00  0.00     0.188 C 
BRANCH  29  30
ATOM     30  O   UNL A   1      34.988  34.281  32.754  1.00  0.00    -0.376 OA
BRANCH  30  31
ATOM     31  C   UNL A   1      36.381  34.528  32.775  1.00  0.00     0.202 C 
BRANCH  31  32
ATOM     32  C   UNL A   1      37.441  33.613  33.425  1.00  0.00     0.261 C 
BRANCH  32  33
ATOM     33  O   UNL A   1      37.117  32.241  33.643  1.00  0.00    -0.460 OA
BRANCH  33  34
ATOM     34  C   UNL A   1      37.039  31.454  32.545  1.00  0.00     0.338 C 
ATOM     35  O   UNL A   1      36.034  30.942  32.087  1.00  0.00    -0.246 OA
BRANCH  34  36
ATOM     36  C   UNL A   1      38.352  31.518  31.853  1.00  0.00     0.060 A 
ATOM     37  C   UNL A   1      39.512  31.450  32.636  1.00  0.00     0.016 A 
ATOM     38  C   UNL A   1      38.451  31.549  30.456  1.00  0.00     0.016 A 
ATOM     39  C   UNL A   1      40.769  31.438  32.031  1.00  0.00     0.010 A 
ATOM     40  C   UNL A   1      39.713  31.566  29.851  1.00  0.00     0.010 A 
ATOM     41  C   UNL A   1      40.877  31.541  30.639  1.00  0.00    -0.014 A 
BRANCH  41  42
ATOM     42  C   UNL A   1      42.196  31.881  30.046  1.00  0.00     0.031 A 
ATOM     43  C   UNL A   1      42.488  33.336  29.792  1.00  0.00     0.074 A 
ATOM     44  C   UNL A   1      43.130  30.945  29.795  1.00  0.00     0.049 A 
ATOM     45  N   UNL A   1      43.555  33.897  29.288  1.00  0.00    -0.248 NA
ATOM     46  C   UNL A   1      41.426  34.286  30.163  1.00  0.00     0.031 C 
ATOM     47  C   UNL A   1      42.984  29.513  30.048  1.00  0.00     0.029 A 
ATOM     48  N   UNL A   1      44.394  31.066  29.269  1.00  0.00    -0.354 N 
ATOM     49  C   UNL A   1      43.298  35.264  29.291  1.00  0.00     0.074 A 
ATOM     50  C   UNL A   1      41.959  35.443  29.804  1.00  0.00     0.031 C 
ATOM     51  C   UNL A   1      44.113  28.885  29.668  1.00  0.00     0.029 A 
ATOM     52  C   UNL A   1      45.049  29.865  29.115  1.00  0.00     0.049 A 
ATOM     53  H   UNL A   1      44.794  31.931  29.024  1.00  0.00     0.167 HD
ATOM     54  C   UNL A   1      44.110  36.281  28.910  1.00  0.00     0.034 A 
ATOM     55  C   UNL A   1      46.254  29.592  28.570  1.00  0.00     0.034 A 
ATOM     56  C   UNL A   1      45.433  36.090  28.376  1.00  0.00     0.049 A 
ATOM     57  C   UNL A   1      47.099  30.738  28.055  1.00  0.00     0.074 A 
ATOM     58  C   UNL A   1      46.337  37.048  27.949  1.00  0.00     0.029 A 
ATOM     59  N   UNL A   1      46.041  34.856  28.181  1.00  0.00    -0.354 N 
ATOM     60  N   UNL A   1      46.847  32.027  28.071  1.00  0.00    -0.248 NA
ATOM     61  C   UNL A   1      48.396  30.389  27.456  1.00  0.00     0.031 C 
ATOM     62  C   UNL A   1      47.458  36.392  27.431  1.00  0.00     0.029 A 
ATOM     63  C   UNL A   1      47.292  35.027  27.609  1.00  0.00     0.049 A 
ATOM     64  H   UNL A   1      45.641  33.987  28.413  1.00  0.00     0.167 HD
ATOM     65  C   UNL A   1      47.969  32.641  27.516  1.00  0.00     0.074 A 
ATOM     66  C   UNL A   1      48.905  31.584  27.199  1.00  0.00     0.031 C 
ATOM     67  C   UNL A   1      48.210  33.960  27.290  1.00  0.00     0.034 A 
BRANCH  54  68
ATOM     68  C   UNL A   1      43.557  37.679  29.013  1.00  0.00     0.023 A 
ATOM     69  C   UNL A   1      43.713  38.453  30.177  1.00  0.00     0.031 A 
ATOM     70  C   UNL A   1      42.841  38.238  27.941  1.00  0.00     0.131 A 
ATOM     71  C   UNL A   1      43.111  39.718  30.262  1.00  0.00     0.055 A 
ATOM     72  C   UNL A   1      42.310  39.527  28.003  1.00  0.00     0.041 A 
ATOM     73  F   UNL A   1      42.636  37.535  26.816  1.00  0.00    -0.206 F 
ATOM     74  C   UNL A   1      42.432  40.271  29.173  1.00  0.00     0.022 A 
BRANCH  71  75
ATOM     75  S   UNL A   1      43.119  40.579  31.858  1.00  0.00     0.124 S 
ATOM     76  O   UNL A   1      43.082  39.461  32.797  1.00  0.00    -0.237 OA
ATOM     77  O   UNL A   1      44.369  41.328  31.806  1.00  0.00    -0.237 OA
ATOM     78  O   UNL A   1      41.904  41.389  31.816  1.00  0.00    -0.744 OA
ENDBRANCH  71  75
ENDBRANCH  54  68
BRANCH  55  79
ATOM     79  C   UNL A   1      46.732  28.184  28.425  1.00  0.00     0.023 A 
ATOM     80  C   UNL A   1      46.395  27.409  27.302  1.00  0.00     0.031 A 
ATOM     81  C   UNL A   1      47.454  27.559  29.458  1.00  0.00     0.131 A 
ATOM     82  C   UNL A   1      46.722  26.044  27.269  1.00  0.00     0.055 A 
ATOM     83  C   UNL A   1      47.830  26.216  29.393  1.00  0.00     0.041 A 
ATOM     84  F   UNL A   1      47.798  28.247  30.559  1.00  0.00    -0.206 F 
ATOM     85  C   UNL A   1      47.449  25.445  28.300  1.00  0.00     0.022 A 
BRANCH  82  86
ATOM     86  S   UNL A   1      46.080  25.028  25.907  1.00  0.00     0.124 S 
ATOM     87  O   UNL A   1      46.952  23.860  25.974  1.00  0.00    -0.237 OA
ATOM     88  O   UNL A   1      44.695  24.819  26.314  1.00  0.00    -0.237 OA
ATOM     89  O   UNL A   1      46.262  25.879  24.733  1.00  0.00    -0.744 OA
ENDBRANCH  82  86
ENDBRANCH  55  79
BRANCH  67  90
ATOM     90  C   UNL A   1      49.558  34.325  26.712  1.00  0.00     0.023 A 
ATOM     91  C   UNL A   1      50.737  34.244  27.473  1.00  0.00     0.031 A 
ATOM     92  C   UNL A   1      49.659  34.777  25.383  1.00  0.00     0.131 A 
ATOM     93  C   UNL A   1      51.955  34.673  26.923  1.00  0.00     0.055 A 
ATOM     94  C   UNL A   1      50.883  35.137  24.820  1.00  0.00     0.041 A 
ATOM     95  F   UNL A   1      48.567  34.875  24.609  1.00  0.00    -0.206 F 
ATOM     96  C   UNL A   1      52.039  35.102  25.596  1.00  0.00     0.022 A 
BRANCH  93  97
ATOM     97  S   UNL A   1      53.411  34.766  28.001  1.00  0.00     0.124 S 
ATOM     98  O   UNL A   1      52.848  35.328  29.224  1.00  0.00    -0.237 OA
ATOM     99  O   UNL A   1      53.833  33.371  28.076  1.00  0.00    -0.237 OA
ATOM    100  O   UNL A   1      54.320  35.649  27.273  1.00  0.00    -0.744 OA
ENDBRANCH  93  97
ENDBRANCH  67  90
ENDBRANCH  41  42
ENDBRANCH  34  36
ENDBRANCH  33  34
ENDBRANCH  32  33
ENDBRANCH  31  32
ENDBRANCH  30  31
ENDBRANCH  29  30
ENDBRANCH  28  29
ENDBRANCH  27  28
ENDBRANCH   1  27
TORSDOF 27
ENDMDL
