MODEL 1
REMARK VINA RESULT:     -10.8      0.000      0.000
REMARK SMILES Cc1cccc(-c2cccc(O)c2)c1C(=O)OCCOCCOCCOCCOC(=O)c1ccc(-c2c3nc(c(-c4cc(S(=O)(=O)[O-])ccc4F)c4ccc([nH]4)c(-c4cc(S(=O)(=O)[O-])ccc4F)c4nc(c(-c5cc(S(=O)(=O)[O-])ccc5F)c5ccc2[nH]5)C=C4)C=C3)cc1
REMARK SMILES IDX 24 1 23 2 22 3 21 4 20 5 19 6 18 7 17 8 15 9 16 10 14 11
REMARK SMILES IDX 1 12 2 13 3 14 4 15 6 16 5 17 7 18 8 19 13 20 9 21 11 22
REMARK SMILES IDX 10 23 12 24 25 26 26 27 27 28 28 29 29 30 30 31 31 32 32 33
REMARK SMILES IDX 33 34 94 35 34 36 93 37 35 38 36 39 37 40 87 41 38 42 92 43
REMARK SMILES IDX 86 44 88 45 39 46 91 47 85 48 84 49 40 51 72 52 52 53 71 54
REMARK SMILES IDX 53 55 56 56 70 57 89 58 54 59 55 60 69 62 90 63 57 64 41 65
REMARK SMILES IDX 42 66 50 67 43 68 49 69 51 70 48 71 44 72 45 73 46 74 47 75
REMARK SMILES IDX 73 76 74 77 82 78 75 79 81 80 83 81 80 82 76 83 77 84 78 85
REMARK SMILES IDX 79 86 58 87 59 88 67 89 60 90 66 91 68 92 65 93 61 94 62 95
REMARK SMILES IDX 63 96 64 97
REMARK H PARENT 12 25 88 50 56 61
REMARK Flexibility Score: inf
ROOT
ATOM      1  C   UNL A   1      34.222  34.181  28.270  1.00  0.00     0.188 C 
ENDROOT
BRANCH   1   2
ATOM      2  O   UNL A   1      35.424  33.457  28.041  1.00  0.00    -0.377 OA
BRANCH   2   3
ATOM      3  C   UNL A   1      35.472  32.143  28.534  1.00  0.00     0.188 C 
BRANCH   3   4
ATOM      4  C   UNL A   1      35.100  30.983  27.610  1.00  0.00     0.188 C 
BRANCH   4   5
ATOM      5  O   UNL A   1      33.816  30.401  27.506  1.00  0.00    -0.376 OA
BRANCH   5   6
ATOM      6  C   UNL A   1      33.713  29.354  26.548  1.00  0.00     0.202 C 
BRANCH   6   7
ATOM      7  C   UNL A   1      32.987  28.071  26.902  1.00  0.00     0.261 C 
BRANCH   7   8
ATOM      8  O   UNL A   1      33.226  27.182  25.827  1.00  0.00    -0.460 OA
BRANCH   8   9
ATOM      9  C   UNL A   1      32.583  26.023  25.898  1.00  0.00     0.339 C 
ATOM     10  O   UNL A   1      31.697  25.673  26.662  1.00  0.00    -0.246 OA
BRANCH   9  11
ATOM     11  C   UNL A   1      32.927  25.326  24.659  1.00  0.00     0.070 A 
ATOM     12  C   UNL A   1      35.186  24.509  25.616  1.00  0.00     0.045 C 
ATOM     13  C   UNL A   1      34.077  24.507  24.590  1.00  0.00    -0.036 A 
ATOM     14  C   UNL A   1      34.213  23.694  23.468  1.00  0.00     0.004 A 
ATOM     15  C   UNL A   1      33.306  23.796  22.411  1.00  0.00     0.001 A 
ATOM     16  C   UNL A   1      32.098  25.586  23.527  1.00  0.00    -0.003 A 
ATOM     17  C   UNL A   1      32.299  24.774  22.411  1.00  0.00     0.009 A 
BRANCH  16  18
ATOM     18  C   UNL A   1      31.238  26.812  23.463  1.00  0.00    -0.014 A 
ATOM     19  C   UNL A   1      29.900  26.746  23.901  1.00  0.00     0.009 A 
ATOM     20  C   UNL A   1      31.611  27.973  22.785  1.00  0.00     0.055 A 
ATOM     21  C   UNL A   1      28.919  27.635  23.436  1.00  0.00     0.004 A 
ATOM     22  C   UNL A   1      30.645  28.912  22.404  1.00  0.00     0.116 A 
ATOM     23  C   UNL A   1      29.293  28.716  22.653  1.00  0.00     0.046 A 
BRANCH  22  24
ATOM     24  O   UNL A   1      31.060  30.045  21.777  1.00  0.00    -0.508 OA
ATOM     25  H   UNL A   1      31.915  30.390  21.949  1.00  0.00     0.293 HD
ENDBRANCH  22  24
ENDBRANCH  16  18
ENDBRANCH   9  11
ENDBRANCH   8   9
ENDBRANCH   7   8
ENDBRANCH   6   7
ENDBRANCH   5   6
ENDBRANCH   4   5
ENDBRANCH   3   4
ENDBRANCH   2   3
ENDBRANCH   1   2
BRANCH   1  26
ATOM     26  C   UNL A   1      34.269  35.698  28.256  1.00  0.00     0.188 C 
BRANCH  26  27
ATOM     27  O   UNL A   1      33.101  36.149  28.950  1.00  0.00    -0.376 OA
BRANCH  27  28
ATOM     28  C   UNL A   1      32.682  35.352  30.041  1.00  0.00     0.202 C 
BRANCH  28  29
ATOM     29  C   UNL A   1      32.755  36.103  31.372  1.00  0.00     0.261 C 
BRANCH  29  30
ATOM     30  O   UNL A   1      34.139  36.348  31.706  1.00  0.00    -0.460 OA
BRANCH  30  31
ATOM     31  C   UNL A   1      34.578  35.756  32.855  1.00  0.00     0.338 C 
ATOM     32  O   UNL A   1      34.519  36.264  33.962  1.00  0.00    -0.246 OA
BRANCH  31  33
ATOM     33  C   UNL A   1      35.264  34.464  32.550  1.00  0.00     0.060 A 
ATOM     34  C   UNL A   1      34.952  33.289  33.256  1.00  0.00     0.016 A 
ATOM     35  C   UNL A   1      36.392  34.488  31.747  1.00  0.00     0.016 A 
ATOM     36  C   UNL A   1      35.865  32.214  33.295  1.00  0.00     0.010 A 
ATOM     37  C   UNL A   1      37.312  33.468  31.862  1.00  0.00     0.010 A 
ATOM     38  C   UNL A   1      37.105  32.341  32.675  1.00  0.00    -0.014 A 
BRANCH  38  39
ATOM     39  C   UNL A   1      38.302  31.489  32.908  1.00  0.00     0.031 A 
ATOM     40  C   UNL A   1      38.416  30.202  32.137  1.00  0.00     0.074 A 
ATOM     41  C   UNL A   1      39.414  32.070  33.441  1.00  0.00     0.049 A 
ATOM     42  N   UNL A   1      39.493  29.517  31.990  1.00  0.00    -0.248 NA
ATOM     43  C   UNL A   1      37.322  29.628  31.350  1.00  0.00     0.031 C 
ATOM     44  C   UNL A   1      40.824  31.713  33.226  1.00  0.00     0.029 A 
ATOM     45  N   UNL A   1      39.550  33.199  34.219  1.00  0.00    -0.354 N 
ATOM     46  C   UNL A   1      39.359  28.648  30.922  1.00  0.00     0.074 A 
ATOM     47  C   UNL A   1      37.961  28.730  30.586  1.00  0.00     0.031 C 
ATOM     48  C   UNL A   1      41.655  32.532  33.891  1.00  0.00     0.029 A 
ATOM     49  C   UNL A   1      40.824  33.279  34.795  1.00  0.00     0.049 A 
ATOM     50  H   UNL A   1      38.839  33.867  34.354  1.00  0.00     0.167 HD
ATOM     51  C   UNL A   1      40.485  28.052  30.413  1.00  0.00     0.034 A 
ATOM     52  C   UNL A   1      40.924  33.136  36.151  1.00  0.00     0.034 A 
ATOM     53  C   UNL A   1      41.641  28.285  31.307  1.00  0.00     0.049 A 
ATOM     54  C   UNL A   1      41.410  31.681  36.406  1.00  0.00     0.074 A 
ATOM     55  C   UNL A   1      42.935  28.742  31.149  1.00  0.00     0.029 A 
ATOM     56  N   UNL A   1      41.457  28.185  32.690  1.00  0.00    -0.354 N 
ATOM     57  N   UNL A   1      41.134  30.645  35.626  1.00  0.00    -0.248 NA
ATOM     58  C   UNL A   1      42.544  31.392  37.290  1.00  0.00     0.031 C 
ATOM     59  C   UNL A   1      43.411  29.152  32.438  1.00  0.00     0.029 A 
ATOM     60  C   UNL A   1      42.455  28.825  33.396  1.00  0.00     0.049 A 
ATOM     61  H   UNL A   1      40.703  27.714  33.111  1.00  0.00     0.167 HD
ATOM     62  C   UNL A   1      42.146  29.709  35.720  1.00  0.00     0.074 A 
ATOM     63  C   UNL A   1      42.961  30.199  36.830  1.00  0.00     0.031 C 
ATOM     64  C   UNL A   1      42.500  28.703  34.844  1.00  0.00     0.034 A 
BRANCH  51  65
ATOM     65  C   UNL A   1      40.640  27.360  29.049  1.00  0.00     0.023 A 
ATOM     66  C   UNL A   1      41.649  27.800  28.152  1.00  0.00     0.031 A 
ATOM     67  C   UNL A   1      39.800  26.354  28.522  1.00  0.00     0.131 A 
ATOM     68  C   UNL A   1      41.785  27.272  26.846  1.00  0.00     0.055 A 
ATOM     69  C   UNL A   1      39.962  25.798  27.237  1.00  0.00     0.041 A 
ATOM     70  F   UNL A   1      38.745  25.879  29.194  1.00  0.00    -0.206 F 
ATOM     71  C   UNL A   1      40.952  26.260  26.388  1.00  0.00     0.022 A 
BRANCH  68  72
ATOM     72  S   UNL A   1      43.053  27.945  25.725  1.00  0.00     0.124 S 
ATOM     73  O   UNL A   1      43.586  29.049  26.515  1.00  0.00    -0.237 OA
ATOM     74  O   UNL A   1      43.933  26.802  25.521  1.00  0.00    -0.237 OA
ATOM     75  O   UNL A   1      42.283  28.346  24.548  1.00  0.00    -0.744 OA
ENDBRANCH  68  72
ENDBRANCH  51  65
BRANCH  52  76
ATOM     76  C   UNL A   1      39.914  34.087  36.765  1.00  0.00     0.023 A 
ATOM     77  C   UNL A   1      38.867  33.423  37.490  1.00  0.00     0.031 A 
ATOM     78  C   UNL A   1      40.289  35.355  37.242  1.00  0.00     0.131 A 
ATOM     79  C   UNL A   1      38.451  33.885  38.759  1.00  0.00     0.055 A 
ATOM     80  C   UNL A   1      39.826  35.834  38.488  1.00  0.00     0.041 A 
ATOM     81  F   UNL A   1      41.268  36.048  36.643  1.00  0.00    -0.206 F 
ATOM     82  C   UNL A   1      38.968  35.068  39.282  1.00  0.00     0.022 A 
BRANCH  79  83
ATOM     83  S   UNL A   1      37.468  32.787  39.851  1.00  0.00     0.124 S 
ATOM     84  O   UNL A   1      38.480  31.860  40.344  1.00  0.00    -0.237 OA
ATOM     85  O   UNL A   1      36.918  33.709  40.839  1.00  0.00    -0.237 OA
ATOM     86  O   UNL A   1      36.474  32.214  38.944  1.00  0.00    -0.744 OA
ENDBRANCH  79  83
ENDBRANCH  52  76
BRANCH  64  87
ATOM     87  C   UNL A   1      42.915  27.345  35.371  1.00  0.00     0.023 A 
ATOM     88  C   UNL A   1      44.116  26.771  34.965  1.00  0.00     0.031 A 
ATOM     89  C   UNL A   1      42.223  26.666  36.410  1.00  0.00     0.131 A 
ATOM     90  C   UNL A   1      44.542  25.550  35.487  1.00  0.00     0.055 A 
ATOM     91  C   UNL A   1      42.710  25.505  37.011  1.00  0.00     0.041 A 
ATOM     92  F   UNL A   1      41.063  27.106  36.917  1.00  0.00    -0.206 F 
ATOM     93  C   UNL A   1      43.872  24.925  36.534  1.00  0.00     0.022 A 
BRANCH  90  94
ATOM     94  S   UNL A   1      45.935  24.776  34.653  1.00  0.00     0.124 S 
ATOM     95  O   UNL A   1      45.661  23.359  34.885  1.00  0.00    -0.237 OA
ATOM     96  O   UNL A   1      45.772  25.232  33.276  1.00  0.00    -0.237 OA
ATOM     97  O   UNL A   1      47.096  25.310  35.358  1.00  0.00    -0.744 OA
ENDBRANCH  90  94
ENDBRANCH  64  87
ENDBRANCH  38  39
ENDBRANCH  31  33
ENDBRANCH  30  31
ENDBRANCH  29  30
ENDBRANCH  28  29
ENDBRANCH  27  28
ENDBRANCH  26  27
ENDBRANCH   1  26
TORSDOF 25
ENDMDL
MODEL 2
REMARK VINA RESULT:     -10.4      0.923      2.429
REMARK SMILES Cc1cccc(-c2cccc(O)c2)c1C(=O)OCCOCCOCCOCCOC(=O)c1ccc(-c2c3nc(c(-c4cc(S(=O)(=O)[O-])ccc4F)c4ccc([nH]4)c(-c4cc(S(=O)(=O)[O-])ccc4F)c4nc(c(-c5cc(S(=O)(=O)[O-])ccc5F)c5ccc2[nH]5)C=C4)C=C3)cc1
REMARK SMILES IDX 24 1 23 2 22 3 21 4 20 5 19 6 18 7 17 8 15 9 16 10 14 11
REMARK SMILES IDX 1 12 2 13 3 14 4 15 6 16 5 17 7 18 8 19 13 20 9 21 11 22
REMARK SMILES IDX 10 23 12 24 25 26 26 27 27 28 28 29 29 30 30 31 31 32 32 33
REMARK SMILES IDX 33 34 94 35 34 36 93 37 35 38 36 39 37 40 87 41 38 42 92 43
REMARK SMILES IDX 86 44 88 45 39 46 91 47 85 48 84 49 40 51 72 52 52 53 71 54
REMARK SMILES IDX 53 55 56 56 70 57 89 58 54 59 55 60 69 62 90 63 57 64 41 65
REMARK SMILES IDX 42 66 50 67 43 68 49 69 51 70 48 71 44 72 45 73 46 74 47 75
REMARK SMILES IDX 73 76 74 77 82 78 75 79 81 80 83 81 80 82 76 83 77 84 78 85
REMARK SMILES IDX 79 86 58 87 59 88 67 89 60 90 66 91 68 92 65 93 61 94 62 95
REMARK SMILES IDX 63 96 64 97
REMARK H PARENT 12 25 88 50 56 61
REMARK Flexibility Score: inf
ROOT
ATOM      1  C   UNL A   1      34.314  34.566  28.433  1.00  0.00     0.188 C 
ENDROOT
BRANCH   1   2
ATOM      2  O   UNL A   1      35.491  33.782  28.280  1.00  0.00    -0.377 OA
BRANCH   2   3
ATOM      3  C   UNL A   1      35.388  32.421  28.610  1.00  0.00     0.188 C 
BRANCH   3   4
ATOM      4  C   UNL A   1      34.703  31.465  27.633  1.00  0.00     0.188 C 
BRANCH   4   5
ATOM      5  O   UNL A   1      33.721  30.509  27.979  1.00  0.00    -0.376 OA
BRANCH   5   6
ATOM      6  C   UNL A   1      33.367  29.613  26.933  1.00  0.00     0.202 C 
BRANCH   6   7
ATOM      7  C   UNL A   1      32.851  28.226  27.263  1.00  0.00     0.261 C 
BRANCH   7   8
ATOM      8  O   UNL A   1      32.988  27.469  26.075  1.00  0.00    -0.460 OA
BRANCH   8   9
ATOM      9  C   UNL A   1      32.002  26.613  25.832  1.00  0.00     0.339 C 
ATOM     10  O   UNL A   1      31.016  26.355  26.505  1.00  0.00    -0.246 OA
BRANCH   9  11
ATOM     11  C   UNL A   1      32.159  26.248  24.425  1.00  0.00     0.070 A 
ATOM     12  C   UNL A   1      29.964  27.442  23.757  1.00  0.00     0.045 C 
ATOM     13  C   UNL A   1      31.277  26.761  23.447  1.00  0.00    -0.036 A 
ATOM     14  C   UNL A   1      31.623  26.566  22.112  1.00  0.00     0.004 A 
ATOM     15  C   UNL A   1      32.732  25.784  21.780  1.00  0.00     0.001 A 
ATOM     16  C   UNL A   1      33.179  25.298  24.120  1.00  0.00    -0.003 A 
ATOM     17  C   UNL A   1      33.462  25.105  22.768  1.00  0.00     0.009 A 
BRANCH  16  18
ATOM     18  C   UNL A   1      33.733  24.392  25.177  1.00  0.00    -0.014 A 
ATOM     19  C   UNL A   1      35.112  24.428  25.470  1.00  0.00     0.009 A 
ATOM     20  C   UNL A   1      33.007  23.345  25.746  1.00  0.00     0.055 A 
ATOM     21  C   UNL A   1      35.782  23.333  26.037  1.00  0.00     0.004 A 
ATOM     22  C   UNL A   1      33.667  22.298  26.400  1.00  0.00     0.116 A 
ATOM     23  C   UNL A   1      35.052  22.242  26.481  1.00  0.00     0.046 A 
BRANCH  22  24
ATOM     24  O   UNL A   1      32.916  21.318  26.968  1.00  0.00    -0.508 OA
ATOM     25  H   UNL A   1      31.991  21.436  27.071  1.00  0.00     0.293 HD
ENDBRANCH  22  24
ENDBRANCH  16  18
ENDBRANCH   9  11
ENDBRANCH   8   9
ENDBRANCH   7   8
ENDBRANCH   6   7
ENDBRANCH   5   6
ENDBRANCH   4   5
ENDBRANCH   3   4
ENDBRANCH   2   3
ENDBRANCH   1   2
BRANCH   1  26
ATOM     26  C   UNL A   1      34.402  36.065  28.212  1.00  0.00     0.188 C 
BRANCH  26  27
ATOM     27  O   UNL A   1      33.404  36.660  29.049  1.00  0.00    -0.376 OA
BRANCH  27  28
ATOM     28  C   UNL A   1      32.704  35.776  29.904  1.00  0.00     0.202 C 
BRANCH  28  29
ATOM     29  C   UNL A   1      32.811  36.182  31.374  1.00  0.00     0.261 C 
BRANCH  29  30
ATOM     30  O   UNL A   1      34.204  36.325  31.730  1.00  0.00    -0.460 OA
BRANCH  30  31
ATOM     31  C   UNL A   1      34.584  35.694  32.878  1.00  0.00     0.338 C 
ATOM     32  O   UNL A   1      34.473  36.165  33.997  1.00  0.00    -0.246 OA
BRANCH  31  33
ATOM     33  C   UNL A   1      35.279  34.409  32.565  1.00  0.00     0.060 A 
ATOM     34  C   UNL A   1      34.972  33.225  33.259  1.00  0.00     0.016 A 
ATOM     35  C   UNL A   1      36.410  34.447  31.766  1.00  0.00     0.016 A 
ATOM     36  C   UNL A   1      35.892  32.156  33.292  1.00  0.00     0.010 A 
ATOM     37  C   UNL A   1      37.337  33.432  31.875  1.00  0.00     0.010 A 
ATOM     38  C   UNL A   1      37.133  32.296  32.677  1.00  0.00    -0.014 A 
BRANCH  38  39
ATOM     39  C   UNL A   1      38.335  31.450  32.908  1.00  0.00     0.031 A 
ATOM     40  C   UNL A   1      38.456  30.168  32.130  1.00  0.00     0.074 A 
ATOM     41  C   UNL A   1      39.443  32.034  33.445  1.00  0.00     0.049 A 
ATOM     42  N   UNL A   1      39.538  29.490  31.980  1.00  0.00    -0.248 NA
ATOM     43  C   UNL A   1      37.367  29.592  31.338  1.00  0.00     0.031 C 
ATOM     44  C   UNL A   1      40.855  31.686  33.231  1.00  0.00     0.029 A 
ATOM     45  N   UNL A   1      39.571  33.159  34.230  1.00  0.00    -0.354 N 
ATOM     46  C   UNL A   1      39.410  28.626  30.908  1.00  0.00     0.074 A 
ATOM     47  C   UNL A   1      38.012  28.701  30.571  1.00  0.00     0.031 C 
ATOM     48  C   UNL A   1      41.680  32.506  33.902  1.00  0.00     0.029 A 
ATOM     49  C   UNL A   1      40.844  33.243  34.808  1.00  0.00     0.049 A 
ATOM     50  H   UNL A   1      38.856  33.823  34.367  1.00  0.00     0.167 HD
ATOM     51  C   UNL A   1      40.540  28.039  30.397  1.00  0.00     0.034 A 
ATOM     52  C   UNL A   1      40.943  33.093  36.163  1.00  0.00     0.034 A 
ATOM     53  C   UNL A   1      41.693  28.273  31.294  1.00  0.00     0.049 A 
ATOM     54  C   UNL A   1      41.437  31.639  36.411  1.00  0.00     0.074 A 
ATOM     55  C   UNL A   1      42.985  28.738  31.140  1.00  0.00     0.029 A 
ATOM     56  N   UNL A   1      41.508  28.165  32.677  1.00  0.00    -0.354 N 
ATOM     57  N   UNL A   1      41.167  30.606  35.625  1.00  0.00    -0.248 NA
ATOM     58  C   UNL A   1      42.571  31.352  37.295  1.00  0.00     0.031 C 
ATOM     59  C   UNL A   1      43.457  29.144  32.433  1.00  0.00     0.029 A 
ATOM     60  C   UNL A   1      42.501  28.806  33.387  1.00  0.00     0.049 A 
ATOM     61  H   UNL A   1      40.756  27.686  33.093  1.00  0.00     0.167 HD
ATOM     62  C   UNL A   1      42.184  29.676  35.715  1.00  0.00     0.074 A 
ATOM     63  C   UNL A   1      42.995  30.164  36.829  1.00  0.00     0.031 C 
ATOM     64  C   UNL A   1      42.546  28.676  34.835  1.00  0.00     0.034 A 
BRANCH  51  65
ATOM     65  C   UNL A   1      40.701  27.355  29.029  1.00  0.00     0.023 A 
ATOM     66  C   UNL A   1      41.685  27.828  28.122  1.00  0.00     0.031 A 
ATOM     67  C   UNL A   1      39.887  26.325  28.510  1.00  0.00     0.131 A 
ATOM     68  C   UNL A   1      41.822  27.308  26.813  1.00  0.00     0.055 A 
ATOM     69  C   UNL A   1      40.051  25.777  27.221  1.00  0.00     0.041 A 
ATOM     70  F   UNL A   1      38.855  25.815  29.193  1.00  0.00    -0.206 F 
ATOM     71  C   UNL A   1      41.016  26.271  26.362  1.00  0.00     0.022 A 
BRANCH  68  72
ATOM     72  S   UNL A   1      43.055  28.023  25.679  1.00  0.00     0.124 S 
ATOM     73  O   UNL A   1      43.014  29.432  26.053  1.00  0.00    -0.237 OA
ATOM     74  O   UNL A   1      44.265  27.289  26.026  1.00  0.00    -0.237 OA
ATOM     75  O   UNL A   1      42.511  27.721  24.356  1.00  0.00    -0.744 OA
ENDBRANCH  68  72
ENDBRANCH  51  65
BRANCH  52  76
ATOM     76  C   UNL A   1      39.926  34.035  36.781  1.00  0.00     0.023 A 
ATOM     77  C   UNL A   1      38.864  33.361  37.471  1.00  0.00     0.031 A 
ATOM     78  C   UNL A   1      40.300  35.289  37.295  1.00  0.00     0.131 A 
ATOM     79  C   UNL A   1      38.427  33.795  38.743  1.00  0.00     0.055 A 
ATOM     80  C   UNL A   1      39.816  35.741  38.543  1.00  0.00     0.041 A 
ATOM     81  F   UNL A   1      41.293  35.991  36.730  1.00  0.00    -0.206 F 
ATOM     82  C   UNL A   1      38.940  34.962  39.303  1.00  0.00     0.022 A 
BRANCH  79  83
ATOM     83  S   UNL A   1      37.418  32.677  39.790  1.00  0.00     0.124 S 
ATOM     84  O   UNL A   1      38.381  31.643  40.152  1.00  0.00    -0.237 OA
ATOM     85  O   UNL A   1      36.983  33.545  40.879  1.00  0.00    -0.237 OA
ATOM     86  O   UNL A   1      36.343  32.254  38.892  1.00  0.00    -0.744 OA
ENDBRANCH  79  83
ENDBRANCH  52  76
BRANCH  64  87
ATOM     87  C   UNL A   1      42.967  27.318  35.355  1.00  0.00     0.023 A 
ATOM     88  C   UNL A   1      44.276  27.102  35.774  1.00  0.00     0.031 A 
ATOM     89  C   UNL A   1      42.052  26.261  35.608  1.00  0.00     0.131 A 
ATOM     90  C   UNL A   1      44.666  25.876  36.312  1.00  0.00     0.055 A 
ATOM     91  C   UNL A   1      42.420  25.079  36.251  1.00  0.00     0.041 A 
ATOM     92  F   UNL A   1      40.755  26.328  35.276  1.00  0.00    -0.206 F 
ATOM     93  C   UNL A   1      43.745  24.871  36.591  1.00  0.00     0.022 A 
BRANCH  90  94
ATOM     94  S   UNL A   1      46.436  25.627  36.515  1.00  0.00     0.124 S 
ATOM     95  O   UNL A   1      46.977  26.619  35.588  1.00  0.00    -0.237 OA
ATOM     96  O   UNL A   1      46.634  25.914  37.932  1.00  0.00    -0.237 OA
ATOM     97  O   UNL A   1      46.633  24.235  36.124  1.00  0.00    -0.744 OA
ENDBRANCH  90  94
ENDBRANCH  64  87
ENDBRANCH  38  39
ENDBRANCH  31  33
ENDBRANCH  30  31
ENDBRANCH  29  30
ENDBRANCH  28  29
ENDBRANCH  27  28
ENDBRANCH  26  27
ENDBRANCH   1  26
TORSDOF 25
ENDMDL
MODEL 3
REMARK VINA RESULT:     -10.4      5.007     11.052
REMARK SMILES Cc1cccc(-c2cccc(O)c2)c1C(=O)OCCOCCOCCOCCOC(=O)c1ccc(-c2c3nc(c(-c4cc(S(=O)(=O)[O-])ccc4F)c4ccc([nH]4)c(-c4cc(S(=O)(=O)[O-])ccc4F)c4nc(c(-c5cc(S(=O)(=O)[O-])ccc5F)c5ccc2[nH]5)C=C4)C=C3)cc1
REMARK SMILES IDX 24 1 23 2 22 3 21 4 20 5 19 6 18 7 17 8 15 9 16 10 14 11
REMARK SMILES IDX 1 12 2 13 3 14 4 15 6 16 5 17 7 18 8 19 13 20 9 21 11 22
REMARK SMILES IDX 10 23 12 24 25 26 26 27 27 28 28 29 29 30 30 31 31 32 32 33
REMARK SMILES IDX 33 34 94 35 34 36 93 37 35 38 36 39 37 40 87 41 38 42 92 43
REMARK SMILES IDX 86 44 88 45 39 46 91 47 85 48 84 49 40 51 72 52 52 53 71 54
REMARK SMILES IDX 53 55 56 56 70 57 89 58 54 59 55 60 69 62 90 63 57 64 41 65
REMARK SMILES IDX 42 66 50 67 43 68 49 69 51 70 48 71 44 72 45 73 46 74 47 75
REMARK SMILES IDX 73 76 74 77 82 78 75 79 81 80 83 81 80 82 76 83 77 84 78 85
REMARK SMILES IDX 79 86 58 87 59 88 67 89 60 90 66 91 68 92 65 93 61 94 62 95
REMARK SMILES IDX 63 96 64 97
REMARK H PARENT 12 25 88 50 56 61
REMARK Flexibility Score: inf
ROOT
ATOM      1  C   UNL A   1      34.961  20.614  24.653  1.00  0.00     0.188 C 
ENDROOT
BRANCH   1   2
ATOM      2  O   UNL A   1      33.875  20.576  25.569  1.00  0.00    -0.377 OA
BRANCH   2   3
ATOM      3  C   UNL A   1      32.666  21.145  25.137  1.00  0.00     0.188 C 
BRANCH   3   4
ATOM      4  C   UNL A   1      32.383  22.617  25.439  1.00  0.00     0.188 C 
BRANCH   4   5
ATOM      5  O   UNL A   1      31.170  23.289  25.161  1.00  0.00    -0.376 OA
BRANCH   5   6
ATOM      6  C   UNL A   1      30.580  23.939  26.281  1.00  0.00     0.202 C 
BRANCH   6   7
ATOM      7  C   UNL A   1      31.033  25.331  26.676  1.00  0.00     0.261 C 
BRANCH   7   8
ATOM      8  O   UNL A   1      30.496  26.204  25.700  1.00  0.00    -0.460 OA
BRANCH   8   9
ATOM      9  C   UNL A   1      31.309  27.175  25.300  1.00  0.00     0.339 C 
ATOM     10  O   UNL A   1      31.766  28.113  25.934  1.00  0.00    -0.246 OA
BRANCH   9  11
ATOM     11  C   UNL A   1      31.817  26.730  24.003  1.00  0.00     0.070 A 
ATOM     12  C   UNL A   1      34.090  26.022  25.013  1.00  0.00     0.045 C 
ATOM     13  C   UNL A   1      33.060  26.065  23.908  1.00  0.00    -0.036 A 
ATOM     14  C   UNL A   1      33.369  25.464  22.691  1.00  0.00     0.004 A 
ATOM     15  C   UNL A   1      32.529  25.635  21.588  1.00  0.00     0.001 A 
ATOM     16  C   UNL A   1      31.040  27.077  22.858  1.00  0.00    -0.003 A 
ATOM     17  C   UNL A   1      31.413  26.483  21.652  1.00  0.00     0.009 A 
BRANCH  16  18
ATOM     18  C   UNL A   1      30.043  28.195  22.909  1.00  0.00    -0.014 A 
ATOM     19  C   UNL A   1      28.705  27.918  23.255  1.00  0.00     0.009 A 
ATOM     20  C   UNL A   1      30.303  29.475  22.417  1.00  0.00     0.055 A 
ATOM     21  C   UNL A   1      27.646  28.748  22.857  1.00  0.00     0.004 A 
ATOM     22  C   UNL A   1      29.249  30.344  22.110  1.00  0.00     0.116 A 
ATOM     23  C   UNL A   1      27.921  29.964  22.251  1.00  0.00     0.046 A 
BRANCH  22  24
ATOM     24  O   UNL A   1      29.553  31.593  21.667  1.00  0.00    -0.508 OA
ATOM     25  H   UNL A   1      28.974  32.033  21.075  1.00  0.00     0.293 HD
ENDBRANCH  22  24
ENDBRANCH  16  18
ENDBRANCH   9  11
ENDBRANCH   8   9
ENDBRANCH   7   8
ENDBRANCH   6   7
ENDBRANCH   5   6
ENDBRANCH   4   5
ENDBRANCH   3   4
ENDBRANCH   2   3
ENDBRANCH   1   2
BRANCH   1  26
ATOM     26  C   UNL A   1      36.374  20.707  25.199  1.00  0.00     0.188 C 
BRANCH  26  27
ATOM     27  O   UNL A   1      36.520  22.027  25.732  1.00  0.00    -0.376 OA
BRANCH  27  28
ATOM     28  C   UNL A   1      37.809  22.600  25.627  1.00  0.00     0.202 C 
BRANCH  28  29
ATOM     29  C   UNL A   1      38.921  21.556  25.751  1.00  0.00     0.261 C 
BRANCH  29  30
ATOM     30  O   UNL A   1      39.934  22.044  26.658  1.00  0.00    -0.460 OA
BRANCH  30  31
ATOM     31  C   UNL A   1      41.219  21.722  26.331  1.00  0.00     0.338 C 
ATOM     32  O   UNL A   1      41.572  20.641  25.891  1.00  0.00    -0.246 OA
BRANCH  31  33
ATOM     33  C   UNL A   1      42.150  22.826  26.713  1.00  0.00     0.060 A 
ATOM     34  C   UNL A   1      42.516  23.041  28.054  1.00  0.00     0.016 A 
ATOM     35  C   UNL A   1      42.445  23.798  25.772  1.00  0.00     0.016 A 
ATOM     36  C   UNL A   1      43.007  24.296  28.470  1.00  0.00     0.010 A 
ATOM     37  C   UNL A   1      42.844  25.045  26.204  1.00  0.00     0.010 A 
ATOM     38  C   UNL A   1      43.079  25.344  27.557  1.00  0.00    -0.014 A 
BRANCH  38  39
ATOM     39  C   UNL A   1      43.219  26.790  27.879  1.00  0.00     0.031 A 
ATOM     40  C   UNL A   1      41.965  27.586  28.118  1.00  0.00     0.074 A 
ATOM     41  C   UNL A   1      44.414  27.230  28.364  1.00  0.00     0.049 A 
ATOM     42  N   UNL A   1      41.913  28.735  28.691  1.00  0.00    -0.248 NA
ATOM     43  C   UNL A   1      40.619  27.087  27.830  1.00  0.00     0.031 C 
ATOM     44  C   UNL A   1      44.671  28.341  29.291  1.00  0.00     0.029 A 
ATOM     45  N   UNL A   1      45.682  26.710  28.228  1.00  0.00    -0.354 N 
ATOM     46  C   UNL A   1      40.622  28.995  29.115  1.00  0.00     0.074 A 
ATOM     47  C   UNL A   1      39.844  27.945  28.509  1.00  0.00     0.031 C 
ATOM     48  C   UNL A   1      45.977  28.464  29.577  1.00  0.00     0.029 A 
ATOM     49  C   UNL A   1      46.662  27.626  28.632  1.00  0.00     0.049 A 
ATOM     50  H   UNL A   1      45.877  25.806  27.888  1.00  0.00     0.167 HD
ATOM     51  C   UNL A   1      40.416  30.018  30.006  1.00  0.00     0.034 A 
ATOM     52  C   UNL A   1      47.488  28.145  27.675  1.00  0.00     0.034 A 
ATOM     53  C   UNL A   1      41.643  30.830  30.153  1.00  0.00     0.049 A 
ATOM     54  C   UNL A   1      46.951  29.570  27.355  1.00  0.00     0.074 A 
ATOM     55  C   UNL A   1      42.397  31.298  31.212  1.00  0.00     0.029 A 
ATOM     56  N   UNL A   1      42.389  31.142  29.011  1.00  0.00    -0.354 N 
ATOM     57  N   UNL A   1      45.678  29.932  27.433  1.00  0.00    -0.248 NA
ATOM     58  C   UNL A   1      47.835  30.740  27.339  1.00  0.00     0.031 C 
ATOM     59  C   UNL A   1      43.692  31.646  30.703  1.00  0.00     0.029 A 
ATOM     60  C   UNL A   1      43.682  31.512  29.317  1.00  0.00     0.049 A 
ATOM     61  H   UNL A   1      42.031  31.103  28.095  1.00  0.00     0.167 HD
ATOM     62  C   UNL A   1      45.594  31.282  27.716  1.00  0.00     0.074 A 
ATOM     63  C   UNL A   1      46.973  31.746  27.572  1.00  0.00     0.031 C 
ATOM     64  C   UNL A   1      44.555  32.005  28.265  1.00  0.00     0.034 A 
BRANCH  51  65
ATOM     65  C   UNL A   1      39.172  30.260  30.877  1.00  0.00     0.023 A 
ATOM     66  C   UNL A   1      38.090  31.019  30.358  1.00  0.00     0.031 A 
ATOM     67  C   UNL A   1      39.010  29.876  32.227  1.00  0.00     0.131 A 
ATOM     68  C   UNL A   1      36.960  31.360  31.138  1.00  0.00     0.055 A 
ATOM     69  C   UNL A   1      37.865  30.178  32.991  1.00  0.00     0.041 A 
ATOM     70  F   UNL A   1      39.964  29.228  32.905  1.00  0.00    -0.206 F 
ATOM     71  C   UNL A   1      36.835  30.929  32.452  1.00  0.00     0.022 A 
BRANCH  68  72
ATOM     72  S   UNL A   1      35.650  32.406  30.425  1.00  0.00     0.124 S 
ATOM     73  O   UNL A   1      36.298  33.712  30.406  1.00  0.00    -0.237 OA
ATOM     74  O   UNL A   1      35.411  31.775  29.134  1.00  0.00    -0.237 OA
ATOM     75  O   UNL A   1      34.555  32.276  31.387  1.00  0.00    -0.744 OA
ENDBRANCH  68  72
ENDBRANCH  51  65
BRANCH  52  76
ATOM     76  C   UNL A   1      48.036  26.970  26.887  1.00  0.00     0.023 A 
ATOM     77  C   UNL A   1      47.794  27.061  25.475  1.00  0.00     0.031 A 
ATOM     78  C   UNL A   1      49.217  26.312  27.271  1.00  0.00     0.131 A 
ATOM     79  C   UNL A   1      48.811  26.769  24.539  1.00  0.00     0.055 A 
ATOM     80  C   UNL A   1      50.207  25.973  26.321  1.00  0.00     0.041 A 
ATOM     81  F   UNL A   1      49.541  26.189  28.567  1.00  0.00    -0.206 F 
ATOM     82  C   UNL A   1      50.039  26.270  24.966  1.00  0.00     0.022 A 
BRANCH  79  83
ATOM     83  S   UNL A   1      48.636  27.324  22.799  1.00  0.00     0.124 S 
ATOM     84  O   UNL A   1      49.813  28.167  22.627  1.00  0.00    -0.237 OA
ATOM     85  O   UNL A   1      48.638  26.073  22.050  1.00  0.00    -0.237 OA
ATOM     86  O   UNL A   1      47.351  28.024  22.798  1.00  0.00    -0.744 OA
ENDBRANCH  79  83
ENDBRANCH  52  76
BRANCH  64  87
ATOM     87  C   UNL A   1      44.223  33.385  27.736  1.00  0.00     0.023 A 
ATOM     88  C   UNL A   1      44.404  34.507  28.538  1.00  0.00     0.031 A 
ATOM     89  C   UNL A   1      43.884  33.639  26.379  1.00  0.00     0.131 A 
ATOM     90  C   UNL A   1      44.161  35.789  28.046  1.00  0.00     0.055 A 
ATOM     91  C   UNL A   1      43.755  34.927  25.861  1.00  0.00     0.041 A 
ATOM     92  F   UNL A   1      43.694  32.661  25.483  1.00  0.00    -0.206 F 
ATOM     93  C   UNL A   1      43.874  36.018  26.704  1.00  0.00     0.022 A 
BRANCH  90  94
ATOM     94  S   UNL A   1      44.127  37.112  29.265  1.00  0.00     0.124 S 
ATOM     95  O   UNL A   1      44.713  38.218  28.509  1.00  0.00    -0.237 OA
ATOM     96  O   UNL A   1      42.702  37.233  29.557  1.00  0.00    -0.237 OA
ATOM     97  O   UNL A   1      44.949  36.596  30.354  1.00  0.00    -0.744 OA
ENDBRANCH  90  94
ENDBRANCH  64  87
ENDBRANCH  38  39
ENDBRANCH  31  33
ENDBRANCH  30  31
ENDBRANCH  29  30
ENDBRANCH  28  29
ENDBRANCH  27  28
ENDBRANCH  26  27
ENDBRANCH   1  26
TORSDOF 25
ENDMDL
