MODEL 1
REMARK VINA RESULT:     -10.7      0.000      0.000
REMARK SMILES O=C(OCCOCCOCCOCCOC(=O)[C@H]1C[C@](F)(c2cccc(F)c2)C1)c1ccc(-c2c3nc(c(-c4cc(S(=O)(=O)[O-])ccc4F)c4ccc([nH]4)c(-c4cc(S(=O)(=O)[O-])ccc4F)c4nc(c(-c5cc(S(=O)(=O)[O-])ccc5F)c5ccc2[nH]5)C=C4)C=C3)cc1
REMARK SMILES IDX 8 1 7 2 6 3 5 4 4 5 3 6 2 7 1 8 30 9 31 10 92 11 32 12 91 13
REMARK SMILES IDX 33 14 34 15 35 16 85 17 36 18 90 19 84 20 86 21 37 22 89 23
REMARK SMILES IDX 83 24 82 25 38 27 70 28 50 29 69 30 51 31 54 32 68 33 87 34
REMARK SMILES IDX 52 35 53 36 67 38 88 39 55 40 39 41 40 42 48 43 41 44 47 45
REMARK SMILES IDX 49 46 46 47 42 48 43 49 44 50 45 51 71 52 72 53 80 54 73 55
REMARK SMILES IDX 79 56 81 57 78 58 74 59 75 60 76 61 77 62 56 63 57 64 65 65
REMARK SMILES IDX 58 66 64 67 66 68 63 69 59 70 60 71 61 72 62 73 9 74 10 75
REMARK SMILES IDX 11 76 12 77 13 78 14 79 15 80 16 81 17 82 18 83 19 84 29 85
REMARK SMILES IDX 20 86 21 87 22 88 23 89 28 90 24 91 26 92 25 93 27 94
REMARK H PARENT 86 26 54 37
REMARK Flexibility Score: inf
ROOT
ATOM      1  C   UNL A   1      33.465  27.750  23.080  1.00  0.00     0.188 C 
ENDROOT
BRANCH   1   2
ATOM      2  C   UNL A   1      32.616  28.982  22.773  1.00  0.00     0.188 C 
BRANCH   2   3
ATOM      3  O   UNL A   1      31.308  28.780  23.289  1.00  0.00    -0.376 OA
BRANCH   3   4
ATOM      4  C   UNL A   1      31.054  28.962  24.677  1.00  0.00     0.202 C 
BRANCH   4   5
ATOM      5  C   UNL A   1      31.410  30.330  25.253  1.00  0.00     0.261 C 
BRANCH   5   6
ATOM      6  O   UNL A   1      32.747  30.422  25.768  1.00  0.00    -0.460 OA
BRANCH   6   7
ATOM      7  C   UNL A   1      33.183  31.141  26.833  1.00  0.00     0.338 C 
ATOM      8  O   UNL A   1      32.522  32.116  27.193  1.00  0.00    -0.246 OA
BRANCH   7   9
ATOM      9  C   UNL A   1      34.431  30.831  27.587  1.00  0.00     0.060 A 
ATOM     10  C   UNL A   1      34.841  29.552  27.950  1.00  0.00     0.016 A 
ATOM     11  C   UNL A   1      35.311  31.890  27.848  1.00  0.00     0.016 A 
ATOM     12  C   UNL A   1      36.012  29.312  28.632  1.00  0.00     0.010 A 
ATOM     13  C   UNL A   1      36.537  31.657  28.477  1.00  0.00     0.010 A 
ATOM     14  C   UNL A   1      36.874  30.361  28.886  1.00  0.00    -0.014 A 
BRANCH  14  15
ATOM     15  C   UNL A   1      38.042  30.064  29.720  1.00  0.00     0.031 A 
ATOM     16  C   UNL A   1      39.170  29.329  29.077  1.00  0.00     0.074 A 
ATOM     17  C   UNL A   1      38.147  30.617  30.942  1.00  0.00     0.049 A 
ATOM     18  N   UNL A   1      40.242  28.828  29.615  1.00  0.00    -0.248 NA
ATOM     19  C   UNL A   1      39.077  29.143  27.618  1.00  0.00     0.031 C 
ATOM     20  C   UNL A   1      37.176  31.544  31.539  1.00  0.00     0.029 A 
ATOM     21  N   UNL A   1      39.135  30.527  31.880  1.00  0.00    -0.354 N 
ATOM     22  C   UNL A   1      40.929  28.222  28.572  1.00  0.00     0.074 A 
ATOM     23  C   UNL A   1      40.152  28.416  27.370  1.00  0.00     0.031 C 
ATOM     24  C   UNL A   1      37.642  31.964  32.725  1.00  0.00     0.029 A 
ATOM     25  C   UNL A   1      38.876  31.251  33.018  1.00  0.00     0.049 A 
ATOM     26  H   UNL A   1      39.953  29.995  31.752  1.00  0.00     0.167 HD
ATOM     27  C   UNL A   1      42.101  27.551  28.640  1.00  0.00     0.034 A 
ATOM     28  C   UNL A   1      39.543  31.279  34.186  1.00  0.00     0.034 A 
ATOM     29  C   UNL A   1      42.813  27.391  29.882  1.00  0.00     0.049 A 
ATOM     30  C   UNL A   1      40.752  30.391  34.297  1.00  0.00     0.074 A 
ATOM     31  C   UNL A   1      43.932  26.633  30.153  1.00  0.00     0.029 A 
ATOM     32  N   UNL A   1      42.454  28.023  31.071  1.00  0.00    -0.354 N 
ATOM     33  N   UNL A   1      41.303  29.640  33.370  1.00  0.00    -0.248 NA
ATOM     34  C   UNL A   1      41.408  30.325  35.604  1.00  0.00     0.031 C 
ATOM     35  C   UNL A   1      44.214  26.759  31.518  1.00  0.00     0.029 A 
ATOM     36  C   UNL A   1      43.322  27.661  32.084  1.00  0.00     0.049 A 
ATOM     37  H   UNL A   1      41.693  28.637  31.176  1.00  0.00     0.167 HD
ATOM     38  C   UNL A   1      42.390  29.023  33.974  1.00  0.00     0.074 A 
ATOM     39  C   UNL A   1      42.410  29.491  35.349  1.00  0.00     0.031 C 
ATOM     40  C   UNL A   1      43.293  28.157  33.443  1.00  0.00     0.034 A 
BRANCH  27  41
ATOM     41  C   UNL A   1      42.564  26.869  27.381  1.00  0.00     0.023 A 
ATOM     42  C   UNL A   1      42.349  25.498  27.152  1.00  0.00     0.031 A 
ATOM     43  C   UNL A   1      43.350  27.576  26.454  1.00  0.00     0.131 A 
ATOM     44  C   UNL A   1      42.983  24.862  26.072  1.00  0.00     0.055 A 
ATOM     45  C   UNL A   1      43.910  26.954  25.336  1.00  0.00     0.041 A 
ATOM     46  F   UNL A   1      43.625  28.877  26.641  1.00  0.00    -0.206 F 
ATOM     47  C   UNL A   1      43.741  25.585  25.149  1.00  0.00     0.022 A 
BRANCH  44  48
ATOM     48  S   UNL A   1      42.926  23.050  25.977  1.00  0.00     0.124 S 
ATOM     49  O   UNL A   1      44.114  22.680  26.749  1.00  0.00    -0.237 OA
ATOM     50  O   UNL A   1      41.646  22.736  26.584  1.00  0.00    -0.237 OA
ATOM     51  O   UNL A   1      43.022  22.780  24.539  1.00  0.00    -0.744 OA
ENDBRANCH  44  48
ENDBRANCH  27  41
BRANCH  28  52
ATOM     52  C   UNL A   1      39.032  32.099  35.318  1.00  0.00     0.023 A 
ATOM     53  C   UNL A   1      38.345  31.510  36.390  1.00  0.00     0.031 A 
ATOM     54  C   UNL A   1      39.281  33.485  35.376  1.00  0.00     0.131 A 
ATOM     55  C   UNL A   1      37.934  32.303  37.475  1.00  0.00     0.055 A 
ATOM     56  C   UNL A   1      38.901  34.261  36.472  1.00  0.00     0.041 A 
ATOM     57  F   UNL A   1      39.943  34.096  34.380  1.00  0.00    -0.206 F 
ATOM     58  C   UNL A   1      38.221  33.670  37.531  1.00  0.00     0.022 A 
BRANCH  55  59
ATOM     59  S   UNL A   1      37.017  31.520  38.832  1.00  0.00     0.124 S 
ATOM     60  O   UNL A   1      36.854  30.160  38.334  1.00  0.00    -0.237 OA
ATOM     61  O   UNL A   1      37.930  31.690  39.956  1.00  0.00    -0.237 OA
ATOM     62  O   UNL A   1      35.787  32.307  38.909  1.00  0.00    -0.744 OA
ENDBRANCH  55  59
ENDBRANCH  28  52
BRANCH  40  63
ATOM     63  C   UNL A   1      44.411  27.714  34.342  1.00  0.00     0.023 A 
ATOM     64  C   UNL A   1      44.307  26.559  35.132  1.00  0.00     0.031 A 
ATOM     65  C   UNL A   1      45.617  28.435  34.355  1.00  0.00     0.131 A 
ATOM     66  C   UNL A   1      45.392  26.170  35.928  1.00  0.00     0.055 A 
ATOM     67  C   UNL A   1      46.710  28.012  35.106  1.00  0.00     0.041 A 
ATOM     68  F   UNL A   1      45.757  29.545  33.612  1.00  0.00    -0.206 F 
ATOM     69  C   UNL A   1      46.599  26.877  35.904  1.00  0.00     0.022 A 
BRANCH  66  70
ATOM     70  S   UNL A   1      45.190  24.751  37.035  1.00  0.00     0.124 S 
ATOM     71  O   UNL A   1      46.370  24.863  37.887  1.00  0.00    -0.237 OA
ATOM     72  O   UNL A   1      43.910  25.030  37.677  1.00  0.00    -0.237 OA
ATOM     73  O   UNL A   1      45.188  23.606  36.125  1.00  0.00    -0.744 OA
ENDBRANCH  66  70
ENDBRANCH  40  63
ENDBRANCH  14  15
ENDBRANCH   7   9
ENDBRANCH   6   7
ENDBRANCH   5   6
ENDBRANCH   4   5
ENDBRANCH   3   4
ENDBRANCH   2   3
ENDBRANCH   1   2
BRANCH   1  74
ATOM     74  O   UNL A   1      33.782  26.964  21.934  1.00  0.00    -0.377 OA
BRANCH  74  75
ATOM     75  C   UNL A   1      32.950  25.827  21.721  1.00  0.00     0.188 C 
BRANCH  75  76
ATOM     76  C   UNL A   1      32.084  25.299  22.887  1.00  0.00     0.188 C 
BRANCH  76  77
ATOM     77  O   UNL A   1      30.708  25.566  22.706  1.00  0.00    -0.376 OA
BRANCH  77  78
ATOM     78  C   UNL A   1      29.921  25.547  23.889  1.00  0.00     0.202 C 
BRANCH  78  79
ATOM     79  C   UNL A   1      30.625  25.567  25.266  1.00  0.00     0.261 C 
BRANCH  79  80
ATOM     80  O   UNL A   1      29.992  24.867  26.364  1.00  0.00    -0.463 OA
BRANCH  80  81
ATOM     81  C   UNL A   1      30.487  23.664  26.775  1.00  0.00     0.309 C 
ATOM     82  O   UNL A   1      29.888  22.944  27.563  1.00  0.00    -0.252 OA
BRANCH  81  83
ATOM     83  C   UNL A   1      31.856  23.293  26.103  1.00  0.00     0.106 C 
ATOM     84  C   UNL A   1      32.008  22.174  25.047  1.00  0.00     0.061 C 
ATOM     85  C   UNL A   1      32.899  22.569  26.981  1.00  0.00     0.061 C 
ATOM     86  C   UNL A   1      33.220  21.571  25.829  1.00  0.00     0.137 C 
ATOM     87  F   UNL A   1      33.050  20.264  26.166  1.00  0.00    -0.239 F 
BRANCH  86  88
ATOM     88  C   UNL A   1      34.690  21.670  25.225  1.00  0.00    -0.008 A 
ATOM     89  C   UNL A   1      35.196  22.832  24.610  1.00  0.00     0.007 A 
ATOM     90  C   UNL A   1      35.556  20.554  25.251  1.00  0.00     0.046 A 
ATOM     91  C   UNL A   1      36.510  22.905  24.133  1.00  0.00     0.003 A 
ATOM     92  C   UNL A   1      36.863  20.631  24.788  1.00  0.00     0.123 A 
ATOM     93  C   UNL A   1      37.353  21.804  24.242  1.00  0.00     0.039 A 
ATOM     94  F   UNL A   1      37.658  19.557  24.881  1.00  0.00    -0.207 F 
ENDBRANCH  86  88
ENDBRANCH  81  83
ENDBRANCH  80  81
ENDBRANCH  79  80
ENDBRANCH  78  79
ENDBRANCH  77  78
ENDBRANCH  76  77
ENDBRANCH  75  76
ENDBRANCH  74  75
ENDBRANCH   1  74
TORSDOF 24
ENDMDL
MODEL 2
REMARK VINA RESULT:     -10.0      5.268      8.726
REMARK SMILES O=C(OCCOCCOCCOCCOC(=O)[C@H]1C[C@](F)(c2cccc(F)c2)C1)c1ccc(-c2c3nc(c(-c4cc(S(=O)(=O)[O-])ccc4F)c4ccc([nH]4)c(-c4cc(S(=O)(=O)[O-])ccc4F)c4nc(c(-c5cc(S(=O)(=O)[O-])ccc5F)c5ccc2[nH]5)C=C4)C=C3)cc1
REMARK SMILES IDX 8 1 7 2 6 3 5 4 4 5 3 6 2 7 1 8 30 9 31 10 92 11 32 12 91 13
REMARK SMILES IDX 33 14 34 15 35 16 85 17 36 18 90 19 84 20 86 21 37 22 89 23
REMARK SMILES IDX 83 24 82 25 38 27 70 28 50 29 69 30 51 31 54 32 68 33 87 34
REMARK SMILES IDX 52 35 53 36 67 38 88 39 55 40 39 41 40 42 48 43 41 44 47 45
REMARK SMILES IDX 49 46 46 47 42 48 43 49 44 50 45 51 71 52 72 53 80 54 73 55
REMARK SMILES IDX 79 56 81 57 78 58 74 59 75 60 76 61 77 62 56 63 57 64 65 65
REMARK SMILES IDX 58 66 64 67 66 68 63 69 59 70 60 71 61 72 62 73 9 74 10 75
REMARK SMILES IDX 11 76 12 77 13 78 14 79 15 80 16 81 17 82 18 83 19 84 29 85
REMARK SMILES IDX 20 86 21 87 22 88 23 89 28 90 24 91 26 92 25 93 27 94
REMARK H PARENT 86 26 54 37
REMARK Flexibility Score: inf
ROOT
ATOM      1  C   UNL A   1      36.824  23.075  24.005  1.00  0.00     0.188 C 
ENDROOT
BRANCH   1   2
ATOM      2  C   UNL A   1      37.076  22.262  25.273  1.00  0.00     0.188 C 
BRANCH   2   3
ATOM      3  O   UNL A   1      38.238  21.466  25.086  1.00  0.00    -0.376 OA
BRANCH   3   4
ATOM      4  C   UNL A   1      38.119  20.057  24.935  1.00  0.00     0.202 C 
BRANCH   4   5
ATOM      5  C   UNL A   1      39.128  19.210  25.705  1.00  0.00     0.261 C 
BRANCH   5   6
ATOM      6  O   UNL A   1      40.446  19.775  25.768  1.00  0.00    -0.460 OA
BRANCH   6   7
ATOM      7  C   UNL A   1      41.102  20.247  26.859  1.00  0.00     0.338 C 
ATOM      8  O   UNL A   1      41.477  19.441  27.711  1.00  0.00    -0.246 OA
BRANCH   7   9
ATOM      9  C   UNL A   1      41.382  21.692  27.096  1.00  0.00     0.060 A 
ATOM     10  C   UNL A   1      40.988  22.725  26.253  1.00  0.00     0.016 A 
ATOM     11  C   UNL A   1      41.984  22.043  28.312  1.00  0.00     0.016 A 
ATOM     12  C   UNL A   1      41.255  24.048  26.522  1.00  0.00     0.010 A 
ATOM     13  C   UNL A   1      42.200  23.386  28.636  1.00  0.00     0.010 A 
ATOM     14  C   UNL A   1      41.848  24.387  27.723  1.00  0.00    -0.014 A 
BRANCH  14  15
ATOM     15  C   UNL A   1      42.217  25.795  27.899  1.00  0.00     0.031 A 
ATOM     16  C   UNL A   1      43.482  26.253  27.255  1.00  0.00     0.074 A 
ATOM     17  C   UNL A   1      41.337  26.652  28.447  1.00  0.00     0.049 A 
ATOM     18  N   UNL A   1      44.101  27.391  27.367  1.00  0.00    -0.248 NA
ATOM     19  C   UNL A   1      44.136  25.292  26.348  1.00  0.00     0.031 C 
ATOM     20  C   UNL A   1      39.978  26.307  28.886  1.00  0.00     0.029 A 
ATOM     21  N   UNL A   1      41.427  27.994  28.681  1.00  0.00    -0.354 N 
ATOM     22  C   UNL A   1      45.242  27.268  26.587  1.00  0.00     0.074 A 
ATOM     23  C   UNL A   1      45.234  25.945  26.008  1.00  0.00     0.031 C 
ATOM     24  C   UNL A   1      39.353  27.420  29.298  1.00  0.00     0.029 A 
ATOM     25  C   UNL A   1      40.300  28.524  29.261  1.00  0.00     0.049 A 
ATOM     26  H   UNL A   1      42.222  28.529  28.455  1.00  0.00     0.167 HD
ATOM     27  C   UNL A   1      46.212  28.192  26.398  1.00  0.00     0.034 A 
ATOM     28  C   UNL A   1      40.092  29.757  29.758  1.00  0.00     0.034 A 
ATOM     29  C   UNL A   1      46.155  29.490  27.019  1.00  0.00     0.049 A 
ATOM     30  C   UNL A   1      41.246  30.719  29.690  1.00  0.00     0.074 A 
ATOM     31  C   UNL A   1      47.108  30.486  27.045  1.00  0.00     0.029 A 
ATOM     32  N   UNL A   1      45.055  29.964  27.731  1.00  0.00    -0.354 N 
ATOM     33  N   UNL A   1      42.424  30.546  29.132  1.00  0.00    -0.248 NA
ATOM     34  C   UNL A   1      41.065  32.019  30.339  1.00  0.00     0.031 C 
ATOM     35  C   UNL A   1      46.607  31.537  27.823  1.00  0.00     0.029 A 
ATOM     36  C   UNL A   1      45.309  31.234  28.214  1.00  0.00     0.049 A 
ATOM     37  H   UNL A   1      44.217  29.467  27.871  1.00  0.00     0.167 HD
ATOM     38  C   UNL A   1      43.124  31.726  29.342  1.00  0.00     0.074 A 
ATOM     39  C   UNL A   1      42.231  32.601  30.084  1.00  0.00     0.031 C 
ATOM     40  C   UNL A   1      44.381  32.062  28.953  1.00  0.00     0.034 A 
BRANCH  27  41
ATOM     41  C   UNL A   1      47.419  27.755  25.610  1.00  0.00     0.023 A 
ATOM     42  C   UNL A   1      47.538  28.005  24.231  1.00  0.00     0.031 A 
ATOM     43  C   UNL A   1      48.403  26.962  26.225  1.00  0.00     0.131 A 
ATOM     44  C   UNL A   1      48.571  27.396  23.499  1.00  0.00     0.055 A 
ATOM     45  C   UNL A   1      49.474  26.427  25.504  1.00  0.00     0.041 A 
ATOM     46  F   UNL A   1      48.319  26.655  27.529  1.00  0.00    -0.206 F 
ATOM     47  C   UNL A   1      49.553  26.630  24.130  1.00  0.00     0.022 A 
BRANCH  44  48
ATOM     48  S   UNL A   1      48.525  27.496  21.687  1.00  0.00     0.124 S 
ATOM     49  O   UNL A   1      48.667  26.088  21.313  1.00  0.00    -0.237 OA
ATOM     50  O   UNL A   1      47.230  28.099  21.430  1.00  0.00    -0.237 OA
ATOM     51  O   UNL A   1      49.683  28.335  21.361  1.00  0.00    -0.744 OA
ENDBRANCH  44  48
ENDBRANCH  27  41
BRANCH  28  52
ATOM     52  C   UNL A   1      38.796  30.090  30.409  1.00  0.00     0.023 A 
ATOM     53  C   UNL A   1      37.824  30.854  29.746  1.00  0.00     0.031 A 
ATOM     54  C   UNL A   1      38.482  29.592  31.689  1.00  0.00     0.131 A 
ATOM     55  C   UNL A   1      36.584  31.095  30.363  1.00  0.00     0.055 A 
ATOM     56  C   UNL A   1      37.237  29.805  32.283  1.00  0.00     0.041 A 
ATOM     57  F   UNL A   1      39.373  28.848  32.364  1.00  0.00    -0.206 F 
ATOM     58  C   UNL A   1      36.279  30.563  31.619  1.00  0.00     0.022 A 
BRANCH  55  59
ATOM     59  S   UNL A   1      35.359  32.114  29.495  1.00  0.00     0.124 S 
ATOM     60  O   UNL A   1      34.841  31.177  28.505  1.00  0.00    -0.237 OA
ATOM     61  O   UNL A   1      34.448  32.481  30.572  1.00  0.00    -0.237 OA
ATOM     62  O   UNL A   1      36.155  33.216  28.955  1.00  0.00    -0.744 OA
ENDBRANCH  55  59
ENDBRANCH  28  52
BRANCH  40  63
ATOM     63  C   UNL A   1      44.836  33.456  29.273  1.00  0.00     0.023 A 
ATOM     64  C   UNL A   1      44.485  34.548  28.464  1.00  0.00     0.031 A 
ATOM     65  C   UNL A   1      45.582  33.691  30.440  1.00  0.00     0.131 A 
ATOM     66  C   UNL A   1      44.908  35.834  28.825  1.00  0.00     0.055 A 
ATOM     67  C   UNL A   1      45.951  34.979  30.822  1.00  0.00     0.041 A 
ATOM     68  F   UNL A   1      45.936  32.674  31.242  1.00  0.00    -0.206 F 
ATOM     69  C   UNL A   1      45.619  36.059  30.009  1.00  0.00     0.022 A 
BRANCH  66  70
ATOM     70  S   UNL A   1      44.553  37.210  27.701  1.00  0.00     0.124 S 
ATOM     71  O   UNL A   1      45.886  37.551  27.213  1.00  0.00    -0.237 OA
ATOM     72  O   UNL A   1      43.655  36.598  26.727  1.00  0.00    -0.237 OA
ATOM     73  O   UNL A   1      43.936  38.210  28.569  1.00  0.00    -0.744 OA
ENDBRANCH  66  70
ENDBRANCH  40  63
ENDBRANCH  14  15
ENDBRANCH   7   9
ENDBRANCH   6   7
ENDBRANCH   5   6
ENDBRANCH   4   5
ENDBRANCH   3   4
ENDBRANCH   2   3
ENDBRANCH   1   2
BRANCH   1  74
ATOM     74  O   UNL A   1      35.512  22.925  23.470  1.00  0.00    -0.377 OA
BRANCH  74  75
ATOM     75  C   UNL A   1      34.604  22.179  24.275  1.00  0.00     0.188 C 
BRANCH  75  76
ATOM     76  C   UNL A   1      33.304  22.854  24.766  1.00  0.00     0.188 C 
BRANCH  76  77
ATOM     77  O   UNL A   1      33.510  23.671  25.900  1.00  0.00    -0.376 OA
BRANCH  77  78
ATOM     78  C   UNL A   1      32.415  24.500  26.263  1.00  0.00     0.202 C 
BRANCH  78  79
ATOM     79  C   UNL A   1      32.404  25.980  25.813  1.00  0.00     0.261 C 
BRANCH  79  80
ATOM     80  O   UNL A   1      31.871  26.288  24.503  1.00  0.00    -0.463 OA
BRANCH  80  81
ATOM     81  C   UNL A   1      32.519  27.182  23.701  1.00  0.00     0.309 C 
ATOM     82  O   UNL A   1      33.661  26.996  23.303  1.00  0.00    -0.252 OA
BRANCH  81  83
ATOM     83  C   UNL A   1      31.639  28.422  23.316  1.00  0.00     0.106 C 
ATOM     84  C   UNL A   1      30.641  29.091  24.289  1.00  0.00     0.061 C 
ATOM     85  C   UNL A   1      30.474  28.181  22.331  1.00  0.00     0.061 C 
ATOM     86  C   UNL A   1      29.518  29.051  23.202  1.00  0.00     0.137 C 
ATOM     87  F   UNL A   1      28.395  28.399  23.608  1.00  0.00    -0.239 F 
BRANCH  86  88
ATOM     88  C   UNL A   1      29.010  30.400  22.525  1.00  0.00    -0.008 A 
ATOM     89  C   UNL A   1      28.384  30.443  21.264  1.00  0.00     0.007 A 
ATOM     90  C   UNL A   1      29.205  31.643  23.165  1.00  0.00     0.046 A 
ATOM     91  C   UNL A   1      27.904  31.639  20.717  1.00  0.00     0.003 A 
ATOM     92  C   UNL A   1      28.719  32.828  22.627  1.00  0.00     0.123 A 
ATOM     93  C   UNL A   1      28.054  32.833  21.413  1.00  0.00     0.039 A 
ATOM     94  F   UNL A   1      28.888  33.974  23.299  1.00  0.00    -0.207 F 
ENDBRANCH  86  88
ENDBRANCH  81  83
ENDBRANCH  80  81
ENDBRANCH  79  80
ENDBRANCH  78  79
ENDBRANCH  77  78
ENDBRANCH  76  77
ENDBRANCH  75  76
ENDBRANCH  74  75
ENDBRANCH   1  74
TORSDOF 24
ENDMDL
MODEL 3
REMARK VINA RESULT:      -9.8      1.833      2.307
REMARK SMILES O=C(OCCOCCOCCOCCOC(=O)[C@H]1C[C@](F)(c2cccc(F)c2)C1)c1ccc(-c2c3nc(c(-c4cc(S(=O)(=O)[O-])ccc4F)c4ccc([nH]4)c(-c4cc(S(=O)(=O)[O-])ccc4F)c4nc(c(-c5cc(S(=O)(=O)[O-])ccc5F)c5ccc2[nH]5)C=C4)C=C3)cc1
REMARK SMILES IDX 8 1 7 2 6 3 5 4 4 5 3 6 2 7 1 8 30 9 31 10 92 11 32 12 91 13
REMARK SMILES IDX 33 14 34 15 35 16 85 17 36 18 90 19 84 20 86 21 37 22 89 23
REMARK SMILES IDX 83 24 82 25 38 27 70 28 50 29 69 30 51 31 54 32 68 33 87 34
REMARK SMILES IDX 52 35 53 36 67 38 88 39 55 40 39 41 40 42 48 43 41 44 47 45
REMARK SMILES IDX 49 46 46 47 42 48 43 49 44 50 45 51 71 52 72 53 80 54 73 55
REMARK SMILES IDX 79 56 81 57 78 58 74 59 75 60 76 61 77 62 56 63 57 64 65 65
REMARK SMILES IDX 58 66 64 67 66 68 63 69 59 70 60 71 61 72 62 73 9 74 10 75
REMARK SMILES IDX 11 76 12 77 13 78 14 79 15 80 16 81 17 82 18 83 19 84 29 85
REMARK SMILES IDX 20 86 21 87 22 88 23 89 28 90 24 91 26 92 25 93 27 94
REMARK H PARENT 86 26 54 37
REMARK Flexibility Score: inf
ROOT
ATOM      1  C   UNL A   1      32.211  28.597  23.470  1.00  0.00     0.188 C 
ENDROOT
BRANCH   1   2
ATOM      2  C   UNL A   1      31.545  29.270  24.668  1.00  0.00     0.188 C 
BRANCH   2   3
ATOM      3  O   UNL A   1      31.677  28.426  25.803  1.00  0.00    -0.376 OA
BRANCH   3   4
ATOM      4  C   UNL A   1      32.025  28.981  27.066  1.00  0.00     0.202 C 
BRANCH   4   5
ATOM      5  C   UNL A   1      32.106  30.504  27.132  1.00  0.00     0.261 C 
BRANCH   5   6
ATOM      6  O   UNL A   1      33.418  31.035  26.892  1.00  0.00    -0.460 OA
BRANCH   6   7
ATOM      7  C   UNL A   1      34.198  31.751  27.741  1.00  0.00     0.338 C 
ATOM      8  O   UNL A   1      33.866  32.906  28.007  1.00  0.00    -0.246 OA
BRANCH   7   9
ATOM      9  C   UNL A   1      35.447  31.225  28.360  1.00  0.00     0.060 A 
ATOM     10  C   UNL A   1      35.588  29.952  28.904  1.00  0.00     0.016 A 
ATOM     11  C   UNL A   1      36.594  32.027  28.287  1.00  0.00     0.016 A 
ATOM     12  C   UNL A   1      36.768  29.503  29.451  1.00  0.00     0.010 A 
ATOM     13  C   UNL A   1      37.819  31.561  28.774  1.00  0.00     0.010 A 
ATOM     14  C   UNL A   1      37.895  30.300  29.375  1.00  0.00    -0.014 A 
BRANCH  14  15
ATOM     15  C   UNL A   1      39.086  29.821  30.081  1.00  0.00     0.031 A 
ATOM     16  C   UNL A   1      39.969  28.862  29.356  1.00  0.00     0.074 A 
ATOM     17  C   UNL A   1      39.446  30.391  31.245  1.00  0.00     0.049 A 
ATOM     18  N   UNL A   1      40.992  28.188  29.792  1.00  0.00    -0.248 NA
ATOM     19  C   UNL A   1      39.657  28.639  27.932  1.00  0.00     0.031 C 
ATOM     20  C   UNL A   1      38.746  31.507  31.895  1.00  0.00     0.029 A 
ATOM     21  N   UNL A   1      40.514  30.153  32.062  1.00  0.00    -0.354 N 
ATOM     22  C   UNL A   1      41.417  27.424  28.715  1.00  0.00     0.074 A 
ATOM     23  C   UNL A   1      40.541  27.713  27.604  1.00  0.00     0.031 C 
ATOM     24  C   UNL A   1      39.429  31.878  32.988  1.00  0.00     0.029 A 
ATOM     25  C   UNL A   1      40.540  30.957  33.176  1.00  0.00     0.049 A 
ATOM     26  H   UNL A   1      41.198  29.471  31.871  1.00  0.00     0.167 HD
ATOM     27  C   UNL A   1      42.446  26.547  28.685  1.00  0.00     0.034 A 
ATOM     28  C   UNL A   1      41.345  30.904  34.252  1.00  0.00     0.034 A 
ATOM     29  C   UNL A   1      43.271  26.305  29.840  1.00  0.00     0.049 A 
ATOM     30  C   UNL A   1      42.376  29.809  34.274  1.00  0.00     0.074 A 
ATOM     31  C   UNL A   1      44.259  25.360  30.022  1.00  0.00     0.029 A 
ATOM     32  N   UNL A   1      43.189  27.038  31.022  1.00  0.00    -0.354 N 
ATOM     33  N   UNL A   1      42.657  28.931  33.336  1.00  0.00    -0.248 NA
ATOM     34  C   UNL A   1      43.172  29.671  35.495  1.00  0.00     0.031 C 
ATOM     35  C   UNL A   1      44.732  25.483  31.334  1.00  0.00     0.029 A 
ATOM     36  C   UNL A   1      44.099  26.559  31.945  1.00  0.00     0.049 A 
ATOM     37  H   UNL A   1      42.572  27.789  31.178  1.00  0.00     0.167 HD
ATOM     38  C   UNL A   1      43.681  28.145  33.844  1.00  0.00     0.074 A 
ATOM     39  C   UNL A   1      43.964  28.654  35.175  1.00  0.00     0.031 C 
ATOM     40  C   UNL A   1      44.336  27.104  33.264  1.00  0.00     0.034 A 
BRANCH  27  41
ATOM     41  C   UNL A   1      42.612  25.741  27.424  1.00  0.00     0.023 A 
ATOM     42  C   UNL A   1      42.132  24.423  27.312  1.00  0.00     0.031 A 
ATOM     43  C   UNL A   1      43.378  26.255  26.363  1.00  0.00     0.131 A 
ATOM     44  C   UNL A   1      42.495  23.640  26.205  1.00  0.00     0.055 A 
ATOM     45  C   UNL A   1      43.668  25.496  25.227  1.00  0.00     0.041 A 
ATOM     46  F   UNL A   1      43.899  27.491  26.431  1.00  0.00    -0.206 F 
ATOM     47  C   UNL A   1      43.239  24.175  25.151  1.00  0.00     0.022 A 
BRANCH  44  48
ATOM     48  S   UNL A   1      42.111  21.865  26.234  1.00  0.00     0.124 S 
ATOM     49  O   UNL A   1      42.335  21.541  27.644  1.00  0.00    -0.237 OA
ATOM     50  O   UNL A   1      40.734  21.827  25.779  1.00  0.00    -0.237 OA
ATOM     51  O   UNL A   1      43.094  21.288  25.311  1.00  0.00    -0.744 OA
ENDBRANCH  44  48
ENDBRANCH  27  41
BRANCH  28  52
ATOM     52  C   UNL A   1      41.142  31.849  35.384  1.00  0.00     0.023 A 
ATOM     53  C   UNL A   1      40.004  31.772  36.200  1.00  0.00     0.031 A 
ATOM     54  C   UNL A   1      42.121  32.809  35.707  1.00  0.00     0.131 A 
ATOM     55  C   UNL A   1      39.875  32.636  37.301  1.00  0.00     0.055 A 
ATOM     56  C   UNL A   1      42.004  33.642  36.821  1.00  0.00     0.041 A 
ATOM     57  F   UNL A   1      43.234  32.919  34.963  1.00  0.00    -0.206 F 
ATOM     58  C   UNL A   1      40.873  33.559  37.625  1.00  0.00     0.022 A 
BRANCH  55  59
ATOM     59  S   UNL A   1      38.376  32.537  38.319  1.00  0.00     0.124 S 
ATOM     60  O   UNL A   1      37.744  31.330  37.800  1.00  0.00    -0.237 OA
ATOM     61  O   UNL A   1      38.926  32.447  39.666  1.00  0.00    -0.237 OA
ATOM     62  O   UNL A   1      37.677  33.785  38.018  1.00  0.00    -0.744 OA
ENDBRANCH  55  59
ENDBRANCH  28  52
BRANCH  40  63
ATOM     63  C   UNL A   1      45.460  26.493  34.050  1.00  0.00     0.023 A 
ATOM     64  C   UNL A   1      45.275  25.339  34.825  1.00  0.00     0.031 A 
ATOM     65  C   UNL A   1      46.748  27.052  33.965  1.00  0.00     0.131 A 
ATOM     66  C   UNL A   1      46.365  24.790  35.512  1.00  0.00     0.055 A 
ATOM     67  C   UNL A   1      47.838  26.469  34.606  1.00  0.00     0.041 A 
ATOM     68  F   UNL A   1      46.967  28.155  33.232  1.00  0.00    -0.206 F 
ATOM     69  C   UNL A   1      47.648  25.335  35.390  1.00  0.00     0.022 A 
BRANCH  66  70
ATOM     70  S   UNL A   1      46.076  23.377  36.608  1.00  0.00     0.124 S 
ATOM     71  O   UNL A   1      46.151  23.998  37.927  1.00  0.00    -0.237 OA
ATOM     72  O   UNL A   1      44.754  22.920  36.192  1.00  0.00    -0.237 OA
ATOM     73  O   UNL A   1      47.174  22.466  36.287  1.00  0.00    -0.744 OA
ENDBRANCH  66  70
ENDBRANCH  40  63
ENDBRANCH  14  15
ENDBRANCH   7   9
ENDBRANCH   6   7
ENDBRANCH   5   6
ENDBRANCH   4   5
ENDBRANCH   3   4
ENDBRANCH   2   3
ENDBRANCH   1   2
BRANCH   1  74
ATOM     74  O   UNL A   1      31.322  28.319  22.391  1.00  0.00    -0.377 OA
BRANCH  74  75
ATOM     75  C   UNL A   1      30.633  27.074  22.471  1.00  0.00     0.188 C 
BRANCH  75  76
ATOM     76  C   UNL A   1      29.564  26.873  23.567  1.00  0.00     0.188 C 
BRANCH  76  77
ATOM     77  O   UNL A   1      29.545  25.555  24.075  1.00  0.00    -0.376 OA
BRANCH  77  78
ATOM     78  C   UNL A   1      30.631  25.212  24.925  1.00  0.00     0.202 C 
BRANCH  78  79
ATOM     79  C   UNL A   1      30.370  24.334  26.170  1.00  0.00     0.261 C 
BRANCH  79  80
ATOM     80  O   UNL A   1      31.479  24.070  27.062  1.00  0.00    -0.463 OA
BRANCH  80  81
ATOM     81  C   UNL A   1      32.684  23.688  26.549  1.00  0.00     0.309 C 
ATOM     82  O   UNL A   1      33.598  24.479  26.364  1.00  0.00    -0.252 OA
BRANCH  81  83
ATOM     83  C   UNL A   1      32.781  22.145  26.276  1.00  0.00     0.106 C 
ATOM     84  C   UNL A   1      34.006  21.288  26.669  1.00  0.00     0.061 C 
ATOM     85  C   UNL A   1      32.974  21.700  24.809  1.00  0.00     0.061 C 
ATOM     86  C   UNL A   1      34.059  20.665  25.236  1.00  0.00     0.137 C 
ATOM     87  F   UNL A   1      35.258  20.834  24.616  1.00  0.00    -0.239 F 
BRANCH  86  88
ATOM     88  C   UNL A   1      33.673  19.137  25.013  1.00  0.00    -0.008 A 
ATOM     89  C   UNL A   1      32.768  18.440  25.839  1.00  0.00     0.007 A 
ATOM     90  C   UNL A   1      34.265  18.389  23.972  1.00  0.00     0.046 A 
ATOM     91  C   UNL A   1      32.411  17.110  25.588  1.00  0.00     0.003 A 
ATOM     92  C   UNL A   1      33.902  17.073  23.717  1.00  0.00     0.123 A 
ATOM     93  C   UNL A   1      32.966  16.431  24.509  1.00  0.00     0.039 A 
ATOM     94  F   UNL A   1      34.459  16.425  22.686  1.00  0.00    -0.207 F 
ENDBRANCH  86  88
ENDBRANCH  81  83
ENDBRANCH  80  81
ENDBRANCH  79  80
ENDBRANCH  78  79
ENDBRANCH  77  78
ENDBRANCH  76  77
ENDBRANCH  75  76
ENDBRANCH  74  75
ENDBRANCH   1  74
TORSDOF 24
ENDMDL
