MODEL 1
REMARK VINA RESULT:      -8.0      0.000      0.000
REMARK SMILES Cn1ncc(C(=O)OCCOCCOCCOCCOC(=O)c2ccc(-c3c4nc(c(-c5cc(S(=O)(=O)[O-])ccc5F)c5ccc([nH]5)c(-c5cc(S(=O)(=O)[O-])ccc5F)c5nc(c(-c6cc(S(=O)(=O)[O-])ccc6F)c6ccc3[nH]6)C=C5)C=C4)cc2)c1C(=O)N1CCN(S(C)(=O)=O)CC1
REMARK SMILES IDX 15 1 14 2 13 3 12 4 11 5 10 6 9 7 8 8 6 9 7 10 5 11 1 12
REMARK SMILES IDX 2 13 3 14 86 15 4 16 87 17 88 18 89 19 90 20 98 21 91 22
REMARK SMILES IDX 97 23 92 24 93 25 94 26 95 27 96 28 16 29 17 30 18 31 19 32
REMARK SMILES IDX 20 33 21 34 22 35 23 36 24 37 85 38 25 39 84 40 26 41 27 42
REMARK SMILES IDX 28 43 78 44 29 45 83 46 77 47 79 48 30 49 82 50 76 51 75 52
REMARK SMILES IDX 31 54 63 55 43 56 62 57 44 58 47 59 61 60 80 61 45 62 46 63
REMARK SMILES IDX 60 65 81 66 48 67 32 68 33 69 41 70 34 71 40 72 42 73 39 74
REMARK SMILES IDX 35 75 36 76 37 77 38 78 64 79 65 80 73 81 66 82 72 83 74 84
REMARK SMILES IDX 71 85 67 86 68 87 69 88 70 89 49 90 50 91 58 92 51 93 57 94
REMARK SMILES IDX 59 95 56 96 52 97 53 98 54 99 55 100
REMARK H PARENT 79 53 47 64
REMARK Flexibility Score: inf
ROOT
ATOM      1  C   UNL A   1      38.428  32.513  40.383  1.00  0.00     0.188 C 
ENDROOT
BRANCH   1   2
ATOM      2  O   UNL A   1      38.487  32.544  38.962  1.00  0.00    -0.377 OA
BRANCH   2   3
ATOM      3  C   UNL A   1      37.288  32.606  38.211  1.00  0.00     0.188 C 
BRANCH   3   4
ATOM      4  C   UNL A   1      37.231  33.447  36.921  1.00  0.00     0.188 C 
BRANCH   4   5
ATOM      5  O   UNL A   1      38.227  33.146  35.949  1.00  0.00    -0.376 OA
BRANCH   5   6
ATOM      6  C   UNL A   1      38.342  31.778  35.576  1.00  0.00     0.202 C 
BRANCH   6   7
ATOM      7  C   UNL A   1      39.151  31.572  34.293  1.00  0.00     0.261 C 
BRANCH   7   8
ATOM      8  O   UNL A   1      38.366  31.024  33.228  1.00  0.00    -0.460 OA
BRANCH   8   9
ATOM      9  C   UNL A   1      38.331  31.729  32.071  1.00  0.00     0.342 C 
ATOM     10  O   UNL A   1      38.922  32.787  31.879  1.00  0.00    -0.246 OA
BRANCH   9  11
ATOM     11  C   UNL A   1      37.694  30.989  31.001  1.00  0.00     0.111 A 
ATOM     12  C   UNL A   1      36.073  30.201  27.884  1.00  0.00     0.174 C 
ATOM     13  N   UNL A   1      36.632  30.330  29.208  1.00  0.00    -0.262 N 
ATOM     14  N   UNL A   1      37.072  29.185  29.775  1.00  0.00    -0.180 NA
ATOM     15  C   UNL A   1      36.905  31.462  29.946  1.00  0.00     0.140 A 
ATOM     16  C   UNL A   1      37.773  29.598  30.824  1.00  0.00     0.151 A 
BRANCH  15  17
ATOM     17  C   UNL A   1      36.670  32.867  29.649  1.00  0.00     0.273 C 
ATOM     18  O   UNL A   1      37.281  33.423  28.735  1.00  0.00    -0.267 OA
ATOM     19  N   UNL A   1      35.626  33.555  30.256  1.00  0.00    -0.335 N 
ATOM     20  C   UNL A   1      35.000  34.593  29.439  1.00  0.00     0.136 C 
ATOM     21  C   UNL A   1      35.512  33.794  31.698  1.00  0.00     0.136 C 
ATOM     22  C   UNL A   1      33.521  34.725  29.776  1.00  0.00     0.123 C 
ATOM     23  C   UNL A   1      34.048  34.029  32.133  1.00  0.00     0.123 C 
ATOM     24  N   UNL A   1      33.314  34.952  31.227  1.00  0.00    -0.199 NA
BRANCH  24  25
ATOM     25  S   UNL A   1      32.824  36.464  31.765  1.00  0.00     0.211 S 
ATOM     26  C   UNL A   1      34.035  36.849  33.012  1.00  0.00     0.176 C 
ATOM     27  O   UNL A   1      32.985  37.397  30.671  1.00  0.00    -0.213 OA
ATOM     28  O   UNL A   1      31.544  36.296  32.419  1.00  0.00    -0.213 OA
ENDBRANCH  24  25
ENDBRANCH  15  17
ENDBRANCH   9  11
ENDBRANCH   8   9
ENDBRANCH   7   8
ENDBRANCH   6   7
ENDBRANCH   5   6
ENDBRANCH   4   5
ENDBRANCH   3   4
ENDBRANCH   2   3
ENDBRANCH   1   2
BRANCH   1  29
ATOM     29  C   UNL A   1      39.716  32.631  41.223  1.00  0.00     0.188 C 
BRANCH  29  30
ATOM     30  O   UNL A   1      39.853  33.857  41.937  1.00  0.00    -0.376 OA
BRANCH  30  31
ATOM     31  C   UNL A   1      39.863  35.034  41.142  1.00  0.00     0.202 C 
BRANCH  31  32
ATOM     32  C   UNL A   1      41.256  35.654  40.988  1.00  0.00     0.261 C 
BRANCH  32  33
ATOM     33  O   UNL A   1      41.887  35.405  39.722  1.00  0.00    -0.460 OA
BRANCH  33  34
ATOM     34  C   UNL A   1      41.625  36.287  38.731  1.00  0.00     0.338 C 
ATOM     35  O   UNL A   1      41.297  37.453  38.850  1.00  0.00    -0.246 OA
BRANCH  34  36
ATOM     36  C   UNL A   1      41.972  35.638  37.454  1.00  0.00     0.060 A 
ATOM     37  C   UNL A   1      40.945  35.286  36.571  1.00  0.00     0.016 A 
ATOM     38  C   UNL A   1      43.308  35.381  37.138  1.00  0.00     0.016 A 
ATOM     39  C   UNL A   1      41.254  34.641  35.374  1.00  0.00     0.010 A 
ATOM     40  C   UNL A   1      43.613  34.718  35.949  1.00  0.00     0.010 A 
ATOM     41  C   UNL A   1      42.585  34.319  35.078  1.00  0.00    -0.014 A 
BRANCH  41  42
ATOM     42  C   UNL A   1      42.892  33.384  33.971  1.00  0.00     0.031 A 
ATOM     43  C   UNL A   1      43.041  33.955  32.587  1.00  0.00     0.074 A 
ATOM     44  C   UNL A   1      43.025  32.064  34.184  1.00  0.00     0.049 A 
ATOM     45  N   UNL A   1      43.251  33.342  31.452  1.00  0.00    -0.248 NA
ATOM     46  C   UNL A   1      42.929  35.419  32.473  1.00  0.00     0.031 C 
ATOM     47  C   UNL A   1      42.933  31.404  35.486  1.00  0.00     0.029 A 
ATOM     48  N   UNL A   1      43.255  31.039  33.302  1.00  0.00    -0.354 N 
ATOM     49  C   UNL A   1      43.305  34.344  30.489  1.00  0.00     0.074 A 
ATOM     50  C   UNL A   1      43.063  35.598  31.168  1.00  0.00     0.031 C 
ATOM     51  C   UNL A   1      43.091  30.079  35.314  1.00  0.00     0.029 A 
ATOM     52  C   UNL A   1      43.262  29.796  33.890  1.00  0.00     0.049 A 
ATOM     53  H   UNL A   1      43.402  31.181  32.339  1.00  0.00     0.167 HD
ATOM     54  C   UNL A   1      43.543  34.228  29.160  1.00  0.00     0.034 A 
ATOM     55  C   UNL A   1      43.369  28.572  33.332  1.00  0.00     0.034 A 
ATOM     56  C   UNL A   1      43.752  32.970  28.490  1.00  0.00     0.049 A 
ATOM     57  C   UNL A   1      43.538  28.461  31.835  1.00  0.00     0.074 A 
ATOM     58  C   UNL A   1      44.005  32.737  27.151  1.00  0.00     0.029 A 
ATOM     59  N   UNL A   1      43.712  31.728  29.111  1.00  0.00    -0.354 N 
ATOM     60  N   UNL A   1      43.608  29.417  30.936  1.00  0.00    -0.248 NA
ATOM     61  C   UNL A   1      43.649  27.105  31.279  1.00  0.00     0.031 C 
ATOM     62  C   UNL A   1      44.053  31.352  26.949  1.00  0.00     0.029 A 
ATOM     63  C   UNL A   1      43.902  30.723  28.175  1.00  0.00     0.049 A 
ATOM     64  H   UNL A   1      43.570  31.582  30.073  1.00  0.00     0.167 HD
ATOM     65  C   UNL A   1      43.800  28.775  29.713  1.00  0.00     0.074 A 
ATOM     66  C   UNL A   1      43.846  27.355  29.993  1.00  0.00     0.031 C 
ATOM     67  C   UNL A   1      43.932  29.310  28.472  1.00  0.00     0.034 A 
BRANCH  54  68
ATOM     68  C   UNL A   1      43.534  35.500  28.350  1.00  0.00     0.023 A 
ATOM     69  C   UNL A   1      44.720  36.201  28.066  1.00  0.00     0.031 A 
ATOM     70  C   UNL A   1      42.320  36.043  27.896  1.00  0.00     0.131 A 
ATOM     71  C   UNL A   1      44.659  37.439  27.411  1.00  0.00     0.055 A 
ATOM     72  C   UNL A   1      42.273  37.239  27.178  1.00  0.00     0.041 A 
ATOM     73  F   UNL A   1      41.155  35.431  28.161  1.00  0.00    -0.206 F 
ATOM     74  C   UNL A   1      43.447  37.952  26.944  1.00  0.00     0.022 A 
BRANCH  71  75
ATOM     75  S   UNL A   1      46.171  38.435  27.297  1.00  0.00     0.124 S 
ATOM     76  O   UNL A   1      46.770  37.923  26.067  1.00  0.00    -0.237 OA
ATOM     77  O   UNL A   1      45.650  39.795  27.237  1.00  0.00    -0.237 OA
ATOM     78  O   UNL A   1      46.895  38.098  28.521  1.00  0.00    -0.744 OA
ENDBRANCH  71  75
ENDBRANCH  54  68
BRANCH  55  79
ATOM     79  C   UNL A   1      43.275  27.343  34.173  1.00  0.00     0.023 A 
ATOM     80  C   UNL A   1      44.428  26.675  34.614  1.00  0.00     0.031 A 
ATOM     81  C   UNL A   1      42.025  26.780  34.486  1.00  0.00     0.131 A 
ATOM     82  C   UNL A   1      44.310  25.456  35.300  1.00  0.00     0.055 A 
ATOM     83  C   UNL A   1      41.912  25.594  35.212  1.00  0.00     0.041 A 
ATOM     84  F   UNL A   1      40.892  27.378  34.088  1.00  0.00    -0.206 F 
ATOM     85  C   UNL A   1      43.061  24.917  35.612  1.00  0.00     0.022 A 
BRANCH  82  86
ATOM     86  S   UNL A   1      45.822  24.537  35.705  1.00  0.00     0.124 S 
ATOM     87  O   UNL A   1      45.961  24.808  37.131  1.00  0.00    -0.237 OA
ATOM     88  O   UNL A   1      45.452  23.173  35.343  1.00  0.00    -0.237 OA
ATOM     89  O   UNL A   1      46.834  25.155  34.849  1.00  0.00    -0.744 OA
ENDBRANCH  82  86
ENDBRANCH  55  79
BRANCH  67  90
ATOM     90  C   UNL A   1      44.183  28.352  27.334  1.00  0.00     0.023 A 
ATOM     91  C   UNL A   1      45.485  28.029  26.912  1.00  0.00     0.031 A 
ATOM     92  C   UNL A   1      43.102  27.755  26.664  1.00  0.00     0.131 A 
ATOM     93  C   UNL A   1      45.671  27.170  25.818  1.00  0.00     0.055 A 
ATOM     94  C   UNL A   1      43.293  26.859  25.611  1.00  0.00     0.041 A 
ATOM     95  F   UNL A   1      41.837  28.028  27.026  1.00  0.00    -0.206 F 
ATOM     96  C   UNL A   1      44.584  26.571  25.175  1.00  0.00     0.022 A 
BRANCH  93  97
ATOM     97  S   UNL A   1      47.353  26.903  25.194  1.00  0.00     0.124 S 
ATOM     98  O   UNL A   1      47.683  28.212  24.641  1.00  0.00    -0.237 OA
ATOM     99  O   UNL A   1      48.076  26.521  26.401  1.00  0.00    -0.237 OA
ATOM    100  O   UNL A   1      47.188  25.836  24.208  1.00  0.00    -0.744 OA
ENDBRANCH  93  97
ENDBRANCH  67  90
ENDBRANCH  41  42
ENDBRANCH  34  36
ENDBRANCH  33  34
ENDBRANCH  32  33
ENDBRANCH  31  32
ENDBRANCH  30  31
ENDBRANCH  29  30
ENDBRANCH   1  29
TORSDOF 25
ENDMDL
MODEL 2
REMARK VINA RESULT:      -8.0      5.808     12.295
REMARK SMILES Cn1ncc(C(=O)OCCOCCOCCOCCOC(=O)c2ccc(-c3c4nc(c(-c5cc(S(=O)(=O)[O-])ccc5F)c5ccc([nH]5)c(-c5cc(S(=O)(=O)[O-])ccc5F)c5nc(c(-c6cc(S(=O)(=O)[O-])ccc6F)c6ccc3[nH]6)C=C5)C=C4)cc2)c1C(=O)N1CCN(S(C)(=O)=O)CC1
REMARK SMILES IDX 15 1 14 2 13 3 12 4 11 5 10 6 9 7 8 8 6 9 7 10 5 11 1 12
REMARK SMILES IDX 2 13 3 14 86 15 4 16 87 17 88 18 89 19 90 20 98 21 91 22
REMARK SMILES IDX 97 23 92 24 93 25 94 26 95 27 96 28 16 29 17 30 18 31 19 32
REMARK SMILES IDX 20 33 21 34 22 35 23 36 24 37 85 38 25 39 84 40 26 41 27 42
REMARK SMILES IDX 28 43 78 44 29 45 83 46 77 47 79 48 30 49 82 50 76 51 75 52
REMARK SMILES IDX 31 54 63 55 43 56 62 57 44 58 47 59 61 60 80 61 45 62 46 63
REMARK SMILES IDX 60 65 81 66 48 67 32 68 33 69 41 70 34 71 40 72 42 73 39 74
REMARK SMILES IDX 35 75 36 76 37 77 38 78 64 79 65 80 73 81 66 82 72 83 74 84
REMARK SMILES IDX 71 85 67 86 68 87 69 88 70 89 49 90 50 91 58 92 51 93 57 94
REMARK SMILES IDX 59 95 56 96 52 97 53 98 54 99 55 100
REMARK H PARENT 79 53 47 64
REMARK Flexibility Score: inf
ROOT
ATOM      1  C   UNL A   1      37.171  29.203  29.362  1.00  0.00     0.188 C 
ENDROOT
BRANCH   1   2
ATOM      2  O   UNL A   1      36.035  29.819  28.768  1.00  0.00    -0.377 OA
BRANCH   2   3
ATOM      3  C   UNL A   1      35.899  29.830  27.358  1.00  0.00     0.188 C 
BRANCH   3   4
ATOM      4  C   UNL A   1      34.790  28.999  26.686  1.00  0.00     0.188 C 
BRANCH   4   5
ATOM      5  O   UNL A   1      33.459  29.435  26.938  1.00  0.00    -0.376 OA
BRANCH   5   6
ATOM      6  C   UNL A   1      32.622  28.518  27.634  1.00  0.00     0.202 C 
BRANCH   6   7
ATOM      7  C   UNL A   1      31.414  28.064  26.811  1.00  0.00     0.261 C 
BRANCH   7   8
ATOM      8  O   UNL A   1      31.183  26.653  26.903  1.00  0.00    -0.460 OA
BRANCH   8   9
ATOM      9  C   UNL A   1      30.490  26.082  25.889  1.00  0.00     0.342 C 
ATOM     10  O   UNL A   1      29.388  25.554  26.004  1.00  0.00    -0.246 OA
BRANCH   9  11
ATOM     11  C   UNL A   1      31.090  26.354  24.598  1.00  0.00     0.111 A 
ATOM     12  C   UNL A   1      33.191  26.105  21.685  1.00  0.00     0.174 C 
ATOM     13  N   UNL A   1      32.325  26.417  22.796  1.00  0.00    -0.262 N 
ATOM     14  N   UNL A   1      31.299  27.254  22.527  1.00  0.00    -0.180 NA
ATOM     15  C   UNL A   1      32.305  25.898  24.073  1.00  0.00     0.140 A 
ATOM     16  C   UNL A   1      30.519  27.157  23.597  1.00  0.00     0.151 A 
BRANCH  15  17
ATOM     17  C   UNL A   1      33.171  24.920  24.714  1.00  0.00     0.273 C 
ATOM     18  O   UNL A   1      34.042  25.281  25.507  1.00  0.00    -0.267 OA
ATOM     19  N   UNL A   1      32.915  23.559  24.594  1.00  0.00    -0.335 N 
ATOM     20  C   UNL A   1      33.274  22.749  25.756  1.00  0.00     0.136 C 
ATOM     21  C   UNL A   1      32.933  22.815  23.330  1.00  0.00     0.136 C 
ATOM     22  C   UNL A   1      32.329  21.562  25.898  1.00  0.00     0.123 C 
ATOM     23  C   UNL A   1      32.069  21.536  23.398  1.00  0.00     0.123 C 
ATOM     24  N   UNL A   1      32.275  20.762  24.651  1.00  0.00    -0.199 NA
BRANCH  24  25
ATOM     25  S   UNL A   1      32.998  19.248  24.608  1.00  0.00     0.211 S 
ATOM     26  C   UNL A   1      32.550  18.645  22.994  1.00  0.00     0.176 C 
ATOM     27  O   UNL A   1      34.432  19.442  24.639  1.00  0.00    -0.213 OA
ATOM     28  O   UNL A   1      32.336  18.424  25.596  1.00  0.00    -0.213 OA
ENDBRANCH  24  25
ENDBRANCH  15  17
ENDBRANCH   9  11
ENDBRANCH   8   9
ENDBRANCH   7   8
ENDBRANCH   6   7
ENDBRANCH   5   6
ENDBRANCH   4   5
ENDBRANCH   3   4
ENDBRANCH   2   3
ENDBRANCH   1   2
BRANCH   1  29
ATOM     29  C   UNL A   1      38.564  29.336  28.715  1.00  0.00     0.188 C 
BRANCH  29  30
ATOM     30  O   UNL A   1      38.976  28.208  27.948  1.00  0.00    -0.376 OA
BRANCH  30  31
ATOM     31  C   UNL A   1      39.247  27.027  28.690  1.00  0.00     0.202 C 
BRANCH  31  32
ATOM     32  C   UNL A   1      40.115  26.016  27.930  1.00  0.00     0.261 C 
BRANCH  32  33
ATOM     33  O   UNL A   1      40.381  26.363  26.563  1.00  0.00    -0.460 OA
BRANCH  33  34
ATOM     34  C   UNL A   1      41.682  26.465  26.206  1.00  0.00     0.338 C 
ATOM     35  O   UNL A   1      42.296  25.740  25.446  1.00  0.00    -0.246 OA
BRANCH  34  36
ATOM     36  C   UNL A   1      42.201  27.723  26.770  1.00  0.00     0.060 A 
ATOM     37  C   UNL A   1      43.132  27.666  27.814  1.00  0.00     0.016 A 
ATOM     38  C   UNL A   1      41.766  28.951  26.266  1.00  0.00     0.016 A 
ATOM     39  C   UNL A   1      43.607  28.848  28.382  1.00  0.00     0.010 A 
ATOM     40  C   UNL A   1      42.229  30.131  26.847  1.00  0.00     0.010 A 
ATOM     41  C   UNL A   1      43.127  30.083  27.927  1.00  0.00    -0.014 A 
BRANCH  41  42
ATOM     42  C   UNL A   1      43.393  31.313  28.707  1.00  0.00     0.031 A 
ATOM     43  C   UNL A   1      42.547  31.574  29.923  1.00  0.00     0.074 A 
ATOM     44  C   UNL A   1      44.352  32.181  28.343  1.00  0.00     0.049 A 
ATOM     45  N   UNL A   1      42.546  32.599  30.733  1.00  0.00    -0.248 NA
ATOM     46  C   UNL A   1      41.561  30.533  30.263  1.00  0.00     0.031 C 
ATOM     47  C   UNL A   1      45.253  32.017  27.203  1.00  0.00     0.029 A 
ATOM     48  N   UNL A   1      44.719  33.384  28.892  1.00  0.00    -0.354 N 
ATOM     49  C   UNL A   1      41.568  32.326  31.683  1.00  0.00     0.074 A 
ATOM     50  C   UNL A   1      40.969  31.059  31.323  1.00  0.00     0.031 C 
ATOM     51  C   UNL A   1      46.061  33.090  27.129  1.00  0.00     0.029 A 
ATOM     52  C   UNL A   1      45.712  34.030  28.194  1.00  0.00     0.049 A 
ATOM     53  H   UNL A   1      44.308  33.750  29.708  1.00  0.00     0.167 HD
ATOM     54  C   UNL A   1      41.209  33.062  32.763  1.00  0.00     0.034 A 
ATOM     55  C   UNL A   1      46.256  35.249  28.385  1.00  0.00     0.034 A 
ATOM     56  C   UNL A   1      41.791  34.337  33.093  1.00  0.00     0.049 A 
ATOM     57  C   UNL A   1      45.773  36.095  29.541  1.00  0.00     0.074 A 
ATOM     58  C   UNL A   1      41.506  35.165  34.164  1.00  0.00     0.029 A 
ATOM     59  N   UNL A   1      42.768  34.978  32.342  1.00  0.00    -0.354 N 
ATOM     60  N   UNL A   1      44.861  35.818  30.445  1.00  0.00    -0.248 NA
ATOM     61  C   UNL A   1      46.396  37.415  29.702  1.00  0.00     0.031 C 
ATOM     62  C   UNL A   1      42.262  36.336  34.025  1.00  0.00     0.029 A 
ATOM     63  C   UNL A   1      43.071  36.207  32.906  1.00  0.00     0.049 A 
ATOM     64  H   UNL A   1      43.183  34.614  31.528  1.00  0.00     0.167 HD
ATOM     65  C   UNL A   1      44.826  36.919  31.299  1.00  0.00     0.074 A 
ATOM     66  C   UNL A   1      45.814  37.856  30.808  1.00  0.00     0.031 C 
ATOM     67  C   UNL A   1      44.052  37.135  32.395  1.00  0.00     0.034 A 
BRANCH  54  68
ATOM     68  C   UNL A   1      40.098  32.515  33.624  1.00  0.00     0.023 A 
ATOM     69  C   UNL A   1      38.798  33.052  33.577  1.00  0.00     0.031 A 
ATOM     70  C   UNL A   1      40.351  31.475  34.534  1.00  0.00     0.131 A 
ATOM     71  C   UNL A   1      37.821  32.595  34.474  1.00  0.00     0.055 A 
ATOM     72  C   UNL A   1      39.354  30.973  35.372  1.00  0.00     0.041 A 
ATOM     73  F   UNL A   1      41.578  30.943  34.640  1.00  0.00    -0.206 F 
ATOM     74  C   UNL A   1      38.083  31.544  35.355  1.00  0.00     0.022 A 
BRANCH  71  75
ATOM     75  S   UNL A   1      36.245  33.487  34.567  1.00  0.00     0.124 S 
ATOM     76  O   UNL A   1      36.618  34.801  34.046  1.00  0.00    -0.237 OA
ATOM     77  O   UNL A   1      35.377  32.685  33.714  1.00  0.00    -0.237 OA
ATOM     78  O   UNL A   1      35.919  33.460  35.991  1.00  0.00    -0.744 OA
ENDBRANCH  71  75
ENDBRANCH  54  68
BRANCH  55  79
ATOM     79  C   UNL A   1      47.285  35.778  27.444  1.00  0.00     0.023 A 
ATOM     80  C   UNL A   1      48.646  35.474  27.609  1.00  0.00     0.031 A 
ATOM     81  C   UNL A   1      46.927  36.656  26.405  1.00  0.00     0.131 A 
ATOM     82  C   UNL A   1      49.603  36.081  26.782  1.00  0.00     0.055 A 
ATOM     83  C   UNL A   1      47.879  37.219  25.554  1.00  0.00     0.041 A 
ATOM     84  F   UNL A   1      45.641  36.981  26.204  1.00  0.00    -0.206 F 
ATOM     85  C   UNL A   1      49.229  36.943  25.750  1.00  0.00     0.022 A 
BRANCH  82  86
ATOM     86  S   UNL A   1      51.361  35.797  27.134  1.00  0.00     0.124 S 
ATOM     87  O   UNL A   1      51.356  35.670  28.586  1.00  0.00    -0.237 OA
ATOM     88  O   UNL A   1      51.625  34.574  26.383  1.00  0.00    -0.237 OA
ATOM     89  O   UNL A   1      52.010  36.999  26.613  1.00  0.00    -0.744 OA
ENDBRANCH  82  86
ENDBRANCH  55  79
BRANCH  67  90
ATOM     90  C   UNL A   1      44.280  38.418  33.155  1.00  0.00     0.023 A 
ATOM     91  C   UNL A   1      43.560  39.590  32.860  1.00  0.00     0.031 A 
ATOM     92  C   UNL A   1      45.231  38.466  34.188  1.00  0.00     0.131 A 
ATOM     93  C   UNL A   1      43.839  40.774  33.560  1.00  0.00     0.055 A 
ATOM     94  C   UNL A   1      45.466  39.632  34.917  1.00  0.00     0.041 A 
ATOM     95  F   UNL A   1      45.945  37.375  34.511  1.00  0.00    -0.206 F 
ATOM     96  C   UNL A   1      44.776  40.798  34.596  1.00  0.00     0.022 A 
BRANCH  93  97
ATOM     97  S   UNL A   1      43.014  42.305  33.046  1.00  0.00     0.124 S 
ATOM     98  O   UNL A   1      41.951  42.425  34.039  1.00  0.00    -0.237 OA
ATOM     99  O   UNL A   1      44.089  43.286  33.142  1.00  0.00    -0.237 OA
ATOM    100  O   UNL A   1      42.563  42.013  31.687  1.00  0.00    -0.744 OA
ENDBRANCH  93  97
ENDBRANCH  67  90
ENDBRANCH  41  42
ENDBRANCH  34  36
ENDBRANCH  33  34
ENDBRANCH  32  33
ENDBRANCH  31  32
ENDBRANCH  30  31
ENDBRANCH  29  30
ENDBRANCH   1  29
TORSDOF 25
ENDMDL
MODEL 3
REMARK VINA RESULT:      -8.0      3.424     11.379
REMARK SMILES Cn1ncc(C(=O)OCCOCCOCCOCCOC(=O)c2ccc(-c3c4nc(c(-c5cc(S(=O)(=O)[O-])ccc5F)c5ccc([nH]5)c(-c5cc(S(=O)(=O)[O-])ccc5F)c5nc(c(-c6cc(S(=O)(=O)[O-])ccc6F)c6ccc3[nH]6)C=C5)C=C4)cc2)c1C(=O)N1CCN(S(C)(=O)=O)CC1
REMARK SMILES IDX 15 1 14 2 13 3 12 4 11 5 10 6 9 7 8 8 6 9 7 10 5 11 1 12
REMARK SMILES IDX 2 13 3 14 86 15 4 16 87 17 88 18 89 19 90 20 98 21 91 22
REMARK SMILES IDX 97 23 92 24 93 25 94 26 95 27 96 28 16 29 17 30 18 31 19 32
REMARK SMILES IDX 20 33 21 34 22 35 23 36 24 37 85 38 25 39 84 40 26 41 27 42
REMARK SMILES IDX 28 43 78 44 29 45 83 46 77 47 79 48 30 49 82 50 76 51 75 52
REMARK SMILES IDX 31 54 63 55 43 56 62 57 44 58 47 59 61 60 80 61 45 62 46 63
REMARK SMILES IDX 60 65 81 66 48 67 32 68 33 69 41 70 34 71 40 72 42 73 39 74
REMARK SMILES IDX 35 75 36 76 37 77 38 78 64 79 65 80 73 81 66 82 72 83 74 84
REMARK SMILES IDX 71 85 67 86 68 87 69 88 70 89 49 90 50 91 58 92 51 93 57 94
REMARK SMILES IDX 59 95 56 96 52 97 53 98 54 99 55 100
REMARK H PARENT 79 53 47 64
REMARK Flexibility Score: inf
ROOT
ATOM      1  C   UNL A   1      45.938  23.673  26.240  1.00  0.00     0.188 C 
ENDROOT
BRANCH   1   2
ATOM      2  O   UNL A   1      47.173  23.712  26.945  1.00  0.00    -0.377 OA
BRANCH   2   3
ATOM      3  C   UNL A   1      47.641  24.939  27.476  1.00  0.00     0.188 C 
BRANCH   3   4
ATOM      4  C   UNL A   1      47.258  25.352  28.909  1.00  0.00     0.188 C 
BRANCH   4   5
ATOM      5  O   UNL A   1      45.990  24.889  29.363  1.00  0.00    -0.376 OA
BRANCH   5   6
ATOM      6  C   UNL A   1      45.484  25.508  30.540  1.00  0.00     0.202 C 
BRANCH   6   7
ATOM      7  C   UNL A   1      46.337  26.689  31.012  1.00  0.00     0.261 C 
BRANCH   7   8
ATOM      8  O   UNL A   1      46.146  26.988  32.399  1.00  0.00    -0.460 OA
BRANCH   8   9
ATOM      9  C   UNL A   1      44.928  27.461  32.758  1.00  0.00     0.342 C 
ATOM     10  O   UNL A   1      44.293  28.303  32.131  1.00  0.00    -0.246 OA
BRANCH   9  11
ATOM     11  C   UNL A   1      44.350  26.704  33.850  1.00  0.00     0.111 A 
ATOM     12  C   UNL A   1      42.623  25.883  36.901  1.00  0.00     0.174 C 
ATOM     13  N   UNL A   1      43.416  26.017  35.703  1.00  0.00    -0.262 N 
ATOM     14  N   UNL A   1      43.569  24.893  34.969  1.00  0.00    -0.180 NA
ATOM     15  C   UNL A   1      43.946  27.146  35.116  1.00  0.00     0.140 A 
ATOM     16  C   UNL A   1      44.073  25.328  33.821  1.00  0.00     0.151 A 
BRANCH  15  17
ATOM     17  C   UNL A   1      43.918  28.538  35.541  1.00  0.00     0.273 C 
ATOM     18  O   UNL A   1      44.931  29.072  35.996  1.00  0.00    -0.267 OA
ATOM     19  N   UNL A   1      42.817  29.341  35.268  1.00  0.00    -0.335 N 
ATOM     20  C   UNL A   1      43.114  30.750  35.020  1.00  0.00     0.136 C 
ATOM     21  C   UNL A   1      41.466  29.108  35.788  1.00  0.00     0.136 C 
ATOM     22  C   UNL A   1      42.122  31.344  34.029  1.00  0.00     0.123 C 
ATOM     23  C   UNL A   1      40.382  29.751  34.895  1.00  0.00     0.123 C 
ATOM     24  N   UNL A   1      40.723  31.136  34.473  1.00  0.00    -0.199 NA
BRANCH  24  25
ATOM     25  S   UNL A   1      39.831  32.442  35.033  1.00  0.00     0.211 S 
ATOM     26  C   UNL A   1      40.629  32.831  36.575  1.00  0.00     0.176 C 
ATOM     27  O   UNL A   1      40.041  33.545  34.121  1.00  0.00    -0.213 OA
ATOM     28  O   UNL A   1      38.497  31.961  35.325  1.00  0.00    -0.213 OA
ENDBRANCH  24  25
ENDBRANCH  15  17
ENDBRANCH   9  11
ENDBRANCH   8   9
ENDBRANCH   7   8
ENDBRANCH   6   7
ENDBRANCH   5   6
ENDBRANCH   4   5
ENDBRANCH   3   4
ENDBRANCH   2   3
ENDBRANCH   1   2
BRANCH   1  29
ATOM     29  C   UNL A   1      45.818  22.900  24.912  1.00  0.00     0.188 C 
BRANCH  29  30
ATOM     30  O   UNL A   1      44.849  21.855  24.915  1.00  0.00    -0.376 OA
BRANCH  30  31
ATOM     31  C   UNL A   1      43.849  21.947  25.921  1.00  0.00     0.202 C 
BRANCH  31  32
ATOM     32  C   UNL A   1      42.702  20.948  25.733  1.00  0.00     0.261 C 
BRANCH  32  33
ATOM     33  O   UNL A   1      41.393  21.537  25.703  1.00  0.00    -0.460 OA
BRANCH  33  34
ATOM     34  C   UNL A   1      40.741  21.625  26.885  1.00  0.00     0.338 C 
ATOM     35  O   UNL A   1      40.312  20.707  27.559  1.00  0.00    -0.246 OA
BRANCH  34  36
ATOM     36  C   UNL A   1      40.783  23.034  27.313  1.00  0.00     0.060 A 
ATOM     37  C   UNL A   1      40.145  24.002  26.529  1.00  0.00     0.016 A 
ATOM     38  C   UNL A   1      41.452  23.391  28.486  1.00  0.00     0.016 A 
ATOM     39  C   UNL A   1      40.205  25.344  26.902  1.00  0.00     0.010 A 
ATOM     40  C   UNL A   1      41.527  24.736  28.848  1.00  0.00     0.010 A 
ATOM     41  C   UNL A   1      40.929  25.719  28.041  1.00  0.00    -0.014 A 
BRANCH  41  42
ATOM     42  C   UNL A   1      41.246  27.146  28.279  1.00  0.00     0.031 A 
ATOM     43  C   UNL A   1      42.659  27.604  28.045  1.00  0.00     0.074 A 
ATOM     44  C   UNL A   1      40.308  28.012  28.702  1.00  0.00     0.049 A 
ATOM     45  N   UNL A   1      43.196  28.780  28.234  1.00  0.00    -0.248 NA
ATOM     46  C   UNL A   1      43.594  26.587  27.531  1.00  0.00     0.031 C 
ATOM     47  C   UNL A   1      38.901  27.688  28.933  1.00  0.00     0.029 A 
ATOM     48  N   UNL A   1      40.406  29.342  29.025  1.00  0.00    -0.354 N 
ATOM     49  C   UNL A   1      44.529  28.649  27.857  1.00  0.00     0.074 A 
ATOM     50  C   UNL A   1      44.726  27.270  27.469  1.00  0.00     0.031 C 
ATOM     51  C   UNL A   1      38.269  28.790  29.375  1.00  0.00     0.029 A 
ATOM     52  C   UNL A   1      39.231  29.885  29.489  1.00  0.00     0.049 A 
ATOM     53  H   UNL A   1      41.239  29.858  28.931  1.00  0.00     0.167 HD
ATOM     54  C   UNL A   1      45.497  29.597  27.829  1.00  0.00     0.034 A 
ATOM     55  C   UNL A   1      38.976  31.118  29.973  1.00  0.00     0.034 A 
ATOM     56  C   UNL A   1      45.296  30.960  28.249  1.00  0.00     0.049 A 
ATOM     57  C   UNL A   1      40.095  32.132  30.023  1.00  0.00     0.074 A 
ATOM     58  C   UNL A   1      46.204  32.003  28.259  1.00  0.00     0.029 A 
ATOM     59  N   UNL A   1      44.103  31.465  28.751  1.00  0.00    -0.354 N 
ATOM     60  N   UNL A   1      41.347  32.003  29.645  1.00  0.00    -0.248 NA
ATOM     61  C   UNL A   1      39.764  33.459  30.560  1.00  0.00     0.031 C 
ATOM     62  C   UNL A   1      45.580  33.121  28.828  1.00  0.00     0.029 A 
ATOM     63  C   UNL A   1      44.262  32.795  29.107  1.00  0.00     0.049 A 
ATOM     64  H   UNL A   1      43.268  30.954  28.842  1.00  0.00     0.167 HD
ATOM     65  C   UNL A   1      41.942  33.243  29.872  1.00  0.00     0.074 A 
ATOM     66  C   UNL A   1      40.911  34.106  30.408  1.00  0.00     0.031 C 
ATOM     67  C   UNL A   1      43.224  33.637  29.652  1.00  0.00     0.034 A 
BRANCH  54  68
ATOM     68  C   UNL A   1      46.868  29.161  27.378  1.00  0.00     0.023 A 
ATOM     69  C   UNL A   1      47.107  28.732  26.060  1.00  0.00     0.031 A 
ATOM     70  C   UNL A   1      47.938  29.130  28.287  1.00  0.00     0.131 A 
ATOM     71  C   UNL A   1      48.366  28.224  25.708  1.00  0.00     0.055 A 
ATOM     72  C   UNL A   1      49.210  28.694  27.911  1.00  0.00     0.041 A 
ATOM     73  F   UNL A   1      47.762  29.504  29.564  1.00  0.00    -0.206 F 
ATOM     74  C   UNL A   1      49.426  28.224  26.618  1.00  0.00     0.022 A 
BRANCH  71  75
ATOM     75  S   UNL A   1      48.561  27.438  24.085  1.00  0.00     0.124 S 
ATOM     76  O   UNL A   1      47.263  27.704  23.470  1.00  0.00    -0.237 OA
ATOM     77  O   UNL A   1      49.697  28.157  23.520  1.00  0.00    -0.237 OA
ATOM     78  O   UNL A   1      48.811  26.035  24.412  1.00  0.00    -0.744 OA
ENDBRANCH  71  75
ENDBRANCH  54  68
BRANCH  55  79
ATOM     79  C   UNL A   1      37.622  31.464  30.496  1.00  0.00     0.023 A 
ATOM     80  C   UNL A   1      36.693  32.155  29.704  1.00  0.00     0.031 A 
ATOM     81  C   UNL A   1      37.268  31.168  31.824  1.00  0.00     0.131 A 
ATOM     82  C   UNL A   1      35.474  32.573  30.261  1.00  0.00     0.055 A 
ATOM     83  C   UNL A   1      36.034  31.542  32.358  1.00  0.00     0.041 A 
ATOM     84  F   UNL A   1      38.119  30.509  32.625  1.00  0.00    -0.206 F 
ATOM     85  C   UNL A   1      35.134  32.263  31.579  1.00  0.00     0.022 A 
BRANCH  82  86
ATOM     86  S   UNL A   1      34.372  33.610  29.259  1.00  0.00     0.124 S 
ATOM     87  O   UNL A   1      33.772  32.628  28.365  1.00  0.00    -0.237 OA
ATOM     88  O   UNL A   1      33.490  34.180  30.273  1.00  0.00    -0.237 OA
ATOM     89  O   UNL A   1      35.283  34.561  28.624  1.00  0.00    -0.744 OA
ENDBRANCH  82  86
ENDBRANCH  55  79
BRANCH  67  90
ATOM     90  C   UNL A   1      43.562  35.076  29.954  1.00  0.00     0.023 A 
ATOM     91  C   UNL A   1      43.835  35.512  31.263  1.00  0.00     0.031 A 
ATOM     92  C   UNL A   1      43.610  36.021  28.916  1.00  0.00     0.131 A 
ATOM     93  C   UNL A   1      44.098  36.870  31.504  1.00  0.00     0.055 A 
ATOM     94  C   UNL A   1      43.925  37.359  29.154  1.00  0.00     0.041 A 
ATOM     95  F   UNL A   1      43.358  35.658  27.647  1.00  0.00    -0.206 F 
ATOM     96  C   UNL A   1      44.159  37.793  30.456  1.00  0.00     0.022 A 
BRANCH  93  97
ATOM     97  S   UNL A   1      44.283  37.430  33.219  1.00  0.00     0.124 S 
ATOM     98  O   UNL A   1      44.313  36.167  33.950  1.00  0.00    -0.237 OA
ATOM     99  O   UNL A   1      45.540  38.169  33.172  1.00  0.00    -0.237 OA
ATOM    100  O   UNL A   1      43.092  38.249  33.443  1.00  0.00    -0.744 OA
ENDBRANCH  93  97
ENDBRANCH  67  90
ENDBRANCH  41  42
ENDBRANCH  34  36
ENDBRANCH  33  34
ENDBRANCH  32  33
ENDBRANCH  31  32
ENDBRANCH  30  31
ENDBRANCH  29  30
ENDBRANCH   1  29
TORSDOF 25
ENDMDL
