MODEL 1
REMARK VINA RESULT:     -10.3      0.000      0.000
REMARK SMILES C[C@]1(C(=O)OCCOCCOCCOCCOC(=O)c2ccc(-c3c4nc(c(-c5cc(S(=O)(=O)[O-])ccc5F)c5ccc([nH]5)c(-c5cc(S(=O)(=O)[O-])ccc5F)c5nc(c(-c6cc(S(=O)(=O)[O-])ccc6F)c6ccc3[nH]6)C=C5)C=C4)cc2)[NH2+]C2(C(=O)c3ccccc3C2=O)[C@@H]2C(=O)N(c3ccccc3)C(=O)[C@H]21
REMARK SMILES IDX 12 1 11 2 10 3 9 4 8 5 7 6 6 7 5 8 3 9 4 10 2 11 1 12 83 13
REMARK SMILES IDX 107 14 84 15 95 18 105 19 85 20 93 21 96 22 98 23 106 24
REMARK SMILES IDX 86 25 87 26 92 27 94 28 97 29 88 30 91 31 89 32 90 33 99 34
REMARK SMILES IDX 100 35 104 36 101 37 103 38 102 39 13 40 14 41 15 42 16 43
REMARK SMILES IDX 17 44 18 45 19 46 20 47 21 48 82 49 22 50 81 51 23 52 24 53
REMARK SMILES IDX 25 54 75 55 26 56 80 57 74 58 76 59 27 60 79 61 73 62 72 63
REMARK SMILES IDX 28 65 60 66 40 67 59 68 41 69 44 70 58 71 77 72 42 73 43 74
REMARK SMILES IDX 57 76 78 77 45 78 29 79 30 80 38 81 31 82 37 83 39 84 36 85
REMARK SMILES IDX 32 86 33 87 34 88 35 89 61 90 62 91 70 92 63 93 69 94 71 95
REMARK SMILES IDX 68 96 64 97 65 98 66 99 67 100 46 101 47 102 55 103 48 104
REMARK SMILES IDX 54 105 56 106 53 107 49 108 50 109 51 110 52 111
REMARK H PARENT 83 16 83 17 76 64 44 75
REMARK Flexibility Score: inf
ROOT
ATOM      1  C   UNL A   1      34.640  21.956  25.269  1.00  0.00     0.188 C 
ENDROOT
BRANCH   1   2
ATOM      2  O   UNL A   1      34.358  21.973  23.880  1.00  0.00    -0.377 OA
BRANCH   2   3
ATOM      3  C   UNL A   1      33.006  21.929  23.495  1.00  0.00     0.188 C 
BRANCH   3   4
ATOM      4  C   UNL A   1      32.722  22.585  22.138  1.00  0.00     0.188 C 
BRANCH   4   5
ATOM      5  O   UNL A   1      33.408  23.751  21.703  1.00  0.00    -0.376 OA
BRANCH   5   6
ATOM      6  C   UNL A   1      32.831  24.705  20.822  1.00  0.00     0.202 C 
BRANCH   6   7
ATOM      7  C   UNL A   1      32.060  25.948  21.292  1.00  0.00     0.261 C 
BRANCH   7   8
ATOM      8  O   UNL A   1      32.832  27.083  21.696  1.00  0.00    -0.459 OA
BRANCH   8   9
ATOM      9  C   UNL A   1      32.364  27.770  22.760  1.00  0.00     0.368 C 
ATOM     10  O   UNL A   1      31.177  28.024  22.927  1.00  0.00    -0.245 OA
BRANCH   9  11
ATOM     11  C   UNL A   1      33.489  28.285  23.710  1.00  0.00     0.205 C 
ATOM     12  C   UNL A   1      34.802  28.176  22.930  1.00  0.00     0.093 C 
ATOM     13  N   UNL A   1      33.378  29.723  24.226  1.00  0.00    -0.313 N 
ATOM     14  C   UNL A   1      33.419  27.519  25.001  1.00  0.00     0.172 C 
ATOM     15  C   UNL A   1      32.933  29.699  25.682  1.00  0.00     0.237 C 
ATOM     16  H   UNL A   1      32.693  30.234  23.668  1.00  0.00     0.348 HD
ATOM     17  H   UNL A   1      34.284  30.186  24.151  1.00  0.00     0.348 HD
ATOM     18  C   UNL A   1      32.370  28.329  25.755  1.00  0.00     0.177 C 
ATOM     19  C   UNL A   1      32.863  26.146  25.131  1.00  0.00     0.244 C 
ATOM     20  C   UNL A   1      34.111  30.032  26.603  1.00  0.00     0.232 C 
ATOM     21  C   UNL A   1      31.946  30.837  25.973  1.00  0.00     0.232 C 
ATOM     22  C   UNL A   1      32.088  27.423  26.886  1.00  0.00     0.245 C 
ATOM     23  N   UNL A   1      32.104  26.162  26.296  1.00  0.00    -0.250 N 
ATOM     24  O   UNL A   1      33.122  25.235  24.364  1.00  0.00    -0.273 OA
ATOM     25  O   UNL A   1      35.178  29.447  26.681  1.00  0.00    -0.286 OA
ATOM     26  C   UNL A   1      33.821  31.282  27.303  1.00  0.00     0.036 A 
ATOM     27  C   UNL A   1      32.577  31.764  26.920  1.00  0.00     0.036 A 
ATOM     28  O   UNL A   1      30.819  30.998  25.543  1.00  0.00    -0.286 OA
ATOM     29  O   UNL A   1      31.814  27.778  28.021  1.00  0.00    -0.273 OA
ATOM     30  C   UNL A   1      34.629  31.971  28.191  1.00  0.00     0.013 A 
ATOM     31  C   UNL A   1      32.089  32.964  27.408  1.00  0.00     0.013 A 
ATOM     32  C   UNL A   1      34.150  33.182  28.700  1.00  0.00     0.001 A 
ATOM     33  C   UNL A   1      32.890  33.675  28.309  1.00  0.00     0.001 A 
BRANCH  23  34
ATOM     34  C   UNL A   1      31.283  25.078  26.665  1.00  0.00     0.052 A 
ATOM     35  C   UNL A   1      31.842  23.826  26.948  1.00  0.00     0.027 A 
ATOM     36  C   UNL A   1      29.889  25.197  26.573  1.00  0.00     0.027 A 
ATOM     37  C   UNL A   1      31.030  22.707  27.123  1.00  0.00     0.002 A 
ATOM     38  C   UNL A   1      29.079  24.067  26.708  1.00  0.00     0.002 A 
ATOM     39  C   UNL A   1      29.650  22.825  26.986  1.00  0.00     0.000 A 
ENDBRANCH  23  34
ENDBRANCH   9  11
ENDBRANCH   8   9
ENDBRANCH   7   8
ENDBRANCH   6   7
ENDBRANCH   5   6
ENDBRANCH   4   5
ENDBRANCH   3   4
ENDBRANCH   2   3
ENDBRANCH   1   2
BRANCH   1  40
ATOM     40  C   UNL A   1      36.099  21.688  25.692  1.00  0.00     0.188 C 
BRANCH  40  41
ATOM     41  O   UNL A   1      36.922  21.168  24.656  1.00  0.00    -0.376 OA
BRANCH  41  42
ATOM     42  C   UNL A   1      37.561  19.916  24.840  1.00  0.00     0.202 C 
BRANCH  42  43
ATOM     43  C   UNL A   1      38.957  19.873  25.486  1.00  0.00     0.261 C 
BRANCH  43  44
ATOM     44  O   UNL A   1      39.439  21.073  26.103  1.00  0.00    -0.460 OA
BRANCH  44  45
ATOM     45  C   UNL A   1      40.368  20.975  27.080  1.00  0.00     0.338 C 
ATOM     46  O   UNL A   1      40.845  19.953  27.531  1.00  0.00    -0.246 OA
BRANCH  45  47
ATOM     47  C   UNL A   1      40.852  22.352  27.351  1.00  0.00     0.060 A 
ATOM     48  C   UNL A   1      41.813  22.580  28.339  1.00  0.00     0.016 A 
ATOM     49  C   UNL A   1      40.291  23.429  26.652  1.00  0.00     0.016 A 
ATOM     50  C   UNL A   1      42.230  23.887  28.610  1.00  0.00     0.010 A 
ATOM     51  C   UNL A   1      40.698  24.736  26.937  1.00  0.00     0.010 A 
ATOM     52  C   UNL A   1      41.685  24.974  27.904  1.00  0.00    -0.014 A 
BRANCH  52  53
ATOM     53  C   UNL A   1      42.268  26.332  28.061  1.00  0.00     0.031 A 
ATOM     54  C   UNL A   1      41.525  27.443  28.739  1.00  0.00     0.074 A 
ATOM     55  C   UNL A   1      43.494  26.552  27.548  1.00  0.00     0.049 A 
ATOM     56  N   UNL A   1      41.927  28.665  28.980  1.00  0.00    -0.248 NA
ATOM     57  C   UNL A   1      40.161  27.155  29.202  1.00  0.00     0.031 C 
ATOM     58  C   UNL A   1      44.288  25.548  26.842  1.00  0.00     0.029 A 
ATOM     59  N   UNL A   1      44.286  27.675  27.533  1.00  0.00    -0.354 N 
ATOM     60  C   UNL A   1      40.875  29.294  29.634  1.00  0.00     0.074 A 
ATOM     61  C   UNL A   1      39.797  28.328  29.710  1.00  0.00     0.031 C 
ATOM     62  C   UNL A   1      45.460  26.089  26.481  1.00  0.00     0.029 A 
ATOM     63  C   UNL A   1      45.489  27.492  26.890  1.00  0.00     0.049 A 
ATOM     64  H   UNL A   1      44.018  28.529  27.943  1.00  0.00     0.167 HD
ATOM     65  C   UNL A   1      40.829  30.550  30.137  1.00  0.00     0.034 A 
ATOM     66  C   UNL A   1      46.503  28.350  26.648  1.00  0.00     0.034 A 
ATOM     67  C   UNL A   1      41.918  31.494  30.046  1.00  0.00     0.049 A 
ATOM     68  C   UNL A   1      46.411  29.755  27.188  1.00  0.00     0.074 A 
ATOM     69  C   UNL A   1      41.984  32.771  30.576  1.00  0.00     0.029 A 
ATOM     70  N   UNL A   1      43.118  31.280  29.382  1.00  0.00    -0.354 N 
ATOM     71  N   UNL A   1      45.454  30.300  27.901  1.00  0.00    -0.248 NA
ATOM     72  C   UNL A   1      47.536  30.661  26.912  1.00  0.00     0.031 C 
ATOM     73  C   UNL A   1      43.178  33.358  30.160  1.00  0.00     0.029 A 
ATOM     74  C   UNL A   1      43.911  32.414  29.457  1.00  0.00     0.049 A 
ATOM     75  H   UNL A   1      43.370  30.444  28.925  1.00  0.00     0.167 HD
ATOM     76  C   UNL A   1      45.874  31.596  28.186  1.00  0.00     0.074 A 
ATOM     77  C   UNL A   1      47.180  31.750  27.582  1.00  0.00     0.031 C 
ATOM     78  C   UNL A   1      45.230  32.563  28.885  1.00  0.00     0.034 A 
BRANCH  65  79
ATOM     79  C   UNL A   1      39.585  31.007  30.868  1.00  0.00     0.023 A 
ATOM     80  C   UNL A   1      39.599  31.140  32.270  1.00  0.00     0.031 A 
ATOM     81  C   UNL A   1      38.352  31.131  30.203  1.00  0.00     0.131 A 
ATOM     82  C   UNL A   1      38.398  31.339  32.964  1.00  0.00     0.055 A 
ATOM     83  C   UNL A   1      37.166  31.380  30.895  1.00  0.00     0.041 A 
ATOM     84  F   UNL A   1      38.281  30.998  28.868  1.00  0.00    -0.206 F 
ATOM     85  C   UNL A   1      37.184  31.469  32.284  1.00  0.00     0.022 A 
BRANCH  82  86
ATOM     86  S   UNL A   1      38.352  31.352  34.778  1.00  0.00     0.124 S 
ATOM     87  O   UNL A   1      39.581  32.074  35.101  1.00  0.00    -0.237 OA
ATOM     88  O   UNL A   1      37.115  32.079  35.047  1.00  0.00    -0.237 OA
ATOM     89  O   UNL A   1      38.348  29.940  35.140  1.00  0.00    -0.744 OA
ENDBRANCH  82  86
ENDBRANCH  65  79
BRANCH  66  90
ATOM     90  C   UNL A   1      47.704  27.861  25.912  1.00  0.00     0.023 A 
ATOM     91  C   UNL A   1      47.807  28.015  24.516  1.00  0.00     0.031 A 
ATOM     92  C   UNL A   1      48.707  27.131  26.569  1.00  0.00     0.131 A 
ATOM     93  C   UNL A   1      48.841  27.380  23.818  1.00  0.00     0.055 A 
ATOM     94  C   UNL A   1      49.782  26.567  25.878  1.00  0.00     0.041 A 
ATOM     95  F   UNL A   1      48.647  26.942  27.897  1.00  0.00    -0.206 F 
ATOM     96  C   UNL A   1      49.842  26.674  24.493  1.00  0.00     0.022 A 
BRANCH  93  97
ATOM     97  S   UNL A   1      48.841  27.326  22.004  1.00  0.00     0.124 S 
ATOM     98  O   UNL A   1      50.135  27.919  21.681  1.00  0.00    -0.237 OA
ATOM     99  O   UNL A   1      48.721  25.893  21.750  1.00  0.00    -0.237 OA
ATOM    100  O   UNL A   1      47.674  28.120  21.636  1.00  0.00    -0.744 OA
ENDBRANCH  93  97
ENDBRANCH  66  90
BRANCH  78 101
ATOM    101  C   UNL A   1      45.902  33.902  29.090  1.00  0.00     0.023 A 
ATOM    102  C   UNL A   1      45.726  34.919  28.129  1.00  0.00     0.031 A 
ATOM    103  C   UNL A   1      46.868  34.095  30.090  1.00  0.00     0.131 A 
ATOM    104  C   UNL A   1      46.559  36.044  28.142  1.00  0.00     0.055 A 
ATOM    105  C   UNL A   1      47.656  35.247  30.134  1.00  0.00     0.041 A 
ATOM    106  F   UNL A   1      47.081  33.154  31.023  1.00  0.00    -0.206 F 
ATOM    107  C   UNL A   1      47.518  36.218  29.144  1.00  0.00     0.022 A 
BRANCH 104 108
ATOM    108  S   UNL A   1      46.512  37.257  26.793  1.00  0.00     0.124 S 
ATOM    109  O   UNL A   1      45.218  37.900  27.006  1.00  0.00    -0.237 OA
ATOM    110  O   UNL A   1      47.677  38.087  27.088  1.00  0.00    -0.237 OA
ATOM    111  O   UNL A   1      46.607  36.444  25.585  1.00  0.00    -0.744 OA
ENDBRANCH 104 108
ENDBRANCH  78 101
ENDBRANCH  52  53
ENDBRANCH  45  47
ENDBRANCH  44  45
ENDBRANCH  43  44
ENDBRANCH  42  43
ENDBRANCH  41  42
ENDBRANCH  40  41
ENDBRANCH   1  40
TORSDOF 24
ENDMDL
MODEL 2
REMARK VINA RESULT:     -10.0      0.415      7.067
REMARK SMILES C[C@]1(C(=O)OCCOCCOCCOCCOC(=O)c2ccc(-c3c4nc(c(-c5cc(S(=O)(=O)[O-])ccc5F)c5ccc([nH]5)c(-c5cc(S(=O)(=O)[O-])ccc5F)c5nc(c(-c6cc(S(=O)(=O)[O-])ccc6F)c6ccc3[nH]6)C=C5)C=C4)cc2)[NH2+]C2(C(=O)c3ccccc3C2=O)[C@@H]2C(=O)N(c3ccccc3)C(=O)[C@H]21
REMARK SMILES IDX 12 1 11 2 10 3 9 4 8 5 7 6 6 7 5 8 3 9 4 10 2 11 1 12 83 13
REMARK SMILES IDX 107 14 84 15 95 18 105 19 85 20 93 21 96 22 98 23 106 24
REMARK SMILES IDX 86 25 87 26 92 27 94 28 97 29 88 30 91 31 89 32 90 33 99 34
REMARK SMILES IDX 100 35 104 36 101 37 103 38 102 39 13 40 14 41 15 42 16 43
REMARK SMILES IDX 17 44 18 45 19 46 20 47 21 48 82 49 22 50 81 51 23 52 24 53
REMARK SMILES IDX 25 54 75 55 26 56 80 57 74 58 76 59 27 60 79 61 73 62 72 63
REMARK SMILES IDX 28 65 60 66 40 67 59 68 41 69 44 70 58 71 77 72 42 73 43 74
REMARK SMILES IDX 57 76 78 77 45 78 29 79 30 80 38 81 31 82 37 83 39 84 36 85
REMARK SMILES IDX 32 86 33 87 34 88 35 89 61 90 62 91 70 92 63 93 69 94 71 95
REMARK SMILES IDX 68 96 64 97 65 98 66 99 67 100 46 101 47 102 55 103 48 104
REMARK SMILES IDX 54 105 56 106 53 107 49 108 50 109 51 110 52 111
REMARK H PARENT 83 16 83 17 76 64 44 75
REMARK Flexibility Score: inf
ROOT
ATOM      1  C   UNL A   1      34.739  22.181  25.269  1.00  0.00     0.188 C 
ENDROOT
BRANCH   1   2
ATOM      2  O   UNL A   1      34.481  22.187  23.876  1.00  0.00    -0.377 OA
BRANCH   2   3
ATOM      3  C   UNL A   1      33.188  21.825  23.456  1.00  0.00     0.188 C 
BRANCH   3   4
ATOM      4  C   UNL A   1      32.681  22.615  22.243  1.00  0.00     0.188 C 
BRANCH   4   5
ATOM      5  O   UNL A   1      33.266  23.848  21.845  1.00  0.00    -0.376 OA
BRANCH   5   6
ATOM      6  C   UNL A   1      32.677  24.706  20.877  1.00  0.00     0.202 C 
BRANCH   6   7
ATOM      7  C   UNL A   1      32.041  26.064  21.211  1.00  0.00     0.261 C 
BRANCH   7   8
ATOM      8  O   UNL A   1      32.903  27.081  21.729  1.00  0.00    -0.459 OA
BRANCH   8   9
ATOM      9  C   UNL A   1      32.425  27.789  22.775  1.00  0.00     0.368 C 
ATOM     10  O   UNL A   1      31.237  28.048  22.924  1.00  0.00    -0.245 OA
BRANCH   9  11
ATOM     11  C   UNL A   1      33.541  28.319  23.728  1.00  0.00     0.205 C 
ATOM     12  C   UNL A   1      34.858  28.228  22.950  1.00  0.00     0.093 C 
ATOM     13  N   UNL A   1      33.410  29.756  24.241  1.00  0.00    -0.313 N 
ATOM     14  C   UNL A   1      33.478  27.554  25.018  1.00  0.00     0.172 C 
ATOM     15  C   UNL A   1      32.962  29.728  25.696  1.00  0.00     0.237 C 
ATOM     16  H   UNL A   1      32.719  30.257  23.681  1.00  0.00     0.348 HD
ATOM     17  H   UNL A   1      34.310  30.231  24.168  1.00  0.00     0.348 HD
ATOM     18  C   UNL A   1      32.417  28.351  25.770  1.00  0.00     0.177 C 
ATOM     19  C   UNL A   1      32.940  26.173  25.148  1.00  0.00     0.244 C 
ATOM     20  C   UNL A   1      34.132  30.077  26.620  1.00  0.00     0.232 C 
ATOM     21  C   UNL A   1      31.958  30.853  25.984  1.00  0.00     0.232 C 
ATOM     22  C   UNL A   1      32.144  27.441  26.900  1.00  0.00     0.245 C 
ATOM     23  N   UNL A   1      32.178  26.180  26.311  1.00  0.00    -0.250 N 
ATOM     24  O   UNL A   1      33.213  25.266  24.383  1.00  0.00    -0.273 OA
ATOM     25  O   UNL A   1      35.207  29.507  26.701  1.00  0.00    -0.286 OA
ATOM     26  C   UNL A   1      33.823  31.324  27.318  1.00  0.00     0.036 A 
ATOM     27  C   UNL A   1      32.574  31.788  26.932  1.00  0.00     0.036 A 
ATOM     28  O   UNL A   1      30.831  30.998  25.551  1.00  0.00    -0.286 OA
ATOM     29  O   UNL A   1      31.862  27.793  28.034  1.00  0.00    -0.273 OA
ATOM     30  C   UNL A   1      34.621  32.024  28.208  1.00  0.00     0.013 A 
ATOM     31  C   UNL A   1      32.069  32.982  27.417  1.00  0.00     0.013 A 
ATOM     32  C   UNL A   1      34.124  33.229  28.715  1.00  0.00     0.001 A 
ATOM     33  C   UNL A   1      32.859  33.705  28.320  1.00  0.00     0.001 A 
BRANCH  23  34
ATOM     34  C   UNL A   1      31.370  25.086  26.679  1.00  0.00     0.052 A 
ATOM     35  C   UNL A   1      31.946  23.842  26.966  1.00  0.00     0.027 A 
ATOM     36  C   UNL A   1      29.975  25.186  26.582  1.00  0.00     0.027 A 
ATOM     37  C   UNL A   1      31.148  22.713  27.141  1.00  0.00     0.002 A 
ATOM     38  C   UNL A   1      29.181  24.044  26.715  1.00  0.00     0.002 A 
ATOM     39  C   UNL A   1      29.767  22.811  26.998  1.00  0.00     0.000 A 
ENDBRANCH  23  34
ENDBRANCH   9  11
ENDBRANCH   8   9
ENDBRANCH   7   8
ENDBRANCH   6   7
ENDBRANCH   5   6
ENDBRANCH   4   5
ENDBRANCH   3   4
ENDBRANCH   2   3
ENDBRANCH   1   2
BRANCH   1  40
ATOM     40  C   UNL A   1      36.194  21.933  25.719  1.00  0.00     0.188 C 
BRANCH  40  41
ATOM     41  O   UNL A   1      37.038  21.410  24.702  1.00  0.00    -0.376 OA
BRANCH  41  42
ATOM     42  C   UNL A   1      37.598  20.117  24.862  1.00  0.00     0.202 C 
BRANCH  42  43
ATOM     43  C   UNL A   1      38.955  19.968  25.572  1.00  0.00     0.261 C 
BRANCH  43  44
ATOM     44  O   UNL A   1      39.525  21.142  26.164  1.00  0.00    -0.460 OA
BRANCH  44  45
ATOM     45  C   UNL A   1      40.591  21.005  26.985  1.00  0.00     0.338 C 
ATOM     46  O   UNL A   1      41.138  19.968  27.300  1.00  0.00    -0.246 OA
BRANCH  45  47
ATOM     47  C   UNL A   1      41.098  22.373  27.260  1.00  0.00     0.060 A 
ATOM     48  C   UNL A   1      41.696  22.669  28.487  1.00  0.00     0.016 A 
ATOM     49  C   UNL A   1      40.914  23.381  26.303  1.00  0.00     0.016 A 
ATOM     50  C   UNL A   1      42.133  23.972  28.747  1.00  0.00     0.010 A 
ATOM     51  C   UNL A   1      41.338  24.686  26.572  1.00  0.00     0.010 A 
ATOM     52  C   UNL A   1      41.969  24.988  27.788  1.00  0.00    -0.014 A 
BRANCH  52  53
ATOM     53  C   UNL A   1      42.604  26.315  27.993  1.00  0.00     0.031 A 
ATOM     54  C   UNL A   1      44.012  26.598  27.563  1.00  0.00     0.074 A 
ATOM     55  C   UNL A   1      41.880  27.270  28.609  1.00  0.00     0.049 A 
ATOM     56  N   UNL A   1      44.680  27.720  27.645  1.00  0.00    -0.248 NA
ATOM     57  C   UNL A   1      44.771  25.486  26.973  1.00  0.00     0.031 C 
ATOM     58  C   UNL A   1      40.513  27.087  29.094  1.00  0.00     0.029 A 
ATOM     59  N   UNL A   1      42.180  28.571  28.934  1.00  0.00    -0.354 N 
ATOM     60  C   UNL A   1      45.934  27.461  27.107  1.00  0.00     0.074 A 
ATOM     61  C   UNL A   1      45.949  26.058  26.743  1.00  0.00     0.031 C 
ATOM     62  C   UNL A   1      40.083  28.235  29.635  1.00  0.00     0.029 A 
ATOM     63  C   UNL A   1      41.155  29.227  29.578  1.00  0.00     0.049 A 
ATOM     64  H   UNL A   1      43.045  28.992  28.728  1.00  0.00     0.167 HD
ATOM     65  C   UNL A   1      46.963  28.322  26.918  1.00  0.00     0.034 A 
ATOM     66  C   UNL A   1      41.081  30.481  30.072  1.00  0.00     0.034 A 
ATOM     67  C   UNL A   1      46.922  29.717  27.291  1.00  0.00     0.049 A 
ATOM     68  C   UNL A   1      42.253  31.410  29.881  1.00  0.00     0.074 A 
ATOM     69  C   UNL A   1      47.895  30.680  27.088  1.00  0.00     0.029 A 
ATOM     70  N   UNL A   1      45.873  30.347  27.947  1.00  0.00    -0.354 N 
ATOM     71  N   UNL A   1      43.391  31.180  29.270  1.00  0.00    -0.248 NA
ATOM     72  C   UNL A   1      42.134  32.770  30.427  1.00  0.00     0.031 C 
ATOM     73  C   UNL A   1      47.476  31.863  27.695  1.00  0.00     0.029 A 
ATOM     74  C   UNL A   1      46.194  31.674  28.189  1.00  0.00     0.049 A 
ATOM     75  H   UNL A   1      45.026  29.915  28.202  1.00  0.00     0.167 HD
ATOM     76  C   UNL A   1      44.108  32.372  29.328  1.00  0.00     0.074 A 
ATOM     77  C   UNL A   1      43.269  33.327  30.020  1.00  0.00     0.031 C 
ATOM     78  C   UNL A   1      45.347  32.642  28.848  1.00  0.00     0.034 A 
BRANCH  65  79
ATOM     79  C   UNL A   1      48.228  27.827  26.254  1.00  0.00     0.023 A 
ATOM     80  C   UNL A   1      48.367  27.902  24.854  1.00  0.00     0.031 A 
ATOM     81  C   UNL A   1      49.204  27.121  26.978  1.00  0.00     0.131 A 
ATOM     82  C   UNL A   1      49.428  27.242  24.221  1.00  0.00     0.055 A 
ATOM     83  C   UNL A   1      50.288  26.508  26.348  1.00  0.00     0.041 A 
ATOM     84  F   UNL A   1      49.111  27.005  28.314  1.00  0.00    -0.206 F 
ATOM     85  C   UNL A   1      50.394  26.553  24.961  1.00  0.00     0.022 A 
BRANCH  82  86
ATOM     86  S   UNL A   1      49.551  27.178  22.412  1.00  0.00     0.124 S 
ATOM     87  O   UNL A   1      49.039  28.494  22.033  1.00  0.00    -0.237 OA
ATOM     88  O   UNL A   1      50.984  26.987  22.209  1.00  0.00    -0.237 OA
ATOM     89  O   UNL A   1      48.703  26.052  22.041  1.00  0.00    -0.744 OA
ENDBRANCH  82  86
ENDBRANCH  65  79
BRANCH  66  90
ATOM     90  C   UNL A   1      39.818  30.924  30.732  1.00  0.00     0.023 A 
ATOM     91  C   UNL A   1      39.755  31.093  32.128  1.00  0.00     0.031 A 
ATOM     92  C   UNL A   1      38.630  31.068  29.997  1.00  0.00     0.131 A 
ATOM     93  C   UNL A   1      38.520  31.316  32.749  1.00  0.00     0.055 A 
ATOM     94  C   UNL A   1      37.414  31.371  30.613  1.00  0.00     0.041 A 
ATOM     95  F   UNL A   1      38.633  30.901  28.665  1.00  0.00    -0.206 F 
ATOM     96  C   UNL A   1      37.352  31.477  31.999  1.00  0.00     0.022 A 
BRANCH  93  97
ATOM     97  S   UNL A   1      38.367  31.258  34.557  1.00  0.00     0.124 S 
ATOM     98  O   UNL A   1      38.335  29.822  34.815  1.00  0.00    -0.237 OA
ATOM     99  O   UNL A   1      39.582  31.950  34.979  1.00  0.00    -0.237 OA
ATOM    100  O   UNL A   1      37.123  31.974  34.820  1.00  0.00    -0.744 OA
ENDBRANCH  93  97
ENDBRANCH  66  90
BRANCH  78 101
ATOM    101  C   UNL A   1      45.917  34.033  29.008  1.00  0.00     0.023 A 
ATOM    102  C   UNL A   1      45.975  34.890  27.890  1.00  0.00     0.031 A 
ATOM    103  C   UNL A   1      46.589  34.423  30.177  1.00  0.00     0.131 A 
ATOM    104  C   UNL A   1      46.754  36.052  27.940  1.00  0.00     0.055 A 
ATOM    105  C   UNL A   1      47.316  35.613  30.242  1.00  0.00     0.041 A 
ATOM    106  F   UNL A   1      46.573  33.639  31.267  1.00  0.00    -0.206 F 
ATOM    107  C   UNL A   1      47.419  36.423  29.113  1.00  0.00     0.022 A 
BRANCH 104 108
ATOM    108  S   UNL A   1      47.034  37.055  26.454  1.00  0.00     0.124 S 
ATOM    109  O   UNL A   1      46.038  38.113  26.609  1.00  0.00    -0.237 OA
ATOM    110  O   UNL A   1      48.421  37.476  26.625  1.00  0.00    -0.237 OA
ATOM    111  O   UNL A   1      46.787  36.130  25.353  1.00  0.00    -0.744 OA
ENDBRANCH 104 108
ENDBRANCH  78 101
ENDBRANCH  52  53
ENDBRANCH  45  47
ENDBRANCH  44  45
ENDBRANCH  43  44
ENDBRANCH  42  43
ENDBRANCH  41  42
ENDBRANCH  40  41
ENDBRANCH   1  40
TORSDOF 24
ENDMDL
MODEL 3
REMARK VINA RESULT:      -9.8      2.026      7.558
REMARK SMILES C[C@]1(C(=O)OCCOCCOCCOCCOC(=O)c2ccc(-c3c4nc(c(-c5cc(S(=O)(=O)[O-])ccc5F)c5ccc([nH]5)c(-c5cc(S(=O)(=O)[O-])ccc5F)c5nc(c(-c6cc(S(=O)(=O)[O-])ccc6F)c6ccc3[nH]6)C=C5)C=C4)cc2)[NH2+]C2(C(=O)c3ccccc3C2=O)[C@@H]2C(=O)N(c3ccccc3)C(=O)[C@H]21
REMARK SMILES IDX 12 1 11 2 10 3 9 4 8 5 7 6 6 7 5 8 3 9 4 10 2 11 1 12 83 13
REMARK SMILES IDX 107 14 84 15 95 18 105 19 85 20 93 21 96 22 98 23 106 24
REMARK SMILES IDX 86 25 87 26 92 27 94 28 97 29 88 30 91 31 89 32 90 33 99 34
REMARK SMILES IDX 100 35 104 36 101 37 103 38 102 39 13 40 14 41 15 42 16 43
REMARK SMILES IDX 17 44 18 45 19 46 20 47 21 48 82 49 22 50 81 51 23 52 24 53
REMARK SMILES IDX 25 54 75 55 26 56 80 57 74 58 76 59 27 60 79 61 73 62 72 63
REMARK SMILES IDX 28 65 60 66 40 67 59 68 41 69 44 70 58 71 77 72 42 73 43 74
REMARK SMILES IDX 57 76 78 77 45 78 29 79 30 80 38 81 31 82 37 83 39 84 36 85
REMARK SMILES IDX 32 86 33 87 34 88 35 89 61 90 62 91 70 92 63 93 69 94 71 95
REMARK SMILES IDX 68 96 64 97 65 98 66 99 67 100 46 101 47 102 55 103 48 104
REMARK SMILES IDX 54 105 56 106 53 107 49 108 50 109 51 110 52 111
REMARK H PARENT 83 16 83 17 76 64 44 75
REMARK Flexibility Score: inf
ROOT
ATOM      1  C   UNL A   1      32.724  21.568  24.763  1.00  0.00     0.188 C 
ENDROOT
BRANCH   1   2
ATOM      2  O   UNL A   1      32.850  22.441  23.654  1.00  0.00    -0.377 OA
BRANCH   2   3
ATOM      3  C   UNL A   1      32.210  22.065  22.459  1.00  0.00     0.188 C 
BRANCH   3   4
ATOM      4  C   UNL A   1      32.862  22.639  21.194  1.00  0.00     0.188 C 
BRANCH   4   5
ATOM      5  O   UNL A   1      33.402  23.952  21.151  1.00  0.00    -0.376 OA
BRANCH   5   6
ATOM      6  C   UNL A   1      32.742  25.040  20.518  1.00  0.00     0.202 C 
BRANCH   6   7
ATOM      7  C   UNL A   1      31.806  26.015  21.249  1.00  0.00     0.261 C 
BRANCH   7   8
ATOM      8  O   UNL A   1      32.000  26.177  22.657  1.00  0.00    -0.459 OA
BRANCH   8   9
ATOM      9  C   UNL A   1      31.112  25.547  23.455  1.00  0.00     0.368 C 
ATOM     10  O   UNL A   1      30.275  24.754  23.035  1.00  0.00    -0.245 OA
BRANCH   9  11
ATOM     11  C   UNL A   1      31.195  25.988  24.948  1.00  0.00     0.205 C 
ATOM     12  C   UNL A   1      30.628  24.831  25.777  1.00  0.00     0.093 C 
ATOM     13  N   UNL A   1      32.580  26.322  25.512  1.00  0.00    -0.313 N 
ATOM     14  C   UNL A   1      30.504  27.313  25.100  1.00  0.00     0.172 C 
ATOM     15  C   UNL A   1      32.715  27.833  25.641  1.00  0.00     0.237 C 
ATOM     16  H   UNL A   1      33.300  25.967  24.882  1.00  0.00     0.348 HD
ATOM     17  H   UNL A   1      32.692  25.888  26.428  1.00  0.00     0.348 HD
ATOM     18  C   UNL A   1      31.633  28.267  24.724  1.00  0.00     0.177 C 
ATOM     19  C   UNL A   1      29.417  27.798  24.208  1.00  0.00     0.244 C 
ATOM     20  C   UNL A   1      32.610  28.253  27.110  1.00  0.00     0.232 C 
ATOM     21  C   UNL A   1      34.129  28.292  25.260  1.00  0.00     0.232 C 
ATOM     22  C   UNL A   1      30.886  29.532  24.587  1.00  0.00     0.245 C 
ATOM     23  N   UNL A   1      29.701  29.138  23.972  1.00  0.00    -0.250 N 
ATOM     24  O   UNL A   1      28.473  27.112  23.858  1.00  0.00    -0.273 OA
ATOM     25  O   UNL A   1      31.686  28.040  27.876  1.00  0.00    -0.286 OA
ATOM     26  C   UNL A   1      33.883  28.843  27.522  1.00  0.00     0.036 A 
ATOM     27  C   UNL A   1      34.773  28.844  26.457  1.00  0.00     0.036 A 
ATOM     28  O   UNL A   1      34.678  28.250  24.175  1.00  0.00    -0.286 OA
ATOM     29  O   UNL A   1      31.315  30.638  24.874  1.00  0.00    -0.273 OA
ATOM     30  C   UNL A   1      34.241  29.312  28.775  1.00  0.00     0.013 A 
ATOM     31  C   UNL A   1      36.068  29.310  26.604  1.00  0.00     0.013 A 
ATOM     32  C   UNL A   1      35.543  29.793  28.940  1.00  0.00     0.001 A 
ATOM     33  C   UNL A   1      36.451  29.789  27.862  1.00  0.00     0.001 A 
BRANCH  23  34
ATOM     34  C   UNL A   1      28.978  29.898  23.031  1.00  0.00     0.052 A 
ATOM     35  C   UNL A   1      29.348  29.897  21.680  1.00  0.00     0.027 A 
ATOM     36  C   UNL A   1      27.999  30.801  23.469  1.00  0.00     0.027 A 
ATOM     37  C   UNL A   1      28.765  30.789  20.782  1.00  0.00     0.002 A 
ATOM     38  C   UNL A   1      27.446  31.722  22.576  1.00  0.00     0.002 A 
ATOM     39  C   UNL A   1      27.827  31.713  21.234  1.00  0.00     0.000 A 
ENDBRANCH  23  34
ENDBRANCH   9  11
ENDBRANCH   8   9
ENDBRANCH   7   8
ENDBRANCH   6   7
ENDBRANCH   5   6
ENDBRANCH   4   5
ENDBRANCH   3   4
ENDBRANCH   2   3
ENDBRANCH   1   2
BRANCH   1  40
ATOM     40  C   UNL A   1      33.635  20.323  24.792  1.00  0.00     0.188 C 
BRANCH  40  41
ATOM     41  O   UNL A   1      34.977  20.591  25.177  1.00  0.00    -0.376 OA
BRANCH  41  42
ATOM     42  C   UNL A   1      35.243  21.667  26.061  1.00  0.00     0.202 C 
BRANCH  42  43
ATOM     43  C   UNL A   1      36.649  22.293  26.079  1.00  0.00     0.261 C 
BRANCH  43  44
ATOM     44  O   UNL A   1      37.663  21.670  25.280  1.00  0.00    -0.460 OA
BRANCH  44  45
ATOM     45  C   UNL A   1      38.833  21.326  25.864  1.00  0.00     0.338 C 
ATOM     46  O   UNL A   1      39.344  20.224  25.871  1.00  0.00    -0.246 OA
BRANCH  45  47
ATOM     47  C   UNL A   1      39.476  22.586  26.310  1.00  0.00     0.060 A 
ATOM     48  C   UNL A   1      40.472  22.560  27.290  1.00  0.00     0.016 A 
ATOM     49  C   UNL A   1      39.034  23.809  25.787  1.00  0.00     0.016 A 
ATOM     50  C   UNL A   1      41.041  23.759  27.729  1.00  0.00     0.010 A 
ATOM     51  C   UNL A   1      39.594  25.007  26.240  1.00  0.00     0.010 A 
ATOM     52  C   UNL A   1      40.617  24.991  27.200  1.00  0.00    -0.014 A 
BRANCH  52  53
ATOM     53  C   UNL A   1      41.355  26.238  27.529  1.00  0.00     0.031 A 
ATOM     54  C   UNL A   1      42.747  26.491  27.035  1.00  0.00     0.074 A 
ATOM     55  C   UNL A   1      40.742  27.142  28.317  1.00  0.00     0.049 A 
ATOM     56  N   UNL A   1      43.496  27.550  27.214  1.00  0.00    -0.248 NA
ATOM     57  C   UNL A   1      43.387  25.426  26.249  1.00  0.00     0.031 C 
ATOM     58  C   UNL A   1      39.400  26.978  28.875  1.00  0.00     0.029 A 
ATOM     59  N   UNL A   1      41.152  28.366  28.787  1.00  0.00    -0.354 N 
ATOM     60  C   UNL A   1      44.691  27.290  26.553  1.00  0.00     0.074 A 
ATOM     61  C   UNL A   1      44.583  25.952  26.009  1.00  0.00     0.031 C 
ATOM     62  C   UNL A   1      39.088  28.065  29.593  1.00  0.00     0.029 A 
ATOM     63  C   UNL A   1      40.220  28.990  29.585  1.00  0.00     0.049 A 
ATOM     64  H   UNL A   1      42.029  28.759  28.573  1.00  0.00     0.167 HD
ATOM     65  C   UNL A   1      45.762  28.106  26.402  1.00  0.00     0.034 A 
ATOM     66  C   UNL A   1      40.266  30.167  30.244  1.00  0.00     0.034 A 
ATOM     67  C   UNL A   1      45.843  29.437  26.957  1.00  0.00     0.049 A 
ATOM     68  C   UNL A   1      41.485  31.041  30.089  1.00  0.00     0.074 A 
ATOM     69  C   UNL A   1      46.866  30.359  26.809  1.00  0.00     0.029 A 
ATOM     70  N   UNL A   1      44.887  30.035  27.767  1.00  0.00    -0.354 N 
ATOM     71  N   UNL A   1      42.561  30.828  29.370  1.00  0.00    -0.248 NA
ATOM     72  C   UNL A   1      41.498  32.319  30.815  1.00  0.00     0.031 C 
ATOM     73  C   UNL A   1      46.570  31.471  27.595  1.00  0.00     0.029 A 
ATOM     74  C   UNL A   1      45.315  31.294  28.155  1.00  0.00     0.049 A 
ATOM     75  H   UNL A   1      44.030  29.624  28.026  1.00  0.00     0.167 HD
ATOM     76  C   UNL A   1      43.362  31.956  29.529  1.00  0.00     0.074 A 
ATOM     77  C   UNL A   1      42.639  32.857  30.401  1.00  0.00     0.031 C 
ATOM     78  C   UNL A   1      44.582  32.213  28.997  1.00  0.00     0.034 A 
BRANCH  65  79
ATOM     79  C   UNL A   1      46.943  27.630  25.586  1.00  0.00     0.023 A 
ATOM     80  C   UNL A   1      47.084  28.039  24.245  1.00  0.00     0.031 A 
ATOM     81  C   UNL A   1      47.814  26.639  26.072  1.00  0.00     0.131 A 
ATOM     82  C   UNL A   1      48.041  27.424  23.426  1.00  0.00     0.055 A 
ATOM     83  C   UNL A   1      48.799  26.067  25.266  1.00  0.00     0.041 A 
ATOM     84  F   UNL A   1      47.712  26.203  27.339  1.00  0.00    -0.206 F 
ATOM     85  C   UNL A   1      48.904  26.447  23.931  1.00  0.00     0.022 A 
BRANCH  82  86
ATOM     86  S   UNL A   1      48.146  27.804  21.655  1.00  0.00     0.124 S 
ATOM     87  O   UNL A   1      46.861  28.457  21.415  1.00  0.00    -0.237 OA
ATOM     88  O   UNL A   1      49.310  28.683  21.600  1.00  0.00    -0.237 OA
ATOM     89  O   UNL A   1      48.307  26.500  21.023  1.00  0.00    -0.744 OA
ENDBRANCH  82  86
ENDBRANCH  65  79
BRANCH  66  90
ATOM     90  C   UNL A   1      39.084  30.592  31.049  1.00  0.00     0.023 A 
ATOM     91  C   UNL A   1      38.117  31.460  30.507  1.00  0.00     0.031 A 
ATOM     92  C   UNL A   1      38.965  30.238  32.402  1.00  0.00     0.131 A 
ATOM     93  C   UNL A   1      37.125  32.003  31.332  1.00  0.00     0.055 A 
ATOM     94  C   UNL A   1      37.927  30.719  33.203  1.00  0.00     0.041 A 
ATOM     95  F   UNL A   1      39.871  29.427  32.971  1.00  0.00    -0.206 F 
ATOM     96  C   UNL A   1      37.011  31.622  32.673  1.00  0.00     0.022 A 
BRANCH  93  97
ATOM     97  S   UNL A   1      36.043  33.331  30.733  1.00  0.00     0.124 S 
ATOM     98  O   UNL A   1      34.724  32.712  30.821  1.00  0.00    -0.237 OA
ATOM     99  O   UNL A   1      36.310  34.391  31.702  1.00  0.00    -0.237 OA
ATOM    100  O   UNL A   1      36.529  33.589  29.382  1.00  0.00    -0.744 OA
ENDBRANCH  93  97
ENDBRANCH  66  90
BRANCH  78 101
ATOM    101  C   UNL A   1      45.257  33.533  29.294  1.00  0.00     0.023 A 
ATOM    102  C   UNL A   1      45.453  34.461  28.252  1.00  0.00     0.031 A 
ATOM    103  C   UNL A   1      45.889  33.775  30.525  1.00  0.00     0.131 A 
ATOM    104  C   UNL A   1      46.323  35.543  28.433  1.00  0.00     0.055 A 
ATOM    105  C   UNL A   1      46.709  34.889  30.720  1.00  0.00     0.041 A 
ATOM    106  F   UNL A   1      45.742  32.918  31.548  1.00  0.00    -0.206 F 
ATOM    107  C   UNL A   1      46.947  35.766  29.664  1.00  0.00     0.022 A 
BRANCH 104 108
ATOM    108  S   UNL A   1      46.774  36.623  27.046  1.00  0.00     0.124 S 
ATOM    109  O   UNL A   1      48.033  37.203  27.508  1.00  0.00    -0.237 OA
ATOM    110  O   UNL A   1      46.893  35.673  25.944  1.00  0.00    -0.237 OA
ATOM    111  O   UNL A   1      45.659  37.560  26.953  1.00  0.00    -0.744 OA
ENDBRANCH 104 108
ENDBRANCH  78 101
ENDBRANCH  52  53
ENDBRANCH  45  47
ENDBRANCH  44  45
ENDBRANCH  43  44
ENDBRANCH  42  43
ENDBRANCH  41  42
ENDBRANCH  40  41
ENDBRANCH   1  40
TORSDOF 24
ENDMDL
