MODEL 1
REMARK VINA RESULT:      -9.4      0.000      0.000
REMARK SMILES Cc1cccc(-c2noc(C[N@@H+](C)Cc3ncccc3C(=O)OCCOCCOCCOCCOC(=O)c3ccc(-c4c5nc(c(-c6cc(S(=O)(=O)[O-])ccc6F)c6ccc([nH]6)c(-c6cc(S(=O)(=O)[O-])ccc6F)c6nc(c(-c7cc(S(=O)(=O)[O-])ccc7F)c7ccc4[nH]7)C=C6)C=C5)cc3)n2)c1
REMARK SMILES IDX 28 1 27 2 26 3 25 4 24 5 23 6 21 7 22 8 20 9 15 10 16 11
REMARK SMILES IDX 17 12 19 13 18 14 14 15 12 16 13 17 11 19 10 20 7 21 8 22
REMARK SMILES IDX 101 23 9 24 6 25 1 26 2 27 3 28 102 29 4 30 5 31 29 32 30 33
REMARK SMILES IDX 31 34 32 35 33 36 34 37 35 38 36 39 37 40 38 41 39 42 100 43
REMARK SMILES IDX 40 44 99 45 41 46 42 47 43 48 93 49 44 50 98 51 92 52 94 53
REMARK SMILES IDX 45 54 97 55 91 56 90 57 46 59 78 60 58 61 77 62 59 63 62 64
REMARK SMILES IDX 76 65 95 66 60 67 61 68 75 70 96 71 63 72 47 73 48 74 56 75
REMARK SMILES IDX 49 76 55 77 57 78 54 79 50 80 51 81 52 82 53 83 79 84 80 85
REMARK SMILES IDX 88 86 81 87 87 88 89 89 86 90 82 91 83 92 84 93 85 94 64 95
REMARK SMILES IDX 65 96 73 97 66 98 72 99 74 100 71 101 67 102 68 103 69 104
REMARK SMILES IDX 70 105
REMARK H PARENT 12 18 94 58 62 69
REMARK Flexibility Score: inf
ROOT
ATOM      1  C   UNL A   1      35.728  21.869  25.336  1.00  0.00     0.188 C 
ENDROOT
BRANCH   1   2
ATOM      2  C   UNL A   1      34.458  21.458  24.607  1.00  0.00     0.188 C 
BRANCH   2   3
ATOM      3  O   UNL A   1      33.805  22.244  23.609  1.00  0.00    -0.376 OA
BRANCH   3   4
ATOM      4  C   UNL A   1      33.268  23.504  23.968  1.00  0.00     0.202 C 
BRANCH   4   5
ATOM      5  C   UNL A   1      34.147  24.705  23.659  1.00  0.00     0.261 C 
BRANCH   5   6
ATOM      6  O   UNL A   1      33.447  25.907  23.967  1.00  0.00    -0.460 OA
BRANCH   6   7
ATOM      7  C   UNL A   1      33.257  26.724  22.918  1.00  0.00     0.340 C 
ATOM      8  O   UNL A   1      33.731  26.653  21.788  1.00  0.00    -0.246 OA
BRANCH   7   9
ATOM      9  C   UNL A   1      32.044  27.458  23.253  1.00  0.00     0.087 A 
ATOM     10  C   UNL A   1      32.148  28.596  24.089  1.00  0.00     0.109 A 
ATOM     11  N   UNL A   1      31.096  29.457  24.201  1.00  0.00    -0.254 NA
ATOM     12  C   UNL A   1      29.992  29.209  23.441  1.00  0.00     0.111 A 
ATOM     13  C   UNL A   1      30.893  27.231  22.484  1.00  0.00     0.019 A 
ATOM     14  C   UNL A   1      29.849  28.137  22.573  1.00  0.00     0.021 A 
BRANCH  10  15
ATOM     15  C   UNL A   1      33.556  29.021  24.621  1.00  0.00     0.320 C 
BRANCH  15  16
ATOM     16  N   UNL A   1      33.868  29.096  26.080  1.00  0.00    -0.325 N 
ATOM     17  C   UNL A   1      33.284  27.935  26.743  1.00  0.00     0.333 C 
ATOM     18  H   UNL A   1      34.887  29.100  26.127  1.00  0.00     0.348 HD
BRANCH  16  19
ATOM     19  C   UNL A   1      33.518  30.354  26.799  1.00  0.00     0.364 C 
BRANCH  19  20
ATOM     20  C   UNL A   1      34.483  30.993  27.801  1.00  0.00     0.282 A 
ATOM     21  C   UNL A   1      36.137  31.572  29.020  1.00  0.00     0.202 A 
ATOM     22  N   UNL A   1      35.173  32.461  29.326  1.00  0.00    -0.057 NA
ATOM     23  N   UNL A   1      35.763  30.702  28.010  1.00  0.00    -0.186 NA
ATOM     24  O   UNL A   1      34.080  32.074  28.531  1.00  0.00    -0.333 OA
BRANCH  21  25
ATOM     25  C   UNL A   1      37.427  31.482  29.749  1.00  0.00     0.023 A 
ATOM     26  C   UNL A   1      39.019  29.647  32.750  1.00  0.00     0.044 C 
ATOM     27  C   UNL A   1      38.817  30.569  31.576  1.00  0.00    -0.050 A 
ATOM     28  C   UNL A   1      39.789  31.545  31.330  1.00  0.00     0.003 A 
ATOM     29  C   UNL A   1      37.652  30.535  30.773  1.00  0.00     0.015 A 
ATOM     30  C   UNL A   1      39.616  32.452  30.287  1.00  0.00     0.001 A 
ATOM     31  C   UNL A   1      38.446  32.424  29.511  1.00  0.00     0.012 A 
ENDBRANCH  21  25
ENDBRANCH  19  20
ENDBRANCH  16  19
ENDBRANCH  15  16
ENDBRANCH  10  15
ENDBRANCH   7   9
ENDBRANCH   6   7
ENDBRANCH   5   6
ENDBRANCH   4   5
ENDBRANCH   3   4
ENDBRANCH   2   3
ENDBRANCH   1   2
BRANCH   1  32
ATOM     32  O   UNL A   1      36.840  21.112  24.967  1.00  0.00    -0.377 OA
BRANCH  32  33
ATOM     33  C   UNL A   1      38.101  21.574  25.380  1.00  0.00     0.188 C 
BRANCH  33  34
ATOM     34  C   UNL A   1      38.192  22.899  26.119  1.00  0.00     0.188 C 
BRANCH  34  35
ATOM     35  O   UNL A   1      39.477  23.016  26.709  1.00  0.00    -0.376 OA
BRANCH  35  36
ATOM     36  C   UNL A   1      39.942  24.362  26.851  1.00  0.00     0.202 C 
BRANCH  36  37
ATOM     37  C   UNL A   1      39.237  25.333  27.846  1.00  0.00     0.261 C 
BRANCH  37  38
ATOM     38  O   UNL A   1      40.052  26.517  28.082  1.00  0.00    -0.460 OA
BRANCH  38  39
ATOM     39  C   UNL A   1      39.503  27.748  28.208  1.00  0.00     0.338 C 
ATOM     40  O   UNL A   1      38.343  27.999  28.477  1.00  0.00    -0.246 OA
BRANCH  39  41
ATOM     41  C   UNL A   1      40.538  28.768  27.803  1.00  0.00     0.060 A 
ATOM     42  C   UNL A   1      41.059  28.725  26.509  1.00  0.00     0.016 A 
ATOM     43  C   UNL A   1      41.200  29.553  28.749  1.00  0.00     0.016 A 
ATOM     44  C   UNL A   1      42.345  29.245  26.246  1.00  0.00     0.010 A 
ATOM     45  C   UNL A   1      42.492  30.038  28.506  1.00  0.00     0.010 A 
ATOM     46  C   UNL A   1      43.130  29.773  27.285  1.00  0.00    -0.014 A 
BRANCH  46  47
ATOM     47  C   UNL A   1      44.623  29.645  27.306  1.00  0.00     0.031 A 
ATOM     48  C   UNL A   1      45.575  30.727  26.890  1.00  0.00     0.074 A 
ATOM     49  C   UNL A   1      45.134  28.653  28.087  1.00  0.00     0.049 A 
ATOM     50  N   UNL A   1      46.867  30.624  26.892  1.00  0.00    -0.248 NA
ATOM     51  C   UNL A   1      45.151  32.046  26.455  1.00  0.00     0.031 C 
ATOM     52  C   UNL A   1      46.450  28.604  28.726  1.00  0.00     0.029 A 
ATOM     53  N   UNL A   1      44.516  27.504  28.577  1.00  0.00    -0.354 N 
ATOM     54  C   UNL A   1      47.443  31.877  26.790  1.00  0.00     0.074 A 
ATOM     55  C   UNL A   1      46.313  32.714  26.442  1.00  0.00     0.031 C 
ATOM     56  C   UNL A   1      46.554  27.527  29.513  1.00  0.00     0.029 A 
ATOM     57  C   UNL A   1      45.485  26.647  29.137  1.00  0.00     0.049 A 
ATOM     58  H   UNL A   1      43.550  27.319  28.538  1.00  0.00     0.167 HD
ATOM     59  C   UNL A   1      48.772  32.057  27.124  1.00  0.00     0.034 A 
ATOM     60  C   UNL A   1      45.690  25.432  28.551  1.00  0.00     0.034 A 
ATOM     61  C   UNL A   1      49.453  30.771  27.491  1.00  0.00     0.049 A 
ATOM     62  C   UNL A   1      46.940  25.471  27.661  1.00  0.00     0.074 A 
ATOM     63  C   UNL A   1      50.258  30.305  28.526  1.00  0.00     0.029 A 
ATOM     64  N   UNL A   1      49.183  29.627  26.742  1.00  0.00    -0.354 N 
ATOM     65  N   UNL A   1      47.915  26.345  27.795  1.00  0.00    -0.248 NA
ATOM     66  C   UNL A   1      47.180  24.591  26.522  1.00  0.00     0.031 C 
ATOM     67  C   UNL A   1      50.434  28.887  28.385  1.00  0.00     0.029 A 
ATOM     68  C   UNL A   1      49.770  28.482  27.244  1.00  0.00     0.049 A 
ATOM     69  H   UNL A   1      48.625  29.634  25.931  1.00  0.00     0.167 HD
ATOM     70  C   UNL A   1      48.744  26.314  26.710  1.00  0.00     0.074 A 
ATOM     71  C   UNL A   1      48.286  25.137  25.979  1.00  0.00     0.031 C 
ATOM     72  C   UNL A   1      49.695  27.268  26.438  1.00  0.00     0.034 A 
BRANCH  59  73
ATOM     73  C   UNL A   1      49.474  33.433  27.310  1.00  0.00     0.023 A 
ATOM     74  C   UNL A   1      50.506  33.853  26.429  1.00  0.00     0.031 A 
ATOM     75  C   UNL A   1      49.191  34.380  28.321  1.00  0.00     0.131 A 
ATOM     76  C   UNL A   1      51.232  35.059  26.619  1.00  0.00     0.055 A 
ATOM     77  C   UNL A   1      49.925  35.561  28.531  1.00  0.00     0.041 A 
ATOM     78  F   UNL A   1      48.137  34.272  29.131  1.00  0.00    -0.206 F 
ATOM     79  C   UNL A   1      50.958  35.905  27.684  1.00  0.00     0.022 A 
BRANCH  76  80
ATOM     80  S   UNL A   1      52.514  35.560  25.427  1.00  0.00     0.124 S 
ATOM     81  O   UNL A   1      52.613  36.995  25.660  1.00  0.00    -0.237 OA
ATOM     82  O   UNL A   1      53.660  34.755  25.835  1.00  0.00    -0.237 OA
ATOM     83  O   UNL A   1      51.940  35.187  24.132  1.00  0.00    -0.744 OA
ENDBRANCH  76  80
ENDBRANCH  59  73
BRANCH  60  84
ATOM     84  C   UNL A   1      44.349  24.763  28.423  1.00  0.00     0.023 A 
ATOM     85  C   UNL A   1      44.149  24.117  27.169  1.00  0.00     0.031 A 
ATOM     86  C   UNL A   1      43.660  24.238  29.527  1.00  0.00     0.131 A 
ATOM     87  C   UNL A   1      43.493  22.876  27.095  1.00  0.00     0.055 A 
ATOM     88  C   UNL A   1      42.938  23.032  29.429  1.00  0.00     0.041 A 
ATOM     89  F   UNL A   1      43.827  24.763  30.751  1.00  0.00    -0.206 F 
ATOM     90  C   UNL A   1      42.905  22.317  28.227  1.00  0.00     0.022 A 
BRANCH  87  91
ATOM     91  S   UNL A   1      43.684  21.874  25.581  1.00  0.00     0.124 S 
ATOM     92  O   UNL A   1      43.198  20.569  26.013  1.00  0.00    -0.237 OA
ATOM     93  O   UNL A   1      42.847  22.578  24.616  1.00  0.00    -0.237 OA
ATOM     94  O   UNL A   1      45.116  21.946  25.300  1.00  0.00    -0.744 OA
ENDBRANCH  87  91
ENDBRANCH  60  84
BRANCH  72  95
ATOM     95  C   UNL A   1      50.643  27.157  25.271  1.00  0.00     0.023 A 
ATOM     96  C   UNL A   1      50.288  27.661  24.019  1.00  0.00     0.031 A 
ATOM     97  C   UNL A   1      51.889  26.487  25.346  1.00  0.00     0.131 A 
ATOM     98  C   UNL A   1      51.199  27.637  22.957  1.00  0.00     0.055 A 
ATOM     99  C   UNL A   1      52.745  26.359  24.252  1.00  0.00     0.041 A 
ATOM    100  F   UNL A   1      52.355  25.962  26.488  1.00  0.00    -0.206 F 
ATOM    101  C   UNL A   1      52.418  26.966  23.052  1.00  0.00     0.022 A 
BRANCH  98 102
ATOM    102  S   UNL A   1      50.816  28.646  21.511  1.00  0.00     0.124 S 
ATOM    103  O   UNL A   1      49.429  28.290  21.233  1.00  0.00    -0.237 OA
ATOM    104  O   UNL A   1      51.030  29.994  22.034  1.00  0.00    -0.237 OA
ATOM    105  O   UNL A   1      51.789  28.205  20.515  1.00  0.00    -0.744 OA
ENDBRANCH  98 102
ENDBRANCH  72  95
ENDBRANCH  46  47
ENDBRANCH  39  41
ENDBRANCH  38  39
ENDBRANCH  37  38
ENDBRANCH  36  37
ENDBRANCH  35  36
ENDBRANCH  34  35
ENDBRANCH  33  34
ENDBRANCH  32  33
ENDBRANCH   1  32
TORSDOF 28
ENDMDL
MODEL 2
REMARK VINA RESULT:      -9.3      4.021      7.680
REMARK SMILES Cc1cccc(-c2noc(C[N@@H+](C)Cc3ncccc3C(=O)OCCOCCOCCOCCOC(=O)c3ccc(-c4c5nc(c(-c6cc(S(=O)(=O)[O-])ccc6F)c6ccc([nH]6)c(-c6cc(S(=O)(=O)[O-])ccc6F)c6nc(c(-c7cc(S(=O)(=O)[O-])ccc7F)c7ccc4[nH]7)C=C6)C=C5)cc3)n2)c1
REMARK SMILES IDX 28 1 27 2 26 3 25 4 24 5 23 6 21 7 22 8 20 9 15 10 16 11
REMARK SMILES IDX 17 12 19 13 18 14 14 15 12 16 13 17 11 19 10 20 7 21 8 22
REMARK SMILES IDX 101 23 9 24 6 25 1 26 2 27 3 28 102 29 4 30 5 31 29 32 30 33
REMARK SMILES IDX 31 34 32 35 33 36 34 37 35 38 36 39 37 40 38 41 39 42 100 43
REMARK SMILES IDX 40 44 99 45 41 46 42 47 43 48 93 49 44 50 98 51 92 52 94 53
REMARK SMILES IDX 45 54 97 55 91 56 90 57 46 59 78 60 58 61 77 62 59 63 62 64
REMARK SMILES IDX 76 65 95 66 60 67 61 68 75 70 96 71 63 72 47 73 48 74 56 75
REMARK SMILES IDX 49 76 55 77 57 78 54 79 50 80 51 81 52 82 53 83 79 84 80 85
REMARK SMILES IDX 88 86 81 87 87 88 89 89 86 90 82 91 83 92 84 93 85 94 64 95
REMARK SMILES IDX 65 96 73 97 66 98 72 99 74 100 71 101 67 102 68 103 69 104
REMARK SMILES IDX 70 105
REMARK H PARENT 12 18 94 58 62 69
REMARK Flexibility Score: inf
ROOT
ATOM      1  C   UNL A   1      32.943  22.900  27.212  1.00  0.00     0.188 C 
ENDROOT
BRANCH   1   2
ATOM      2  C   UNL A   1      31.484  23.123  26.844  1.00  0.00     0.188 C 
BRANCH   2   3
ATOM      3  O   UNL A   1      30.955  24.346  26.328  1.00  0.00    -0.376 OA
BRANCH   3   4
ATOM      4  C   UNL A   1      31.851  25.350  25.886  1.00  0.00     0.202 C 
BRANCH   4   5
ATOM      5  C   UNL A   1      32.305  25.234  24.440  1.00  0.00     0.261 C 
BRANCH   5   6
ATOM      6  O   UNL A   1      31.472  26.035  23.607  1.00  0.00    -0.460 OA
BRANCH   6   7
ATOM      7  C   UNL A   1      32.011  27.212  23.250  1.00  0.00     0.340 C 
ATOM      8  O   UNL A   1      32.994  27.430  22.548  1.00  0.00    -0.246 OA
BRANCH   7   9
ATOM      9  C   UNL A   1      30.951  28.180  23.498  1.00  0.00     0.087 A 
ATOM     10  C   UNL A   1      31.238  29.310  24.301  1.00  0.00     0.109 A 
ATOM     11  N   UNL A   1      30.369  30.363  24.330  1.00  0.00    -0.254 NA
ATOM     12  C   UNL A   1      29.273  30.300  23.524  1.00  0.00     0.111 A 
ATOM     13  C   UNL A   1      29.813  28.147  22.679  1.00  0.00     0.019 A 
ATOM     14  C   UNL A   1      28.961  29.239  22.685  1.00  0.00     0.021 A 
BRANCH  10  15
ATOM     15  C   UNL A   1      32.677  29.479  24.890  1.00  0.00     0.320 C 
BRANCH  15  16
ATOM     16  N   UNL A   1      33.138  28.727  26.094  1.00  0.00    -0.325 N 
ATOM     17  C   UNL A   1      32.118  28.834  27.132  1.00  0.00     0.333 C 
ATOM     18  H   UNL A   1      33.263  27.768  25.770  1.00  0.00     0.348 HD
BRANCH  16  19
ATOM     19  C   UNL A   1      34.489  29.050  26.638  1.00  0.00     0.364 C 
BRANCH  19  20
ATOM     20  C   UNL A   1      34.687  30.166  27.665  1.00  0.00     0.282 A 
ATOM     21  C   UNL A   1      34.587  31.914  28.887  1.00  0.00     0.202 A 
ATOM     22  N   UNL A   1      35.574  31.182  29.437  1.00  0.00    -0.057 NA
ATOM     23  N   UNL A   1      33.960  31.265  27.836  1.00  0.00    -0.186 NA
ATOM     24  O   UNL A   1      35.648  30.035  28.627  1.00  0.00    -0.333 OA
BRANCH  21  25
ATOM     25  C   UNL A   1      34.266  33.302  29.308  1.00  0.00     0.023 A 
ATOM     26  C   UNL A   1      34.204  35.502  32.479  1.00  0.00     0.044 C 
ATOM     27  C   UNL A   1      34.053  35.035  31.055  1.00  0.00    -0.050 A 
ATOM     28  C   UNL A   1      33.353  35.854  30.163  1.00  0.00     0.003 A 
ATOM     29  C   UNL A   1      34.518  33.771  30.615  1.00  0.00     0.015 A 
ATOM     30  C   UNL A   1      33.144  35.435  28.851  1.00  0.00     0.001 A 
ATOM     31  C   UNL A   1      33.590  34.171  28.432  1.00  0.00     0.012 A 
ENDBRANCH  21  25
ENDBRANCH  19  20
ENDBRANCH  16  19
ENDBRANCH  15  16
ENDBRANCH  10  15
ENDBRANCH   7   9
ENDBRANCH   6   7
ENDBRANCH   5   6
ENDBRANCH   4   5
ENDBRANCH   3   4
ENDBRANCH   2   3
ENDBRANCH   1   2
BRANCH   1  32
ATOM     32  O   UNL A   1      33.473  21.732  26.663  1.00  0.00    -0.377 OA
BRANCH  32  33
ATOM     33  C   UNL A   1      34.346  21.869  25.571  1.00  0.00     0.188 C 
BRANCH  33  34
ATOM     34  C   UNL A   1      34.925  20.618  24.931  1.00  0.00     0.188 C 
BRANCH  34  35
ATOM     35  O   UNL A   1      36.339  20.653  25.037  1.00  0.00    -0.376 OA
BRANCH  35  36
ATOM     36  C   UNL A   1      36.850  21.761  25.786  1.00  0.00     0.202 C 
BRANCH  36  37
ATOM     37  C   UNL A   1      38.383  22.041  25.822  1.00  0.00     0.261 C 
BRANCH  37  38
ATOM     38  O   UNL A   1      38.669  23.269  26.551  1.00  0.00    -0.460 OA
BRANCH  38  39
ATOM     39  C   UNL A   1      39.931  23.738  26.691  1.00  0.00     0.338 C 
ATOM     40  O   UNL A   1      40.937  23.072  26.852  1.00  0.00    -0.246 OA
BRANCH  39  41
ATOM     41  C   UNL A   1      39.868  25.243  26.771  1.00  0.00     0.060 A 
ATOM     42  C   UNL A   1      40.858  25.996  26.138  1.00  0.00     0.016 A 
ATOM     43  C   UNL A   1      39.039  25.891  27.689  1.00  0.00     0.016 A 
ATOM     44  C   UNL A   1      41.168  27.291  26.604  1.00  0.00     0.010 A 
ATOM     45  C   UNL A   1      39.366  27.161  28.183  1.00  0.00     0.010 A 
ATOM     46  C   UNL A   1      40.518  27.822  27.732  1.00  0.00    -0.014 A 
BRANCH  46  47
ATOM     47  C   UNL A   1      41.208  28.734  28.701  1.00  0.00     0.031 A 
ATOM     48  C   UNL A   1      40.584  29.952  29.313  1.00  0.00     0.074 A 
ATOM     49  C   UNL A   1      42.301  28.226  29.335  1.00  0.00     0.049 A 
ATOM     50  N   UNL A   1      41.175  30.755  30.142  1.00  0.00    -0.248 NA
ATOM     51  C   UNL A   1      39.214  30.364  29.065  1.00  0.00     0.031 C 
ATOM     52  C   UNL A   1      42.836  28.608  30.642  1.00  0.00     0.029 A 
ATOM     53  N   UNL A   1      43.114  27.151  28.978  1.00  0.00    -0.354 N 
ATOM     54  C   UNL A   1      40.241  31.557  30.772  1.00  0.00     0.074 A 
ATOM     55  C   UNL A   1      39.044  31.315  29.995  1.00  0.00     0.031 C 
ATOM     56  C   UNL A   1      43.851  27.810  30.990  1.00  0.00     0.029 A 
ATOM     57  C   UNL A   1      44.262  27.135  29.793  1.00  0.00     0.049 A 
ATOM     58  H   UNL A   1      42.915  26.503  28.264  1.00  0.00     0.167 HD
ATOM     59  C   UNL A   1      40.576  32.230  31.933  1.00  0.00     0.034 A 
ATOM     60  C   UNL A   1      45.478  27.334  29.204  1.00  0.00     0.034 A 
ATOM     61  C   UNL A   1      42.016  32.041  32.311  1.00  0.00     0.049 A 
ATOM     62  C   UNL A   1      45.942  28.782  29.412  1.00  0.00     0.074 A 
ATOM     63  C   UNL A   1      42.730  31.693  33.454  1.00  0.00     0.029 A 
ATOM     64  N   UNL A   1      42.987  32.069  31.312  1.00  0.00    -0.354 N 
ATOM     65  N   UNL A   1      45.505  29.566  30.375  1.00  0.00    -0.248 NA
ATOM     66  C   UNL A   1      46.873  29.492  28.542  1.00  0.00     0.031 C 
ATOM     67  C   UNL A   1      44.111  31.501  33.108  1.00  0.00     0.029 A 
ATOM     68  C   UNL A   1      44.257  31.765  31.761  1.00  0.00     0.049 A 
ATOM     69  H   UNL A   1      42.786  32.286  30.373  1.00  0.00     0.167 HD
ATOM     70  C   UNL A   1      45.878  30.861  30.150  1.00  0.00     0.074 A 
ATOM     71  C   UNL A   1      46.807  30.747  29.030  1.00  0.00     0.031 C 
ATOM     72  C   UNL A   1      45.369  31.940  30.831  1.00  0.00     0.034 A 
BRANCH  59  73
ATOM     73  C   UNL A   1      39.571  32.944  32.880  1.00  0.00     0.023 A 
ATOM     74  C   UNL A   1      39.481  32.590  34.253  1.00  0.00     0.031 A 
ATOM     75  C   UNL A   1      38.672  33.972  32.513  1.00  0.00     0.131 A 
ATOM     76  C   UNL A   1      38.514  33.155  35.127  1.00  0.00     0.055 A 
ATOM     77  C   UNL A   1      37.694  34.513  33.368  1.00  0.00     0.041 A 
ATOM     78  F   UNL A   1      38.724  34.582  31.329  1.00  0.00    -0.206 F 
ATOM     79  C   UNL A   1      37.604  34.101  34.681  1.00  0.00     0.022 A 
BRANCH  76  80
ATOM     80  S   UNL A   1      38.481  32.688  36.887  1.00  0.00     0.124 S 
ATOM     81  O   UNL A   1      39.387  31.547  36.925  1.00  0.00    -0.237 OA
ATOM     82  O   UNL A   1      38.941  33.905  37.547  1.00  0.00    -0.237 OA
ATOM     83  O   UNL A   1      37.074  32.362  37.127  1.00  0.00    -0.744 OA
ENDBRANCH  76  80
ENDBRANCH  59  73
BRANCH  60  84
ATOM     84  C   UNL A   1      45.583  26.368  28.055  1.00  0.00     0.023 A 
ATOM     85  C   UNL A   1      45.852  26.994  26.804  1.00  0.00     0.031 A 
ATOM     86  C   UNL A   1      46.037  25.050  28.219  1.00  0.00     0.131 A 
ATOM     87  C   UNL A   1      46.736  26.409  25.881  1.00  0.00     0.055 A 
ATOM     88  C   UNL A   1      46.860  24.438  27.253  1.00  0.00     0.041 A 
ATOM     89  F   UNL A   1      45.860  24.405  29.382  1.00  0.00    -0.206 F 
ATOM     90  C   UNL A   1      47.261  25.139  26.111  1.00  0.00     0.022 A 
BRANCH  87  91
ATOM     91  S   UNL A   1      47.418  27.446  24.542  1.00  0.00     0.124 S 
ATOM     92  O   UNL A   1      47.698  26.462  23.504  1.00  0.00    -0.237 OA
ATOM     93  O   UNL A   1      46.327  28.374  24.263  1.00  0.00    -0.237 OA
ATOM     94  O   UNL A   1      48.592  28.064  25.152  1.00  0.00    -0.744 OA
ENDBRANCH  87  91
ENDBRANCH  60  84
BRANCH  72  95
ATOM     95  C   UNL A   1      45.863  33.346  30.605  1.00  0.00     0.023 A 
ATOM     96  C   UNL A   1      45.155  34.223  29.782  1.00  0.00     0.031 A 
ATOM     97  C   UNL A   1      47.081  33.834  31.139  1.00  0.00     0.131 A 
ATOM     98  C   UNL A   1      45.563  35.554  29.641  1.00  0.00     0.055 A 
ATOM     99  C   UNL A   1      47.548  35.126  30.898  1.00  0.00     0.041 A 
ATOM    100  F   UNL A   1      47.855  33.100  31.950  1.00  0.00    -0.206 F 
ATOM    101  C   UNL A   1      46.770  36.010  30.169  1.00  0.00     0.022 A 
BRANCH  98 102
ATOM    102  S   UNL A   1      44.395  36.706  28.890  1.00  0.00     0.124 S 
ATOM    103  O   UNL A   1      43.807  35.910  27.818  1.00  0.00    -0.237 OA
ATOM    104  O   UNL A   1      43.512  36.999  30.017  1.00  0.00    -0.237 OA
ATOM    105  O   UNL A   1      45.237  37.817  28.456  1.00  0.00    -0.744 OA
ENDBRANCH  98 102
ENDBRANCH  72  95
ENDBRANCH  46  47
ENDBRANCH  39  41
ENDBRANCH  38  39
ENDBRANCH  37  38
ENDBRANCH  36  37
ENDBRANCH  35  36
ENDBRANCH  34  35
ENDBRANCH  33  34
ENDBRANCH  32  33
ENDBRANCH   1  32
TORSDOF 28
ENDMDL
MODEL 3
REMARK VINA RESULT:      -9.3      2.861      8.600
REMARK SMILES Cc1cccc(-c2noc(C[N@@H+](C)Cc3ncccc3C(=O)OCCOCCOCCOCCOC(=O)c3ccc(-c4c5nc(c(-c6cc(S(=O)(=O)[O-])ccc6F)c6ccc([nH]6)c(-c6cc(S(=O)(=O)[O-])ccc6F)c6nc(c(-c7cc(S(=O)(=O)[O-])ccc7F)c7ccc4[nH]7)C=C6)C=C5)cc3)n2)c1
REMARK SMILES IDX 28 1 27 2 26 3 25 4 24 5 23 6 21 7 22 8 20 9 15 10 16 11
REMARK SMILES IDX 17 12 19 13 18 14 14 15 12 16 13 17 11 19 10 20 7 21 8 22
REMARK SMILES IDX 101 23 9 24 6 25 1 26 2 27 3 28 102 29 4 30 5 31 29 32 30 33
REMARK SMILES IDX 31 34 32 35 33 36 34 37 35 38 36 39 37 40 38 41 39 42 100 43
REMARK SMILES IDX 40 44 99 45 41 46 42 47 43 48 93 49 44 50 98 51 92 52 94 53
REMARK SMILES IDX 45 54 97 55 91 56 90 57 46 59 78 60 58 61 77 62 59 63 62 64
REMARK SMILES IDX 76 65 95 66 60 67 61 68 75 70 96 71 63 72 47 73 48 74 56 75
REMARK SMILES IDX 49 76 55 77 57 78 54 79 50 80 51 81 52 82 53 83 79 84 80 85
REMARK SMILES IDX 88 86 81 87 87 88 89 89 86 90 82 91 83 92 84 93 85 94 64 95
REMARK SMILES IDX 65 96 73 97 66 98 72 99 74 100 71 101 67 102 68 103 69 104
REMARK SMILES IDX 70 105
REMARK H PARENT 12 18 94 58 62 69
REMARK Flexibility Score: inf
ROOT
ATOM      1  C   UNL A   1      35.881  21.889  25.163  1.00  0.00     0.188 C 
ENDROOT
BRANCH   1   2
ATOM      2  C   UNL A   1      35.191  22.795  26.172  1.00  0.00     0.188 C 
BRANCH   2   3
ATOM      3  O   UNL A   1      34.255  22.350  27.155  1.00  0.00    -0.376 OA
BRANCH   3   4
ATOM      4  C   UNL A   1      33.060  21.719  26.730  1.00  0.00     0.202 C 
BRANCH   4   5
ATOM      5  C   UNL A   1      31.847  22.626  26.605  1.00  0.00     0.261 C 
BRANCH   5   6
ATOM      6  O   UNL A   1      32.236  23.982  26.803  1.00  0.00    -0.460 OA
BRANCH   6   7
ATOM      7  C   UNL A   1      31.437  24.883  26.208  1.00  0.00     0.340 C 
ATOM      8  O   UNL A   1      30.232  24.818  25.986  1.00  0.00    -0.246 OA
BRANCH   7   9
ATOM      9  C   UNL A   1      32.194  26.126  26.269  1.00  0.00     0.087 A 
ATOM     10  C   UNL A   1      33.260  26.317  25.358  1.00  0.00     0.109 A 
ATOM     11  N   UNL A   1      33.807  27.557  25.200  1.00  0.00    -0.254 NA
ATOM     12  C   UNL A   1      33.250  28.587  25.898  1.00  0.00     0.111 A 
ATOM     13  C   UNL A   1      31.644  27.207  26.973  1.00  0.00     0.019 A 
ATOM     14  C   UNL A   1      32.179  28.469  26.771  1.00  0.00     0.021 A 
BRANCH  10  15
ATOM     15  C   UNL A   1      33.587  25.191  24.323  1.00  0.00     0.320 C 
BRANCH  15  16
ATOM     16  N   UNL A   1      32.550  24.621  23.411  1.00  0.00    -0.325 N 
ATOM     17  C   UNL A   1      32.948  23.267  23.039  1.00  0.00     0.333 C 
ATOM     18  H   UNL A   1      31.688  24.638  23.956  1.00  0.00     0.348 HD
BRANCH  16  19
ATOM     19  C   UNL A   1      32.174  25.417  22.208  1.00  0.00     0.364 C 
BRANCH  19  20
ATOM     20  C   UNL A   1      31.827  26.903  22.313  1.00  0.00     0.282 A 
ATOM     21  C   UNL A   1      30.908  28.816  22.543  1.00  0.00     0.202 A 
ATOM     22  N   UNL A   1      32.217  29.094  22.401  1.00  0.00    -0.057 NA
ATOM     23  N   UNL A   1      30.648  27.456  22.580  1.00  0.00    -0.186 NA
ATOM     24  O   UNL A   1      32.823  27.835  22.239  1.00  0.00    -0.333 OA
BRANCH  21  25
ATOM     25  C   UNL A   1      29.849  29.858  22.570  1.00  0.00     0.023 A 
ATOM     26  C   UNL A   1      27.852  32.122  20.164  1.00  0.00     0.044 C 
ATOM     27  C   UNL A   1      28.386  31.482  21.418  1.00  0.00    -0.050 A 
ATOM     28  C   UNL A   1      28.059  32.064  22.648  1.00  0.00     0.003 A 
ATOM     29  C   UNL A   1      29.266  30.372  21.391  1.00  0.00     0.015 A 
ATOM     30  C   UNL A   1      28.575  31.535  23.828  1.00  0.00     0.001 A 
ATOM     31  C   UNL A   1      29.465  30.449  23.788  1.00  0.00     0.012 A 
ENDBRANCH  21  25
ENDBRANCH  19  20
ENDBRANCH  16  19
ENDBRANCH  15  16
ENDBRANCH  10  15
ENDBRANCH   7   9
ENDBRANCH   6   7
ENDBRANCH   5   6
ENDBRANCH   4   5
ENDBRANCH   3   4
ENDBRANCH   2   3
ENDBRANCH   1   2
BRANCH   1  32
ATOM     32  O   UNL A   1      36.976  21.210  25.695  1.00  0.00    -0.377 OA
BRANCH  32  33
ATOM     33  C   UNL A   1      37.734  20.418  24.817  1.00  0.00     0.188 C 
BRANCH  33  34
ATOM     34  C   UNL A   1      38.457  19.199  25.365  1.00  0.00     0.188 C 
BRANCH  34  35
ATOM     35  O   UNL A   1      39.854  19.446  25.364  1.00  0.00    -0.376 OA
BRANCH  35  36
ATOM     36  C   UNL A   1      40.346  20.062  26.559  1.00  0.00     0.202 C 
BRANCH  36  37
ATOM     37  C   UNL A   1      41.310  21.283  26.470  1.00  0.00     0.261 C 
BRANCH  37  38
ATOM     38  O   UNL A   1      42.701  20.853  26.534  1.00  0.00    -0.460 OA
BRANCH  38  39
ATOM     39  C   UNL A   1      43.478  20.790  25.427  1.00  0.00     0.338 C 
ATOM     40  O   UNL A   1      43.615  19.830  24.692  1.00  0.00    -0.246 OA
BRANCH  39  41
ATOM     41  C   UNL A   1      44.277  22.067  25.341  1.00  0.00     0.060 A 
ATOM     42  C   UNL A   1      45.265  22.312  26.295  1.00  0.00     0.016 A 
ATOM     43  C   UNL A   1      43.868  23.131  24.534  1.00  0.00     0.016 A 
ATOM     44  C   UNL A   1      45.642  23.638  26.600  1.00  0.00     0.010 A 
ATOM     45  C   UNL A   1      44.208  24.452  24.856  1.00  0.00     0.010 A 
ATOM     46  C   UNL A   1      45.001  24.725  25.980  1.00  0.00    -0.014 A 
BRANCH  46  47
ATOM     47  C   UNL A   1      44.761  26.024  26.689  1.00  0.00     0.031 A 
ATOM     48  C   UNL A   1      43.430  26.710  26.776  1.00  0.00     0.074 A 
ATOM     49  C   UNL A   1      45.699  26.396  27.603  1.00  0.00     0.049 A 
ATOM     50  N   UNL A   1      43.213  27.839  27.375  1.00  0.00    -0.248 NA
ATOM     51  C   UNL A   1      42.207  26.166  26.214  1.00  0.00     0.031 C 
ATOM     52  C   UNL A   1      45.516  27.249  28.778  1.00  0.00     0.029 A 
ATOM     53  N   UNL A   1      47.023  25.980  27.734  1.00  0.00    -0.354 N 
ATOM     54  C   UNL A   1      41.855  28.018  27.570  1.00  0.00     0.074 A 
ATOM     55  C   UNL A   1      41.280  26.973  26.751  1.00  0.00     0.031 C 
ATOM     56  C   UNL A   1      46.636  27.297  29.508  1.00  0.00     0.029 A 
ATOM     57  C   UNL A   1      47.687  26.802  28.667  1.00  0.00     0.049 A 
ATOM     58  H   UNL A   1      47.432  25.227  27.249  1.00  0.00     0.167 HD
ATOM     59  C   UNL A   1      41.405  28.952  28.485  1.00  0.00     0.034 A 
ATOM     60  C   UNL A   1      48.718  27.580  28.225  1.00  0.00     0.034 A 
ATOM     61  C   UNL A   1      42.524  29.736  29.106  1.00  0.00     0.049 A 
ATOM     62  C   UNL A   1      48.246  29.025  28.016  1.00  0.00     0.074 A 
ATOM     63  C   UNL A   1      42.922  30.097  30.390  1.00  0.00     0.029 A 
ATOM     64  N   UNL A   1      43.580  30.160  28.302  1.00  0.00    -0.354 N 
ATOM     65  N   UNL A   1      47.188  29.548  28.599  1.00  0.00    -0.248 NA
ATOM     66  C   UNL A   1      48.867  29.981  27.106  1.00  0.00     0.031 C 
ATOM     67  C   UNL A   1      44.218  30.712  30.326  1.00  0.00     0.029 A 
ATOM     68  C   UNL A   1      44.605  30.764  29.002  1.00  0.00     0.049 A 
ATOM     69  H   UNL A   1      43.593  30.041  27.325  1.00  0.00     0.167 HD
ATOM     70  C   UNL A   1      46.859  30.741  28.022  1.00  0.00     0.074 A 
ATOM     71  C   UNL A   1      47.994  31.008  27.145  1.00  0.00     0.031 C 
ATOM     72  C   UNL A   1      45.672  31.400  28.235  1.00  0.00     0.034 A 
BRANCH  59  73
ATOM     73  C   UNL A   1      39.941  29.077  28.995  1.00  0.00     0.023 A 
ATOM     74  C   UNL A   1      39.203  30.277  28.813  1.00  0.00     0.031 A 
ATOM     75  C   UNL A   1      39.207  28.072  29.666  1.00  0.00     0.131 A 
ATOM     76  C   UNL A   1      37.898  30.462  29.343  1.00  0.00     0.055 A 
ATOM     77  C   UNL A   1      37.926  28.260  30.217  1.00  0.00     0.041 A 
ATOM     78  F   UNL A   1      39.639  26.816  29.769  1.00  0.00    -0.206 F 
ATOM     79  C   UNL A   1      37.266  29.461  30.066  1.00  0.00     0.022 A 
BRANCH  76  80
ATOM     80  S   UNL A   1      36.989  32.010  29.036  1.00  0.00     0.124 S 
ATOM     81  O   UNL A   1      38.066  32.984  28.912  1.00  0.00    -0.237 OA
ATOM     82  O   UNL A   1      36.245  31.706  27.818  1.00  0.00    -0.237 OA
ATOM     83  O   UNL A   1      36.160  32.161  30.233  1.00  0.00    -0.744 OA
ENDBRANCH  76  80
ENDBRANCH  59  73
BRANCH  60  84
ATOM     84  C   UNL A   1      49.669  26.684  27.480  1.00  0.00     0.023 A 
ATOM     85  C   UNL A   1      49.624  26.851  26.066  1.00  0.00     0.031 A 
ATOM     86  C   UNL A   1      50.886  26.251  28.031  1.00  0.00     0.131 A 
ATOM     87  C   UNL A   1      50.801  26.820  25.298  1.00  0.00     0.055 A 
ATOM     88  C   UNL A   1      52.047  26.147  27.241  1.00  0.00     0.041 A 
ATOM     89  F   UNL A   1      51.023  26.110  29.359  1.00  0.00    -0.206 F 
ATOM     90  C   UNL A   1      52.021  26.491  25.886  1.00  0.00     0.022 A 
BRANCH  87  91
ATOM     91  S   UNL A   1      50.762  27.507  23.607  1.00  0.00     0.124 S 
ATOM     92  O   UNL A   1      49.512  26.969  23.086  1.00  0.00    -0.237 OA
ATOM     93  O   UNL A   1      50.788  28.947  23.841  1.00  0.00    -0.237 OA
ATOM     94  O   UNL A   1      51.977  26.976  22.993  1.00  0.00    -0.744 OA
ENDBRANCH  87  91
ENDBRANCH  60  84
BRANCH  72  95
ATOM     95  C   UNL A   1      45.378  32.753  27.639  1.00  0.00     0.023 A 
ATOM     96  C   UNL A   1      46.023  33.894  28.117  1.00  0.00     0.031 A 
ATOM     97  C   UNL A   1      44.402  32.961  26.633  1.00  0.00     0.131 A 
ATOM     98  C   UNL A   1      45.818  35.138  27.508  1.00  0.00     0.055 A 
ATOM     99  C   UNL A   1      44.112  34.221  26.110  1.00  0.00     0.041 A 
ATOM    100  F   UNL A   1      43.714  31.952  26.080  1.00  0.00    -0.206 F 
ATOM    101  C   UNL A   1      44.846  35.319  26.524  1.00  0.00     0.022 A 
BRANCH  98 102
ATOM    102  S   UNL A   1      46.967  36.465  27.922  1.00  0.00     0.124 S 
ATOM    103  O   UNL A   1      48.267  35.846  27.691  1.00  0.00    -0.237 OA
ATOM    104  O   UNL A   1      46.578  37.495  26.961  1.00  0.00    -0.237 OA
ATOM    105  O   UNL A   1      46.655  36.768  29.316  1.00  0.00    -0.744 OA
ENDBRANCH  98 102
ENDBRANCH  72  95
ENDBRANCH  46  47
ENDBRANCH  39  41
ENDBRANCH  38  39
ENDBRANCH  37  38
ENDBRANCH  36  37
ENDBRANCH  35  36
ENDBRANCH  34  35
ENDBRANCH  33  34
ENDBRANCH  32  33
ENDBRANCH   1  32
TORSDOF 28
ENDMDL
