MODEL 1
REMARK VINA RESULT:      -9.3      0.000      0.000
REMARK SMILES O=C(Cc1ccccc1Nc1c(F)cccc1C(F)(F)F)OCCOCCOCCOCCOC(=O)c1ccc(-c2c3nc(c(-c4cc(S(=O)(=O)[O-])ccc4F)c4ccc([nH]4)c(-c4cc(S(=O)(=O)[O-])ccc4F)c4nc(c(-c5cc(S(=O)(=O)[O-])ccc5F)c5ccc2[nH]5)C=C4)C=C3)cc1
REMARK SMILES IDX 27 1 26 2 25 3 24 4 23 5 22 6 2 7 1 8 3 9 4 10 5 11 9 12
REMARK SMILES IDX 6 13 8 14 7 15 10 16 11 18 12 19 17 20 13 21 14 22 16 23
REMARK SMILES IDX 15 24 18 25 19 26 20 27 21 28 28 29 29 30 30 31 31 32 32 33
REMARK SMILES IDX 33 34 34 35 35 36 36 37 37 38 38 39 99 40 39 41 98 42 40 43
REMARK SMILES IDX 41 44 42 45 92 46 43 47 97 48 91 49 93 50 44 51 96 52 90 53
REMARK SMILES IDX 89 54 45 56 77 57 57 58 76 59 58 60 61 61 75 62 94 63 59 64
REMARK SMILES IDX 60 65 74 67 95 68 62 69 46 70 47 71 55 72 48 73 54 74 56 75
REMARK SMILES IDX 53 76 49 77 50 78 51 79 52 80 78 81 79 82 87 83 80 84 86 85
REMARK SMILES IDX 88 86 85 87 81 88 82 89 83 90 84 91 63 92 64 93 72 94 65 95
REMARK SMILES IDX 71 96 73 97 70 98 66 99 67 100 68 101 69 102
REMARK H PARENT 10 17 93 55 61 66
REMARK Flexibility Score: inf
ROOT
ATOM      1  C   UNL A   1      32.558  24.774  24.098  1.00  0.00     0.188 C 
ENDROOT
BRANCH   1   2
ATOM      2  C   UNL A   1      31.211  24.081  24.317  1.00  0.00     0.188 C 
BRANCH   2   3
ATOM      3  O   UNL A   1      30.321  24.108  23.217  1.00  0.00    -0.376 OA
BRANCH   3   4
ATOM      4  C   UNL A   1      29.483  25.192  22.859  1.00  0.00     0.202 C 
BRANCH   4   5
ATOM      5  C   UNL A   1      29.089  26.288  23.843  1.00  0.00     0.261 C 
BRANCH   5   6
ATOM      6  O   UNL A   1      27.744  26.792  23.785  1.00  0.00    -0.463 OA
BRANCH   6   7
ATOM      7  C   UNL A   1      27.329  28.015  23.404  1.00  0.00     0.310 C 
ATOM      8  O   UNL A   1      26.216  28.407  23.753  1.00  0.00    -0.252 OA
BRANCH   7   9
ATOM      9  C   UNL A   1      28.159  28.831  22.447  1.00  0.00     0.160 C 
BRANCH   9  10
ATOM     10  C   UNL A   1      28.441  30.271  22.789  1.00  0.00    -0.013 A 
ATOM     11  C   UNL A   1      27.705  31.282  22.140  1.00  0.00     0.006 A 
ATOM     12  C   UNL A   1      29.500  30.621  23.667  1.00  0.00     0.042 A 
ATOM     13  C   UNL A   1      27.995  32.622  22.356  1.00  0.00     0.000 A 
ATOM     14  C   UNL A   1      29.810  31.978  23.806  1.00  0.00     0.026 A 
ATOM     15  C   UNL A   1      29.062  32.970  23.171  1.00  0.00     0.002 A 
BRANCH  12  16
ATOM     16  N   UNL A   1      30.171  29.640  24.437  1.00  0.00    -0.352 N 
ATOM     17  H   UNL A   1      29.599  29.187  25.098  1.00  0.00     0.167 HD
BRANCH  16  18
ATOM     18  C   UNL A   1      31.515  29.193  24.429  1.00  0.00     0.087 A 
ATOM     19  C   UNL A   1      31.949  28.535  23.257  1.00  0.00     0.147 A 
ATOM     20  C   UNL A   1      32.468  29.434  25.434  1.00  0.00     0.082 A 
ATOM     21  F   UNL A   1      31.046  28.228  22.310  1.00  0.00    -0.205 F 
ATOM     22  C   UNL A   1      33.283  28.215  23.024  1.00  0.00     0.041 A 
ATOM     23  C   UNL A   1      33.829  29.138  25.170  1.00  0.00     0.015 A 
ATOM     24  C   UNL A   1      34.235  28.548  23.974  1.00  0.00     0.004 A 
BRANCH  20  25
ATOM     25  C   UNL A   1      32.142  29.941  26.820  1.00  0.00     0.418 C 
ATOM     26  F   UNL A   1      33.265  30.037  27.596  1.00  0.00    -0.166 F 
ATOM     27  F   UNL A   1      31.626  31.203  26.804  1.00  0.00    -0.166 F 
ATOM     28  F   UNL A   1      31.283  29.175  27.543  1.00  0.00    -0.166 F 
ENDBRANCH  20  25
ENDBRANCH  16  18
ENDBRANCH  12  16
ENDBRANCH   9  10
ENDBRANCH   7   9
ENDBRANCH   6   7
ENDBRANCH   5   6
ENDBRANCH   4   5
ENDBRANCH   3   4
ENDBRANCH   2   3
ENDBRANCH   1   2
BRANCH   1  29
ATOM     29  O   UNL A   1      33.142  25.300  25.283  1.00  0.00    -0.377 OA
BRANCH  29  30
ATOM     30  C   UNL A   1      34.441  24.798  25.557  1.00  0.00     0.188 C 
BRANCH  30  31
ATOM     31  C   UNL A   1      34.485  23.581  26.509  1.00  0.00     0.188 C 
BRANCH  31  32
ATOM     32  O   UNL A   1      35.610  22.718  26.575  1.00  0.00    -0.376 OA
BRANCH  32  33
ATOM     33  C   UNL A   1      35.976  21.908  25.473  1.00  0.00     0.202 C 
BRANCH  33  34
ATOM     34  C   UNL A   1      37.415  21.420  25.228  1.00  0.00     0.261 C 
BRANCH  34  35
ATOM     35  O   UNL A   1      38.131  20.903  26.351  1.00  0.00    -0.460 OA
BRANCH  35  36
ATOM     36  C   UNL A   1      39.482  20.925  26.257  1.00  0.00     0.338 C 
ATOM     37  O   UNL A   1      40.202  20.057  25.793  1.00  0.00    -0.246 OA
BRANCH  36  38
ATOM     38  C   UNL A   1      39.935  22.284  26.623  1.00  0.00     0.060 A 
ATOM     39  C   UNL A   1      39.255  23.387  26.085  1.00  0.00     0.016 A 
ATOM     40  C   UNL A   1      40.973  22.471  27.537  1.00  0.00     0.016 A 
ATOM     41  C   UNL A   1      39.597  24.680  26.476  1.00  0.00     0.010 A 
ATOM     42  C   UNL A   1      41.348  23.770  27.890  1.00  0.00     0.010 A 
ATOM     43  C   UNL A   1      40.669  24.879  27.354  1.00  0.00    -0.014 A 
BRANCH  43  44
ATOM     44  C   UNL A   1      41.205  26.243  27.570  1.00  0.00     0.031 A 
ATOM     45  C   UNL A   1      42.572  26.552  27.030  1.00  0.00     0.074 A 
ATOM     46  C   UNL A   1      40.503  27.173  28.243  1.00  0.00     0.049 A 
ATOM     47  N   UNL A   1      43.308  27.618  27.198  1.00  0.00    -0.248 NA
ATOM     48  C   UNL A   1      43.194  25.515  26.189  1.00  0.00     0.031 C 
ATOM     49  C   UNL A   1      39.143  27.001  28.753  1.00  0.00     0.029 A 
ATOM     50  N   UNL A   1      40.849  28.444  28.630  1.00  0.00    -0.354 N 
ATOM     51  C   UNL A   1      44.486  27.375  26.501  1.00  0.00     0.074 A 
ATOM     52  C   UNL A   1      44.369  26.058  25.913  1.00  0.00     0.031 C 
ATOM     53  C   UNL A   1      38.784  28.115  29.417  1.00  0.00     0.029 A 
ATOM     54  C   UNL A   1      39.904  29.055  29.424  1.00  0.00     0.049 A 
ATOM     55  H   UNL A   1      41.692  28.878  28.365  1.00  0.00     0.167 HD
ATOM     56  C   UNL A   1      45.567  28.178  26.374  1.00  0.00     0.034 A 
ATOM     57  C   UNL A   1      39.964  30.213  30.117  1.00  0.00     0.034 A 
ATOM     58  C   UNL A   1      45.667  29.483  26.975  1.00  0.00     0.049 A 
ATOM     59  C   UNL A   1      41.230  31.041  30.041  1.00  0.00     0.074 A 
ATOM     60  C   UNL A   1      46.702  30.395  26.875  1.00  0.00     0.029 A 
ATOM     61  N   UNL A   1      44.713  30.049  27.809  1.00  0.00    -0.354 N 
ATOM     62  N   UNL A   1      42.325  30.818  29.350  1.00  0.00    -0.248 NA
ATOM     63  C   UNL A   1      41.271  32.273  30.843  1.00  0.00     0.031 C 
ATOM     64  C   UNL A   1      46.414  31.473  27.717  1.00  0.00     0.029 A 
ATOM     65  C   UNL A   1      45.160  31.275  28.273  1.00  0.00     0.049 A 
ATOM     66  H   UNL A   1      43.847  29.641  28.035  1.00  0.00     0.167 HD
ATOM     67  C   UNL A   1      43.169  31.896  29.617  1.00  0.00     0.074 A 
ATOM     68  C   UNL A   1      42.448  32.778  30.509  1.00  0.00     0.031 C 
ATOM     69  C   UNL A   1      44.429  32.137  29.170  1.00  0.00     0.034 A 
BRANCH  56  70
ATOM     70  C   UNL A   1      46.754  27.646  25.615  1.00  0.00     0.023 A 
ATOM     71  C   UNL A   1      46.993  27.979  24.271  1.00  0.00     0.031 A 
ATOM     72  C   UNL A   1      47.677  26.806  26.265  1.00  0.00     0.131 A 
ATOM     73  C   UNL A   1      48.112  27.447  23.611  1.00  0.00     0.055 A 
ATOM     74  C   UNL A   1      48.822  26.336  25.622  1.00  0.00     0.041 A 
ATOM     75  F   UNL A   1      47.480  26.434  27.539  1.00  0.00    -0.206 F 
ATOM     76  C   UNL A   1      49.041  26.651  24.285  1.00  0.00     0.022 A 
BRANCH  73  77
ATOM     77  S   UNL A   1      48.292  27.738  21.830  1.00  0.00     0.124 S 
ATOM     78  O   UNL A   1      46.993  28.317  21.493  1.00  0.00    -0.237 OA
ATOM     79  O   UNL A   1      49.430  28.647  21.772  1.00  0.00    -0.237 OA
ATOM     80  O   UNL A   1      48.532  26.402  21.287  1.00  0.00    -0.744 OA
ENDBRANCH  73  77
ENDBRANCH  56  70
BRANCH  57  81
ATOM     81  C   UNL A   1      38.846  30.633  31.015  1.00  0.00     0.023 A 
ATOM     82  C   UNL A   1      37.822  31.479  30.557  1.00  0.00     0.031 A 
ATOM     83  C   UNL A   1      38.846  30.288  32.380  1.00  0.00     0.131 A 
ATOM     84  C   UNL A   1      36.888  32.005  31.464  1.00  0.00     0.055 A 
ATOM     85  C   UNL A   1      37.872  30.757  33.263  1.00  0.00     0.041 A 
ATOM     86  F   UNL A   1      39.807  29.493  32.879  1.00  0.00    -0.206 F 
ATOM     87  C   UNL A   1      36.897  31.638  32.812  1.00  0.00     0.022 A 
BRANCH  84  88
ATOM     88  S   UNL A   1      35.746  33.291  30.885  1.00  0.00     0.124 S 
ATOM     89  O   UNL A   1      36.022  34.375  31.821  1.00  0.00    -0.237 OA
ATOM     90  O   UNL A   1      36.197  33.499  29.512  1.00  0.00    -0.237 OA
ATOM     91  O   UNL A   1      34.432  32.666  31.020  1.00  0.00    -0.744 OA
ENDBRANCH  84  88
ENDBRANCH  57  81
BRANCH  69  92
ATOM     92  C   UNL A   1      45.087  33.422  29.611  1.00  0.00     0.023 A 
ATOM     93  C   UNL A   1      44.900  34.626  28.909  1.00  0.00     0.031 A 
ATOM     94  C   UNL A   1      45.900  33.445  30.758  1.00  0.00     0.131 A 
ATOM     95  C   UNL A   1      45.557  35.790  29.332  1.00  0.00     0.055 A 
ATOM     96  C   UNL A   1      46.501  34.620  31.211  1.00  0.00     0.041 A 
ATOM     97  F   UNL A   1      46.116  32.324  31.466  1.00  0.00    -0.206 F 
ATOM     98  C   UNL A   1      46.340  35.800  30.490  1.00  0.00     0.022 A 
BRANCH  95  99
ATOM     99  S   UNL A   1      45.443  37.279  28.303  1.00  0.00     0.124 S 
ATOM    100  O   UNL A   1      46.836  37.707  28.234  1.00  0.00    -0.237 OA
ATOM    101  O   UNL A   1      44.874  36.760  27.063  1.00  0.00    -0.237 OA
ATOM    102  O   UNL A   1      44.560  38.158  29.068  1.00  0.00    -0.744 OA
ENDBRANCH  95  99
ENDBRANCH  69  92
ENDBRANCH  43  44
ENDBRANCH  36  38
ENDBRANCH  35  36
ENDBRANCH  34  35
ENDBRANCH  33  34
ENDBRANCH  32  33
ENDBRANCH  31  32
ENDBRANCH  30  31
ENDBRANCH  29  30
ENDBRANCH   1  29
TORSDOF 27
ENDMDL
MODEL 2
REMARK VINA RESULT:      -9.2      5.874     11.335
REMARK SMILES O=C(Cc1ccccc1Nc1c(F)cccc1C(F)(F)F)OCCOCCOCCOCCOC(=O)c1ccc(-c2c3nc(c(-c4cc(S(=O)(=O)[O-])ccc4F)c4ccc([nH]4)c(-c4cc(S(=O)(=O)[O-])ccc4F)c4nc(c(-c5cc(S(=O)(=O)[O-])ccc5F)c5ccc2[nH]5)C=C4)C=C3)cc1
REMARK SMILES IDX 27 1 26 2 25 3 24 4 23 5 22 6 2 7 1 8 3 9 4 10 5 11 9 12
REMARK SMILES IDX 6 13 8 14 7 15 10 16 11 18 12 19 17 20 13 21 14 22 16 23
REMARK SMILES IDX 15 24 18 25 19 26 20 27 21 28 28 29 29 30 30 31 31 32 32 33
REMARK SMILES IDX 33 34 34 35 35 36 36 37 37 38 38 39 99 40 39 41 98 42 40 43
REMARK SMILES IDX 41 44 42 45 92 46 43 47 97 48 91 49 93 50 44 51 96 52 90 53
REMARK SMILES IDX 89 54 45 56 77 57 57 58 76 59 58 60 61 61 75 62 94 63 59 64
REMARK SMILES IDX 60 65 74 67 95 68 62 69 46 70 47 71 55 72 48 73 54 74 56 75
REMARK SMILES IDX 53 76 49 77 50 78 51 79 52 80 78 81 79 82 87 83 80 84 86 85
REMARK SMILES IDX 88 86 85 87 81 88 82 89 83 90 84 91 63 92 64 93 72 94 65 95
REMARK SMILES IDX 71 96 73 97 70 98 66 99 67 100 68 101 69 102
REMARK H PARENT 10 17 93 55 61 66
REMARK Flexibility Score: inf
ROOT
ATOM      1  C   UNL A   1      33.941  30.739  27.314  1.00  0.00     0.188 C 
ENDROOT
BRANCH   1   2
ATOM      2  C   UNL A   1      34.344  29.353  26.806  1.00  0.00     0.188 C 
BRANCH   2   3
ATOM      3  O   UNL A   1      33.375  28.680  26.024  1.00  0.00    -0.376 OA
BRANCH   3   4
ATOM      4  C   UNL A   1      32.838  27.399  26.295  1.00  0.00     0.202 C 
BRANCH   4   5
ATOM      5  C   UNL A   1      33.576  26.109  25.953  1.00  0.00     0.261 C 
BRANCH   5   6
ATOM      6  O   UNL A   1      32.982  24.865  26.364  1.00  0.00    -0.463 OA
BRANCH   6   7
ATOM      7  C   UNL A   1      31.707  24.460  26.212  1.00  0.00     0.310 C 
ATOM      8  O   UNL A   1      30.949  24.488  27.181  1.00  0.00    -0.252 OA
BRANCH   7   9
ATOM      9  C   UNL A   1      31.258  23.851  24.909  1.00  0.00     0.160 C 
BRANCH   9  10
ATOM     10  C   UNL A   1      31.717  24.488  23.623  1.00  0.00    -0.013 A 
ATOM     11  C   UNL A   1      30.972  25.557  23.088  1.00  0.00     0.006 A 
ATOM     12  C   UNL A   1      32.817  23.959  22.897  1.00  0.00     0.042 A 
ATOM     13  C   UNL A   1      31.306  26.111  21.860  1.00  0.00     0.000 A 
ATOM     14  C   UNL A   1      33.080  24.495  21.632  1.00  0.00     0.026 A 
ATOM     15  C   UNL A   1      32.345  25.566  21.122  1.00  0.00     0.002 A 
BRANCH  12  16
ATOM     16  N   UNL A   1      33.668  22.978  23.461  1.00  0.00    -0.352 N 
ATOM     17  H   UNL A   1      34.573  23.303  23.672  1.00  0.00     0.167 HD
BRANCH  16  18
ATOM     18  C   UNL A   1      33.453  21.614  23.778  1.00  0.00     0.087 A 
ATOM     19  C   UNL A   1      32.404  20.968  23.088  1.00  0.00     0.147 A 
ATOM     20  C   UNL A   1      34.250  20.834  24.634  1.00  0.00     0.082 A 
ATOM     21  F   UNL A   1      31.582  21.701  22.318  1.00  0.00    -0.205 F 
ATOM     22  C   UNL A   1      32.199  19.593  23.147  1.00  0.00     0.041 A 
ATOM     23  C   UNL A   1      34.057  19.430  24.657  1.00  0.00     0.015 A 
ATOM     24  C   UNL A   1      33.052  18.814  23.912  1.00  0.00     0.004 A 
BRANCH  20  25
ATOM     25  C   UNL A   1      35.278  21.391  25.592  1.00  0.00     0.418 C 
ATOM     26  F   UNL A   1      36.311  20.514  25.786  1.00  0.00    -0.166 F 
ATOM     27  F   UNL A   1      35.872  22.522  25.116  1.00  0.00    -0.166 F 
ATOM     28  F   UNL A   1      34.827  21.680  26.841  1.00  0.00    -0.166 F 
ENDBRANCH  20  25
ENDBRANCH  16  18
ENDBRANCH  12  16
ENDBRANCH   9  10
ENDBRANCH   7   9
ENDBRANCH   6   7
ENDBRANCH   5   6
ENDBRANCH   4   5
ENDBRANCH   3   4
ENDBRANCH   2   3
ENDBRANCH   1   2
BRANCH   1  29
ATOM     29  O   UNL A   1      34.968  31.420  28.025  1.00  0.00    -0.377 OA
BRANCH  29  30
ATOM     30  C   UNL A   1      34.513  32.559  28.741  1.00  0.00     0.188 C 
BRANCH  30  31
ATOM     31  C   UNL A   1      33.316  33.299  28.103  1.00  0.00     0.188 C 
BRANCH  31  32
ATOM     32  O   UNL A   1      33.193  34.712  28.151  1.00  0.00    -0.376 OA
BRANCH  32  33
ATOM     33  C   UNL A   1      33.633  35.445  29.279  1.00  0.00     0.202 C 
BRANCH  33  34
ATOM     34  C   UNL A   1      32.670  36.152  30.251  1.00  0.00     0.261 C 
BRANCH  34  35
ATOM     35  O   UNL A   1      32.333  35.462  31.456  1.00  0.00    -0.460 OA
BRANCH  35  36
ATOM     36  C   UNL A   1      32.955  35.889  32.581  1.00  0.00     0.338 C 
ATOM     37  O   UNL A   1      32.526  36.680  33.404  1.00  0.00    -0.246 OA
BRANCH  36  38
ATOM     38  C   UNL A   1      34.170  35.067  32.761  1.00  0.00     0.060 A 
ATOM     39  C   UNL A   1      34.024  33.726  33.147  1.00  0.00     0.016 A 
ATOM     40  C   UNL A   1      35.435  35.589  32.488  1.00  0.00     0.016 A 
ATOM     41  C   UNL A   1      35.141  32.897  33.239  1.00  0.00     0.010 A 
ATOM     42  C   UNL A   1      36.559  34.771  32.630  1.00  0.00     0.010 A 
ATOM     43  C   UNL A   1      36.417  33.426  33.015  1.00  0.00    -0.014 A 
BRANCH  43  44
ATOM     44  C   UNL A   1      37.618  32.631  33.363  1.00  0.00     0.031 A 
ATOM     45  C   UNL A   1      38.244  32.861  34.710  1.00  0.00     0.074 A 
ATOM     46  C   UNL A   1      38.146  31.744  32.501  1.00  0.00     0.049 A 
ATOM     47  N   UNL A   1      39.362  32.391  35.195  1.00  0.00    -0.248 NA
ATOM     48  C   UNL A   1      37.509  33.745  35.631  1.00  0.00     0.031 C 
ATOM     49  C   UNL A   1      37.583  31.396  31.196  1.00  0.00     0.029 A 
ATOM     50  N   UNL A   1      39.289  30.989  32.585  1.00  0.00    -0.354 N 
ATOM     51  C   UNL A   1      39.476  32.935  36.469  1.00  0.00     0.074 A 
ATOM     52  C   UNL A   1      38.317  33.774  36.680  1.00  0.00     0.031 C 
ATOM     53  C   UNL A   1      38.404  30.520  30.589  1.00  0.00     0.029 A 
ATOM     54  C   UNL A   1      39.573  30.286  31.436  1.00  0.00     0.049 A 
ATOM     55  H   UNL A   1      39.853  30.953  33.391  1.00  0.00     0.167 HD
ATOM     56  C   UNL A   1      40.466  32.753  37.374  1.00  0.00     0.034 A 
ATOM     57  C   UNL A   1      40.673  29.583  31.092  1.00  0.00     0.034 A 
ATOM     58  C   UNL A   1      41.617  31.920  37.140  1.00  0.00     0.049 A 
ATOM     59  C   UNL A   1      41.813  29.485  32.086  1.00  0.00     0.074 A 
ATOM     60  C   UNL A   1      42.658  31.634  38.006  1.00  0.00     0.029 A 
ATOM     61  N   UNL A   1      41.894  31.261  35.950  1.00  0.00    -0.354 N 
ATOM     62  N   UNL A   1      41.895  29.974  33.303  1.00  0.00    -0.248 NA
ATOM     63  C   UNL A   1      43.010  28.746  31.657  1.00  0.00     0.031 C 
ATOM     64  C   UNL A   1      43.606  30.878  37.311  1.00  0.00     0.029 A 
ATOM     65  C   UNL A   1      43.116  30.615  36.041  1.00  0.00     0.049 A 
ATOM     66  H   UNL A   1      41.308  31.254  35.160  1.00  0.00     0.167 HD
ATOM     67  C   UNL A   1      43.141  29.578  33.788  1.00  0.00     0.074 A 
ATOM     68  C   UNL A   1      43.762  28.790  32.746  1.00  0.00     0.031 C 
ATOM     69  C   UNL A   1      43.724  29.841  34.987  1.00  0.00     0.034 A 
BRANCH  56  70
ATOM     70  C   UNL A   1      40.386  33.518  38.669  1.00  0.00     0.023 A 
ATOM     71  C   UNL A   1      39.639  33.057  39.765  1.00  0.00     0.031 A 
ATOM     72  C   UNL A   1      41.095  34.724  38.810  1.00  0.00     0.131 A 
ATOM     73  C   UNL A   1      39.593  33.815  40.945  1.00  0.00     0.055 A 
ATOM     74  C   UNL A   1      41.100  35.439  40.008  1.00  0.00     0.041 A 
ATOM     75  F   UNL A   1      41.802  35.224  37.783  1.00  0.00    -0.206 F 
ATOM     76  C   UNL A   1      40.340  34.988  41.083  1.00  0.00     0.022 A 
BRANCH  73  77
ATOM     77  S   UNL A   1      38.472  33.295  42.272  1.00  0.00     0.124 S 
ATOM     78  O   UNL A   1      38.184  34.567  42.931  1.00  0.00    -0.237 OA
ATOM     79  O   UNL A   1      37.368  32.693  41.535  1.00  0.00    -0.237 OA
ATOM     80  O   UNL A   1      39.280  32.362  43.057  1.00  0.00    -0.744 OA
ENDBRANCH  73  77
ENDBRANCH  56  70
BRANCH  57  81
ATOM     81  C   UNL A   1      40.814  28.986  29.729  1.00  0.00     0.023 A 
ATOM     82  C   UNL A   1      40.310  27.708  29.438  1.00  0.00     0.031 A 
ATOM     83  C   UNL A   1      41.557  29.639  28.728  1.00  0.00     0.131 A 
ATOM     84  C   UNL A   1      40.613  27.097  28.211  1.00  0.00     0.055 A 
ATOM     85  C   UNL A   1      41.795  29.055  27.482  1.00  0.00     0.041 A 
ATOM     86  F   UNL A   1      42.077  30.857  28.952  1.00  0.00    -0.206 F 
ATOM     87  C   UNL A   1      41.340  27.768  27.225  1.00  0.00     0.022 A 
BRANCH  84  88
ATOM     88  S   UNL A   1      40.165  25.354  27.976  1.00  0.00     0.124 S 
ATOM     89  O   UNL A   1      39.860  25.317  26.550  1.00  0.00    -0.237 OA
ATOM     90  O   UNL A   1      41.387  24.670  28.389  1.00  0.00    -0.237 OA
ATOM     91  O   UNL A   1      39.021  25.173  28.866  1.00  0.00    -0.744 OA
ENDBRANCH  84  88
ENDBRANCH  57  81
BRANCH  69  92
ATOM     92  C   UNL A   1      45.084  29.241  35.242  1.00  0.00     0.023 A 
ATOM     93  C   UNL A   1      45.234  27.929  35.726  1.00  0.00     0.031 A 
ATOM     94  C   UNL A   1      46.249  29.986  34.984  1.00  0.00     0.131 A 
ATOM     95  C   UNL A   1      46.515  27.421  35.984  1.00  0.00     0.055 A 
ATOM     96  C   UNL A   1      47.523  29.453  35.182  1.00  0.00     0.041 A 
ATOM     97  F   UNL A   1      46.166  31.245  34.524  1.00  0.00    -0.206 F 
ATOM     98  C   UNL A   1      47.661  28.167  35.696  1.00  0.00     0.022 A 
BRANCH  95  99
ATOM     99  S   UNL A   1      46.666  25.798  36.779  1.00  0.00     0.124 S 
ATOM    100  O   UNL A   1      47.998  25.872  37.369  1.00  0.00    -0.237 OA
ATOM    101  O   UNL A   1      45.551  25.805  37.720  1.00  0.00    -0.237 OA
ATOM    102  O   UNL A   1      46.531  24.858  35.668  1.00  0.00    -0.744 OA
ENDBRANCH  95  99
ENDBRANCH  69  92
ENDBRANCH  43  44
ENDBRANCH  36  38
ENDBRANCH  35  36
ENDBRANCH  34  35
ENDBRANCH  33  34
ENDBRANCH  32  33
ENDBRANCH  31  32
ENDBRANCH  30  31
ENDBRANCH  29  30
ENDBRANCH   1  29
TORSDOF 27
ENDMDL
MODEL 3
REMARK VINA RESULT:      -8.6      6.828     11.060
REMARK SMILES O=C(Cc1ccccc1Nc1c(F)cccc1C(F)(F)F)OCCOCCOCCOCCOC(=O)c1ccc(-c2c3nc(c(-c4cc(S(=O)(=O)[O-])ccc4F)c4ccc([nH]4)c(-c4cc(S(=O)(=O)[O-])ccc4F)c4nc(c(-c5cc(S(=O)(=O)[O-])ccc5F)c5ccc2[nH]5)C=C4)C=C3)cc1
REMARK SMILES IDX 27 1 26 2 25 3 24 4 23 5 22 6 2 7 1 8 3 9 4 10 5 11 9 12
REMARK SMILES IDX 6 13 8 14 7 15 10 16 11 18 12 19 17 20 13 21 14 22 16 23
REMARK SMILES IDX 15 24 18 25 19 26 20 27 21 28 28 29 29 30 30 31 31 32 32 33
REMARK SMILES IDX 33 34 34 35 35 36 36 37 37 38 38 39 99 40 39 41 98 42 40 43
REMARK SMILES IDX 41 44 42 45 92 46 43 47 97 48 91 49 93 50 44 51 96 52 90 53
REMARK SMILES IDX 89 54 45 56 77 57 57 58 76 59 58 60 61 61 75 62 94 63 59 64
REMARK SMILES IDX 60 65 74 67 95 68 62 69 46 70 47 71 55 72 48 73 54 74 56 75
REMARK SMILES IDX 53 76 49 77 50 78 51 79 52 80 78 81 79 82 87 83 80 84 86 85
REMARK SMILES IDX 88 86 85 87 81 88 82 89 83 90 84 91 63 92 64 93 72 94 65 95
REMARK SMILES IDX 71 96 73 97 70 98 66 99 67 100 68 101 69 102
REMARK H PARENT 10 17 93 55 61 66
REMARK Flexibility Score: inf
ROOT
ATOM      1  C   UNL A   1      32.353  29.870  25.302  1.00  0.00     0.188 C 
ENDROOT
BRANCH   1   2
ATOM      2  C   UNL A   1      32.388  28.374  25.618  1.00  0.00     0.188 C 
BRANCH   2   3
ATOM      3  O   UNL A   1      31.440  27.924  26.567  1.00  0.00    -0.376 OA
BRANCH   3   4
ATOM      4  C   UNL A   1      31.437  26.655  27.195  1.00  0.00     0.202 C 
BRANCH   4   5
ATOM      5  C   UNL A   1      31.274  25.353  26.419  1.00  0.00     0.261 C 
BRANCH   5   6
ATOM      6  O   UNL A   1      31.033  24.149  27.167  1.00  0.00    -0.463 OA
BRANCH   6   7
ATOM      7  C   UNL A   1      30.324  23.066  26.797  1.00  0.00     0.310 C 
ATOM      8  O   UNL A   1      29.322  22.756  27.440  1.00  0.00    -0.252 OA
BRANCH   7   9
ATOM      9  C   UNL A   1      30.833  22.169  25.698  1.00  0.00     0.160 C 
BRANCH   9  10
ATOM     10  C   UNL A   1      31.607  22.791  24.564  1.00  0.00    -0.013 A 
ATOM     11  C   UNL A   1      30.952  23.698  23.709  1.00  0.00     0.006 A 
ATOM     12  C   UNL A   1      32.942  22.396  24.288  1.00  0.00     0.042 A 
ATOM     13  C   UNL A   1      31.601  24.223  22.599  1.00  0.00     0.000 A 
ATOM     14  C   UNL A   1      33.539  22.889  23.123  1.00  0.00     0.026 A 
ATOM     15  C   UNL A   1      32.886  23.801  22.294  1.00  0.00     0.002 A 
BRANCH  12  16
ATOM     16  N   UNL A   1      33.675  21.593  25.196  1.00  0.00    -0.352 N 
ATOM     17  H   UNL A   1      33.836  22.018  26.069  1.00  0.00     0.167 HD
BRANCH  16  18
ATOM     18  C   UNL A   1      34.218  20.290  25.076  1.00  0.00     0.087 A 
ATOM     19  C   UNL A   1      33.293  19.223  25.087  1.00  0.00     0.147 A 
ATOM     20  C   UNL A   1      35.570  19.981  24.848  1.00  0.00     0.082 A 
ATOM     21  F   UNL A   1      32.005  19.480  25.373  1.00  0.00    -0.205 F 
ATOM     22  C   UNL A   1      33.652  17.913  24.786  1.00  0.00     0.041 A 
ATOM     23  C   UNL A   1      35.918  18.650  24.505  1.00  0.00     0.015 A 
ATOM     24  C   UNL A   1      34.968  17.630  24.461  1.00  0.00     0.004 A 
BRANCH  20  25
ATOM     25  C   UNL A   1      36.710  20.961  24.998  1.00  0.00     0.418 C 
ATOM     26  F   UNL A   1      37.914  20.380  24.701  1.00  0.00    -0.166 F 
ATOM     27  F   UNL A   1      36.611  22.010  24.133  1.00  0.00    -0.166 F 
ATOM     28  F   UNL A   1      36.876  21.491  26.239  1.00  0.00    -0.166 F 
ENDBRANCH  20  25
ENDBRANCH  16  18
ENDBRANCH  12  16
ENDBRANCH   9  10
ENDBRANCH   7   9
ENDBRANCH   6   7
ENDBRANCH   5   6
ENDBRANCH   4   5
ENDBRANCH   3   4
ENDBRANCH   2   3
ENDBRANCH   1   2
BRANCH   1  29
ATOM     29  O   UNL A   1      33.492  30.589  25.758  1.00  0.00    -0.377 OA
BRANCH  29  30
ATOM     30  C   UNL A   1      33.469  30.881  27.148  1.00  0.00     0.188 C 
BRANCH  30  31
ATOM     31  C   UNL A   1      34.830  30.744  27.868  1.00  0.00     0.188 C 
BRANCH  31  32
ATOM     32  O   UNL A   1      35.599  31.876  28.243  1.00  0.00    -0.376 OA
BRANCH  32  33
ATOM     33  C   UNL A   1      35.991  32.080  29.588  1.00  0.00     0.202 C 
BRANCH  33  34
ATOM     34  C   UNL A   1      37.276  31.483  30.190  1.00  0.00     0.261 C 
BRANCH  34  35
ATOM     35  O   UNL A   1      37.126  30.420  31.133  1.00  0.00    -0.460 OA
BRANCH  35  36
ATOM     36  C   UNL A   1      37.603  30.657  32.378  1.00  0.00     0.338 C 
ATOM     37  O   UNL A   1      37.026  31.221  33.292  1.00  0.00    -0.246 OA
BRANCH  36  38
ATOM     38  C   UNL A   1      38.878  29.922  32.517  1.00  0.00     0.060 A 
ATOM     39  C   UNL A   1      40.065  30.656  32.666  1.00  0.00     0.016 A 
ATOM     40  C   UNL A   1      38.900  28.527  32.568  1.00  0.00     0.016 A 
ATOM     41  C   UNL A   1      41.273  29.998  32.889  1.00  0.00     0.010 A 
ATOM     42  C   UNL A   1      40.119  27.867  32.741  1.00  0.00     0.010 A 
ATOM     43  C   UNL A   1      41.310  28.599  32.892  1.00  0.00    -0.014 A 
BRANCH  43  44
ATOM     44  C   UNL A   1      42.613  27.895  32.865  1.00  0.00     0.031 A 
ATOM     45  C   UNL A   1      43.269  27.584  34.181  1.00  0.00     0.074 A 
ATOM     46  C   UNL A   1      43.204  27.558  31.705  1.00  0.00     0.049 A 
ATOM     47  N   UNL A   1      44.457  27.097  34.420  1.00  0.00    -0.248 NA
ATOM     48  C   UNL A   1      42.477  27.866  35.390  1.00  0.00     0.031 C 
ATOM     49  C   UNL A   1      42.627  27.753  30.374  1.00  0.00     0.029 A 
ATOM     50  N   UNL A   1      44.433  26.997  31.458  1.00  0.00    -0.354 N 
ATOM     51  C   UNL A   1      44.564  27.030  35.805  1.00  0.00     0.074 A 
ATOM     52  C   UNL A   1      43.323  27.533  36.352  1.00  0.00     0.031 C 
ATOM     53  C   UNL A   1      43.518  27.350  29.451  1.00  0.00     0.029 A 
ATOM     54  C   UNL A   1      44.746  26.918  30.120  1.00  0.00     0.049 A 
ATOM     55  H   UNL A   1      45.034  26.681  32.171  1.00  0.00     0.167 HD
ATOM     56  C   UNL A   1      45.609  26.596  36.545  1.00  0.00     0.034 A 
ATOM     57  C   UNL A   1      45.906  26.588  29.513  1.00  0.00     0.034 A 
ATOM     58  C   UNL A   1      46.841  26.109  35.980  1.00  0.00     0.049 A 
ATOM     59  C   UNL A   1      47.094  26.209  30.373  1.00  0.00     0.074 A 
ATOM     60  C   UNL A   1      47.948  25.607  36.641  1.00  0.00     0.029 A 
ATOM     61  N   UNL A   1      47.140  26.086  34.625  1.00  0.00    -0.354 N 
ATOM     62  N   UNL A   1      47.173  26.115  31.681  1.00  0.00    -0.248 NA
ATOM     63  C   UNL A   1      48.350  25.896  29.675  1.00  0.00     0.031 C 
ATOM     64  C   UNL A   1      48.947  25.365  35.694  1.00  0.00     0.029 A 
ATOM     65  C   UNL A   1      48.434  25.630  34.434  1.00  0.00     0.049 A 
ATOM     66  H   UNL A   1      46.523  26.354  33.907  1.00  0.00     0.167 HD
ATOM     67  C   UNL A   1      48.479  25.709  31.955  1.00  0.00     0.074 A 
ATOM     68  C   UNL A   1      49.141  25.551  30.679  1.00  0.00     0.031 C 
ATOM     69  C   UNL A   1      49.081  25.488  33.153  1.00  0.00     0.034 A 
BRANCH  56  70
ATOM     70  C   UNL A   1      45.498  26.692  38.045  1.00  0.00     0.023 A 
ATOM     71  C   UNL A   1      45.772  27.881  38.741  1.00  0.00     0.031 A 
ATOM     72  C   UNL A   1      45.084  25.570  38.785  1.00  0.00     0.131 A 
ATOM     73  C   UNL A   1      45.659  27.911  40.139  1.00  0.00     0.055 A 
ATOM     74  C   UNL A   1      44.909  25.625  40.168  1.00  0.00     0.041 A 
ATOM     75  F   UNL A   1      44.836  24.401  38.173  1.00  0.00    -0.206 F 
ATOM     76  C   UNL A   1      45.204  26.799  40.854  1.00  0.00     0.022 A 
BRANCH  73  77
ATOM     77  S   UNL A   1      46.202  29.397  41.025  1.00  0.00     0.124 S 
ATOM     78  O   UNL A   1      45.109  30.324  40.744  1.00  0.00    -0.237 OA
ATOM     79  O   UNL A   1      46.301  28.925  42.401  1.00  0.00    -0.237 OA
ATOM     80  O   UNL A   1      47.474  29.731  40.387  1.00  0.00    -0.744 OA
ENDBRANCH  73  77
ENDBRANCH  56  70
BRANCH  57  81
ATOM     81  C   UNL A   1      46.054  26.679  28.029  1.00  0.00     0.023 A 
ATOM     82  C   UNL A   1      45.862  25.556  27.207  1.00  0.00     0.031 A 
ATOM     83  C   UNL A   1      46.503  27.866  27.419  1.00  0.00     0.131 A 
ATOM     84  C   UNL A   1      46.183  25.622  25.842  1.00  0.00     0.055 A 
ATOM     85  C   UNL A   1      46.753  27.946  26.047  1.00  0.00     0.041 A 
ATOM     86  F   UNL A   1      46.718  28.969  28.154  1.00  0.00    -0.206 F 
ATOM     87  C   UNL A   1      46.614  26.814  25.253  1.00  0.00     0.022 A 
BRANCH  84  88
ATOM     88  S   UNL A   1      46.169  24.089  24.872  1.00  0.00     0.124 S 
ATOM     89  O   UNL A   1      47.135  24.393  23.823  1.00  0.00    -0.237 OA
ATOM     90  O   UNL A   1      46.586  23.101  25.863  1.00  0.00    -0.237 OA
ATOM     91  O   UNL A   1      44.780  23.977  24.431  1.00  0.00    -0.744 OA
ENDBRANCH  84  88
ENDBRANCH  57  81
BRANCH  69  92
ATOM     92  C   UNL A   1      50.514  25.017  33.131  1.00  0.00     0.023 A 
ATOM     93  C   UNL A   1      50.843  23.650  33.122  1.00  0.00     0.031 A 
ATOM     94  C   UNL A   1      51.567  25.950  33.105  1.00  0.00     0.131 A 
ATOM     95  C   UNL A   1      52.188  23.255  33.137  1.00  0.00     0.055 A 
ATOM     96  C   UNL A   1      52.903  25.551  33.057  1.00  0.00     0.041 A 
ATOM     97  F   UNL A   1      51.312  27.268  33.116  1.00  0.00    -0.206 F 
ATOM     98  C   UNL A   1      53.220  24.196  33.084  1.00  0.00     0.022 A 
BRANCH  95  99
ATOM     99  S   UNL A   1      52.576  21.492  33.311  1.00  0.00     0.124 S 
ATOM    100  O   UNL A   1      53.801  21.373  32.527  1.00  0.00    -0.237 OA
ATOM    101  O   UNL A   1      52.726  21.344  34.754  1.00  0.00    -0.237 OA
ATOM    102  O   UNL A   1      51.407  20.825  32.739  1.00  0.00    -0.744 OA
ENDBRANCH  95  99
ENDBRANCH  69  92
ENDBRANCH  43  44
ENDBRANCH  36  38
ENDBRANCH  35  36
ENDBRANCH  34  35
ENDBRANCH  33  34
ENDBRANCH  32  33
ENDBRANCH  31  32
ENDBRANCH  30  31
ENDBRANCH  29  30
ENDBRANCH   1  29
TORSDOF 27
ENDMDL
