MODEL 1
REMARK VINA RESULT:     -10.3      0.000      0.000
REMARK SMILES C[C@@H]1CSCCN1c1ccc(C(F)(F)F)cc1C(=O)OCCOCCOCCOCCOC(=O)c1ccc(-c2c3nc(c(-c4cc(S(=O)(=O)[O-])ccc4F)c4ccc([nH]4)c(-c4cc(S(=O)(=O)[O-])ccc4F)c4nc(c(-c5cc(S(=O)(=O)[O-])ccc5F)c5ccc2[nH]5)C=C4)C=C3)cc1
REMARK SMILES IDX 27 1 26 2 25 3 24 4 23 5 22 6 21 7 20 8 18 9 19 10 17 11
REMARK SMILES IDX 8 12 9 13 10 14 16 15 11 16 7 17 1 18 2 19 3 20 4 21 6 22
REMARK SMILES IDX 5 23 12 24 13 25 14 26 15 27 28 28 29 29 30 30 31 31 32 32
REMARK SMILES IDX 33 33 34 34 35 35 36 36 97 37 37 38 96 39 38 40 39 41 40 42
REMARK SMILES IDX 90 43 41 44 95 45 89 46 91 47 42 48 94 49 88 50 87 51 43 53
REMARK SMILES IDX 75 54 55 55 74 56 56 57 59 58 73 59 92 60 57 61 58 62 72 64
REMARK SMILES IDX 93 65 60 66 44 67 45 68 53 69 46 70 52 71 54 72 51 73 47 74
REMARK SMILES IDX 48 75 49 76 50 77 76 78 77 79 85 80 78 81 84 82 86 83 83 84
REMARK SMILES IDX 79 85 80 86 81 87 82 88 61 89 62 90 70 91 63 92 69 93 71 94
REMARK SMILES IDX 68 95 64 96 65 97 66 98 67 99
REMARK H PARENT 91 52 59 63
REMARK Flexibility Score: inf
ROOT
ATOM      1  C   UNL A   1      32.766  27.651  25.707  1.00  0.00     0.188 C 
ENDROOT
BRANCH   1   2
ATOM      2  O   UNL A   1      32.078  26.615  26.412  1.00  0.00    -0.377 OA
BRANCH   2   3
ATOM      3  C   UNL A   1      30.676  26.564  26.171  1.00  0.00     0.188 C 
BRANCH   3   4
ATOM      4  C   UNL A   1      29.977  25.185  26.177  1.00  0.00     0.188 C 
BRANCH   4   5
ATOM      5  O   UNL A   1      30.540  24.294  27.125  1.00  0.00    -0.376 OA
BRANCH   5   6
ATOM      6  C   UNL A   1      31.204  23.103  26.760  1.00  0.00     0.202 C 
BRANCH   6   7
ATOM      7  C   UNL A   1      30.967  22.421  25.407  1.00  0.00     0.261 C 
BRANCH   7   8
ATOM      8  O   UNL A   1      31.637  21.173  25.260  1.00  0.00    -0.460 OA
BRANCH   8   9
ATOM      9  C   UNL A   1      32.308  20.940  24.118  1.00  0.00     0.340 C 
ATOM     10  O   UNL A   1      32.094  21.454  23.032  1.00  0.00    -0.246 OA
BRANCH   9  11
ATOM     11  C   UNL A   1      33.516  20.126  24.400  1.00  0.00     0.084 A 
ATOM     12  C   UNL A   1      34.814  20.613  24.692  1.00  0.00     0.052 A 
ATOM     13  C   UNL A   1      35.782  19.612  24.951  1.00  0.00     0.027 A 
ATOM     14  C   UNL A   1      35.536  18.240  24.809  1.00  0.00     0.015 A 
ATOM     15  C   UNL A   1      33.271  18.738  24.244  1.00  0.00     0.031 A 
ATOM     16  C   UNL A   1      34.286  17.789  24.397  1.00  0.00     0.057 A 
BRANCH  12  17
ATOM     17  N   UNL A   1      35.223  21.945  24.685  1.00  0.00    -0.366 N 
ATOM     18  C   UNL A   1      34.160  24.194  24.772  1.00  0.00     0.032 C 
ATOM     19  C   UNL A   1      34.672  22.989  25.579  1.00  0.00     0.089 C 
ATOM     20  C   UNL A   1      35.730  23.403  26.624  1.00  0.00     0.094 C 
ATOM     21  S   UNL A   1      37.312  24.013  25.930  1.00  0.00    -0.158 SA
ATOM     22  C   UNL A   1      36.374  22.373  23.852  1.00  0.00     0.128 C 
ATOM     23  C   UNL A   1      37.606  22.691  24.707  1.00  0.00     0.091 C 
ENDBRANCH  12  17
BRANCH  16  24
ATOM     24  C   UNL A   1      34.036  16.327  24.134  1.00  0.00     0.416 C 
ATOM     25  F   UNL A   1      34.805  15.509  24.908  1.00  0.00    -0.166 F 
ATOM     26  F   UNL A   1      32.748  15.963  24.370  1.00  0.00    -0.166 F 
ATOM     27  F   UNL A   1      34.300  15.966  22.847  1.00  0.00    -0.166 F 
ENDBRANCH  16  24
ENDBRANCH   9  11
ENDBRANCH   8   9
ENDBRANCH   7   8
ENDBRANCH   6   7
ENDBRANCH   5   6
ENDBRANCH   4   5
ENDBRANCH   3   4
ENDBRANCH   2   3
ENDBRANCH   1   2
BRANCH   1  28
ATOM     28  C   UNL A   1      31.798  28.438  24.807  1.00  0.00     0.188 C 
BRANCH  28  29
ATOM     29  O   UNL A   1      32.071  29.835  24.821  1.00  0.00    -0.376 OA
BRANCH  29  30
ATOM     30  C   UNL A   1      31.308  30.645  25.708  1.00  0.00     0.202 C 
BRANCH  30  31
ATOM     31  C   UNL A   1      31.970  31.447  26.850  1.00  0.00     0.261 C 
BRANCH  31  32
ATOM     32  O   UNL A   1      33.342  31.160  27.168  1.00  0.00    -0.460 OA
BRANCH  32  33
ATOM     33  C   UNL A   1      34.048  32.084  27.850  1.00  0.00     0.338 C 
ATOM     34  O   UNL A   1      33.649  33.163  28.250  1.00  0.00    -0.246 OA
BRANCH  33  35
ATOM     35  C   UNL A   1      35.353  31.470  28.192  1.00  0.00     0.060 A 
ATOM     36  C   UNL A   1      35.435  30.080  28.342  1.00  0.00     0.016 A 
ATOM     37  C   UNL A   1      36.492  32.265  28.349  1.00  0.00     0.016 A 
ATOM     38  C   UNL A   1      36.652  29.486  28.684  1.00  0.00     0.010 A 
ATOM     39  C   UNL A   1      37.705  31.672  28.711  1.00  0.00     0.010 A 
ATOM     40  C   UNL A   1      37.782  30.282  28.913  1.00  0.00    -0.014 A 
BRANCH  40  41
ATOM     41  C   UNL A   1      38.973  29.697  29.579  1.00  0.00     0.031 A 
ATOM     42  C   UNL A   1      39.348  30.220  30.941  1.00  0.00     0.074 A 
ATOM     43  C   UNL A   1      39.698  28.721  29.004  1.00  0.00     0.049 A 
ATOM     44  N   UNL A   1      40.358  29.904  31.707  1.00  0.00    -0.248 NA
ATOM     45  C   UNL A   1      38.456  31.245  31.507  1.00  0.00     0.031 C 
ATOM     46  C   UNL A   1      39.412  28.108  27.708  1.00  0.00     0.029 A 
ATOM     47  N   UNL A   1      40.831  28.079  29.437  1.00  0.00    -0.354 N 
ATOM     48  C   UNL A   1      40.223  30.688  32.850  1.00  0.00     0.074 A 
ATOM     49  C   UNL A   1      39.056  31.522  32.653  1.00  0.00     0.031 C 
ATOM     50  C   UNL A   1      40.356  27.185  27.447  1.00  0.00     0.029 A 
ATOM     51  C   UNL A   1      41.328  27.165  28.539  1.00  0.00     0.049 A 
ATOM     52  H   UNL A   1      41.250  28.257  30.312  1.00  0.00     0.167 HD
ATOM     53  C   UNL A   1      40.995  30.705  33.964  1.00  0.00     0.034 A 
ATOM     54  C   UNL A   1      42.451  26.418  28.585  1.00  0.00     0.034 A 
ATOM     55  C   UNL A   1      42.171  29.889  34.134  1.00  0.00     0.049 A 
ATOM     56  C   UNL A   1      43.352  26.522  29.795  1.00  0.00     0.074 A 
ATOM     57  C   UNL A   1      43.026  29.823  35.219  1.00  0.00     0.029 A 
ATOM     58  N   UNL A   1      42.669  29.009  33.181  1.00  0.00    -0.354 N 
ATOM     59  N   UNL A   1      43.209  27.258  30.873  1.00  0.00    -0.248 NA
ATOM     60  C   UNL A   1      44.565  25.691  29.792  1.00  0.00     0.031 C 
ATOM     61  C   UNL A   1      44.077  28.957  34.896  1.00  0.00     0.029 A 
ATOM     62  C   UNL A   1      43.838  28.421  33.640  1.00  0.00     0.049 A 
ATOM     63  H   UNL A   1      42.253  28.828  32.308  1.00  0.00     0.167 HD
ATOM     64  C   UNL A   1      44.296  26.954  31.690  1.00  0.00     0.074 A 
ATOM     65  C   UNL A   1      45.079  25.962  30.983  1.00  0.00     0.031 C 
ATOM     66  C   UNL A   1      44.615  27.443  32.917  1.00  0.00     0.034 A 
BRANCH  53  67
ATOM     67  C   UNL A   1      40.613  31.683  35.048  1.00  0.00     0.023 A 
ATOM     68  C   UNL A   1      39.656  31.364  36.028  1.00  0.00     0.031 A 
ATOM     69  C   UNL A   1      41.173  32.972  35.069  1.00  0.00     0.131 A 
ATOM     70  C   UNL A   1      39.232  32.344  36.937  1.00  0.00     0.055 A 
ATOM     71  C   UNL A   1      40.805  33.919  36.028  1.00  0.00     0.041 A 
ATOM     72  F   UNL A   1      42.072  33.343  34.143  1.00  0.00    -0.206 F 
ATOM     73  C   UNL A   1      39.817  33.613  36.959  1.00  0.00     0.022 A 
BRANCH  70  74
ATOM     74  S   UNL A   1      37.798  31.990  37.990  1.00  0.00     0.124 S 
ATOM     75  O   UNL A   1      38.381  32.090  39.326  1.00  0.00    -0.237 OA
ATOM     76  O   UNL A   1      36.866  33.049  37.620  1.00  0.00    -0.237 OA
ATOM     77  O   UNL A   1      37.402  30.642  37.590  1.00  0.00    -0.744 OA
ENDBRANCH  70  74
ENDBRANCH  53  67
BRANCH  54  78
ATOM     78  C   UNL A   1      42.822  25.536  27.441  1.00  0.00     0.023 A 
ATOM     79  C   UNL A   1      42.330  24.225  27.340  1.00  0.00     0.031 A 
ATOM     80  C   UNL A   1      43.726  25.979  26.458  1.00  0.00     0.131 A 
ATOM     81  C   UNL A   1      42.774  23.389  26.302  1.00  0.00     0.055 A 
ATOM     82  C   UNL A   1      44.127  25.160  25.401  1.00  0.00     0.041 A 
ATOM     83  F   UNL A   1      44.231  27.222  26.510  1.00  0.00    -0.206 F 
ATOM     84  C   UNL A   1      43.660  23.851  25.325  1.00  0.00     0.022 A 
BRANCH  81  85
ATOM     85  S   UNL A   1      42.233  21.658  26.286  1.00  0.00     0.124 S 
ATOM     86  O   UNL A   1      40.813  21.792  25.979  1.00  0.00    -0.237 OA
ATOM     87  O   UNL A   1      43.067  21.090  25.232  1.00  0.00    -0.237 OA
ATOM     88  O   UNL A   1      42.540  21.192  27.637  1.00  0.00    -0.744 OA
ENDBRANCH  81  85
ENDBRANCH  54  78
BRANCH  66  89
ATOM     89  C   UNL A   1      45.842  26.872  33.588  1.00  0.00     0.023 A 
ATOM     90  C   UNL A   1      47.113  27.454  33.433  1.00  0.00     0.031 A 
ATOM     91  C   UNL A   1      45.734  25.727  34.396  1.00  0.00     0.131 A 
ATOM     92  C   UNL A   1      48.231  26.857  34.033  1.00  0.00     0.055 A 
ATOM     93  C   UNL A   1      46.841  25.171  35.039  1.00  0.00     0.041 A 
ATOM     94  F   UNL A   1      44.545  25.130  34.579  1.00  0.00    -0.206 F 
ATOM     95  C   UNL A   1      48.101  25.729  34.849  1.00  0.00     0.022 A 
BRANCH  92  96
ATOM     96  S   UNL A   1      49.878  27.525  33.667  1.00  0.00     0.124 S 
ATOM     97  O   UNL A   1      49.787  27.789  32.234  1.00  0.00    -0.237 OA
ATOM     98  O   UNL A   1      49.938  28.701  34.529  1.00  0.00    -0.237 OA
ATOM     99  O   UNL A   1      50.781  26.437  34.040  1.00  0.00    -0.744 OA
ENDBRANCH  92  96
ENDBRANCH  66  89
ENDBRANCH  40  41
ENDBRANCH  33  35
ENDBRANCH  32  33
ENDBRANCH  31  32
ENDBRANCH  30  31
ENDBRANCH  29  30
ENDBRANCH  28  29
ENDBRANCH   1  28
TORSDOF 25
ENDMDL
MODEL 2
REMARK VINA RESULT:     -10.2      2.540      3.538
REMARK SMILES C[C@@H]1CSCCN1c1ccc(C(F)(F)F)cc1C(=O)OCCOCCOCCOCCOC(=O)c1ccc(-c2c3nc(c(-c4cc(S(=O)(=O)[O-])ccc4F)c4ccc([nH]4)c(-c4cc(S(=O)(=O)[O-])ccc4F)c4nc(c(-c5cc(S(=O)(=O)[O-])ccc5F)c5ccc2[nH]5)C=C4)C=C3)cc1
REMARK SMILES IDX 27 1 26 2 25 3 24 4 23 5 22 6 21 7 20 8 18 9 19 10 17 11
REMARK SMILES IDX 8 12 9 13 10 14 16 15 11 16 7 17 1 18 2 19 3 20 4 21 6 22
REMARK SMILES IDX 5 23 12 24 13 25 14 26 15 27 28 28 29 29 30 30 31 31 32 32
REMARK SMILES IDX 33 33 34 34 35 35 36 36 97 37 37 38 96 39 38 40 39 41 40 42
REMARK SMILES IDX 90 43 41 44 95 45 89 46 91 47 42 48 94 49 88 50 87 51 43 53
REMARK SMILES IDX 75 54 55 55 74 56 56 57 59 58 73 59 92 60 57 61 58 62 72 64
REMARK SMILES IDX 93 65 60 66 44 67 45 68 53 69 46 70 52 71 54 72 51 73 47 74
REMARK SMILES IDX 48 75 49 76 50 77 76 78 77 79 85 80 78 81 84 82 86 83 83 84
REMARK SMILES IDX 79 85 80 86 81 87 82 88 61 89 62 90 70 91 63 92 69 93 71 94
REMARK SMILES IDX 68 95 64 96 65 97 66 98 67 99
REMARK H PARENT 91 52 59 63
REMARK Flexibility Score: inf
ROOT
ATOM      1  C   UNL A   1      33.162  27.297  25.164  1.00  0.00     0.188 C 
ENDROOT
BRANCH   1   2
ATOM      2  O   UNL A   1      32.339  26.510  26.029  1.00  0.00    -0.377 OA
BRANCH   2   3
ATOM      3  C   UNL A   1      30.952  26.826  25.975  1.00  0.00     0.188 C 
BRANCH   3   4
ATOM      4  C   UNL A   1      29.942  25.674  25.772  1.00  0.00     0.188 C 
BRANCH   4   5
ATOM      5  O   UNL A   1      30.096  24.640  26.730  1.00  0.00    -0.376 OA
BRANCH   5   6
ATOM      6  C   UNL A   1      30.458  23.320  26.385  1.00  0.00     0.202 C 
BRANCH   6   7
ATOM      7  C   UNL A   1      31.867  22.964  25.897  1.00  0.00     0.261 C 
BRANCH   7   8
ATOM      8  O   UNL A   1      31.910  21.853  25.005  1.00  0.00    -0.460 OA
BRANCH   8   9
ATOM      9  C   UNL A   1      32.767  21.901  23.969  1.00  0.00     0.340 C 
ATOM     10  O   UNL A   1      32.599  22.488  22.912  1.00  0.00    -0.246 OA
BRANCH   9  11
ATOM     11  C   UNL A   1      34.073  21.321  24.369  1.00  0.00     0.084 A 
ATOM     12  C   UNL A   1      34.387  19.944  24.480  1.00  0.00     0.052 A 
ATOM     13  C   UNL A   1      35.724  19.666  24.856  1.00  0.00     0.027 A 
ATOM     14  C   UNL A   1      36.649  20.653  25.221  1.00  0.00     0.015 A 
ATOM     15  C   UNL A   1      35.005  22.319  24.752  1.00  0.00     0.031 A 
ATOM     16  C   UNL A   1      36.279  21.994  25.227  1.00  0.00     0.057 A 
BRANCH  12  17
ATOM     17  N   UNL A   1      33.508  18.875  24.319  1.00  0.00    -0.366 N 
ATOM     18  C   UNL A   1      32.176  17.852  22.481  1.00  0.00     0.032 C 
ATOM     19  C   UNL A   1      33.545  17.932  23.177  1.00  0.00     0.089 C 
ATOM     20  C   UNL A   1      34.031  16.545  23.652  1.00  0.00     0.094 C 
ATOM     21  S   UNL A   1      33.037  15.790  24.993  1.00  0.00    -0.158 SA
ATOM     22  C   UNL A   1      32.544  18.527  25.392  1.00  0.00     0.128 C 
ATOM     23  C   UNL A   1      32.938  17.231  26.110  1.00  0.00     0.091 C 
ENDBRANCH  12  17
BRANCH  16  24
ATOM     24  C   UNL A   1      37.224  23.057  25.721  1.00  0.00     0.416 C 
ATOM     25  F   UNL A   1      37.556  23.962  24.757  1.00  0.00    -0.166 F 
ATOM     26  F   UNL A   1      36.709  23.781  26.752  1.00  0.00    -0.166 F 
ATOM     27  F   UNL A   1      38.406  22.551  26.171  1.00  0.00    -0.166 F 
ENDBRANCH  16  24
ENDBRANCH   9  11
ENDBRANCH   8   9
ENDBRANCH   7   8
ENDBRANCH   6   7
ENDBRANCH   5   6
ENDBRANCH   4   5
ENDBRANCH   3   4
ENDBRANCH   2   3
ENDBRANCH   1   2
BRANCH   1  28
ATOM     28  C   UNL A   1      32.326  28.356  24.424  1.00  0.00     0.188 C 
BRANCH  28  29
ATOM     29  O   UNL A   1      32.642  29.678  24.849  1.00  0.00    -0.376 OA
BRANCH  29  30
ATOM     30  C   UNL A   1      31.988  30.169  26.013  1.00  0.00     0.202 C 
BRANCH  30  31
ATOM     31  C   UNL A   1      32.770  30.516  27.299  1.00  0.00     0.261 C 
BRANCH  31  32
ATOM     32  O   UNL A   1      34.204  30.440  27.257  1.00  0.00    -0.460 OA
BRANCH  32  33
ATOM     33  C   UNL A   1      34.908  31.085  28.211  1.00  0.00     0.338 C 
ATOM     34  O   UNL A   1      34.531  32.021  28.892  1.00  0.00    -0.246 OA
BRANCH  33  35
ATOM     35  C   UNL A   1      36.163  30.324  28.414  1.00  0.00     0.060 A 
ATOM     36  C   UNL A   1      36.339  29.598  29.598  1.00  0.00     0.016 A 
ATOM     37  C   UNL A   1      37.156  30.319  27.429  1.00  0.00     0.016 A 
ATOM     38  C   UNL A   1      37.524  28.892  29.815  1.00  0.00     0.010 A 
ATOM     39  C   UNL A   1      38.351  29.629  27.656  1.00  0.00     0.010 A 
ATOM     40  C   UNL A   1      38.553  28.940  28.865  1.00  0.00    -0.014 A 
BRANCH  40  41
ATOM     41  C   UNL A   1      39.913  28.466  29.227  1.00  0.00     0.031 A 
ATOM     42  C   UNL A   1      40.656  29.212  30.304  1.00  0.00     0.074 A 
ATOM     43  C   UNL A   1      40.472  27.399  28.631  1.00  0.00     0.049 A 
ATOM     44  N   UNL A   1      41.861  29.023  30.771  1.00  0.00    -0.248 NA
ATOM     45  C   UNL A   1      39.931  30.328  30.934  1.00  0.00     0.031 C 
ATOM     46  C   UNL A   1      39.838  26.574  27.605  1.00  0.00     0.029 A 
ATOM     47  N   UNL A   1      41.710  26.830  28.803  1.00  0.00    -0.354 N 
ATOM     48  C   UNL A   1      42.042  29.993  31.753  1.00  0.00     0.074 A 
ATOM     49  C   UNL A   1      40.835  30.793  31.781  1.00  0.00     0.031 C 
ATOM     50  C   UNL A   1      40.699  25.611  27.228  1.00  0.00     0.029 A 
ATOM     51  C   UNL A   1      41.954  25.769  27.963  1.00  0.00     0.049 A 
ATOM     52  H   UNL A   1      42.363  27.151  29.467  1.00  0.00     0.167 HD
ATOM     53  C   UNL A   1      43.110  30.194  32.562  1.00  0.00     0.034 A 
ATOM     54  C   UNL A   1      43.070  25.030  27.791  1.00  0.00     0.034 A 
ATOM     55  C   UNL A   1      44.317  29.408  32.502  1.00  0.00     0.049 A 
ATOM     56  C   UNL A   1      44.287  25.332  28.637  1.00  0.00     0.074 A 
ATOM     57  C   UNL A   1      45.460  29.521  33.273  1.00  0.00     0.029 A 
ATOM     58  N   UNL A   1      44.544  28.372  31.605  1.00  0.00    -0.354 N 
ATOM     59  N   UNL A   1      44.442  26.244  29.569  1.00  0.00    -0.248 NA
ATOM     60  C   UNL A   1      45.477  24.501  28.406  1.00  0.00     0.031 C 
ATOM     61  C   UNL A   1      46.402  28.602  32.797  1.00  0.00     0.029 A 
ATOM     62  C   UNL A   1      45.821  27.860  31.780  1.00  0.00     0.049 A 
ATOM     63  H   UNL A   1      43.893  28.047  30.941  1.00  0.00     0.167 HD
ATOM     64  C   UNL A   1      45.736  26.074  30.057  1.00  0.00     0.074 A 
ATOM     65  C   UNL A   1      46.312  24.967  29.323  1.00  0.00     0.031 C 
ATOM     66  C   UNL A   1      46.386  26.764  31.030  1.00  0.00     0.034 A 
BRANCH  53  67
ATOM     67  C   UNL A   1      43.029  31.349  33.531  1.00  0.00     0.023 A 
ATOM     68  C   UNL A   1      42.503  31.191  34.826  1.00  0.00     0.031 A 
ATOM     69  C   UNL A   1      43.433  32.636  33.136  1.00  0.00     0.131 A 
ATOM     70  C   UNL A   1      42.323  32.312  35.649  1.00  0.00     0.055 A 
ATOM     71  C   UNL A   1      43.325  33.735  33.990  1.00  0.00     0.041 A 
ATOM     72  F   UNL A   1      43.918  32.853  31.903  1.00  0.00    -0.206 F 
ATOM     73  C   UNL A   1      42.752  33.581  35.248  1.00  0.00     0.022 A 
BRANCH  70  74
ATOM     74  S   UNL A   1      41.380  32.118  37.187  1.00  0.00     0.124 S 
ATOM     75  O   UNL A   1      42.307  31.340  38.005  1.00  0.00    -0.237 OA
ATOM     76  O   UNL A   1      41.167  33.500  37.602  1.00  0.00    -0.237 OA
ATOM     77  O   UNL A   1      40.179  31.401  36.766  1.00  0.00    -0.744 OA
ENDBRANCH  70  74
ENDBRANCH  53  67
BRANCH  54  78
ATOM     78  C   UNL A   1      43.118  23.961  26.753  1.00  0.00     0.023 A 
ATOM     79  C   UNL A   1      42.602  22.679  27.000  1.00  0.00     0.031 A 
ATOM     80  C   UNL A   1      43.738  24.194  25.512  1.00  0.00     0.131 A 
ATOM     81  C   UNL A   1      42.749  21.667  26.037  1.00  0.00     0.055 A 
ATOM     82  C   UNL A   1      43.839  23.198  24.538  1.00  0.00     0.041 A 
ATOM     83  F   UNL A   1      44.253  25.400  25.226  1.00  0.00    -0.206 F 
ATOM     84  C   UNL A   1      43.353  21.921  24.803  1.00  0.00     0.022 A 
BRANCH  81  85
ATOM     85  S   UNL A   1      42.204  19.987  26.448  1.00  0.00     0.124 S 
ATOM     86  O   UNL A   1      43.228  19.174  25.799  1.00  0.00    -0.237 OA
ATOM     87  O   UNL A   1      42.232  20.008  27.907  1.00  0.00    -0.237 OA
ATOM     88  O   UNL A   1      40.872  19.905  25.854  1.00  0.00    -0.744 OA
ENDBRANCH  81  85
ENDBRANCH  54  78
BRANCH  66  89
ATOM     89  C   UNL A   1      47.781  26.305  31.385  1.00  0.00     0.023 A 
ATOM     90  C   UNL A   1      48.024  25.417  32.447  1.00  0.00     0.031 A 
ATOM     91  C   UNL A   1      48.883  26.767  30.645  1.00  0.00     0.131 A 
ATOM     92  C   UNL A   1      49.341  25.061  32.772  1.00  0.00     0.055 A 
ATOM     93  C   UNL A   1      50.187  26.363  30.935  1.00  0.00     0.041 A 
ATOM     94  F   UNL A   1      48.710  27.617  29.620  1.00  0.00    -0.206 F 
ATOM     95  C   UNL A   1      50.423  25.515  32.013  1.00  0.00     0.022 A 
BRANCH  92  96
ATOM     96  S   UNL A   1      49.634  24.059  34.256  1.00  0.00     0.124 S 
ATOM     97  O   UNL A   1      48.371  23.340  34.392  1.00  0.00    -0.237 OA
ATOM     98  O   UNL A   1      50.787  23.253  33.869  1.00  0.00    -0.237 OA
ATOM     99  O   UNL A   1      49.895  25.054  35.296  1.00  0.00    -0.744 OA
ENDBRANCH  92  96
ENDBRANCH  66  89
ENDBRANCH  40  41
ENDBRANCH  33  35
ENDBRANCH  32  33
ENDBRANCH  31  32
ENDBRANCH  30  31
ENDBRANCH  29  30
ENDBRANCH  28  29
ENDBRANCH   1  28
TORSDOF 25
ENDMDL
MODEL 3
REMARK VINA RESULT:     -10.0      2.470      3.132
REMARK SMILES C[C@@H]1CSCCN1c1ccc(C(F)(F)F)cc1C(=O)OCCOCCOCCOCCOC(=O)c1ccc(-c2c3nc(c(-c4cc(S(=O)(=O)[O-])ccc4F)c4ccc([nH]4)c(-c4cc(S(=O)(=O)[O-])ccc4F)c4nc(c(-c5cc(S(=O)(=O)[O-])ccc5F)c5ccc2[nH]5)C=C4)C=C3)cc1
REMARK SMILES IDX 27 1 26 2 25 3 24 4 23 5 22 6 21 7 20 8 18 9 19 10 17 11
REMARK SMILES IDX 8 12 9 13 10 14 16 15 11 16 7 17 1 18 2 19 3 20 4 21 6 22
REMARK SMILES IDX 5 23 12 24 13 25 14 26 15 27 28 28 29 29 30 30 31 31 32 32
REMARK SMILES IDX 33 33 34 34 35 35 36 36 97 37 37 38 96 39 38 40 39 41 40 42
REMARK SMILES IDX 90 43 41 44 95 45 89 46 91 47 42 48 94 49 88 50 87 51 43 53
REMARK SMILES IDX 75 54 55 55 74 56 56 57 59 58 73 59 92 60 57 61 58 62 72 64
REMARK SMILES IDX 93 65 60 66 44 67 45 68 53 69 46 70 52 71 54 72 51 73 47 74
REMARK SMILES IDX 48 75 49 76 50 77 76 78 77 79 85 80 78 81 84 82 86 83 83 84
REMARK SMILES IDX 79 85 80 86 81 87 82 88 61 89 62 90 70 91 63 92 69 93 71 94
REMARK SMILES IDX 68 95 64 96 65 97 66 98 67 99
REMARK H PARENT 91 52 59 63
REMARK Flexibility Score: inf
ROOT
ATOM      1  C   UNL A   1      31.747  29.087  25.648  1.00  0.00     0.188 C 
ENDROOT
BRANCH   1   2
ATOM      2  O   UNL A   1      32.033  29.389  24.280  1.00  0.00    -0.377 OA
BRANCH   2   3
ATOM      3  C   UNL A   1      31.352  28.568  23.337  1.00  0.00     0.188 C 
BRANCH   3   4
ATOM      4  C   UNL A   1      30.508  27.385  23.864  1.00  0.00     0.188 C 
BRANCH   4   5
ATOM      5  O   UNL A   1      30.761  26.181  23.161  1.00  0.00    -0.376 OA
BRANCH   5   6
ATOM      6  C   UNL A   1      30.187  24.943  23.525  1.00  0.00     0.202 C 
BRANCH   6   7
ATOM      7  C   UNL A   1      30.896  23.965  24.470  1.00  0.00     0.261 C 
BRANCH   7   8
ATOM      8  O   UNL A   1      31.067  22.657  23.930  1.00  0.00    -0.460 OA
BRANCH   8   9
ATOM      9  C   UNL A   1      32.170  22.410  23.201  1.00  0.00     0.340 C 
ATOM     10  O   UNL A   1      32.583  23.068  22.260  1.00  0.00    -0.246 OA
BRANCH   9  11
ATOM     11  C   UNL A   1      32.966  21.333  23.841  1.00  0.00     0.084 A 
ATOM     12  C   UNL A   1      34.003  21.500  24.792  1.00  0.00     0.052 A 
ATOM     13  C   UNL A   1      34.579  20.295  25.263  1.00  0.00     0.027 A 
ATOM     14  C   UNL A   1      34.259  19.030  24.752  1.00  0.00     0.015 A 
ATOM     15  C   UNL A   1      32.652  20.054  23.315  1.00  0.00     0.031 A 
ATOM     16  C   UNL A   1      33.327  18.902  23.728  1.00  0.00     0.057 A 
BRANCH  12  17
ATOM     17  N   UNL A   1      34.531  22.708  25.242  1.00  0.00    -0.366 N 
ATOM     18  C   UNL A   1      36.723  23.887  25.197  1.00  0.00     0.032 C 
ATOM     19  C   UNL A   1      35.421  23.578  24.440  1.00  0.00     0.089 C 
ATOM     20  C   UNL A   1      34.673  24.866  24.031  1.00  0.00     0.094 C 
ATOM     21  S   UNL A   1      34.003  25.852  25.422  1.00  0.00    -0.158 SA
ATOM     22  C   UNL A   1      34.099  23.278  26.543  1.00  0.00     0.128 C 
ATOM     23  C   UNL A   1      33.199  24.504  26.355  1.00  0.00     0.091 C 
ENDBRANCH  12  17
BRANCH  16  24
ATOM     24  C   UNL A   1      33.053  17.564  23.092  1.00  0.00     0.416 C 
ATOM     25  F   UNL A   1      34.173  16.981  22.578  1.00  0.00    -0.166 F 
ATOM     26  F   UNL A   1      32.530  16.663  23.966  1.00  0.00    -0.166 F 
ATOM     27  F   UNL A   1      32.171  17.639  22.056  1.00  0.00    -0.166 F 
ENDBRANCH  16  24
ENDBRANCH   9  11
ENDBRANCH   8   9
ENDBRANCH   7   8
ENDBRANCH   6   7
ENDBRANCH   5   6
ENDBRANCH   4   5
ENDBRANCH   3   4
ENDBRANCH   2   3
ENDBRANCH   1   2
BRANCH   1  28
ATOM     28  C   UNL A   1      31.798  30.358  26.513  1.00  0.00     0.188 C 
BRANCH  28  29
ATOM     29  O   UNL A   1      31.142  31.457  25.887  1.00  0.00    -0.376 OA
BRANCH  29  30
ATOM     30  C   UNL A   1      31.320  32.745  26.465  1.00  0.00     0.202 C 
BRANCH  30  31
ATOM     31  C   UNL A   1      32.592  33.109  27.260  1.00  0.00     0.261 C 
BRANCH  31  32
ATOM     32  O   UNL A   1      32.478  34.091  28.304  1.00  0.00    -0.460 OA
BRANCH  32  33
ATOM     33  C   UNL A   1      33.561  34.837  28.603  1.00  0.00     0.338 C 
ATOM     34  O   UNL A   1      33.613  36.050  28.696  1.00  0.00    -0.246 OA
BRANCH  33  35
ATOM     35  C   UNL A   1      34.643  33.899  28.985  1.00  0.00     0.060 A 
ATOM     36  C   UNL A   1      34.351  32.832  29.844  1.00  0.00     0.016 A 
ATOM     37  C   UNL A   1      35.937  34.066  28.483  1.00  0.00     0.016 A 
ATOM     38  C   UNL A   1      35.363  31.951  30.231  1.00  0.00     0.010 A 
ATOM     39  C   UNL A   1      36.953  33.195  28.887  1.00  0.00     0.010 A 
ATOM     40  C   UNL A   1      36.677  32.153  29.789  1.00  0.00    -0.014 A 
BRANCH  40  41
ATOM     41  C   UNL A   1      37.794  31.425  30.442  1.00  0.00     0.031 A 
ATOM     42  C   UNL A   1      38.093  31.739  31.884  1.00  0.00     0.074 A 
ATOM     43  C   UNL A   1      38.517  30.501  29.784  1.00  0.00     0.049 A 
ATOM     44  N   UNL A   1      39.033  31.272  32.662  1.00  0.00    -0.248 NA
ATOM     45  C   UNL A   1      37.206  32.720  32.529  1.00  0.00     0.031 C 
ATOM     46  C   UNL A   1      38.298  30.084  28.401  1.00  0.00     0.029 A 
ATOM     47  N   UNL A   1      39.590  29.751  30.196  1.00  0.00    -0.354 N 
ATOM     48  C   UNL A   1      38.851  31.900  33.891  1.00  0.00     0.074 A 
ATOM     49  C   UNL A   1      37.736  32.809  33.738  1.00  0.00     0.031 C 
ATOM     50  C   UNL A   1      39.219  29.160  28.074  1.00  0.00     0.029 A 
ATOM     51  C   UNL A   1      40.111  28.943  29.213  1.00  0.00     0.049 A 
ATOM     52  H   UNL A   1      39.953  29.787  31.111  1.00  0.00     0.167 HD
ATOM     53  C   UNL A   1      39.543  31.727  35.044  1.00  0.00     0.034 A 
ATOM     54  C   UNL A   1      41.197  28.142  29.226  1.00  0.00     0.034 A 
ATOM     55  C   UNL A   1      40.670  30.838  35.174  1.00  0.00     0.049 A 
ATOM     56  C   UNL A   1      42.015  28.037  30.494  1.00  0.00     0.074 A 
ATOM     57  C   UNL A   1      41.444  30.583  36.291  1.00  0.00     0.029 A 
ATOM     58  N   UNL A   1      41.198  30.071  34.142  1.00  0.00    -0.354 N 
ATOM     59  N   UNL A   1      41.826  28.625  31.653  1.00  0.00    -0.248 NA
ATOM     60  C   UNL A   1      43.190  27.154  30.453  1.00  0.00     0.031 C 
ATOM     61  C   UNL A   1      42.480  29.718  35.920  1.00  0.00     0.029 A 
ATOM     62  C   UNL A   1      42.308  29.370  34.588  1.00  0.00     0.049 A 
ATOM     63  H   UNL A   1      40.837  30.032  33.227  1.00  0.00     0.167 HD
ATOM     64  C   UNL A   1      42.841  28.159  32.487  1.00  0.00     0.074 A 
ATOM     65  C   UNL A   1      43.631  27.235  31.700  1.00  0.00     0.031 C 
ATOM     66  C   UNL A   1      43.093  28.461  33.787  1.00  0.00     0.034 A 
BRANCH  53  67
ATOM     67  C   UNL A   1      39.126  32.567  36.227  1.00  0.00     0.023 A 
ATOM     68  C   UNL A   1      39.613  33.873  36.414  1.00  0.00     0.031 A 
ATOM     69  C   UNL A   1      38.274  32.034  37.210  1.00  0.00     0.131 A 
ATOM     70  C   UNL A   1      39.307  34.572  37.591  1.00  0.00     0.055 A 
ATOM     71  C   UNL A   1      37.908  32.766  38.342  1.00  0.00     0.041 A 
ATOM     72  F   UNL A   1      37.800  30.783  37.099  1.00  0.00    -0.206 F 
ATOM     73  C   UNL A   1      38.439  34.035  38.546  1.00  0.00     0.022 A 
BRANCH  70  74
ATOM     74  S   UNL A   1      40.180  36.125  37.931  1.00  0.00     0.124 S 
ATOM     75  O   UNL A   1      39.377  36.683  39.016  1.00  0.00    -0.237 OA
ATOM     76  O   UNL A   1      41.514  35.663  38.296  1.00  0.00    -0.237 OA
ATOM     77  O   UNL A   1      40.095  36.851  36.666  1.00  0.00    -0.744 OA
ENDBRANCH  70  74
ENDBRANCH  53  67
BRANCH  54  78
ATOM     78  C   UNL A   1      41.611  27.406  27.997  1.00  0.00     0.023 A 
ATOM     79  C   UNL A   1      41.343  26.037  27.840  1.00  0.00     0.031 A 
ATOM     80  C   UNL A   1      42.337  28.056  26.982  1.00  0.00     0.131 A 
ATOM     81  C   UNL A   1      41.830  25.353  26.714  1.00  0.00     0.055 A 
ATOM     82  C   UNL A   1      42.778  27.383  25.841  1.00  0.00     0.041 A 
ATOM     83  F   UNL A   1      42.625  29.364  27.084  1.00  0.00    -0.206 F 
ATOM     84  C   UNL A   1      42.535  26.019  25.708  1.00  0.00     0.022 A 
BRANCH  81  85
ATOM     85  S   UNL A   1      41.594  23.557  26.616  1.00  0.00     0.124 S 
ATOM     86  O   UNL A   1      42.296  23.231  25.380  1.00  0.00    -0.237 OA
ATOM     87  O   UNL A   1      42.224  23.101  27.851  1.00  0.00    -0.237 OA
ATOM     88  O   UNL A   1      40.141  23.406  26.569  1.00  0.00    -0.744 OA
ENDBRANCH  81  85
ENDBRANCH  54  78
BRANCH  66  89
ATOM     89  C   UNL A   1      44.246  27.744  34.450  1.00  0.00     0.023 A 
ATOM     90  C   UNL A   1      44.079  26.505  35.093  1.00  0.00     0.031 A 
ATOM     91  C   UNL A   1      45.530  28.315  34.436  1.00  0.00     0.131 A 
ATOM     92  C   UNL A   1      45.169  25.903  35.740  1.00  0.00     0.055 A 
ATOM     93  C   UNL A   1      46.623  27.683  35.031  1.00  0.00     0.041 A 
ATOM     94  F   UNL A   1      45.747  29.497  33.837  1.00  0.00    -0.206 F 
ATOM     95  C   UNL A   1      46.443  26.476  35.699  1.00  0.00     0.022 A 
BRANCH  92  96
ATOM     96  S   UNL A   1      44.884  24.397  36.712  1.00  0.00     0.124 S 
ATOM     97  O   UNL A   1      44.078  24.900  37.821  1.00  0.00    -0.237 OA
ATOM     98  O   UNL A   1      44.190  23.536  35.760  1.00  0.00    -0.237 OA
ATOM     99  O   UNL A   1      46.231  23.961  37.073  1.00  0.00    -0.744 OA
ENDBRANCH  92  96
ENDBRANCH  66  89
ENDBRANCH  40  41
ENDBRANCH  33  35
ENDBRANCH  32  33
ENDBRANCH  31  32
ENDBRANCH  30  31
ENDBRANCH  29  30
ENDBRANCH  28  29
ENDBRANCH   1  28
TORSDOF 25
ENDMDL
