MODEL 1
REMARK VINA RESULT:     -10.4      0.000      0.000
REMARK SMILES O=C(OCCOCCOCCOCCOC(=O)c1ccccc1O[C@@H]1CCOC2(CCOCC2)C1)c1ccc(-c2c3nc(c(-c4cc(S(=O)(=O)[O-])ccc4F)c4ccc([nH]4)c(-c4cc(S(=O)(=O)[O-])ccc4F)c4nc(c(-c5cc(S(=O)(=O)[O-])ccc5F)c5ccc2[nH]5)C=C4)C=C3)cc1
REMARK SMILES IDX 8 1 7 2 6 3 5 4 4 5 3 6 2 7 1 8 36 9 37 10 98 11 38 12 97 13
REMARK SMILES IDX 39 14 40 15 41 16 91 17 42 18 96 19 90 20 92 21 43 22 95 23
REMARK SMILES IDX 89 24 88 25 44 27 76 28 56 29 75 30 57 31 60 32 74 33 93 34
REMARK SMILES IDX 58 35 59 36 73 38 94 39 61 40 45 41 46 42 54 43 47 44 53 45
REMARK SMILES IDX 55 46 52 47 48 48 49 49 50 50 51 51 77 52 78 53 86 54 79 55
REMARK SMILES IDX 85 56 87 57 84 58 80 59 81 60 82 61 83 62 62 63 63 64 71 65
REMARK SMILES IDX 64 66 70 67 72 68 69 69 65 70 66 71 67 72 68 73 9 74 10 75
REMARK SMILES IDX 11 76 12 77 13 78 14 79 15 80 16 81 17 82 18 83 19 84 23 85
REMARK SMILES IDX 20 86 22 87 21 88 24 89 25 90 26 91 35 92 27 93 29 94 28 95
REMARK SMILES IDX 30 96 34 97 31 98 33 99 32 100
REMARK H PARENT 92 26 60 37
REMARK Flexibility Score: inf
ROOT
ATOM      1  C   UNL A   1      36.828  22.895  23.461  1.00  0.00     0.188 C 
ENDROOT
BRANCH   1   2
ATOM      2  C   UNL A   1      36.759  22.981  24.972  1.00  0.00     0.188 C 
BRANCH   2   3
ATOM      3  O   UNL A   1      37.233  21.836  25.667  1.00  0.00    -0.376 OA
BRANCH   3   4
ATOM      4  C   UNL A   1      38.637  21.644  25.733  1.00  0.00     0.202 C 
BRANCH   4   5
ATOM      5  C   UNL A   1      39.055  20.225  25.349  1.00  0.00     0.261 C 
BRANCH   5   6
ATOM      6  O   UNL A   1      40.176  19.757  26.124  1.00  0.00    -0.460 OA
BRANCH   6   7
ATOM      7  C   UNL A   1      41.506  19.973  25.986  1.00  0.00     0.338 C 
ATOM      8  O   UNL A   1      42.199  19.016  25.639  1.00  0.00    -0.246 OA
BRANCH   7   9
ATOM      9  C   UNL A   1      42.219  21.250  26.335  1.00  0.00     0.060 A 
ATOM     10  C   UNL A   1      42.627  21.631  27.615  1.00  0.00     0.016 A 
ATOM     11  C   UNL A   1      42.574  22.097  25.262  1.00  0.00     0.016 A 
ATOM     12  C   UNL A   1      43.445  22.727  27.825  1.00  0.00     0.010 A 
ATOM     13  C   UNL A   1      43.290  23.281  25.477  1.00  0.00     0.010 A 
ATOM     14  C   UNL A   1      43.703  23.598  26.773  1.00  0.00    -0.014 A 
BRANCH  14  15
ATOM     15  C   UNL A   1      43.990  24.974  27.202  1.00  0.00     0.031 A 
ATOM     16  C   UNL A   1      45.360  25.483  26.837  1.00  0.00     0.074 A 
ATOM     17  C   UNL A   1      42.999  25.779  27.614  1.00  0.00     0.049 A 
ATOM     18  N   UNL A   1      45.864  26.679  26.943  1.00  0.00    -0.248 NA
ATOM     19  C   UNL A   1      46.267  24.506  26.199  1.00  0.00     0.031 C 
ATOM     20  C   UNL A   1      41.596  25.385  27.765  1.00  0.00     0.029 A 
ATOM     21  N   UNL A   1      43.010  27.108  27.930  1.00  0.00    -0.354 N 
ATOM     22  C   UNL A   1      47.137  26.596  26.383  1.00  0.00     0.074 A 
ATOM     23  C   UNL A   1      47.327  25.242  25.927  1.00  0.00     0.031 C 
ATOM     24  C   UNL A   1      40.882  26.456  28.149  1.00  0.00     0.029 A 
ATOM     25  C   UNL A   1      41.783  27.593  28.319  1.00  0.00     0.049 A 
ATOM     26  H   UNL A   1      43.819  27.666  27.884  1.00  0.00     0.167 HD
ATOM     27  C   UNL A   1      48.073  27.567  26.288  1.00  0.00     0.034 A 
ATOM     28  C   UNL A   1      41.463  28.814  28.788  1.00  0.00     0.034 A 
ATOM     29  C   UNL A   1      47.854  28.878  26.836  1.00  0.00     0.049 A 
ATOM     30  C   UNL A   1      42.580  29.832  28.854  1.00  0.00     0.074 A 
ATOM     31  C   UNL A   1      48.742  29.925  26.970  1.00  0.00     0.029 A 
ATOM     32  N   UNL A   1      46.640  29.302  27.374  1.00  0.00    -0.354 N 
ATOM     33  N   UNL A   1      43.824  29.724  28.436  1.00  0.00    -0.248 NA
ATOM     34  C   UNL A   1      42.259  31.128  29.456  1.00  0.00     0.031 C 
ATOM     35  C   UNL A   1      48.087  30.950  27.664  1.00  0.00     0.029 A 
ATOM     36  C   UNL A   1      46.763  30.585  27.870  1.00  0.00     0.049 A 
ATOM     37  H   UNL A   1      45.815  28.765  27.397  1.00  0.00     0.167 HD
ATOM     38  C   UNL A   1      44.424  30.953  28.690  1.00  0.00     0.074 A 
ATOM     39  C   UNL A   1      43.396  31.787  29.285  1.00  0.00     0.031 C 
ATOM     40  C   UNL A   1      45.698  31.367  28.456  1.00  0.00     0.034 A 
BRANCH  27  41
ATOM     41  C   UNL A   1      49.417  27.156  25.740  1.00  0.00     0.023 A 
ATOM     42  C   UNL A   1      50.523  26.900  26.574  1.00  0.00     0.031 A 
ATOM     43  C   UNL A   1      49.635  27.179  24.352  1.00  0.00     0.131 A 
ATOM     44  C   UNL A   1      51.807  26.772  26.014  1.00  0.00     0.055 A 
ATOM     45  C   UNL A   1      50.897  26.963  23.798  1.00  0.00     0.041 A 
ATOM     46  F   UNL A   1      48.631  27.468  23.509  1.00  0.00    -0.206 F 
ATOM     47  C   UNL A   1      51.996  26.777  24.630  1.00  0.00     0.022 A 
BRANCH  44  48
ATOM     48  S   UNL A   1      53.245  26.788  27.124  1.00  0.00     0.124 S 
ATOM     49  O   UNL A   1      52.688  27.424  28.319  1.00  0.00    -0.237 OA
ATOM     50  O   UNL A   1      53.577  25.382  27.242  1.00  0.00    -0.237 OA
ATOM     51  O   UNL A   1      54.225  27.606  26.398  1.00  0.00    -0.744 OA
ENDBRANCH  44  48
ENDBRANCH  27  41
BRANCH  28  52
ATOM     52  C   UNL A   1      40.089  29.118  29.295  1.00  0.00     0.023 A 
ATOM     53  C   UNL A   1      39.758  29.002  30.655  1.00  0.00     0.031 A 
ATOM     54  C   UNL A   1      39.054  29.459  28.402  1.00  0.00     0.131 A 
ATOM     55  C   UNL A   1      38.425  29.173  31.072  1.00  0.00     0.055 A 
ATOM     56  C   UNL A   1      37.745  29.688  28.829  1.00  0.00     0.041 A 
ATOM     57  F   UNL A   1      39.299  29.571  27.086  1.00  0.00    -0.206 F 
ATOM     58  C   UNL A   1      37.420  29.529  30.170  1.00  0.00     0.022 A 
BRANCH  55  59
ATOM     59  S   UNL A   1      37.999  28.811  32.799  1.00  0.00     0.124 S 
ATOM     60  O   UNL A   1      38.094  27.362  32.833  1.00  0.00    -0.237 OA
ATOM     61  O   UNL A   1      39.032  29.544  33.526  1.00  0.00    -0.237 OA
ATOM     62  O   UNL A   1      36.644  29.354  32.935  1.00  0.00    -0.744 OA
ENDBRANCH  55  59
ENDBRANCH  28  52
BRANCH  40  63
ATOM     63  C   UNL A   1      46.011  32.802  28.787  1.00  0.00     0.023 A 
ATOM     64  C   UNL A   1      45.894  33.824  27.832  1.00  0.00     0.031 A 
ATOM     65  C   UNL A   1      46.433  33.142  30.085  1.00  0.00     0.131 A 
ATOM     66  C   UNL A   1      46.268  35.130  28.171  1.00  0.00     0.055 A 
ATOM     67  C   UNL A   1      46.724  34.457  30.437  1.00  0.00     0.041 A 
ATOM     68  F   UNL A   1      46.558  32.199  31.033  1.00  0.00    -0.206 F 
ATOM     69  C   UNL A   1      46.660  35.458  29.472  1.00  0.00     0.022 A 
BRANCH  66  70
ATOM     70  S   UNL A   1      46.357  36.370  26.852  1.00  0.00     0.124 S 
ATOM     71  O   UNL A   1      47.336  37.310  27.387  1.00  0.00    -0.237 OA
ATOM     72  O   UNL A   1      46.796  35.576  25.708  1.00  0.00    -0.237 OA
ATOM     73  O   UNL A   1      44.990  36.876  26.767  1.00  0.00    -0.744 OA
ENDBRANCH  66  70
ENDBRANCH  40  63
ENDBRANCH  14  15
ENDBRANCH   7   9
ENDBRANCH   6   7
ENDBRANCH   5   6
ENDBRANCH   4   5
ENDBRANCH   3   4
ENDBRANCH   2   3
ENDBRANCH   1   2
BRANCH   1  74
ATOM     74  O   UNL A   1      35.755  23.417  22.703  1.00  0.00    -0.377 OA
BRANCH  74  75
ATOM     75  C   UNL A   1      34.520  23.772  23.306  1.00  0.00     0.188 C 
BRANCH  75  76
ATOM     76  C   UNL A   1      33.416  24.303  22.389  1.00  0.00     0.188 C 
BRANCH  76  77
ATOM     77  O   UNL A   1      33.827  25.425  21.621  1.00  0.00    -0.376 OA
BRANCH  77  78
ATOM     78  C   UNL A   1      33.061  26.608  21.844  1.00  0.00     0.202 C 
BRANCH  78  79
ATOM     79  C   UNL A   1      33.599  27.580  22.910  1.00  0.00     0.261 C 
BRANCH  79  80
ATOM     80  O   UNL A   1      32.870  28.837  23.120  1.00  0.00    -0.460 OA
BRANCH  80  81
ATOM     81  C   UNL A   1      31.761  28.937  23.927  1.00  0.00     0.342 C 
ATOM     82  O   UNL A   1      31.716  29.776  24.824  1.00  0.00    -0.246 OA
BRANCH  81  83
ATOM     83  C   UNL A   1      30.418  28.447  23.397  1.00  0.00     0.102 A 
ATOM     84  C   UNL A   1      29.678  29.421  22.688  1.00  0.00     0.019 A 
ATOM     85  C   UNL A   1      29.718  27.277  23.842  1.00  0.00     0.134 A 
ATOM     86  C   UNL A   1      28.292  29.296  22.501  1.00  0.00     0.001 A 
ATOM     87  C   UNL A   1      28.315  27.235  23.744  1.00  0.00     0.047 A 
ATOM     88  C   UNL A   1      27.606  28.224  23.061  1.00  0.00     0.004 A 
BRANCH  85  89
ATOM     89  O   UNL A   1      30.267  26.220  24.514  1.00  0.00    -0.489 OA
BRANCH  89  90
ATOM     90  C   UNL A   1      30.033  25.826  25.919  1.00  0.00     0.178 C 
ATOM     91  C   UNL A   1      30.999  26.755  26.601  1.00  0.00     0.074 C 
ATOM     92  C   UNL A   1      30.370  24.496  26.710  1.00  0.00     0.081 C 
ATOM     93  C   UNL A   1      32.356  26.150  26.264  1.00  0.00     0.165 C 
ATOM     94  C   UNL A   1      31.591  23.784  26.151  1.00  0.00     0.076 C 
ATOM     95  O   UNL A   1      32.396  24.838  25.602  1.00  0.00    -0.375 OA
ATOM     96  C   UNL A   1      30.922  22.741  25.222  1.00  0.00     0.064 C 
ATOM     97  C   UNL A   1      32.521  22.939  27.052  1.00  0.00     0.064 C 
ATOM     98  C   UNL A   1      31.853  21.859  24.448  1.00  0.00     0.163 C 
ATOM     99  C   UNL A   1      33.314  21.868  26.245  1.00  0.00     0.163 C 
ATOM    100  O   UNL A   1      32.499  21.040  25.418  1.00  0.00    -0.381 OA
ENDBRANCH  89  90
ENDBRANCH  85  89
ENDBRANCH  81  83
ENDBRANCH  80  81
ENDBRANCH  79  80
ENDBRANCH  78  79
ENDBRANCH  77  78
ENDBRANCH  76  77
ENDBRANCH  75  76
ENDBRANCH  74  75
ENDBRANCH   1  74
TORSDOF 25
ENDMDL
MODEL 2
REMARK VINA RESULT:     -10.2      4.586      9.627
REMARK SMILES O=C(OCCOCCOCCOCCOC(=O)c1ccccc1O[C@@H]1CCOC2(CCOCC2)C1)c1ccc(-c2c3nc(c(-c4cc(S(=O)(=O)[O-])ccc4F)c4ccc([nH]4)c(-c4cc(S(=O)(=O)[O-])ccc4F)c4nc(c(-c5cc(S(=O)(=O)[O-])ccc5F)c5ccc2[nH]5)C=C4)C=C3)cc1
REMARK SMILES IDX 8 1 7 2 6 3 5 4 4 5 3 6 2 7 1 8 36 9 37 10 98 11 38 12 97 13
REMARK SMILES IDX 39 14 40 15 41 16 91 17 42 18 96 19 90 20 92 21 43 22 95 23
REMARK SMILES IDX 89 24 88 25 44 27 76 28 56 29 75 30 57 31 60 32 74 33 93 34
REMARK SMILES IDX 58 35 59 36 73 38 94 39 61 40 45 41 46 42 54 43 47 44 53 45
REMARK SMILES IDX 55 46 52 47 48 48 49 49 50 50 51 51 77 52 78 53 86 54 79 55
REMARK SMILES IDX 85 56 87 57 84 58 80 59 81 60 82 61 83 62 62 63 63 64 71 65
REMARK SMILES IDX 64 66 70 67 72 68 69 69 65 70 66 71 67 72 68 73 9 74 10 75
REMARK SMILES IDX 11 76 12 77 13 78 14 79 15 80 16 81 17 82 18 83 19 84 23 85
REMARK SMILES IDX 20 86 22 87 21 88 24 89 25 90 26 91 35 92 27 93 29 94 28 95
REMARK SMILES IDX 30 96 34 97 31 98 33 99 32 100
REMARK H PARENT 92 26 60 37
REMARK Flexibility Score: inf
ROOT
ATOM      1  C   UNL A   1      33.038  26.659  22.367  1.00  0.00     0.188 C 
ENDROOT
BRANCH   1   2
ATOM      2  C   UNL A   1      33.667  28.037  22.403  1.00  0.00     0.188 C 
BRANCH   2   3
ATOM      3  O   UNL A   1      33.367  28.810  23.557  1.00  0.00    -0.376 OA
BRANCH   3   4
ATOM      4  C   UNL A   1      33.671  28.244  24.821  1.00  0.00     0.202 C 
BRANCH   4   5
ATOM      5  C   UNL A   1      32.827  28.837  25.949  1.00  0.00     0.261 C 
BRANCH   5   6
ATOM      6  O   UNL A   1      33.600  29.082  27.140  1.00  0.00    -0.460 OA
BRANCH   6   7
ATOM      7  C   UNL A   1      34.460  30.079  27.454  1.00  0.00     0.338 C 
ATOM      8  O   UNL A   1      34.131  31.225  27.145  1.00  0.00    -0.246 OA
BRANCH   7   9
ATOM      9  C   UNL A   1      35.833  29.890  28.039  1.00  0.00     0.060 A 
ATOM     10  C   UNL A   1      37.039  30.095  27.367  1.00  0.00     0.016 A 
ATOM     11  C   UNL A   1      35.903  29.552  29.408  1.00  0.00     0.016 A 
ATOM     12  C   UNL A   1      38.255  30.086  28.028  1.00  0.00     0.010 A 
ATOM     13  C   UNL A   1      37.133  29.410  30.060  1.00  0.00     0.010 A 
ATOM     14  C   UNL A   1      38.310  29.660  29.350  1.00  0.00    -0.014 A 
BRANCH  14  15
ATOM     15  C   UNL A   1      39.606  29.082  29.731  1.00  0.00     0.031 A 
ATOM     16  C   UNL A   1      40.207  29.642  30.993  1.00  0.00     0.074 A 
ATOM     17  C   UNL A   1      40.046  27.954  29.152  1.00  0.00     0.049 A 
ATOM     18  N   UNL A   1      41.253  29.255  31.666  1.00  0.00    -0.248 NA
ATOM     19  C   UNL A   1      39.475  30.763  31.619  1.00  0.00     0.031 C 
ATOM     20  C   UNL A   1      39.369  27.242  28.066  1.00  0.00     0.029 A 
ATOM     21  N   UNL A   1      41.136  27.181  29.433  1.00  0.00    -0.354 N 
ATOM     22  C   UNL A   1      41.298  30.079  32.788  1.00  0.00     0.074 A 
ATOM     23  C   UNL A   1      40.174  30.977  32.717  1.00  0.00     0.031 C 
ATOM     24  C   UNL A   1      40.068  26.133  27.771  1.00  0.00     0.029 A 
ATOM     25  C   UNL A   1      41.261  26.085  28.610  1.00  0.00     0.049 A 
ATOM     26  H   UNL A   1      41.772  27.387  30.155  1.00  0.00     0.167 HD
ATOM     27  C   UNL A   1      42.222  30.096  33.775  1.00  0.00     0.034 A 
ATOM     28  C   UNL A   1      42.259  25.183  28.545  1.00  0.00     0.034 A 
ATOM     29  C   UNL A   1      43.367  29.229  33.748  1.00  0.00     0.049 A 
ATOM     30  C   UNL A   1      43.386  25.341  29.542  1.00  0.00     0.074 A 
ATOM     31  C   UNL A   1      44.474  29.221  34.571  1.00  0.00     0.029 A 
ATOM     32  N   UNL A   1      43.556  28.221  32.804  1.00  0.00    -0.354 N 
ATOM     33  N   UNL A   1      43.497  26.197  30.537  1.00  0.00    -0.248 NA
ATOM     34  C   UNL A   1      44.520  24.423  29.410  1.00  0.00     0.031 C 
ATOM     35  C   UNL A   1      45.367  28.263  34.074  1.00  0.00     0.029 A 
ATOM     36  C   UNL A   1      44.774  27.603  33.005  1.00  0.00     0.049 A 
ATOM     37  H   UNL A   1      42.912  27.982  32.097  1.00  0.00     0.167 HD
ATOM     38  C   UNL A   1      44.696  25.895  31.173  1.00  0.00     0.074 A 
ATOM     39  C   UNL A   1      45.261  24.768  30.453  1.00  0.00     0.031 C 
ATOM     40  C   UNL A   1      45.284  26.481  32.250  1.00  0.00     0.034 A 
BRANCH  27  41
ATOM     41  C   UNL A   1      42.085  31.188  34.808  1.00  0.00     0.023 A 
ATOM     42  C   UNL A   1      41.040  31.203  35.753  1.00  0.00     0.031 A 
ATOM     43  C   UNL A   1      42.923  32.313  34.740  1.00  0.00     0.131 A 
ATOM     44  C   UNL A   1      40.808  32.358  36.520  1.00  0.00     0.055 A 
ATOM     45  C   UNL A   1      42.741  33.422  35.567  1.00  0.00     0.041 A 
ATOM     46  F   UNL A   1      43.904  32.379  33.826  1.00  0.00    -0.206 F 
ATOM     47  C   UNL A   1      41.667  33.457  36.452  1.00  0.00     0.022 A 
BRANCH  44  48
ATOM     48  S   UNL A   1      39.264  32.475  37.469  1.00  0.00     0.124 S 
ATOM     49  O   UNL A   1      38.549  31.281  37.017  1.00  0.00    -0.237 OA
ATOM     50  O   UNL A   1      39.727  32.463  38.842  1.00  0.00    -0.237 OA
ATOM     51  O   UNL A   1      38.681  33.744  37.015  1.00  0.00    -0.744 OA
ENDBRANCH  44  48
ENDBRANCH  27  41
BRANCH  28  52
ATOM     52  C   UNL A   1      42.289  24.129  27.484  1.00  0.00     0.023 A 
ATOM     53  C   UNL A   1      41.720  22.861  27.683  1.00  0.00     0.031 A 
ATOM     54  C   UNL A   1      42.965  24.354  26.268  1.00  0.00     0.131 A 
ATOM     55  C   UNL A   1      41.881  21.856  26.712  1.00  0.00     0.055 A 
ATOM     56  C   UNL A   1      43.069  23.373  25.280  1.00  0.00     0.041 A 
ATOM     57  F   UNL A   1      43.546  25.539  26.020  1.00  0.00    -0.206 F 
ATOM     58  C   UNL A   1      42.539  22.109  25.506  1.00  0.00     0.022 A 
BRANCH  55  59
ATOM     59  S   UNL A   1      41.314  20.175  27.093  1.00  0.00     0.124 S 
ATOM     60  O   UNL A   1      42.555  19.421  27.037  1.00  0.00    -0.237 OA
ATOM     61  O   UNL A   1      40.721  20.348  28.416  1.00  0.00    -0.237 OA
ATOM     62  O   UNL A   1      40.357  19.887  26.020  1.00  0.00    -0.744 OA
ENDBRANCH  55  59
ENDBRANCH  28  52
BRANCH  40  63
ATOM     63  C   UNL A   1      46.566  25.859  32.739  1.00  0.00     0.023 A 
ATOM     64  C   UNL A   1      47.805  26.163  32.155  1.00  0.00     0.031 A 
ATOM     65  C   UNL A   1      46.534  24.947  33.809  1.00  0.00     0.131 A 
ATOM     66  C   UNL A   1      48.957  25.501  32.598  1.00  0.00     0.055 A 
ATOM     67  C   UNL A   1      47.695  24.356  34.299  1.00  0.00     0.041 A 
ATOM     68  F   UNL A   1      45.372  24.626  34.401  1.00  0.00    -0.206 F 
ATOM     69  C   UNL A   1      48.915  24.618  33.681  1.00  0.00     0.022 A 
BRANCH  66  70
ATOM     70  S   UNL A   1      50.490  25.716  31.656  1.00  0.00     0.124 S 
ATOM     71  O   UNL A   1      50.173  26.867  30.819  1.00  0.00    -0.237 OA
ATOM     72  O   UNL A   1      51.473  25.948  32.712  1.00  0.00    -0.237 OA
ATOM     73  O   UNL A   1      50.634  24.449  30.944  1.00  0.00    -0.744 OA
ENDBRANCH  66  70
ENDBRANCH  40  63
ENDBRANCH  14  15
ENDBRANCH   7   9
ENDBRANCH   6   7
ENDBRANCH   5   6
ENDBRANCH   4   5
ENDBRANCH   3   4
ENDBRANCH   2   3
ENDBRANCH   1   2
BRANCH   1  74
ATOM     74  O   UNL A   1      31.628  26.558  22.359  1.00  0.00    -0.377 OA
BRANCH  74  75
ATOM     75  C   UNL A   1      30.935  25.744  23.294  1.00  0.00     0.188 C 
BRANCH  75  76
ATOM     76  C   UNL A   1      29.980  26.444  24.263  1.00  0.00     0.188 C 
BRANCH  76  77
ATOM     77  O   UNL A   1      30.129  26.000  25.604  1.00  0.00    -0.376 OA
BRANCH  77  78
ATOM     78  C   UNL A   1      31.419  25.480  25.917  1.00  0.00     0.202 C 
BRANCH  78  79
ATOM     79  C   UNL A   1      31.458  24.073  26.542  1.00  0.00     0.261 C 
BRANCH  79  80
ATOM     80  O   UNL A   1      32.518  23.158  26.102  1.00  0.00    -0.460 OA
BRANCH  80  81
ATOM     81  C   UNL A   1      33.614  22.851  26.874  1.00  0.00     0.342 C 
ATOM     82  O   UNL A   1      33.473  22.300  27.964  1.00  0.00    -0.246 OA
BRANCH  81  83
ATOM     83  C   UNL A   1      34.966  22.661  26.194  1.00  0.00     0.102 A 
ATOM     84  C   UNL A   1      35.777  23.819  26.175  1.00  0.00     0.019 A 
ATOM     85  C   UNL A   1      35.313  21.591  25.305  1.00  0.00     0.134 A 
ATOM     86  C   UNL A   1      36.832  23.958  25.257  1.00  0.00     0.001 A 
ATOM     87  C   UNL A   1      36.296  21.807  24.321  1.00  0.00     0.047 A 
ATOM     88  C   UNL A   1      37.066  22.970  24.308  1.00  0.00     0.004 A 
BRANCH  85  89
ATOM     89  O   UNL A   1      34.668  20.391  25.202  1.00  0.00    -0.489 OA
BRANCH  89  90
ATOM     90  C   UNL A   1      33.786  19.932  24.107  1.00  0.00     0.178 C 
ATOM     91  C   UNL A   1      32.455  20.351  24.667  1.00  0.00     0.074 C 
ATOM     92  C   UNL A   1      33.397  18.481  23.606  1.00  0.00     0.081 C 
ATOM     93  C   UNL A   1      32.219  19.343  25.785  1.00  0.00     0.165 C 
ATOM     94  C   UNL A   1      33.441  17.452  24.724  1.00  0.00     0.076 C 
ATOM     95  O   UNL A   1      33.138  18.203  25.909  1.00  0.00    -0.375 OA
ATOM     96  C   UNL A   1      34.853  16.852  24.515  1.00  0.00     0.064 C 
ATOM     97  C   UNL A   1      32.508  16.219  24.730  1.00  0.00     0.064 C 
ATOM     98  C   UNL A   1      35.270  15.798  25.496  1.00  0.00     0.163 C 
ATOM     99  C   UNL A   1      33.082  15.046  25.579  1.00  0.00     0.163 C 
ATOM    100  O   UNL A   1      34.420  14.683  25.244  1.00  0.00    -0.381 OA
ENDBRANCH  89  90
ENDBRANCH  85  89
ENDBRANCH  81  83
ENDBRANCH  80  81
ENDBRANCH  79  80
ENDBRANCH  78  79
ENDBRANCH  77  78
ENDBRANCH  76  77
ENDBRANCH  75  76
ENDBRANCH  74  75
ENDBRANCH   1  74
TORSDOF 25
ENDMDL
MODEL 3
REMARK VINA RESULT:     -10.1      1.822      2.106
REMARK SMILES O=C(OCCOCCOCCOCCOC(=O)c1ccccc1O[C@@H]1CCOC2(CCOCC2)C1)c1ccc(-c2c3nc(c(-c4cc(S(=O)(=O)[O-])ccc4F)c4ccc([nH]4)c(-c4cc(S(=O)(=O)[O-])ccc4F)c4nc(c(-c5cc(S(=O)(=O)[O-])ccc5F)c5ccc2[nH]5)C=C4)C=C3)cc1
REMARK SMILES IDX 8 1 7 2 6 3 5 4 4 5 3 6 2 7 1 8 36 9 37 10 98 11 38 12 97 13
REMARK SMILES IDX 39 14 40 15 41 16 91 17 42 18 96 19 90 20 92 21 43 22 95 23
REMARK SMILES IDX 89 24 88 25 44 27 76 28 56 29 75 30 57 31 60 32 74 33 93 34
REMARK SMILES IDX 58 35 59 36 73 38 94 39 61 40 45 41 46 42 54 43 47 44 53 45
REMARK SMILES IDX 55 46 52 47 48 48 49 49 50 50 51 51 77 52 78 53 86 54 79 55
REMARK SMILES IDX 85 56 87 57 84 58 80 59 81 60 82 61 83 62 62 63 63 64 71 65
REMARK SMILES IDX 64 66 70 67 72 68 69 69 65 70 66 71 67 72 68 73 9 74 10 75
REMARK SMILES IDX 11 76 12 77 13 78 14 79 15 80 16 81 17 82 18 83 19 84 23 85
REMARK SMILES IDX 20 86 22 87 21 88 24 89 25 90 26 91 35 92 27 93 29 94 28 95
REMARK SMILES IDX 30 96 34 97 31 98 33 99 32 100
REMARK H PARENT 92 26 60 37
REMARK Flexibility Score: inf
ROOT
ATOM      1  C   UNL A   1      36.658  22.607  23.269  1.00  0.00     0.188 C 
ENDROOT
BRANCH   1   2
ATOM      2  C   UNL A   1      36.410  22.192  24.705  1.00  0.00     0.188 C 
BRANCH   2   3
ATOM      3  O   UNL A   1      36.966  20.938  25.078  1.00  0.00    -0.376 OA
BRANCH   3   4
ATOM      4  C   UNL A   1      38.344  20.908  25.417  1.00  0.00     0.202 C 
BRANCH   4   5
ATOM      5  C   UNL A   1      38.926  19.495  25.382  1.00  0.00     0.261 C 
BRANCH   5   6
ATOM      6  O   UNL A   1      40.037  19.340  26.286  1.00  0.00    -0.460 OA
BRANCH   6   7
ATOM      7  C   UNL A   1      41.351  19.634  26.141  1.00  0.00     0.338 C 
ATOM      8  O   UNL A   1      42.097  18.720  25.784  1.00  0.00    -0.246 OA
BRANCH   7   9
ATOM      9  C   UNL A   1      41.992  20.948  26.492  1.00  0.00     0.060 A 
ATOM     10  C   UNL A   1      42.388  21.345  27.771  1.00  0.00     0.016 A 
ATOM     11  C   UNL A   1      42.285  21.822  25.422  1.00  0.00     0.016 A 
ATOM     12  C   UNL A   1      43.142  22.486  27.981  1.00  0.00     0.010 A 
ATOM     13  C   UNL A   1      42.932  23.044  25.638  1.00  0.00     0.010 A 
ATOM     14  C   UNL A   1      43.339  23.377  26.933  1.00  0.00    -0.014 A 
BRANCH  14  15
ATOM     15  C   UNL A   1      43.548  24.765  27.368  1.00  0.00     0.031 A 
ATOM     16  C   UNL A   1      44.865  25.369  26.961  1.00  0.00     0.074 A 
ATOM     17  C   UNL A   1      42.521  25.497  27.826  1.00  0.00     0.049 A 
ATOM     18  N   UNL A   1      45.291  26.595  27.063  1.00  0.00    -0.248 NA
ATOM     19  C   UNL A   1      45.812  24.463  26.278  1.00  0.00     0.031 C 
ATOM     20  C   UNL A   1      41.154  25.007  28.022  1.00  0.00     0.029 A 
ATOM     21  N   UNL A   1      42.454  26.820  28.158  1.00  0.00    -0.354 N 
ATOM     22  C   UNL A   1      46.546  26.604  26.456  1.00  0.00     0.074 A 
ATOM     23  C   UNL A   1      46.810  25.272  25.977  1.00  0.00     0.031 C 
ATOM     24  C   UNL A   1      40.384  26.023  28.446  1.00  0.00     0.029 A 
ATOM     25  C   UNL A   1      41.212  27.216  28.597  1.00  0.00     0.049 A 
ATOM     26  H   UNL A   1      43.221  27.432  28.090  1.00  0.00     0.167 HD
ATOM     27  C   UNL A   1      47.410  27.637  26.340  1.00  0.00     0.034 A 
ATOM     28  C   UNL A   1      40.828  28.408  29.093  1.00  0.00     0.034 A 
ATOM     29  C   UNL A   1      47.124  28.925  26.912  1.00  0.00     0.049 A 
ATOM     30  C   UNL A   1      41.875  29.499  29.132  1.00  0.00     0.074 A 
ATOM     31  C   UNL A   1      47.943  30.028  27.028  1.00  0.00     0.029 A 
ATOM     32  N   UNL A   1      45.905  29.260  27.499  1.00  0.00    -0.354 N 
ATOM     33  N   UNL A   1      43.108  29.480  28.668  1.00  0.00    -0.248 NA
ATOM     34  C   UNL A   1      41.490  30.764  29.761  1.00  0.00     0.031 C 
ATOM     35  C   UNL A   1      47.247  31.000  27.757  1.00  0.00     0.029 A 
ATOM     36  C   UNL A   1      45.960  30.543  28.006  1.00  0.00     0.049 A 
ATOM     37  H   UNL A   1      45.119  28.668  27.545  1.00  0.00     0.167 HD
ATOM     38  C   UNL A   1      43.632  30.744  28.915  1.00  0.00     0.074 A 
ATOM     39  C   UNL A   1      42.573  31.500  29.558  1.00  0.00     0.031 C 
ATOM     40  C   UNL A   1      44.866  31.245  28.640  1.00  0.00     0.034 A 
BRANCH  27  41
ATOM     41  C   UNL A   1      48.758  27.325  25.739  1.00  0.00     0.023 A 
ATOM     42  C   UNL A   1      49.888  27.042  26.531  1.00  0.00     0.031 A 
ATOM     43  C   UNL A   1      48.948  27.470  24.354  1.00  0.00     0.131 A 
ATOM     44  C   UNL A   1      51.164  27.009  25.942  1.00  0.00     0.055 A 
ATOM     45  C   UNL A   1      50.207  27.349  23.764  1.00  0.00     0.041 A 
ATOM     46  F   UNL A   1      47.919  27.790  23.553  1.00  0.00    -0.206 F 
ATOM     47  C   UNL A   1      51.327  27.135  24.561  1.00  0.00     0.022 A 
BRANCH  44  48
ATOM     48  S   UNL A   1      52.621  26.987  27.026  1.00  0.00     0.124 S 
ATOM     49  O   UNL A   1      52.881  25.552  27.142  1.00  0.00    -0.237 OA
ATOM     50  O   UNL A   1      53.594  27.756  26.275  1.00  0.00    -0.237 OA
ATOM     51  O   UNL A   1      52.138  27.622  28.260  1.00  0.00    -0.744 OA
ENDBRANCH  44  48
ENDBRANCH  27  41
BRANCH  28  52
ATOM     52  C   UNL A   1      39.456  28.614  29.653  1.00  0.00     0.023 A 
ATOM     53  C   UNL A   1      38.413  29.151  28.882  1.00  0.00     0.031 A 
ATOM     54  C   UNL A   1      39.188  28.344  31.010  1.00  0.00     0.131 A 
ATOM     55  C   UNL A   1      37.175  29.448  29.480  1.00  0.00     0.055 A 
ATOM     56  C   UNL A   1      37.938  28.583  31.585  1.00  0.00     0.041 A 
ATOM     57  F   UNL A   1      40.145  27.844  31.808  1.00  0.00    -0.206 F 
ATOM     58  C   UNL A   1      36.927  29.154  30.822  1.00  0.00     0.022 A 
BRANCH  55  59
ATOM     59  S   UNL A   1      35.925  30.332  28.505  1.00  0.00     0.124 S 
ATOM     60  O   UNL A   1      35.544  31.404  29.409  1.00  0.00    -0.237 OA
ATOM     61  O   UNL A   1      36.685  30.723  27.321  1.00  0.00    -0.237 OA
ATOM     62  O   UNL A   1      34.896  29.314  28.270  1.00  0.00    -0.744 OA
ENDBRANCH  55  59
ENDBRANCH  28  52
BRANCH  40  63
ATOM     63  C   UNL A   1      45.094  32.695  28.978  1.00  0.00     0.023 A 
ATOM     64  C   UNL A   1      45.632  33.092  30.211  1.00  0.00     0.031 A 
ATOM     65  C   UNL A   1      44.763  33.689  28.040  1.00  0.00     0.131 A 
ATOM     66  C   UNL A   1      45.755  34.456  30.504  1.00  0.00     0.055 A 
ATOM     67  C   UNL A   1      44.965  35.041  28.306  1.00  0.00     0.041 A 
ATOM     68  F   UNL A   1      44.247  33.359  26.845  1.00  0.00    -0.206 F 
ATOM     69  C   UNL A   1      45.447  35.432  29.552  1.00  0.00     0.022 A 
BRANCH  66  70
ATOM     70  S   UNL A   1      46.201  34.938  32.193  1.00  0.00     0.124 S 
ATOM     71  O   UNL A   1      45.115  34.354  32.972  1.00  0.00    -0.237 OA
ATOM     72  O   UNL A   1      47.511  34.313  32.358  1.00  0.00    -0.237 OA
ATOM     73  O   UNL A   1      46.214  36.398  32.139  1.00  0.00    -0.744 OA
ENDBRANCH  66  70
ENDBRANCH  40  63
ENDBRANCH  14  15
ENDBRANCH   7   9
ENDBRANCH   6   7
ENDBRANCH   5   6
ENDBRANCH   4   5
ENDBRANCH   3   4
ENDBRANCH   2   3
ENDBRANCH   1   2
BRANCH   1  74
ATOM     74  O   UNL A   1      35.649  23.327  22.589  1.00  0.00    -0.377 OA
BRANCH  74  75
ATOM     75  C   UNL A   1      34.685  24.099  23.289  1.00  0.00     0.188 C 
BRANCH  75  76
ATOM     76  C   UNL A   1      33.489  24.622  22.490  1.00  0.00     0.188 C 
BRANCH  76  77
ATOM     77  O   UNL A   1      33.826  25.700  21.629  1.00  0.00    -0.376 OA
BRANCH  77  78
ATOM     78  C   UNL A   1      33.114  26.908  21.885  1.00  0.00     0.202 C 
BRANCH  78  79
ATOM     79  C   UNL A   1      33.935  28.081  22.450  1.00  0.00     0.261 C 
BRANCH  79  80
ATOM     80  O   UNL A   1      33.204  29.198  23.062  1.00  0.00    -0.460 OA
BRANCH  80  81
ATOM     81  C   UNL A   1      32.125  29.022  23.896  1.00  0.00     0.342 C 
ATOM     82  O   UNL A   1      32.066  29.616  24.971  1.00  0.00    -0.246 OA
BRANCH  81  83
ATOM     83  C   UNL A   1      30.793  28.582  23.297  1.00  0.00     0.102 A 
ATOM     84  C   UNL A   1      30.139  29.576  22.532  1.00  0.00     0.019 A 
ATOM     85  C   UNL A   1      30.018  27.451  23.718  1.00  0.00     0.134 A 
ATOM     86  C   UNL A   1      28.761  29.507  22.268  1.00  0.00     0.001 A 
ATOM     87  C   UNL A   1      28.622  27.469  23.541  1.00  0.00     0.047 A 
ATOM     88  C   UNL A   1      27.999  28.476  22.804  1.00  0.00     0.004 A 
BRANCH  85  89
ATOM     89  O   UNL A   1      30.481  26.383  24.436  1.00  0.00    -0.489 OA
BRANCH  89  90
ATOM     90  C   UNL A   1      30.067  25.961  25.791  1.00  0.00     0.178 C 
ATOM     91  C   UNL A   1      30.951  26.860  26.611  1.00  0.00     0.074 C 
ATOM     92  C   UNL A   1      30.286  24.609  26.585  1.00  0.00     0.081 C 
ATOM     93  C   UNL A   1      32.332  26.243  26.432  1.00  0.00     0.165 C 
ATOM     94  C   UNL A   1      31.559  23.892  26.167  1.00  0.00     0.076 C 
ATOM     95  O   UNL A   1      32.439  24.946  25.749  1.00  0.00    -0.375 OA
ATOM     96  C   UNL A   1      31.001  22.880  25.136  1.00  0.00     0.064 C 
ATOM     97  C   UNL A   1      32.359  23.013  27.156  1.00  0.00     0.064 C 
ATOM     98  C   UNL A   1      32.012  22.002  24.464  1.00  0.00     0.163 C 
ATOM     99  C   UNL A   1      33.234  21.949  26.430  1.00  0.00     0.163 C 
ATOM    100  O   UNL A   1      32.521  21.152  25.487  1.00  0.00    -0.381 OA
ENDBRANCH  89  90
ENDBRANCH  85  89
ENDBRANCH  81  83
ENDBRANCH  80  81
ENDBRANCH  79  80
ENDBRANCH  78  79
ENDBRANCH  77  78
ENDBRANCH  76  77
ENDBRANCH  75  76
ENDBRANCH  74  75
ENDBRANCH   1  74
TORSDOF 25
ENDMDL
