MODEL 1
REMARK VINA RESULT:     -10.6      0.000      0.000
REMARK SMILES O=C(OCCOCCOCCOCCOC(=O)c1ccc(-c2cccc(O)c2)cc1Cl)c1ccc(-c2c3nc(c(-c4cc(S(=O)(=O)[O-])ccc4F)c4ccc([nH]4)c(-c4cc(S(=O)(=O)[O-])ccc4F)c4nc(c(-c5cc(S(=O)(=O)[O-])ccc5F)c5ccc2[nH]5)C=C4)C=C3)cc1
REMARK SMILES IDX 8 1 7 2 6 3 5 4 4 5 3 6 2 7 1 8 32 9 33 10 94 11 34 12 93 13
REMARK SMILES IDX 35 14 36 15 37 16 87 17 38 18 92 19 86 20 88 21 39 22 91 23
REMARK SMILES IDX 85 24 84 25 40 27 72 28 52 29 71 30 53 31 56 32 70 33 89 34
REMARK SMILES IDX 54 35 55 36 69 38 90 39 57 40 41 41 42 42 50 43 43 44 49 45
REMARK SMILES IDX 51 46 48 47 44 48 45 49 46 50 47 51 73 52 74 53 82 54 75 55
REMARK SMILES IDX 81 56 83 57 80 58 76 59 77 60 78 61 79 62 58 63 59 64 67 65
REMARK SMILES IDX 60 66 66 67 68 68 65 69 61 70 62 71 63 72 64 73 9 74 10 75
REMARK SMILES IDX 11 76 12 77 13 78 14 79 15 80 16 81 17 82 18 83 19 84 30 85
REMARK SMILES IDX 20 86 29 87 31 88 21 89 22 90 23 91 28 92 24 93 26 94 25 95
REMARK SMILES IDX 27 96
REMARK H PARENT 88 26 56 37 27 97
REMARK Flexibility Score: inf
ROOT
ATOM      1  C   UNL A   1      33.206  19.966  25.756  1.00  0.00     0.188 C 
ENDROOT
BRANCH   1   2
ATOM      2  C   UNL A   1      34.199  19.427  24.726  1.00  0.00     0.188 C 
BRANCH   2   3
ATOM      3  O   UNL A   1      35.459  20.097  24.799  1.00  0.00    -0.376 OA
BRANCH   3   4
ATOM      4  C   UNL A   1      35.599  21.092  25.813  1.00  0.00     0.202 C 
BRANCH   4   5
ATOM      5  C   UNL A   1      36.714  22.112  25.583  1.00  0.00     0.261 C 
BRANCH   5   6
ATOM      6  O   UNL A   1      37.978  21.505  25.292  1.00  0.00    -0.460 OA
BRANCH   6   7
ATOM      7  C   UNL A   1      39.134  21.621  25.989  1.00  0.00     0.338 C 
ATOM      8  O   UNL A   1      39.749  20.587  26.252  1.00  0.00    -0.246 OA
BRANCH   7   9
ATOM      9  C   UNL A   1      39.707  22.914  26.488  1.00  0.00     0.060 A 
ATOM     10  C   UNL A   1      39.443  24.188  25.976  1.00  0.00     0.016 A 
ATOM     11  C   UNL A   1      40.522  22.828  27.628  1.00  0.00     0.016 A 
ATOM     12  C   UNL A   1      39.982  25.335  26.537  1.00  0.00     0.010 A 
ATOM     13  C   UNL A   1      41.081  23.972  28.199  1.00  0.00     0.010 A 
ATOM     14  C   UNL A   1      40.831  25.225  27.629  1.00  0.00    -0.014 A 
BRANCH  14  15
ATOM     15  C   UNL A   1      41.656  26.390  27.975  1.00  0.00     0.031 A 
ATOM     16  C   UNL A   1      40.994  27.459  28.785  1.00  0.00     0.074 A 
ATOM     17  C   UNL A   1      42.960  26.428  27.666  1.00  0.00     0.049 A 
ATOM     18  N   UNL A   1      41.394  28.665  29.061  1.00  0.00    -0.248 NA
ATOM     19  C   UNL A   1      39.683  27.107  29.356  1.00  0.00     0.031 C 
ATOM     20  C   UNL A   1      43.709  25.336  27.039  1.00  0.00     0.029 A 
ATOM     21  N   UNL A   1      43.883  27.420  27.834  1.00  0.00    -0.354 N 
ATOM     22  C   UNL A   1      40.357  29.239  29.791  1.00  0.00     0.074 A 
ATOM     23  C   UNL A   1      39.315  28.247  29.910  1.00  0.00     0.031 C 
ATOM     24  C   UNL A   1      44.977  25.735  26.850  1.00  0.00     0.029 A 
ATOM     25  C   UNL A   1      45.098  27.130  27.259  1.00  0.00     0.049 A 
ATOM     26  H   UNL A   1      43.698  28.257  28.319  1.00  0.00     0.167 HD
ATOM     27  C   UNL A   1      40.295  30.497  30.289  1.00  0.00     0.034 A 
ATOM     28  C   UNL A   1      46.147  27.941  27.023  1.00  0.00     0.034 A 
ATOM     29  C   UNL A   1      41.370  31.437  30.106  1.00  0.00     0.049 A 
ATOM     30  C   UNL A   1      46.022  29.378  27.467  1.00  0.00     0.074 A 
ATOM     31  C   UNL A   1      41.441  32.765  30.475  1.00  0.00     0.029 A 
ATOM     32  N   UNL A   1      42.575  31.132  29.472  1.00  0.00    -0.354 N 
ATOM     33  N   UNL A   1      45.008  29.967  28.066  1.00  0.00    -0.248 NA
ATOM     34  C   UNL A   1      47.161  30.260  27.201  1.00  0.00     0.031 C 
ATOM     35  C   UNL A   1      42.652  33.280  29.997  1.00  0.00     0.029 A 
ATOM     36  C   UNL A   1      43.382  32.251  29.415  1.00  0.00     0.049 A 
ATOM     37  H   UNL A   1      42.815  30.246  29.118  1.00  0.00     0.167 HD
ATOM     38  C   UNL A   1      45.398  31.285  28.275  1.00  0.00     0.074 A 
ATOM     39  C   UNL A   1      46.741  31.401  27.734  1.00  0.00     0.031 C 
ATOM     40  C   UNL A   1      44.722  32.305  28.866  1.00  0.00     0.034 A 
BRANCH  27  41
ATOM     41  C   UNL A   1      38.986  30.911  30.922  1.00  0.00     0.023 A 
ATOM     42  C   UNL A   1      37.884  31.333  30.154  1.00  0.00     0.031 A 
ATOM     43  C   UNL A   1      38.895  31.040  32.319  1.00  0.00     0.131 A 
ATOM     44  C   UNL A   1      36.805  31.981  30.775  1.00  0.00     0.055 A 
ATOM     45  C   UNL A   1      37.770  31.589  32.939  1.00  0.00     0.041 A 
ATOM     46  F   UNL A   1      39.923  30.689  33.108  1.00  0.00    -0.206 F 
ATOM     47  C   UNL A   1      36.728  32.089  32.166  1.00  0.00     0.022 A 
BRANCH  44  48
ATOM     48  S   UNL A   1      35.621  32.883  29.733  1.00  0.00     0.124 S 
ATOM     49  O   UNL A   1      34.343  32.383  30.237  1.00  0.00    -0.237 OA
ATOM     50  O   UNL A   1      35.926  34.276  30.039  1.00  0.00    -0.237 OA
ATOM     51  O   UNL A   1      35.958  32.453  28.377  1.00  0.00    -0.744 OA
ENDBRANCH  44  48
ENDBRANCH  27  41
BRANCH  28  52
ATOM     52  C   UNL A   1      47.324  27.436  26.260  1.00  0.00     0.023 A 
ATOM     53  C   UNL A   1      48.365  26.732  26.883  1.00  0.00     0.031 A 
ATOM     54  C   UNL A   1      47.410  27.635  24.866  1.00  0.00     0.131 A 
ATOM     55  C   UNL A   1      49.450  26.265  26.120  1.00  0.00     0.055 A 
ATOM     56  C   UNL A   1      48.464  27.127  24.106  1.00  0.00     0.041 A 
ATOM     57  F   UNL A   1      46.445  28.304  24.215  1.00  0.00    -0.206 F 
ATOM     58  C   UNL A   1      49.496  26.442  24.734  1.00  0.00     0.022 A 
BRANCH  55  59
ATOM     59  S   UNL A   1      50.834  25.456  26.970  1.00  0.00     0.124 S 
ATOM     60  O   UNL A   1      50.171  24.323  27.605  1.00  0.00    -0.237 OA
ATOM     61  O   UNL A   1      51.727  25.138  25.862  1.00  0.00    -0.237 OA
ATOM     62  O   UNL A   1      51.321  26.487  27.884  1.00  0.00    -0.744 OA
ENDBRANCH  55  59
ENDBRANCH  28  52
BRANCH  40  63
ATOM     63  C   UNL A   1      45.456  33.609  29.024  1.00  0.00     0.023 A 
ATOM     64  C   UNL A   1      46.241  33.888  30.152  1.00  0.00     0.031 A 
ATOM     65  C   UNL A   1      45.414  34.554  27.982  1.00  0.00     0.131 A 
ATOM     66  C   UNL A   1      46.937  35.103  30.225  1.00  0.00     0.055 A 
ATOM     67  C   UNL A   1      46.154  35.732  28.035  1.00  0.00     0.041 A 
ATOM     68  F   UNL A   1      44.676  34.327  26.884  1.00  0.00    -0.206 F 
ATOM     69  C   UNL A   1      46.917  36.015  29.164  1.00  0.00     0.022 A 
BRANCH  66  70
ATOM     70  S   UNL A   1      47.832  35.504  31.749  1.00  0.00     0.124 S 
ATOM     71  O   UNL A   1      46.893  35.061  32.775  1.00  0.00    -0.237 OA
ATOM     72  O   UNL A   1      49.051  34.713  31.615  1.00  0.00    -0.237 OA
ATOM     73  O   UNL A   1      48.020  36.952  31.663  1.00  0.00    -0.744 OA
ENDBRANCH  66  70
ENDBRANCH  40  63
ENDBRANCH  14  15
ENDBRANCH   7   9
ENDBRANCH   6   7
ENDBRANCH   5   6
ENDBRANCH   4   5
ENDBRANCH   3   4
ENDBRANCH   2   3
ENDBRANCH   1   2
BRANCH   1  74
ATOM     74  O   UNL A   1      31.954  20.403  25.228  1.00  0.00    -0.377 OA
BRANCH  74  75
ATOM     75  C   UNL A   1      31.680  21.797  25.328  1.00  0.00     0.188 C 
BRANCH  75  76
ATOM     76  C   UNL A   1      32.841  22.804  25.140  1.00  0.00     0.188 C 
BRANCH  76  77
ATOM     77  O   UNL A   1      33.334  22.871  23.813  1.00  0.00    -0.376 OA
BRANCH  77  78
ATOM     78  C   UNL A   1      32.387  23.197  22.805  1.00  0.00     0.202 C 
BRANCH  78  79
ATOM     79  C   UNL A   1      31.734  24.591  22.853  1.00  0.00     0.261 C 
BRANCH  79  80
ATOM     80  O   UNL A   1      30.409  24.645  23.410  1.00  0.00    -0.460 OA
BRANCH  80  81
ATOM     81  C   UNL A   1      30.191  25.388  24.514  1.00  0.00     0.339 C 
ATOM     82  O   UNL A   1      30.433  25.081  25.668  1.00  0.00    -0.246 OA
BRANCH  81  83
ATOM     83  C   UNL A   1      29.838  26.759  24.078  1.00  0.00     0.078 A 
ATOM     84  C   UNL A   1      28.533  26.968  23.596  1.00  0.00     0.018 A 
ATOM     85  C   UNL A   1      30.708  27.846  24.203  1.00  0.00     0.056 A 
ATOM     86  C   UNL A   1      28.109  28.249  23.227  1.00  0.00     0.010 A 
ATOM     87  C   UNL A   1      30.284  29.122  23.803  1.00  0.00     0.030 A 
ATOM     88  Cl  UNL A   1      32.334  27.681  24.759  1.00  0.00    -0.083 Cl
ATOM     89  C   UNL A   1      28.996  29.332  23.280  1.00  0.00    -0.017 A 
BRANCH  89  90
ATOM     90  C   UNL A   1      28.674  30.589  22.598  1.00  0.00    -0.015 A 
ATOM     91  C   UNL A   1      28.230  30.510  21.265  1.00  0.00     0.009 A 
ATOM     92  C   UNL A   1      28.773  31.851  23.196  1.00  0.00     0.054 A 
ATOM     93  C   UNL A   1      27.899  31.652  20.540  1.00  0.00     0.004 A 
ATOM     94  C   UNL A   1      28.441  32.992  22.461  1.00  0.00     0.116 A 
ATOM     95  C   UNL A   1      28.006  32.903  21.139  1.00  0.00     0.046 A 
BRANCH  94  96
ATOM     96  O   UNL A   1      28.556  34.208  23.072  1.00  0.00    -0.508 OA
ATOM     97  H   UNL A   1      27.841  34.551  23.570  1.00  0.00     0.293 HD
ENDBRANCH  94  96
ENDBRANCH  89  90
ENDBRANCH  81  83
ENDBRANCH  80  81
ENDBRANCH  79  80
ENDBRANCH  78  79
ENDBRANCH  77  78
ENDBRANCH  76  77
ENDBRANCH  75  76
ENDBRANCH  74  75
ENDBRANCH   1  74
TORSDOF 25
ENDMDL
MODEL 2
REMARK VINA RESULT:     -10.6      1.612      2.092
REMARK SMILES O=C(OCCOCCOCCOCCOC(=O)c1ccc(-c2cccc(O)c2)cc1Cl)c1ccc(-c2c3nc(c(-c4cc(S(=O)(=O)[O-])ccc4F)c4ccc([nH]4)c(-c4cc(S(=O)(=O)[O-])ccc4F)c4nc(c(-c5cc(S(=O)(=O)[O-])ccc5F)c5ccc2[nH]5)C=C4)C=C3)cc1
REMARK SMILES IDX 8 1 7 2 6 3 5 4 4 5 3 6 2 7 1 8 32 9 33 10 94 11 34 12 93 13
REMARK SMILES IDX 35 14 36 15 37 16 87 17 38 18 92 19 86 20 88 21 39 22 91 23
REMARK SMILES IDX 85 24 84 25 40 27 72 28 52 29 71 30 53 31 56 32 70 33 89 34
REMARK SMILES IDX 54 35 55 36 69 38 90 39 57 40 41 41 42 42 50 43 43 44 49 45
REMARK SMILES IDX 51 46 48 47 44 48 45 49 46 50 47 51 73 52 74 53 82 54 75 55
REMARK SMILES IDX 81 56 83 57 80 58 76 59 77 60 78 61 79 62 58 63 59 64 67 65
REMARK SMILES IDX 60 66 66 67 68 68 65 69 61 70 62 71 63 72 64 73 9 74 10 75
REMARK SMILES IDX 11 76 12 77 13 78 14 79 15 80 16 81 17 82 18 83 19 84 30 85
REMARK SMILES IDX 20 86 29 87 31 88 21 89 22 90 23 91 28 92 24 93 26 94 25 95
REMARK SMILES IDX 27 96
REMARK H PARENT 88 26 56 37 27 97
REMARK Flexibility Score: inf
ROOT
ATOM      1  C   UNL A   1      32.960  19.863  25.718  1.00  0.00     0.188 C 
ENDROOT
BRANCH   1   2
ATOM      2  C   UNL A   1      33.824  19.568  24.491  1.00  0.00     0.188 C 
BRANCH   2   3
ATOM      3  O   UNL A   1      35.136  20.117  24.619  1.00  0.00    -0.376 OA
BRANCH   3   4
ATOM      4  C   UNL A   1      35.355  21.010  25.711  1.00  0.00     0.202 C 
BRANCH   4   5
ATOM      5  C   UNL A   1      36.606  21.883  25.606  1.00  0.00     0.261 C 
BRANCH   5   6
ATOM      6  O   UNL A   1      37.792  21.131  25.329  1.00  0.00    -0.460 OA
BRANCH   6   7
ATOM      7  C   UNL A   1      39.011  21.261  25.909  1.00  0.00     0.338 C 
ATOM      8  O   UNL A   1      39.699  20.246  26.024  1.00  0.00    -0.246 OA
BRANCH   7   9
ATOM      9  C   UNL A   1      39.571  22.544  26.447  1.00  0.00     0.060 A 
ATOM     10  C   UNL A   1      39.224  23.834  26.037  1.00  0.00     0.016 A 
ATOM     11  C   UNL A   1      40.469  22.423  27.520  1.00  0.00     0.016 A 
ATOM     12  C   UNL A   1      39.760  24.967  26.630  1.00  0.00     0.010 A 
ATOM     13  C   UNL A   1      41.026  23.552  28.120  1.00  0.00     0.010 A 
ATOM     14  C   UNL A   1      40.690  24.826  27.649  1.00  0.00    -0.014 A 
BRANCH  14  15
ATOM     15  C   UNL A   1      41.495  26.000  28.009  1.00  0.00     0.031 A 
ATOM     16  C   UNL A   1      40.814  27.049  28.829  1.00  0.00     0.074 A 
ATOM     17  C   UNL A   1      42.798  26.063  27.702  1.00  0.00     0.049 A 
ATOM     18  N   UNL A   1      41.193  28.260  29.119  1.00  0.00    -0.248 NA
ATOM     19  C   UNL A   1      39.508  26.670  29.394  1.00  0.00     0.031 C 
ATOM     20  C   UNL A   1      43.567  24.991  27.066  1.00  0.00     0.029 A 
ATOM     21  N   UNL A   1      43.705  27.069  27.883  1.00  0.00    -0.354 N 
ATOM     22  C   UNL A   1      40.147  28.809  29.853  1.00  0.00     0.074 A 
ATOM     23  C   UNL A   1      39.121  27.798  29.959  1.00  0.00     0.031 C 
ATOM     24  C   UNL A   1      44.828  25.412  26.883  1.00  0.00     0.029 A 
ATOM     25  C   UNL A   1      44.926  26.805  27.306  1.00  0.00     0.049 A 
ATOM     26  H   UNL A   1      43.506  27.898  28.375  1.00  0.00     0.167 HD
ATOM     27  C   UNL A   1      40.063  30.060  30.364  1.00  0.00     0.034 A 
ATOM     28  C   UNL A   1      45.962  27.635  27.081  1.00  0.00     0.034 A 
ATOM     29  C   UNL A   1      41.123  31.020  30.192  1.00  0.00     0.049 A 
ATOM     30  C   UNL A   1      45.812  29.065  27.540  1.00  0.00     0.074 A 
ATOM     31  C   UNL A   1      41.170  32.345  30.575  1.00  0.00     0.029 A 
ATOM     32  N   UNL A   1      42.333  30.741  29.557  1.00  0.00    -0.354 N 
ATOM     33  N   UNL A   1      44.788  29.632  28.143  1.00  0.00    -0.248 NA
ATOM     34  C   UNL A   1      46.936  29.969  27.285  1.00  0.00     0.031 C 
ATOM     35  C   UNL A   1      42.374  32.884  30.105  1.00  0.00     0.029 A 
ATOM     36  C   UNL A   1      43.122  31.874  29.513  1.00  0.00     0.049 A 
ATOM     37  H   UNL A   1      42.588  29.863  29.194  1.00  0.00     0.167 HD
ATOM     38  C   UNL A   1      45.155  30.954  28.366  1.00  0.00     0.074 A 
ATOM     39  C   UNL A   1      46.497  31.097  27.829  1.00  0.00     0.031 C 
ATOM     40  C   UNL A   1      44.461  31.955  28.967  1.00  0.00     0.034 A 
BRANCH  27  41
ATOM     41  C   UNL A   1      38.747  30.445  30.999  1.00  0.00     0.023 A 
ATOM     42  C   UNL A   1      37.736  31.112  30.279  1.00  0.00     0.031 A 
ATOM     43  C   UNL A   1      38.566  30.289  32.384  1.00  0.00     0.131 A 
ATOM     44  C   UNL A   1      36.666  31.708  30.965  1.00  0.00     0.055 A 
ATOM     45  C   UNL A   1      37.444  30.793  33.045  1.00  0.00     0.041 A 
ATOM     46  F   UNL A   1      39.506  29.694  33.134  1.00  0.00    -0.206 F 
ATOM     47  C   UNL A   1      36.498  31.531  32.341  1.00  0.00     0.022 A 
BRANCH  44  48
ATOM     48  S   UNL A   1      35.629  32.907  30.076  1.00  0.00     0.124 S 
ATOM     49  O   UNL A   1      36.171  34.178  30.557  1.00  0.00    -0.237 OA
ATOM     50  O   UNL A   1      35.899  32.587  28.680  1.00  0.00    -0.237 OA
ATOM     51  O   UNL A   1      34.276  32.602  30.538  1.00  0.00    -0.744 OA
ENDBRANCH  44  48
ENDBRANCH  27  41
BRANCH  28  52
ATOM     52  C   UNL A   1      47.147  27.158  26.314  1.00  0.00     0.023 A 
ATOM     53  C   UNL A   1      48.251  26.567  26.948  1.00  0.00     0.031 A 
ATOM     54  C   UNL A   1      47.181  27.268  24.909  1.00  0.00     0.131 A 
ATOM     55  C   UNL A   1      49.343  26.121  26.182  1.00  0.00     0.055 A 
ATOM     56  C   UNL A   1      48.245  26.780  24.149  1.00  0.00     0.041 A 
ATOM     57  F   UNL A   1      46.155  27.827  24.247  1.00  0.00    -0.206 F 
ATOM     58  C   UNL A   1      49.338  26.207  24.787  1.00  0.00     0.022 A 
BRANCH  55  59
ATOM     59  S   UNL A   1      50.801  25.464  27.038  1.00  0.00     0.124 S 
ATOM     60  O   UNL A   1      51.404  26.679  27.574  1.00  0.00    -0.237 OA
ATOM     61  O   UNL A   1      50.200  24.562  28.014  1.00  0.00    -0.237 OA
ATOM     62  O   UNL A   1      51.557  24.810  25.972  1.00  0.00    -0.744 OA
ENDBRANCH  55  59
ENDBRANCH  28  52
BRANCH  40  63
ATOM     63  C   UNL A   1      45.174  33.270  29.139  1.00  0.00     0.023 A 
ATOM     64  C   UNL A   1      45.170  34.255  28.141  1.00  0.00     0.031 A 
ATOM     65  C   UNL A   1      45.809  33.554  30.362  1.00  0.00     0.131 A 
ATOM     66  C   UNL A   1      45.816  35.477  28.375  1.00  0.00     0.055 A 
ATOM     67  C   UNL A   1      46.397  34.791  30.610  1.00  0.00     0.041 A 
ATOM     68  F   UNL A   1      45.837  32.639  31.345  1.00  0.00    -0.206 F 
ATOM     69  C   UNL A   1      46.408  35.760  29.611  1.00  0.00     0.022 A 
BRANCH  66  70
ATOM     70  S   UNL A   1      45.917  36.681  27.024  1.00  0.00     0.124 S 
ATOM     71  O   UNL A   1      44.591  37.290  27.063  1.00  0.00    -0.237 OA
ATOM     72  O   UNL A   1      47.024  37.533  27.445  1.00  0.00    -0.237 OA
ATOM     73  O   UNL A   1      46.185  35.853  25.849  1.00  0.00    -0.744 OA
ENDBRANCH  66  70
ENDBRANCH  40  63
ENDBRANCH  14  15
ENDBRANCH   7   9
ENDBRANCH   6   7
ENDBRANCH   5   6
ENDBRANCH   4   5
ENDBRANCH   3   4
ENDBRANCH   2   3
ENDBRANCH   1   2
BRANCH   1  74
ATOM     74  O   UNL A   1      31.789  20.640  25.469  1.00  0.00    -0.377 OA
BRANCH  74  75
ATOM     75  C   UNL A   1      31.944  21.748  24.587  1.00  0.00     0.188 C 
BRANCH  75  76
ATOM     76  C   UNL A   1      31.176  23.058  24.888  1.00  0.00     0.188 C 
BRANCH  76  77
ATOM     77  O   UNL A   1      31.763  23.847  25.909  1.00  0.00    -0.376 OA
BRANCH  77  78
ATOM     78  C   UNL A   1      33.161  24.082  25.798  1.00  0.00     0.202 C 
BRANCH  78  79
ATOM     79  C   UNL A   1      33.624  25.499  25.412  1.00  0.00     0.261 C 
BRANCH  79  80
ATOM     80  O   UNL A   1      34.139  25.649  24.077  1.00  0.00    -0.460 OA
BRANCH  80  81
ATOM     81  C   UNL A   1      33.300  25.507  23.031  1.00  0.00     0.339 C 
ATOM     82  O   UNL A   1      33.135  24.510  22.349  1.00  0.00    -0.246 OA
BRANCH  81  83
ATOM     83  C   UNL A   1      32.411  26.691  22.995  1.00  0.00     0.078 A 
ATOM     84  C   UNL A   1      31.069  26.506  23.375  1.00  0.00     0.018 A 
ATOM     85  C   UNL A   1      32.866  27.975  22.681  1.00  0.00     0.056 A 
ATOM     86  C   UNL A   1      30.189  27.591  23.425  1.00  0.00     0.010 A 
ATOM     87  C   UNL A   1      31.969  29.053  22.706  1.00  0.00     0.030 A 
ATOM     88  Cl  UNL A   1      34.487  28.294  22.178  1.00  0.00    -0.083 Cl
ATOM     89  C   UNL A   1      30.617  28.869  23.043  1.00  0.00    -0.017 A 
BRANCH  89  90
ATOM     90  C   UNL A   1      29.641  29.931  22.778  1.00  0.00    -0.015 A 
ATOM     91  C   UNL A   1      29.270  30.756  23.855  1.00  0.00     0.009 A 
ATOM     92  C   UNL A   1      29.071  30.174  21.522  1.00  0.00     0.054 A 
ATOM     93  C   UNL A   1      28.352  31.792  23.695  1.00  0.00     0.004 A 
ATOM     94  C   UNL A   1      28.149  31.212  21.371  1.00  0.00     0.116 A 
ATOM     95  C   UNL A   1      27.785  32.022  22.446  1.00  0.00     0.046 A 
BRANCH  94  96
ATOM     96  O   UNL A   1      27.606  31.416  20.135  1.00  0.00    -0.508 OA
ATOM     97  H   UNL A   1      26.694  31.612  20.050  1.00  0.00     0.293 HD
ENDBRANCH  94  96
ENDBRANCH  89  90
ENDBRANCH  81  83
ENDBRANCH  80  81
ENDBRANCH  79  80
ENDBRANCH  78  79
ENDBRANCH  77  78
ENDBRANCH  76  77
ENDBRANCH  75  76
ENDBRANCH  74  75
ENDBRANCH   1  74
TORSDOF 25
ENDMDL
MODEL 3
REMARK VINA RESULT:     -10.3      2.366      2.950
REMARK SMILES O=C(OCCOCCOCCOCCOC(=O)c1ccc(-c2cccc(O)c2)cc1Cl)c1ccc(-c2c3nc(c(-c4cc(S(=O)(=O)[O-])ccc4F)c4ccc([nH]4)c(-c4cc(S(=O)(=O)[O-])ccc4F)c4nc(c(-c5cc(S(=O)(=O)[O-])ccc5F)c5ccc2[nH]5)C=C4)C=C3)cc1
REMARK SMILES IDX 8 1 7 2 6 3 5 4 4 5 3 6 2 7 1 8 32 9 33 10 94 11 34 12 93 13
REMARK SMILES IDX 35 14 36 15 37 16 87 17 38 18 92 19 86 20 88 21 39 22 91 23
REMARK SMILES IDX 85 24 84 25 40 27 72 28 52 29 71 30 53 31 56 32 70 33 89 34
REMARK SMILES IDX 54 35 55 36 69 38 90 39 57 40 41 41 42 42 50 43 43 44 49 45
REMARK SMILES IDX 51 46 48 47 44 48 45 49 46 50 47 51 73 52 74 53 82 54 75 55
REMARK SMILES IDX 81 56 83 57 80 58 76 59 77 60 78 61 79 62 58 63 59 64 67 65
REMARK SMILES IDX 60 66 66 67 68 68 65 69 61 70 62 71 63 72 64 73 9 74 10 75
REMARK SMILES IDX 11 76 12 77 13 78 14 79 15 80 16 81 17 82 18 83 19 84 30 85
REMARK SMILES IDX 20 86 29 87 31 88 21 89 22 90 23 91 28 92 24 93 26 94 25 95
REMARK SMILES IDX 27 96
REMARK H PARENT 88 26 56 37 27 97
REMARK Flexibility Score: inf
ROOT
ATOM      1  C   UNL A   1      33.359  22.189  27.236  1.00  0.00     0.188 C 
ENDROOT
BRANCH   1   2
ATOM      2  C   UNL A   1      33.645  20.903  26.460  1.00  0.00     0.188 C 
BRANCH   2   3
ATOM      3  O   UNL A   1      34.831  21.010  25.671  1.00  0.00    -0.376 OA
BRANCH   3   4
ATOM      4  C   UNL A   1      35.866  21.852  26.178  1.00  0.00     0.202 C 
BRANCH   4   5
ATOM      5  C   UNL A   1      36.982  22.190  25.189  1.00  0.00     0.261 C 
BRANCH   5   6
ATOM      6  O   UNL A   1      38.098  21.299  25.278  1.00  0.00    -0.460 OA
BRANCH   6   7
ATOM      7  C   UNL A   1      39.224  21.451  26.018  1.00  0.00     0.338 C 
ATOM      8  O   UNL A   1      39.879  20.440  26.275  1.00  0.00    -0.246 OA
BRANCH   7   9
ATOM      9  C   UNL A   1      39.717  22.755  26.569  1.00  0.00     0.060 A 
ATOM     10  C   UNL A   1      39.297  24.030  26.178  1.00  0.00     0.016 A 
ATOM     11  C   UNL A   1      40.628  22.670  27.634  1.00  0.00     0.016 A 
ATOM     12  C   UNL A   1      39.775  25.183  26.782  1.00  0.00     0.010 A 
ATOM     13  C   UNL A   1      41.126  23.820  28.247  1.00  0.00     0.010 A 
ATOM     14  C   UNL A   1      40.718  25.080  27.794  1.00  0.00    -0.014 A 
BRANCH  14  15
ATOM     15  C   UNL A   1      41.460  26.292  28.165  1.00  0.00     0.031 A 
ATOM     16  C   UNL A   1      40.710  27.316  28.956  1.00  0.00     0.074 A 
ATOM     17  C   UNL A   1      42.767  26.409  27.894  1.00  0.00     0.049 A 
ATOM     18  N   UNL A   1      41.028  28.545  29.244  1.00  0.00    -0.248 NA
ATOM     19  C   UNL A   1      39.407  26.885  29.488  1.00  0.00     0.031 C 
ATOM     20  C   UNL A   1      43.599  25.367  27.289  1.00  0.00     0.029 A 
ATOM     21  N   UNL A   1      43.623  27.456  28.090  1.00  0.00    -0.354 N 
ATOM     22  C   UNL A   1      39.938  29.053  29.943  1.00  0.00     0.074 A 
ATOM     23  C   UNL A   1      38.955  27.999  30.031  1.00  0.00     0.031 C 
ATOM     24  C   UNL A   1      44.846  25.843  27.138  1.00  0.00     0.029 A 
ATOM     25  C   UNL A   1      44.870  27.242  27.550  1.00  0.00     0.049 A 
ATOM     26  H   UNL A   1      43.374  28.279  28.569  1.00  0.00     0.167 HD
ATOM     27  C   UNL A   1      39.784  30.303  30.440  1.00  0.00     0.034 A 
ATOM     28  C   UNL A   1      45.874  28.115  27.346  1.00  0.00     0.034 A 
ATOM     29  C   UNL A   1      40.805  31.308  30.288  1.00  0.00     0.049 A 
ATOM     30  C   UNL A   1      45.649  29.541  27.786  1.00  0.00     0.074 A 
ATOM     31  C   UNL A   1      40.783  32.637  30.659  1.00  0.00     0.029 A 
ATOM     32  N   UNL A   1      42.044  31.078  29.690  1.00  0.00    -0.354 N 
ATOM     33  N   UNL A   1      44.584  30.066  28.355  1.00  0.00    -0.248 NA
ATOM     34  C   UNL A   1      46.739  30.491  27.554  1.00  0.00     0.031 C 
ATOM     35  C   UNL A   1      41.974  33.225  30.217  1.00  0.00     0.029 A 
ATOM     36  C   UNL A   1      42.783  32.244  29.657  1.00  0.00     0.049 A 
ATOM     37  H   UNL A   1      42.348  30.209  29.342  1.00  0.00     0.167 HD
ATOM     38  C   UNL A   1      44.886  31.405  28.575  1.00  0.00     0.074 A 
ATOM     39  C   UNL A   1      46.235  31.604  28.074  1.00  0.00     0.031 C 
ATOM     40  C   UNL A   1      44.132  32.380  29.147  1.00  0.00     0.034 A 
BRANCH  27  41
ATOM     41  C   UNL A   1      38.435  30.636  31.034  1.00  0.00     0.023 A 
ATOM     42  C   UNL A   1      37.474  31.390  30.333  1.00  0.00     0.031 A 
ATOM     43  C   UNL A   1      38.170  30.333  32.381  1.00  0.00     0.131 A 
ATOM     44  C   UNL A   1      36.369  31.923  31.016  1.00  0.00     0.055 A 
ATOM     45  C   UNL A   1      37.014  30.777  33.026  1.00  0.00     0.041 A 
ATOM     46  F   UNL A   1      39.060  29.647  33.116  1.00  0.00    -0.206 F 
ATOM     47  C   UNL A   1      36.118  31.600  32.351  1.00  0.00     0.022 A 
BRANCH  44  48
ATOM     48  S   UNL A   1      35.396  33.225  30.203  1.00  0.00     0.124 S 
ATOM     49  O   UNL A   1      36.130  33.403  28.951  1.00  0.00    -0.237 OA
ATOM     50  O   UNL A   1      34.078  32.612  30.088  1.00  0.00    -0.237 OA
ATOM     51  O   UNL A   1      35.483  34.350  31.132  1.00  0.00    -0.744 OA
ENDBRANCH  44  48
ENDBRANCH  27  41
BRANCH  28  52
ATOM     52  C   UNL A   1      47.101  27.685  26.616  1.00  0.00     0.023 A 
ATOM     53  C   UNL A   1      47.214  27.802  25.223  1.00  0.00     0.031 A 
ATOM     54  C   UNL A   1      48.205  27.163  27.321  1.00  0.00     0.131 A 
ATOM     55  C   UNL A   1      48.395  27.393  24.579  1.00  0.00     0.055 A 
ATOM     56  C   UNL A   1      49.393  26.804  26.684  1.00  0.00     0.041 A 
ATOM     57  F   UNL A   1      48.155  27.024  28.656  1.00  0.00    -0.206 F 
ATOM     58  C   UNL A   1      49.491  26.913  25.302  1.00  0.00     0.022 A 
BRANCH  55  59
ATOM     59  S   UNL A   1      48.469  27.453  22.767  1.00  0.00     0.124 S 
ATOM     60  O   UNL A   1      49.745  28.125  22.544  1.00  0.00    -0.237 OA
ATOM     61  O   UNL A   1      48.420  26.039  22.414  1.00  0.00    -0.237 OA
ATOM     62  O   UNL A   1      47.285  28.226  22.402  1.00  0.00    -0.744 OA
ENDBRANCH  55  59
ENDBRANCH  28  52
BRANCH  40  63
ATOM     63  C   UNL A   1      44.781  33.726  29.326  1.00  0.00     0.023 A 
ATOM     64  C   UNL A   1      45.414  34.093  30.523  1.00  0.00     0.031 A 
ATOM     65  C   UNL A   1      44.817  34.624  28.244  1.00  0.00     0.131 A 
ATOM     66  C   UNL A   1      46.038  35.345  30.618  1.00  0.00     0.055 A 
ATOM     67  C   UNL A   1      45.490  35.841  28.325  1.00  0.00     0.041 A 
ATOM     68  F   UNL A   1      44.224  34.314  27.080  1.00  0.00    -0.206 F 
ATOM     69  C   UNL A   1      46.101  36.210  29.520  1.00  0.00     0.022 A 
BRANCH  66  70
ATOM     70  S   UNL A   1      46.729  35.854  32.214  1.00  0.00     0.124 S 
ATOM     71  O   UNL A   1      47.975  35.095  32.259  1.00  0.00    -0.237 OA
ATOM     72  O   UNL A   1      46.866  37.298  32.051  1.00  0.00    -0.237 OA
ATOM     73  O   UNL A   1      45.711  35.433  33.176  1.00  0.00    -0.744 OA
ENDBRANCH  66  70
ENDBRANCH  40  63
ENDBRANCH  14  15
ENDBRANCH   7   9
ENDBRANCH   6   7
ENDBRANCH   5   6
ENDBRANCH   4   5
ENDBRANCH   3   4
ENDBRANCH   2   3
ENDBRANCH   1   2
BRANCH   1  74
ATOM     74  O   UNL A   1      32.147  22.859  26.887  1.00  0.00    -0.377 OA
BRANCH  74  75
ATOM     75  C   UNL A   1      32.289  24.099  26.200  1.00  0.00     0.188 C 
BRANCH  75  76
ATOM     76  C   UNL A   1      33.698  24.729  26.075  1.00  0.00     0.188 C 
BRANCH  76  77
ATOM     77  O   UNL A   1      34.231  24.688  24.763  1.00  0.00    -0.376 OA
BRANCH  77  78
ATOM     78  C   UNL A   1      33.740  23.657  23.916  1.00  0.00     0.202 C 
BRANCH  78  79
ATOM     79  C   UNL A   1      34.017  23.773  22.405  1.00  0.00     0.261 C 
BRANCH  79  80
ATOM     80  O   UNL A   1      32.913  24.214  21.596  1.00  0.00    -0.460 OA
BRANCH  80  81
ATOM     81  C   UNL A   1      32.972  25.427  21.012  1.00  0.00     0.339 C 
ATOM     82  O   UNL A   1      32.955  25.672  19.818  1.00  0.00    -0.246 OA
BRANCH  81  83
ATOM     83  C   UNL A   1      32.806  26.451  22.070  1.00  0.00     0.078 A 
ATOM     84  C   UNL A   1      33.752  27.491  22.118  1.00  0.00     0.018 A 
ATOM     85  C   UNL A   1      31.720  26.468  22.950  1.00  0.00     0.056 A 
ATOM     86  C   UNL A   1      33.623  28.527  23.049  1.00  0.00     0.010 A 
ATOM     87  C   UNL A   1      31.615  27.494  23.900  1.00  0.00     0.030 A 
ATOM     88  Cl  UNL A   1      30.526  25.222  22.982  1.00  0.00    -0.083 Cl
ATOM     89  C   UNL A   1      32.579  28.514  23.983  1.00  0.00    -0.017 A 
BRANCH  89  90
ATOM     90  C   UNL A   1      32.619  29.397  25.153  1.00  0.00    -0.015 A 
ATOM     91  C   UNL A   1      31.549  30.293  25.327  1.00  0.00     0.009 A 
ATOM     92  C   UNL A   1      33.648  29.390  26.103  1.00  0.00     0.054 A 
ATOM     93  C   UNL A   1      31.501  31.166  26.412  1.00  0.00     0.004 A 
ATOM     94  C   UNL A   1      33.594  30.271  27.186  1.00  0.00     0.116 A 
ATOM     95  C   UNL A   1      32.530  31.158  27.347  1.00  0.00     0.046 A 
BRANCH  94  96
ATOM     96  O   UNL A   1      34.617  30.243  28.090  1.00  0.00    -0.508 OA
ATOM     97  H   UNL A   1      35.322  30.857  28.018  1.00  0.00     0.293 HD
ENDBRANCH  94  96
ENDBRANCH  89  90
ENDBRANCH  81  83
ENDBRANCH  80  81
ENDBRANCH  79  80
ENDBRANCH  78  79
ENDBRANCH  77  78
ENDBRANCH  76  77
ENDBRANCH  75  76
ENDBRANCH  74  75
ENDBRANCH   1  74
TORSDOF 25
ENDMDL
