MODEL 1
REMARK VINA RESULT:      -8.6      0.000      0.000
REMARK SMILES CCN(C(=O)C[N@@H+]1CCC[C@@H]1C(=O)OCCOCCOCCOCCOC(=O)c1ccc(-c2c3nc(c(-c4cc(S(=O)(=O)[O-])ccc4F)c4ccc([nH]4)c(-c4cc(S(=O)(=O)[O-])ccc4F)c4nc(c(-c5cc(S(=O)(=O)[O-])ccc5F)c5ccc2[nH]5)C=C4)C=C3)cc1)c1ccccc1C
REMARK SMILES IDX 19 1 18 2 17 3 16 4 15 5 14 6 12 7 13 8 11 9 7 10 8 11 9 13
REMARK SMILES IDX 10 14 6 15 4 16 5 17 3 18 2 19 1 20 92 21 93 22 97 23 94 24
REMARK SMILES IDX 96 25 98 26 95 27 20 28 21 29 22 30 23 31 24 32 25 33 26 34
REMARK SMILES IDX 27 35 28 36 29 37 30 38 91 39 31 40 90 41 32 42 33 43 34 44
REMARK SMILES IDX 84 45 35 46 89 47 83 48 85 49 36 50 88 51 82 52 81 53 37 55
REMARK SMILES IDX 69 56 49 57 68 58 50 59 53 60 67 61 86 62 51 63 52 64 66 66
REMARK SMILES IDX 87 67 54 68 38 69 39 70 47 71 40 72 46 73 48 74 45 75 41 76
REMARK SMILES IDX 42 77 43 78 44 79 70 80 71 81 79 82 72 83 78 84 80 85 77 86
REMARK SMILES IDX 73 87 74 88 75 89 76 90 55 91 56 92 64 93 57 94 63 95 65 96
REMARK SMILES IDX 62 97 58 98 59 99 60 100 61 101
REMARK H PARENT 7 12 85 54 53 65
REMARK Flexibility Score: inf
ROOT
ATOM      1  C   UNL A   1      36.652  29.484  29.811  1.00  0.00     0.188 C 
ENDROOT
BRANCH   1   2
ATOM      2  C   UNL A   1      36.781  30.053  28.397  1.00  0.00     0.188 C 
BRANCH   2   3
ATOM      3  O   UNL A   1      35.796  29.540  27.537  1.00  0.00    -0.376 OA
BRANCH   3   4
ATOM      4  C   UNL A   1      34.647  30.342  27.391  1.00  0.00     0.202 C 
BRANCH   4   5
ATOM      5  C   UNL A   1      33.251  29.765  27.092  1.00  0.00     0.261 C 
BRANCH   5   6
ATOM      6  O   UNL A   1      32.885  28.735  26.133  1.00  0.00    -0.459 OA
BRANCH   6   7
ATOM      7  C   UNL A   1      31.846  27.870  26.143  1.00  0.00     0.365 C 
ATOM      8  O   UNL A   1      31.459  27.210  27.095  1.00  0.00    -0.245 OA
BRANCH   7   9
ATOM      9  C   UNL A   1      31.091  27.809  24.826  1.00  0.00     0.295 C 
ATOM     10  N   UNL A   1      31.532  26.795  23.822  1.00  0.00    -0.315 N 
ATOM     11  C   UNL A   1      30.962  27.300  22.553  1.00  0.00     0.263 C 
ATOM     12  H   UNL A   1      31.206  25.892  24.166  1.00  0.00     0.349 HD
ATOM     13  C   UNL A   1      31.035  28.819  22.640  1.00  0.00     0.068 C 
ATOM     14  C   UNL A   1      30.790  29.119  24.105  1.00  0.00     0.083 C 
BRANCH  10  15
ATOM     15  C   UNL A   1      32.971  26.460  23.648  1.00  0.00     0.364 C 
BRANCH  15  16
ATOM     16  C   UNL A   1      33.328  25.400  22.551  1.00  0.00     0.282 C 
ATOM     17  O   UNL A   1      33.598  25.770  21.405  1.00  0.00    -0.268 OA
BRANCH  16  18
ATOM     18  N   UNL A   1      33.417  24.049  22.959  1.00  0.00    -0.308 N 
BRANCH  18  19
ATOM     19  C   UNL A   1      32.201  23.149  22.941  1.00  0.00     0.122 C 
ATOM     20  C   UNL A   1      32.154  21.883  23.811  1.00  0.00     0.028 C 
ENDBRANCH  18  19
BRANCH  18  21
ATOM     21  C   UNL A   1      34.527  23.586  23.844  1.00  0.00     0.047 A 
ATOM     22  C   UNL A   1      35.638  23.055  23.156  1.00  0.00     0.026 A 
ATOM     23  C   UNL A   1      34.715  23.808  25.249  1.00  0.00    -0.027 A 
ATOM     24  C   UNL A   1      36.899  22.905  23.738  1.00  0.00     0.002 A 
ATOM     25  C   UNL A   1      36.013  23.655  25.809  1.00  0.00     0.005 A 
ATOM     26  C   UNL A   1      33.755  24.248  26.319  1.00  0.00     0.046 C 
ATOM     27  C   UNL A   1      37.098  23.247  25.058  1.00  0.00     0.000 A 
ENDBRANCH  18  21
ENDBRANCH  16  18
ENDBRANCH  15  16
ENDBRANCH  10  15
ENDBRANCH   7   9
ENDBRANCH   6   7
ENDBRANCH   5   6
ENDBRANCH   4   5
ENDBRANCH   3   4
ENDBRANCH   2   3
ENDBRANCH   1   2
BRANCH   1  28
ATOM     28  O   UNL A   1      36.065  30.303  30.817  1.00  0.00    -0.377 OA
BRANCH  28  29
ATOM     29  C   UNL A   1      36.020  31.725  30.690  1.00  0.00     0.188 C 
BRANCH  29  30
ATOM     30  C   UNL A   1      34.694  32.443  30.430  1.00  0.00     0.188 C 
BRANCH  30  31
ATOM     31  O   UNL A   1      34.073  33.082  31.538  1.00  0.00    -0.376 OA
BRANCH  31  32
ATOM     32  C   UNL A   1      34.827  34.064  32.238  1.00  0.00     0.202 C 
BRANCH  32  33
ATOM     33  C   UNL A   1      34.869  33.910  33.758  1.00  0.00     0.261 C 
BRANCH  33  34
ATOM     34  O   UNL A   1      35.954  33.082  34.216  1.00  0.00    -0.460 OA
BRANCH  34  35
ATOM     35  C   UNL A   1      37.198  33.602  34.053  1.00  0.00     0.338 C 
ATOM     36  O   UNL A   1      37.571  34.713  34.362  1.00  0.00    -0.246 OA
BRANCH  35  37
ATOM     37  C   UNL A   1      38.114  32.552  33.550  1.00  0.00     0.060 A 
ATOM     38  C   UNL A   1      37.955  31.237  34.009  1.00  0.00     0.016 A 
ATOM     39  C   UNL A   1      39.188  32.889  32.727  1.00  0.00     0.016 A 
ATOM     40  C   UNL A   1      38.916  30.268  33.706  1.00  0.00     0.010 A 
ATOM     41  C   UNL A   1      40.154  31.923  32.435  1.00  0.00     0.010 A 
ATOM     42  C   UNL A   1      40.050  30.624  32.965  1.00  0.00    -0.014 A 
BRANCH  42  43
ATOM     43  C   UNL A   1      41.240  29.737  32.917  1.00  0.00     0.031 A 
ATOM     44  C   UNL A   1      42.263  29.870  34.016  1.00  0.00     0.074 A 
ATOM     45  C   UNL A   1      41.436  28.878  31.901  1.00  0.00     0.049 A 
ATOM     46  N   UNL A   1      43.464  29.364  34.100  1.00  0.00    -0.248 NA
ATOM     47  C   UNL A   1      41.879  30.701  35.170  1.00  0.00     0.031 C 
ATOM     48  C   UNL A   1      40.491  28.624  30.815  1.00  0.00     0.029 A 
ATOM     49  N   UNL A   1      42.516  28.084  31.600  1.00  0.00    -0.354 N 
ATOM     50  C   UNL A   1      43.994  29.842  35.296  1.00  0.00     0.074 A 
ATOM     51  C   UNL A   1      42.985  30.684  35.898  1.00  0.00     0.031 C 
ATOM     52  C   UNL A   1      41.049  27.764  29.945  1.00  0.00     0.029 A 
ATOM     53  C   UNL A   1      42.410  27.452  30.381  1.00  0.00     0.049 A 
ATOM     54  H   UNL A   1      43.292  27.978  32.197  1.00  0.00     0.167 HD
ATOM     55  C   UNL A   1      45.216  29.607  35.830  1.00  0.00     0.034 A 
ATOM     56  C   UNL A   1      43.325  26.751  29.679  1.00  0.00     0.034 A 
ATOM     57  C   UNL A   1      46.205  28.758  35.214  1.00  0.00     0.049 A 
ATOM     58  C   UNL A   1      44.709  26.561  30.267  1.00  0.00     0.074 A 
ATOM     59  C   UNL A   1      47.455  28.409  35.693  1.00  0.00     0.029 A 
ATOM     60  N   UNL A   1      46.066  28.140  33.979  1.00  0.00    -0.354 N 
ATOM     61  N   UNL A   1      45.189  26.997  31.410  1.00  0.00    -0.248 NA
ATOM     62  C   UNL A   1      45.670  25.784  29.473  1.00  0.00     0.031 C 
ATOM     63  C   UNL A   1      48.106  27.660  34.708  1.00  0.00     0.029 A 
ATOM     64  C   UNL A   1      47.226  27.455  33.658  1.00  0.00     0.049 A 
ATOM     65  H   UNL A   1      45.260  28.184  33.413  1.00  0.00     0.167 HD
ATOM     66  C   UNL A   1      46.496  26.512  31.483  1.00  0.00     0.074 A 
ATOM     67  C   UNL A   1      46.717  25.738  30.281  1.00  0.00     0.031 C 
ATOM     68  C   UNL A   1      47.430  26.687  32.453  1.00  0.00     0.034 A 
BRANCH  55  69
ATOM     69  C   UNL A   1      45.585  30.322  37.106  1.00  0.00     0.023 A 
ATOM     70  C   UNL A   1      45.263  29.812  38.375  1.00  0.00     0.031 A 
ATOM     71  C   UNL A   1      46.302  31.531  37.043  1.00  0.00     0.131 A 
ATOM     72  C   UNL A   1      45.624  30.529  39.527  1.00  0.00     0.055 A 
ATOM     73  C   UNL A   1      46.721  32.201  38.193  1.00  0.00     0.041 A 
ATOM     74  F   UNL A   1      46.612  32.080  35.858  1.00  0.00    -0.206 F 
ATOM     75  C   UNL A   1      46.376  31.704  39.445  1.00  0.00     0.022 A 
BRANCH  72  76
ATOM     76  S   UNL A   1      45.013  29.957  41.136  1.00  0.00     0.124 S 
ATOM     77  O   UNL A   1      46.142  30.271  42.008  1.00  0.00    -0.237 OA
ATOM     78  O   UNL A   1      43.816  30.767  41.325  1.00  0.00    -0.237 OA
ATOM     79  O   UNL A   1      44.774  28.530  40.926  1.00  0.00    -0.744 OA
ENDBRANCH  72  76
ENDBRANCH  55  69
BRANCH  56  80
ATOM     80  C   UNL A   1      43.012  26.235  28.312  1.00  0.00     0.023 A 
ATOM     81  C   UNL A   1      42.595  24.909  28.115  1.00  0.00     0.031 A 
ATOM     82  C   UNL A   1      43.225  27.030  27.170  1.00  0.00     0.131 A 
ATOM     83  C   UNL A   1      42.476  24.397  26.813  1.00  0.00     0.055 A 
ATOM     84  C   UNL A   1      43.035  26.537  25.878  1.00  0.00     0.041 A 
ATOM     85  F   UNL A   1      43.629  28.305  27.294  1.00  0.00    -0.206 F 
ATOM     86  C   UNL A   1      42.677  25.206  25.693  1.00  0.00     0.022 A 
BRANCH  83  87
ATOM     87  S   UNL A   1      42.193  22.617  26.606  1.00  0.00     0.124 S 
ATOM     88  O   UNL A   1      43.171  22.282  25.578  1.00  0.00    -0.237 OA
ATOM     89  O   UNL A   1      42.470  22.112  27.946  1.00  0.00    -0.237 OA
ATOM     90  O   UNL A   1      40.794  22.544  26.189  1.00  0.00    -0.744 OA
ENDBRANCH  83  87
ENDBRANCH  56  80
BRANCH  68  91
ATOM     91  C   UNL A   1      48.753  25.981  32.278  1.00  0.00     0.023 A 
ATOM     92  C   UNL A   1      49.047  24.775  32.937  1.00  0.00     0.031 A 
ATOM     93  C   UNL A   1      49.740  26.530  31.436  1.00  0.00     0.131 A 
ATOM     94  C   UNL A   1      50.314  24.189  32.792  1.00  0.00     0.055 A 
ATOM     95  C   UNL A   1      50.970  25.904  31.238  1.00  0.00     0.041 A 
ATOM     96  F   UNL A   1      49.517  27.681  30.783  1.00  0.00    -0.206 F 
ATOM     97  C   UNL A   1      51.270  24.735  31.930  1.00  0.00     0.022 A 
BRANCH  94  98
ATOM     98  S   UNL A   1      50.736  22.761  33.827  1.00  0.00     0.124 S 
ATOM     99  O   UNL A   1      50.554  21.650  32.899  1.00  0.00    -0.237 OA
ATOM    100  O   UNL A   1      52.114  23.050  34.210  1.00  0.00    -0.237 OA
ATOM    101  O   UNL A   1      49.763  22.826  34.915  1.00  0.00    -0.744 OA
ENDBRANCH  94  98
ENDBRANCH  68  91
ENDBRANCH  42  43
ENDBRANCH  35  37
ENDBRANCH  34  35
ENDBRANCH  33  34
ENDBRANCH  32  33
ENDBRANCH  31  32
ENDBRANCH  30  31
ENDBRANCH  29  30
ENDBRANCH  28  29
ENDBRANCH   1  28
TORSDOF 28
ENDMDL
MODEL 2
REMARK VINA RESULT:      -8.3      5.783     11.207
REMARK SMILES CCN(C(=O)C[N@@H+]1CCC[C@@H]1C(=O)OCCOCCOCCOCCOC(=O)c1ccc(-c2c3nc(c(-c4cc(S(=O)(=O)[O-])ccc4F)c4ccc([nH]4)c(-c4cc(S(=O)(=O)[O-])ccc4F)c4nc(c(-c5cc(S(=O)(=O)[O-])ccc5F)c5ccc2[nH]5)C=C4)C=C3)cc1)c1ccccc1C
REMARK SMILES IDX 19 1 18 2 17 3 16 4 15 5 14 6 12 7 13 8 11 9 7 10 8 11 9 13
REMARK SMILES IDX 10 14 6 15 4 16 5 17 3 18 2 19 1 20 92 21 93 22 97 23 94 24
REMARK SMILES IDX 96 25 98 26 95 27 20 28 21 29 22 30 23 31 24 32 25 33 26 34
REMARK SMILES IDX 27 35 28 36 29 37 30 38 91 39 31 40 90 41 32 42 33 43 34 44
REMARK SMILES IDX 84 45 35 46 89 47 83 48 85 49 36 50 88 51 82 52 81 53 37 55
REMARK SMILES IDX 69 56 49 57 68 58 50 59 53 60 67 61 86 62 51 63 52 64 66 66
REMARK SMILES IDX 87 67 54 68 38 69 39 70 47 71 40 72 46 73 48 74 45 75 41 76
REMARK SMILES IDX 42 77 43 78 44 79 70 80 71 81 79 82 72 83 78 84 80 85 77 86
REMARK SMILES IDX 73 87 74 88 75 89 76 90 55 91 56 92 64 93 57 94 63 95 65 96
REMARK SMILES IDX 62 97 58 98 59 99 60 100 61 101
REMARK H PARENT 7 12 85 54 53 65
REMARK Flexibility Score: inf
ROOT
ATOM      1  C   UNL A   1      40.244  20.351  26.455  1.00  0.00     0.188 C 
ENDROOT
BRANCH   1   2
ATOM      2  C   UNL A   1      40.273  21.849  26.143  1.00  0.00     0.188 C 
BRANCH   2   3
ATOM      3  O   UNL A   1      39.504  22.586  27.059  1.00  0.00    -0.376 OA
BRANCH   3   4
ATOM      4  C   UNL A   1      38.782  23.664  26.509  1.00  0.00     0.202 C 
BRANCH   4   5
ATOM      5  C   UNL A   1      37.520  23.479  25.648  1.00  0.00     0.261 C 
BRANCH   5   6
ATOM      6  O   UNL A   1      36.537  22.409  25.704  1.00  0.00    -0.459 OA
BRANCH   6   7
ATOM      7  C   UNL A   1      35.203  22.467  25.915  1.00  0.00     0.365 C 
ATOM      8  O   UNL A   1      34.624  23.178  26.722  1.00  0.00    -0.245 OA
BRANCH   7   9
ATOM      9  C   UNL A   1      34.398  21.579  24.980  1.00  0.00     0.295 C 
ATOM     10  N   UNL A   1      33.555  22.249  23.945  1.00  0.00    -0.315 N 
ATOM     11  C   UNL A   1      32.585  21.198  23.562  1.00  0.00     0.263 C 
ATOM     12  H   UNL A   1      34.197  22.589  23.230  1.00  0.00     0.349 HD
ATOM     13  C   UNL A   1      32.292  20.418  24.837  1.00  0.00     0.068 C 
ATOM     14  C   UNL A   1      33.610  20.422  25.586  1.00  0.00     0.083 C 
BRANCH  10  15
ATOM     15  C   UNL A   1      32.850  23.526  24.236  1.00  0.00     0.364 C 
BRANCH  15  16
ATOM     16  C   UNL A   1      33.457  24.832  23.618  1.00  0.00     0.282 C 
ATOM     17  O   UNL A   1      34.065  24.778  22.546  1.00  0.00    -0.268 OA
BRANCH  16  18
ATOM     18  N   UNL A   1      33.190  26.050  24.286  1.00  0.00    -0.308 N 
BRANCH  18  19
ATOM     19  C   UNL A   1      33.932  26.422  25.551  1.00  0.00     0.122 C 
ATOM     20  C   UNL A   1      33.395  27.526  26.475  1.00  0.00     0.028 C 
ENDBRANCH  18  19
BRANCH  18  21
ATOM     21  C   UNL A   1      31.899  26.772  24.081  1.00  0.00     0.047 A 
ATOM     22  C   UNL A   1      31.933  27.748  23.064  1.00  0.00     0.026 A 
ATOM     23  C   UNL A   1      30.598  26.462  24.602  1.00  0.00    -0.027 A 
ATOM     24  C   UNL A   1      30.784  28.272  22.467  1.00  0.00     0.002 A 
ATOM     25  C   UNL A   1      29.449  27.006  23.967  1.00  0.00     0.005 A 
ATOM     26  C   UNL A   1      30.173  25.578  25.741  1.00  0.00     0.046 C 
ATOM     27  C   UNL A   1      29.536  27.867  22.891  1.00  0.00     0.000 A 
ENDBRANCH  18  21
ENDBRANCH  16  18
ENDBRANCH  15  16
ENDBRANCH  10  15
ENDBRANCH   7   9
ENDBRANCH   6   7
ENDBRANCH   5   6
ENDBRANCH   4   5
ENDBRANCH   3   4
ENDBRANCH   2   3
ENDBRANCH   1   2
BRANCH   1  28
ATOM     28  O   UNL A   1      40.995  19.474  25.621  1.00  0.00    -0.377 OA
BRANCH  28  29
ATOM     29  C   UNL A   1      42.157  18.798  26.102  1.00  0.00     0.188 C 
BRANCH  29  30
ATOM     30  C   UNL A   1      43.518  19.020  25.441  1.00  0.00     0.188 C 
BRANCH  30  31
ATOM     31  O   UNL A   1      44.113  20.304  25.591  1.00  0.00    -0.376 OA
BRANCH  31  32
ATOM     32  C   UNL A   1      45.103  20.685  24.644  1.00  0.00     0.202 C 
BRANCH  32  33
ATOM     33  C   UNL A   1      44.946  22.081  24.043  1.00  0.00     0.261 C 
BRANCH  33  34
ATOM     34  O   UNL A   1      45.201  23.138  24.986  1.00  0.00    -0.460 OA
BRANCH  34  35
ATOM     35  C   UNL A   1      44.124  23.894  25.324  1.00  0.00     0.338 C 
ATOM     36  O   UNL A   1      42.968  23.533  25.384  1.00  0.00    -0.246 OA
BRANCH  35  37
ATOM     37  C   UNL A   1      44.575  25.237  25.756  1.00  0.00     0.060 A 
ATOM     38  C   UNL A   1      45.358  25.350  26.914  1.00  0.00     0.016 A 
ATOM     39  C   UNL A   1      44.129  26.378  25.090  1.00  0.00     0.016 A 
ATOM     40  C   UNL A   1      45.635  26.611  27.452  1.00  0.00     0.010 A 
ATOM     41  C   UNL A   1      44.396  27.636  25.636  1.00  0.00     0.010 A 
ATOM     42  C   UNL A   1      45.104  27.755  26.845  1.00  0.00    -0.014 A 
BRANCH  42  43
ATOM     43  C   UNL A   1      45.080  29.056  27.561  1.00  0.00     0.031 A 
ATOM     44  C   UNL A   1      43.832  29.416  28.326  1.00  0.00     0.074 A 
ATOM     45  C   UNL A   1      46.110  29.918  27.489  1.00  0.00     0.049 A 
ATOM     46  N   UNL A   1      43.484  30.555  28.862  1.00  0.00    -0.248 NA
ATOM     47  C   UNL A   1      42.837  28.344  28.495  1.00  0.00     0.031 C 
ATOM     48  C   UNL A   1      47.387  29.655  26.827  1.00  0.00     0.029 A 
ATOM     49  N   UNL A   1      46.229  31.206  27.952  1.00  0.00    -0.354 N 
ATOM     50  C   UNL A   1      42.217  30.349  29.401  1.00  0.00     0.074 A 
ATOM     51  C   UNL A   1      41.856  28.978  29.120  1.00  0.00     0.031 C 
ATOM     52  C   UNL A   1      48.146  30.763  26.892  1.00  0.00     0.029 A 
ATOM     53  C   UNL A   1      47.390  31.829  27.549  1.00  0.00     0.049 A 
ATOM     54  H   UNL A   1      45.551  31.642  28.517  1.00  0.00     0.167 HD
ATOM     55  C   UNL A   1      41.427  31.231  30.058  1.00  0.00     0.034 A 
ATOM     56  C   UNL A   1      47.768  33.121  27.652  1.00  0.00     0.034 A 
ATOM     57  C   UNL A   1      41.810  32.593  30.333  1.00  0.00     0.049 A 
ATOM     58  C   UNL A   1      46.834  34.104  28.329  1.00  0.00     0.074 A 
ATOM     59  C   UNL A   1      41.109  33.557  31.035  1.00  0.00     0.029 A 
ATOM     60  N   UNL A   1      42.987  33.191  29.904  1.00  0.00    -0.354 N 
ATOM     61  N   UNL A   1      45.649  33.891  28.856  1.00  0.00    -0.248 NA
ATOM     62  C   UNL A   1      47.290  35.497  28.426  1.00  0.00     0.031 C 
ATOM     63  C   UNL A   1      41.817  34.759  30.951  1.00  0.00     0.029 A 
ATOM     64  C   UNL A   1      43.008  34.523  30.284  1.00  0.00     0.049 A 
ATOM     65  H   UNL A   1      43.703  32.735  29.403  1.00  0.00     0.167 HD
ATOM     66  C   UNL A   1      45.240  35.118  29.379  1.00  0.00     0.074 A 
ATOM     67  C   UNL A   1      46.311  36.056  29.121  1.00  0.00     0.031 C 
ATOM     68  C   UNL A   1      44.086  35.444  30.017  1.00  0.00     0.034 A 
BRANCH  55  69
ATOM     69  C   UNL A   1      40.045  30.782  30.467  1.00  0.00     0.023 A 
ATOM     70  C   UNL A   1      38.918  30.980  29.652  1.00  0.00     0.031 A 
ATOM     71  C   UNL A   1      39.865  30.115  31.692  1.00  0.00     0.131 A 
ATOM     72  C   UNL A   1      37.656  30.549  30.092  1.00  0.00     0.055 A 
ATOM     73  C   UNL A   1      38.622  29.625  32.090  1.00  0.00     0.041 A 
ATOM     74  F   UNL A   1      40.902  29.924  32.524  1.00  0.00    -0.206 F 
ATOM     75  C   UNL A   1      37.505  29.848  31.291  1.00  0.00     0.022 A 
BRANCH  72  76
ATOM     76  S   UNL A   1      36.193  31.004  29.121  1.00  0.00     0.124 S 
ATOM     77  O   UNL A   1      35.346  31.622  30.137  1.00  0.00    -0.237 OA
ATOM     78  O   UNL A   1      36.747  31.905  28.118  1.00  0.00    -0.237 OA
ATOM     79  O   UNL A   1      35.708  29.723  28.609  1.00  0.00    -0.744 OA
ENDBRANCH  72  76
ENDBRANCH  55  69
BRANCH  56  80
ATOM     80  C   UNL A   1      49.046  33.596  27.043  1.00  0.00     0.023 A 
ATOM     81  C   UNL A   1      50.269  33.449  27.717  1.00  0.00     0.031 A 
ATOM     82  C   UNL A   1      49.052  34.298  25.823  1.00  0.00     0.131 A 
ATOM     83  C   UNL A   1      51.428  34.058  27.207  1.00  0.00     0.055 A 
ATOM     84  C   UNL A   1      50.221  34.838  25.284  1.00  0.00     0.041 A 
ATOM     85  F   UNL A   1      47.913  34.475  25.134  1.00  0.00    -0.206 F 
ATOM     86  C   UNL A   1      51.416  34.737  25.988  1.00  0.00     0.022 A 
BRANCH  83  87
ATOM     87  S   UNL A   1      52.923  34.068  28.236  1.00  0.00     0.124 S 
ATOM     88  O   UNL A   1      52.362  34.270  29.566  1.00  0.00    -0.237 OA
ATOM     89  O   UNL A   1      53.480  32.747  27.967  1.00  0.00    -0.237 OA
ATOM     90  O   UNL A   1      53.693  35.190  27.702  1.00  0.00    -0.744 OA
ENDBRANCH  83  87
ENDBRANCH  56  80
BRANCH  68  91
ATOM     91  C   UNL A   1      43.952  36.860  30.528  1.00  0.00     0.023 A 
ATOM     92  C   UNL A   1      43.494  37.906  29.710  1.00  0.00     0.031 A 
ATOM     93  C   UNL A   1      44.292  37.164  31.861  1.00  0.00     0.131 A 
ATOM     94  C   UNL A   1      43.446  39.216  30.211  1.00  0.00     0.055 A 
ATOM     95  C   UNL A   1      44.173  38.455  32.374  1.00  0.00     0.041 A 
ATOM     96  F   UNL A   1      44.739  36.205  32.687  1.00  0.00    -0.206 F 
ATOM     97  C   UNL A   1      43.763  39.493  31.544  1.00  0.00     0.022 A 
BRANCH  94  98
ATOM     98  S   UNL A   1      43.067  40.572  29.069  1.00  0.00     0.124 S 
ATOM     99  O   UNL A   1      41.650  40.801  29.330  1.00  0.00    -0.237 OA
ATOM    100  O   UNL A   1      43.974  41.622  29.519  1.00  0.00    -0.237 OA
ATOM    101  O   UNL A   1      43.373  40.010  27.755  1.00  0.00    -0.744 OA
ENDBRANCH  94  98
ENDBRANCH  68  91
ENDBRANCH  42  43
ENDBRANCH  35  37
ENDBRANCH  34  35
ENDBRANCH  33  34
ENDBRANCH  32  33
ENDBRANCH  31  32
ENDBRANCH  30  31
ENDBRANCH  29  30
ENDBRANCH  28  29
ENDBRANCH   1  28
TORSDOF 28
ENDMDL
MODEL 3
REMARK VINA RESULT:      -8.3      4.874     10.511
REMARK SMILES CCN(C(=O)C[N@@H+]1CCC[C@@H]1C(=O)OCCOCCOCCOCCOC(=O)c1ccc(-c2c3nc(c(-c4cc(S(=O)(=O)[O-])ccc4F)c4ccc([nH]4)c(-c4cc(S(=O)(=O)[O-])ccc4F)c4nc(c(-c5cc(S(=O)(=O)[O-])ccc5F)c5ccc2[nH]5)C=C4)C=C3)cc1)c1ccccc1C
REMARK SMILES IDX 19 1 18 2 17 3 16 4 15 5 14 6 12 7 13 8 11 9 7 10 8 11 9 13
REMARK SMILES IDX 10 14 6 15 4 16 5 17 3 18 2 19 1 20 92 21 93 22 97 23 94 24
REMARK SMILES IDX 96 25 98 26 95 27 20 28 21 29 22 30 23 31 24 32 25 33 26 34
REMARK SMILES IDX 27 35 28 36 29 37 30 38 91 39 31 40 90 41 32 42 33 43 34 44
REMARK SMILES IDX 84 45 35 46 89 47 83 48 85 49 36 50 88 51 82 52 81 53 37 55
REMARK SMILES IDX 69 56 49 57 68 58 50 59 53 60 67 61 86 62 51 63 52 64 66 66
REMARK SMILES IDX 87 67 54 68 38 69 39 70 47 71 40 72 46 73 48 74 45 75 41 76
REMARK SMILES IDX 42 77 43 78 44 79 70 80 71 81 79 82 72 83 78 84 80 85 77 86
REMARK SMILES IDX 73 87 74 88 75 89 76 90 55 91 56 92 64 93 57 94 63 95 65 96
REMARK SMILES IDX 62 97 58 98 59 99 60 100 61 101
REMARK H PARENT 7 12 85 54 53 65
REMARK Flexibility Score: inf
ROOT
ATOM      1  C   UNL A   1      35.632  23.451  23.815  1.00  0.00     0.188 C 
ENDROOT
BRANCH   1   2
ATOM      2  C   UNL A   1      34.430  24.335  23.476  1.00  0.00     0.188 C 
BRANCH   2   3
ATOM      3  O   UNL A   1      33.790  23.916  22.298  1.00  0.00    -0.376 OA
BRANCH   3   4
ATOM      4  C   UNL A   1      32.762  24.761  21.837  1.00  0.00     0.202 C 
BRANCH   4   5
ATOM      5  C   UNL A   1      33.022  26.165  21.261  1.00  0.00     0.261 C 
BRANCH   5   6
ATOM      6  O   UNL A   1      33.720  27.280  21.880  1.00  0.00    -0.459 OA
BRANCH   6   7
ATOM      7  C   UNL A   1      33.260  28.229  22.726  1.00  0.00     0.365 C 
ATOM      8  O   UNL A   1      32.886  29.353  22.425  1.00  0.00    -0.245 OA
BRANCH   7   9
ATOM      9  C   UNL A   1      33.165  27.766  24.170  1.00  0.00     0.295 C 
ATOM     10  N   UNL A   1      31.802  27.644  24.770  1.00  0.00    -0.315 N 
ATOM     11  C   UNL A   1      32.067  27.658  26.226  1.00  0.00     0.263 C 
ATOM     12  H   UNL A   1      31.388  26.803  24.368  1.00  0.00     0.349 HD
ATOM     13  C   UNL A   1      33.241  28.608  26.426  1.00  0.00     0.068 C 
ATOM     14  C   UNL A   1      34.100  28.401  25.195  1.00  0.00     0.083 C 
BRANCH  10  15
ATOM     15  C   UNL A   1      30.723  28.608  24.429  1.00  0.00     0.364 C 
BRANCH  15  16
ATOM     16  C   UNL A   1      29.669  28.150  23.363  1.00  0.00     0.282 C 
ATOM     17  O   UNL A   1      29.802  27.062  22.796  1.00  0.00    -0.268 OA
BRANCH  16  18
ATOM     18  N   UNL A   1      28.541  28.981  23.168  1.00  0.00    -0.308 N 
BRANCH  18  19
ATOM     19  C   UNL A   1      27.145  28.402  23.130  1.00  0.00     0.122 C 
ATOM     20  C   UNL A   1      26.760  27.229  24.045  1.00  0.00     0.028 C 
ENDBRANCH  18  19
BRANCH  18  21
ATOM     21  C   UNL A   1      28.680  30.327  22.534  1.00  0.00     0.047 A 
ATOM     22  C   UNL A   1      28.243  30.387  21.194  1.00  0.00     0.026 A 
ATOM     23  C   UNL A   1      28.975  31.589  23.148  1.00  0.00    -0.027 A 
ATOM     24  C   UNL A   1      27.946  31.584  20.539  1.00  0.00     0.002 A 
ATOM     25  C   UNL A   1      28.653  32.789  22.458  1.00  0.00     0.005 A 
ATOM     26  C   UNL A   1      29.557  31.924  24.494  1.00  0.00     0.046 C 
ATOM     27  C   UNL A   1      28.110  32.789  21.188  1.00  0.00     0.000 A 
ENDBRANCH  18  21
ENDBRANCH  16  18
ENDBRANCH  15  16
ENDBRANCH  10  15
ENDBRANCH   7   9
ENDBRANCH   6   7
ENDBRANCH   5   6
ENDBRANCH   4   5
ENDBRANCH   3   4
ENDBRANCH   2   3
ENDBRANCH   1   2
BRANCH   1  28
ATOM     28  O   UNL A   1      35.615  22.732  25.044  1.00  0.00    -0.377 OA
BRANCH  28  29
ATOM     29  C   UNL A   1      35.139  21.388  25.117  1.00  0.00     0.188 C 
BRANCH  29  30
ATOM     30  C   UNL A   1      36.113  20.211  25.037  1.00  0.00     0.188 C 
BRANCH  30  31
ATOM     31  O   UNL A   1      37.414  20.477  24.527  1.00  0.00    -0.376 OA
BRANCH  31  32
ATOM     32  C   UNL A   1      38.516  19.864  25.184  1.00  0.00     0.202 C 
BRANCH  32  33
ATOM     33  C   UNL A   1      39.599  20.815  25.694  1.00  0.00     0.261 C 
BRANCH  33  34
ATOM     34  O   UNL A   1      39.763  20.775  27.123  1.00  0.00    -0.460 OA
BRANCH  34  35
ATOM     35  C   UNL A   1      41.025  21.000  27.574  1.00  0.00     0.338 C 
ATOM     36  O   UNL A   1      41.952  20.220  27.570  1.00  0.00    -0.246 OA
BRANCH  35  37
ATOM     37  C   UNL A   1      41.165  22.421  27.970  1.00  0.00     0.060 A 
ATOM     38  C   UNL A   1      40.318  23.374  27.386  1.00  0.00     0.016 A 
ATOM     39  C   UNL A   1      42.199  22.818  28.817  1.00  0.00     0.016 A 
ATOM     40  C   UNL A   1      40.551  24.738  27.589  1.00  0.00     0.010 A 
ATOM     41  C   UNL A   1      42.439  24.181  29.009  1.00  0.00     0.010 A 
ATOM     42  C   UNL A   1      41.650  25.146  28.356  1.00  0.00    -0.014 A 
BRANCH  42  43
ATOM     43  C   UNL A   1      42.131  26.550  28.312  1.00  0.00     0.031 A 
ATOM     44  C   UNL A   1      43.442  26.824  27.621  1.00  0.00     0.074 A 
ATOM     45  C   UNL A   1      41.455  27.544  28.915  1.00  0.00     0.049 A 
ATOM     46  N   UNL A   1      44.168  27.910  27.616  1.00  0.00    -0.248 NA
ATOM     47  C   UNL A   1      44.016  25.714  26.842  1.00  0.00     0.031 C 
ATOM     48  C   UNL A   1      40.152  27.407  29.564  1.00  0.00     0.029 A 
ATOM     49  N   UNL A   1      41.791  28.861  29.109  1.00  0.00    -0.354 N 
ATOM     50  C   UNL A   1      45.301  27.604  26.865  1.00  0.00     0.074 A 
ATOM     51  C   UNL A   1      45.166  26.229  26.438  1.00  0.00     0.031 C 
ATOM     52  C   UNL A   1      39.817  28.585  30.119  1.00  0.00     0.029 A 
ATOM     53  C   UNL A   1      40.905  29.542  29.914  1.00  0.00     0.049 A 
ATOM     54  H   UNL A   1      42.589  29.279  28.712  1.00  0.00     0.167 HD
ATOM     55  C   UNL A   1      46.357  28.399  26.572  1.00  0.00     0.034 A 
ATOM     56  C   UNL A   1      40.992  30.772  30.464  1.00  0.00     0.034 A 
ATOM     57  C   UNL A   1      46.467  29.770  27.002  1.00  0.00     0.049 A 
ATOM     58  C   UNL A   1      42.218  31.614  30.179  1.00  0.00     0.074 A 
ATOM     59  C   UNL A   1      47.468  30.681  26.720  1.00  0.00     0.029 A 
ATOM     60  N   UNL A   1      45.555  30.423  27.821  1.00  0.00    -0.354 N 
ATOM     61  N   UNL A   1      43.271  31.324  29.447  1.00  0.00    -0.248 NA
ATOM     62  C   UNL A   1      42.267  32.949  30.791  1.00  0.00     0.031 C 
ATOM     63  C   UNL A   1      47.211  31.850  27.442  1.00  0.00     0.029 A 
ATOM     64  C   UNL A   1      45.997  31.707  28.094  1.00  0.00     0.049 A 
ATOM     65  H   UNL A   1      44.717  30.030  28.159  1.00  0.00     0.167 HD
ATOM     66  C   UNL A   1      44.084  32.457  29.483  1.00  0.00     0.074 A 
ATOM     67  C   UNL A   1      43.392  33.438  30.291  1.00  0.00     0.031 C 
ATOM     68  C   UNL A   1      45.293  32.672  28.902  1.00  0.00     0.034 A 
BRANCH  55  69
ATOM     69  C   UNL A   1      47.511  27.797  25.808  1.00  0.00     0.023 A 
ATOM     70  C   UNL A   1      48.655  27.292  26.448  1.00  0.00     0.031 A 
ATOM     71  C   UNL A   1      47.444  27.704  24.406  1.00  0.00     0.131 A 
ATOM     72  C   UNL A   1      49.701  26.752  25.682  1.00  0.00     0.055 A 
ATOM     73  C   UNL A   1      48.454  27.102  23.657  1.00  0.00     0.041 A 
ATOM     74  F   UNL A   1      46.387  28.196  23.739  1.00  0.00    -0.206 F 
ATOM     75  C   UNL A   1      49.596  26.627  24.295  1.00  0.00     0.022 A 
BRANCH  72  76
ATOM     76  S   UNL A   1      51.249  26.304  26.515  1.00  0.00     0.124 S 
ATOM     77  O   UNL A   1      51.017  24.896  26.830  1.00  0.00    -0.237 OA
ATOM     78  O   UNL A   1      52.249  26.571  25.489  1.00  0.00    -0.237 OA
ATOM     79  O   UNL A   1      51.287  27.197  27.672  1.00  0.00    -0.744 OA
ENDBRANCH  72  76
ENDBRANCH  55  69
BRANCH  56  80
ATOM     80  C   UNL A   1      39.940  31.269  31.401  1.00  0.00     0.023 A 
ATOM     81  C   UNL A   1      40.094  31.155  32.792  1.00  0.00     0.031 A 
ATOM     82  C   UNL A   1      38.718  31.773  30.918  1.00  0.00     0.131 A 
ATOM     83  C   UNL A   1      39.023  31.467  33.644  1.00  0.00     0.055 A 
ATOM     84  C   UNL A   1      37.682  32.151  31.774  1.00  0.00     0.041 A 
ATOM     85  F   UNL A   1      38.509  31.902  29.597  1.00  0.00    -0.206 F 
ATOM     86  C   UNL A   1      37.824  31.980  33.147  1.00  0.00     0.022 A 
BRANCH  83  87
ATOM     87  S   UNL A   1      39.172  31.058  35.406  1.00  0.00     0.124 S 
ATOM     88  O   UNL A   1      39.770  29.729  35.349  1.00  0.00    -0.237 OA
ATOM     89  O   UNL A   1      40.034  32.130  35.890  1.00  0.00    -0.237 OA
ATOM     90  O   UNL A   1      37.791  31.105  35.882  1.00  0.00    -0.744 OA
ENDBRANCH  83  87
ENDBRANCH  56  80
BRANCH  68  91
ATOM     91  C   UNL A   1      45.912  34.039  29.075  1.00  0.00     0.023 A 
ATOM     92  C   UNL A   1      45.480  35.151  28.331  1.00  0.00     0.031 A 
ATOM     93  C   UNL A   1      46.956  34.230  30.001  1.00  0.00     0.131 A 
ATOM     94  C   UNL A   1      46.128  36.387  28.481  1.00  0.00     0.055 A 
ATOM     95  C   UNL A   1      47.547  35.478  30.197  1.00  0.00     0.041 A 
ATOM     96  F   UNL A   1      47.411  33.204  30.736  1.00  0.00    -0.206 F 
ATOM     97  C   UNL A   1      47.145  36.562  29.424  1.00  0.00     0.022 A 
BRANCH  94  98
ATOM     98  S   UNL A   1      45.698  37.737  27.350  1.00  0.00     0.124 S 
ATOM     99  O   UNL A   1      45.610  38.876  28.258  1.00  0.00    -0.237 OA
ATOM    100  O   UNL A   1      46.830  37.745  26.428  1.00  0.00    -0.237 OA
ATOM    101  O   UNL A   1      44.429  37.308  26.768  1.00  0.00    -0.744 OA
ENDBRANCH  94  98
ENDBRANCH  68  91
ENDBRANCH  42  43
ENDBRANCH  35  37
ENDBRANCH  34  35
ENDBRANCH  33  34
ENDBRANCH  32  33
ENDBRANCH  31  32
ENDBRANCH  30  31
ENDBRANCH  29  30
ENDBRANCH  28  29
ENDBRANCH   1  28
TORSDOF 28
ENDMDL
