MODEL 1
REMARK VINA RESULT:     -11.2      0.000      0.000
REMARK SMILES Cc1ccccc1-c1c(Cl)ccc2c1C=C(C(=O)OCCOCCOCCOCCOC(=O)c1ccc(-c3c4nc(c(-c5cc(S(=O)(=O)[O-])ccc5F)c5ccc([nH]5)c(-c5cc(S(=O)(=O)[O-])ccc5F)c5nc(c(-c6cc(S(=O)(=O)[O-])ccc6F)c6ccc3[nH]6)C=C5)C=C4)cc1)[C@@H](C(F)(F)F)O2
REMARK SMILES IDX 26 1 25 2 24 3 23 4 22 5 21 6 20 7 19 8 17 9 18 10 16 11
REMARK SMILES IDX 8 12 9 13 14 14 10 15 11 16 13 17 15 18 12 19 102 20 97 21
REMARK SMILES IDX 7 22 1 23 2 24 3 25 4 26 6 27 5 28 98 29 99 30 100 31 101 32
REMARK SMILES IDX 27 33 28 34 29 35 30 36 31 37 32 38 33 39 34 40 35 41 96 42
REMARK SMILES IDX 36 43 95 44 37 45 38 46 39 47 89 48 40 49 94 50 88 51 90 52
REMARK SMILES IDX 41 53 93 54 87 55 86 56 42 58 74 59 54 60 73 61 55 62 58 63
REMARK SMILES IDX 72 64 91 65 56 66 57 67 71 69 92 70 59 71 43 72 44 73 52 74
REMARK SMILES IDX 45 75 51 76 53 77 50 78 46 79 47 80 48 81 49 82 75 83 76 84
REMARK SMILES IDX 84 85 77 86 83 87 85 88 82 89 78 90 79 91 80 92 81 93 60 94
REMARK SMILES IDX 61 95 69 96 62 97 68 98 70 99 67 100 63 101 64 102 65 103
REMARK SMILES IDX 66 104
REMARK H PARENT 90 57 58 68
REMARK Flexibility Score: inf
ROOT
ATOM      1  C   UNL A   1      35.605  21.734  25.166  1.00  0.00     0.188 C 
ENDROOT
BRANCH   1   2
ATOM      2  O   UNL A   1      34.342  21.423  25.769  1.00  0.00    -0.377 OA
BRANCH   2   3
ATOM      3  C   UNL A   1      34.302  21.786  27.137  1.00  0.00     0.188 C 
BRANCH   3   4
ATOM      4  C   UNL A   1      32.928  22.212  27.659  1.00  0.00     0.188 C 
BRANCH   4   5
ATOM      5  O   UNL A   1      32.389  23.465  27.253  1.00  0.00    -0.376 OA
BRANCH   5   6
ATOM      6  C   UNL A   1      31.147  23.415  26.542  1.00  0.00     0.202 C 
BRANCH   6   7
ATOM      7  C   UNL A   1      31.256  23.138  25.049  1.00  0.00     0.261 C 
BRANCH   7   8
ATOM      8  O   UNL A   1      31.227  24.367  24.311  1.00  0.00    -0.460 OA
BRANCH   8   9
ATOM      9  C   UNL A   1      32.247  24.473  23.446  1.00  0.00     0.338 C 
ATOM     10  O   UNL A   1      33.314  23.882  23.534  1.00  0.00    -0.246 OA
BRANCH   9  11
ATOM     11  C   UNL A   1      31.739  25.095  22.166  1.00  0.00     0.087 C 
ATOM     12  C   UNL A   1      31.153  28.392  23.459  1.00  0.00     0.012 A 
ATOM     13  C   UNL A   1      31.963  29.012  24.431  1.00  0.00     0.049 A 
ATOM     14  C   UNL A   1      31.748  27.336  22.748  1.00  0.00     0.027 A 
ATOM     15  Cl  UNL A   1      31.343  30.257  25.459  1.00  0.00    -0.084 Cl
ATOM     16  C   UNL A   1      33.311  28.648  24.594  1.00  0.00     0.025 A 
ATOM     17  C   UNL A   1      33.152  27.202  22.693  1.00  0.00     0.128 A 
ATOM     18  C   UNL A   1      30.962  26.199  22.214  1.00  0.00     0.028 C 
ATOM     19  C   UNL A   1      33.927  27.803  23.670  1.00  0.00     0.049 A 
ATOM     20  O   UNL A   1      33.773  26.392  21.754  1.00  0.00    -0.475 OA
ATOM     21  C   UNL A   1      32.977  25.253  21.301  1.00  0.00     0.316 C 
BRANCH  12  22
ATOM     22  C   UNL A   1      29.883  28.995  22.973  1.00  0.00    -0.013 A 
ATOM     23  C   UNL A   1      28.299  27.200  23.880  1.00  0.00     0.045 C 
ATOM     24  C   UNL A   1      28.585  28.477  23.149  1.00  0.00    -0.043 A 
ATOM     25  C   UNL A   1      27.482  29.136  22.568  1.00  0.00     0.004 A 
ATOM     26  C   UNL A   1      27.643  30.306  21.831  1.00  0.00     0.000 A 
ATOM     27  C   UNL A   1      30.013  30.183  22.215  1.00  0.00     0.009 A 
ATOM     28  C   UNL A   1      28.912  30.833  21.654  1.00  0.00     0.001 A 
ENDBRANCH  12  22
BRANCH  21  29
ATOM     29  C   UNL A   1      32.657  25.270  19.807  1.00  0.00     0.430 C 
ATOM     30  F   UNL A   1      32.757  24.031  19.264  1.00  0.00    -0.167 F 
ATOM     31  F   UNL A   1      31.376  25.671  19.586  1.00  0.00    -0.167 F 
ATOM     32  F   UNL A   1      33.459  26.090  19.094  1.00  0.00    -0.167 F 
ENDBRANCH  21  29
ENDBRANCH   9  11
ENDBRANCH   8   9
ENDBRANCH   7   8
ENDBRANCH   6   7
ENDBRANCH   5   6
ENDBRANCH   4   5
ENDBRANCH   3   4
ENDBRANCH   2   3
ENDBRANCH   1   2
BRANCH   1  33
ATOM     33  C   UNL A   1      36.441  20.470  25.016  1.00  0.00     0.188 C 
BRANCH  33  34
ATOM     34  O   UNL A   1      37.838  20.605  25.270  1.00  0.00    -0.376 OA
BRANCH  34  35
ATOM     35  C   UNL A   1      38.366  21.919  25.375  1.00  0.00     0.202 C 
BRANCH  35  36
ATOM     36  C   UNL A   1      39.365  22.120  26.524  1.00  0.00     0.261 C 
BRANCH  36  37
ATOM     37  O   UNL A   1      40.021  20.873  26.826  1.00  0.00    -0.460 OA
BRANCH  37  38
ATOM     38  C   UNL A   1      41.208  20.685  26.187  1.00  0.00     0.338 C 
ATOM     39  O   UNL A   1      41.467  19.744  25.452  1.00  0.00    -0.246 OA
BRANCH  38  40
ATOM     40  C   UNL A   1      42.196  21.695  26.661  1.00  0.00     0.060 A 
ATOM     41  C   UNL A   1      42.353  21.921  28.039  1.00  0.00     0.016 A 
ATOM     42  C   UNL A   1      42.719  22.604  25.747  1.00  0.00     0.016 A 
ATOM     43  C   UNL A   1      42.873  23.145  28.497  1.00  0.00     0.010 A 
ATOM     44  C   UNL A   1      43.149  23.836  26.206  1.00  0.00     0.010 A 
ATOM     45  C   UNL A   1      43.176  24.153  27.577  1.00  0.00    -0.014 A 
BRANCH  45  46
ATOM     46  C   UNL A   1      43.209  25.605  27.896  1.00  0.00     0.031 A 
ATOM     47  C   UNL A   1      41.936  26.412  27.953  1.00  0.00     0.074 A 
ATOM     48  C   UNL A   1      44.325  26.070  28.519  1.00  0.00     0.049 A 
ATOM     49  N   UNL A   1      41.839  27.652  28.309  1.00  0.00    -0.248 NA
ATOM     50  C   UNL A   1      40.629  25.871  27.577  1.00  0.00     0.031 C 
ATOM     51  C   UNL A   1      44.368  27.113  29.540  1.00  0.00     0.029 A 
ATOM     52  N   UNL A   1      45.650  25.643  28.474  1.00  0.00    -0.354 N 
ATOM     53  C   UNL A   1      40.503  27.952  28.542  1.00  0.00     0.074 A 
ATOM     54  C   UNL A   1      39.794  26.844  27.960  1.00  0.00     0.031 C 
ATOM     55  C   UNL A   1      45.603  27.233  30.042  1.00  0.00     0.029 A 
ATOM     56  C   UNL A   1      46.476  26.590  29.105  1.00  0.00     0.049 A 
ATOM     57  H   UNL A   1      45.961  24.805  28.062  1.00  0.00     0.167 HD
ATOM     58  C   UNL A   1      40.170  29.035  29.317  1.00  0.00     0.034 A 
ATOM     59  C   UNL A   1      47.366  27.324  28.368  1.00  0.00     0.034 A 
ATOM     60  C   UNL A   1      41.350  29.865  29.619  1.00  0.00     0.049 A 
ATOM     61  C   UNL A   1      46.917  28.769  28.120  1.00  0.00     0.074 A 
ATOM     62  C   UNL A   1      41.881  30.397  30.778  1.00  0.00     0.029 A 
ATOM     63  N   UNL A   1      42.272  30.161  28.610  1.00  0.00    -0.354 N 
ATOM     64  N   UNL A   1      45.719  29.226  28.412  1.00  0.00    -0.248 NA
ATOM     65  C   UNL A   1      47.768  29.831  27.589  1.00  0.00     0.031 C 
ATOM     66  C   UNL A   1      43.142  30.958  30.461  1.00  0.00     0.029 A 
ATOM     67  C   UNL A   1      43.407  30.754  29.117  1.00  0.00     0.049 A 
ATOM     68  H   UNL A   1      42.127  29.970  27.655  1.00  0.00     0.167 HD
ATOM     69  C   UNL A   1      45.602  30.549  28.089  1.00  0.00     0.074 A 
ATOM     70  C   UNL A   1      46.930  30.887  27.602  1.00  0.00     0.031 C 
ATOM     71  C   UNL A   1      44.439  31.265  28.221  1.00  0.00     0.034 A 
BRANCH  58  72
ATOM     72  C   UNL A   1      38.819  29.299  30.025  1.00  0.00     0.023 A 
ATOM     73  C   UNL A   1      38.015  30.397  29.609  1.00  0.00     0.031 A 
ATOM     74  C   UNL A   1      38.320  28.629  31.162  1.00  0.00     0.131 A 
ATOM     75  C   UNL A   1      36.873  30.822  30.329  1.00  0.00     0.055 A 
ATOM     76  C   UNL A   1      37.142  29.004  31.835  1.00  0.00     0.041 A 
ATOM     77  F   UNL A   1      38.953  27.597  31.726  1.00  0.00    -0.206 F 
ATOM     78  C   UNL A   1      36.422  30.117  31.435  1.00  0.00     0.022 A 
BRANCH  75  79
ATOM     79  S   UNL A   1      36.001  32.343  29.835  1.00  0.00     0.124 S 
ATOM     80  O   UNL A   1      36.932  33.389  30.247  1.00  0.00    -0.237 OA
ATOM     81  O   UNL A   1      35.832  32.161  28.398  1.00  0.00    -0.237 OA
ATOM     82  O   UNL A   1      34.759  32.288  30.609  1.00  0.00    -0.744 OA
ENDBRANCH  75  79
ENDBRANCH  58  72
BRANCH  59  83
ATOM     83  C   UNL A   1      48.284  26.400  27.623  1.00  0.00     0.023 A 
ATOM     84  C   UNL A   1      47.908  26.252  26.262  1.00  0.00     0.031 A 
ATOM     85  C   UNL A   1      49.660  26.411  27.917  1.00  0.00     0.131 A 
ATOM     86  C   UNL A   1      48.854  26.487  25.250  1.00  0.00     0.055 A 
ATOM     87  C   UNL A   1      50.613  26.554  26.893  1.00  0.00     0.041 A 
ATOM     88  F   UNL A   1      50.083  26.509  29.185  1.00  0.00    -0.206 F 
ATOM     89  C   UNL A   1      50.203  26.671  25.563  1.00  0.00     0.022 A 
BRANCH  86  90
ATOM     90  S   UNL A   1      48.266  26.936  23.580  1.00  0.00     0.124 S 
ATOM     91  O   UNL A   1      46.867  27.261  23.825  1.00  0.00    -0.237 OA
ATOM     92  O   UNL A   1      49.123  28.059  23.211  1.00  0.00    -0.237 OA
ATOM     93  O   UNL A   1      48.516  25.718  22.810  1.00  0.00    -0.744 OA
ENDBRANCH  86  90
ENDBRANCH  59  83
BRANCH  71  94
ATOM     94  C   UNL A   1      44.156  32.582  27.524  1.00  0.00     0.023 A 
ATOM     95  C   UNL A   1      43.767  33.728  28.226  1.00  0.00     0.031 A 
ATOM     96  C   UNL A   1      44.412  32.770  26.140  1.00  0.00     0.131 A 
ATOM     97  C   UNL A   1      43.551  34.948  27.565  1.00  0.00     0.055 A 
ATOM     98  C   UNL A   1      44.283  34.006  25.501  1.00  0.00     0.041 A 
ATOM     99  F   UNL A   1      44.829  31.772  25.348  1.00  0.00    -0.206 F 
ATOM    100  C   UNL A   1      43.831  35.104  26.210  1.00  0.00     0.022 A 
BRANCH  97 101
ATOM    101  S   UNL A   1      42.831  36.302  28.520  1.00  0.00     0.124 S 
ATOM    102  O   UNL A   1      43.722  36.357  29.676  1.00  0.00    -0.237 OA
ATOM    103  O   UNL A   1      42.928  37.426  27.595  1.00  0.00    -0.237 OA
ATOM    104  O   UNL A   1      41.474  35.842  28.803  1.00  0.00    -0.744 OA
ENDBRANCH  97 101
ENDBRANCH  71  94
ENDBRANCH  45  46
ENDBRANCH  38  40
ENDBRANCH  37  38
ENDBRANCH  36  37
ENDBRANCH  35  36
ENDBRANCH  34  35
ENDBRANCH  33  34
ENDBRANCH   1  33
TORSDOF 25
ENDMDL
MODEL 2
REMARK VINA RESULT:     -11.2      1.626      2.325
REMARK SMILES Cc1ccccc1-c1c(Cl)ccc2c1C=C(C(=O)OCCOCCOCCOCCOC(=O)c1ccc(-c3c4nc(c(-c5cc(S(=O)(=O)[O-])ccc5F)c5ccc([nH]5)c(-c5cc(S(=O)(=O)[O-])ccc5F)c5nc(c(-c6cc(S(=O)(=O)[O-])ccc6F)c6ccc3[nH]6)C=C5)C=C4)cc1)[C@@H](C(F)(F)F)O2
REMARK SMILES IDX 26 1 25 2 24 3 23 4 22 5 21 6 20 7 19 8 17 9 18 10 16 11
REMARK SMILES IDX 8 12 9 13 14 14 10 15 11 16 13 17 15 18 12 19 102 20 97 21
REMARK SMILES IDX 7 22 1 23 2 24 3 25 4 26 6 27 5 28 98 29 99 30 100 31 101 32
REMARK SMILES IDX 27 33 28 34 29 35 30 36 31 37 32 38 33 39 34 40 35 41 96 42
REMARK SMILES IDX 36 43 95 44 37 45 38 46 39 47 89 48 40 49 94 50 88 51 90 52
REMARK SMILES IDX 41 53 93 54 87 55 86 56 42 58 74 59 54 60 73 61 55 62 58 63
REMARK SMILES IDX 72 64 91 65 56 66 57 67 71 69 92 70 59 71 43 72 44 73 52 74
REMARK SMILES IDX 45 75 51 76 53 77 50 78 46 79 47 80 48 81 49 82 75 83 76 84
REMARK SMILES IDX 84 85 77 86 83 87 85 88 82 89 78 90 79 91 80 92 81 93 60 94
REMARK SMILES IDX 61 95 69 96 62 97 68 98 70 99 67 100 63 101 64 102 65 103
REMARK SMILES IDX 66 104
REMARK H PARENT 90 57 58 68
REMARK Flexibility Score: inf
ROOT
ATOM      1  C   UNL A   1      34.098  21.964  25.652  1.00  0.00     0.188 C 
ENDROOT
BRANCH   1   2
ATOM      2  O   UNL A   1      32.901  21.300  25.224  1.00  0.00    -0.377 OA
BRANCH   2   3
ATOM      3  C   UNL A   1      33.155  20.356  24.200  1.00  0.00     0.188 C 
BRANCH   3   4
ATOM      4  C   UNL A   1      32.462  20.640  22.865  1.00  0.00     0.188 C 
BRANCH   4   5
ATOM      5  O   UNL A   1      31.947  21.943  22.613  1.00  0.00    -0.376 OA
BRANCH   5   6
ATOM      6  C   UNL A   1      32.918  22.981  22.443  1.00  0.00     0.202 C 
BRANCH   6   7
ATOM      7  C   UNL A   1      32.578  24.313  23.099  1.00  0.00     0.261 C 
BRANCH   7   8
ATOM      8  O   UNL A   1      33.158  25.395  22.358  1.00  0.00    -0.460 OA
BRANCH   8   9
ATOM      9  C   UNL A   1      32.239  26.261  21.906  1.00  0.00     0.338 C 
ATOM     10  O   UNL A   1      31.155  25.957  21.428  1.00  0.00    -0.246 OA
BRANCH   9  11
ATOM     11  C   UNL A   1      32.560  27.637  22.441  1.00  0.00     0.087 C 
ATOM     12  C   UNL A   1      29.182  28.700  23.027  1.00  0.00     0.012 A 
ATOM     13  C   UNL A   1      28.153  27.844  23.469  1.00  0.00     0.049 A 
ATOM     14  C   UNL A   1      30.493  28.261  23.278  1.00  0.00     0.027 A 
ATOM     15  Cl  UNL A   1      26.490  28.193  23.145  1.00  0.00    -0.084 Cl
ATOM     16  C   UNL A   1      28.440  26.679  24.201  1.00  0.00     0.025 A 
ATOM     17  C   UNL A   1      30.754  27.288  24.266  1.00  0.00     0.128 A 
ATOM     18  C   UNL A   1      31.628  28.614  22.393  1.00  0.00     0.028 C 
ATOM     19  C   UNL A   1      29.733  26.445  24.670  1.00  0.00     0.049 A 
ATOM     20  O   UNL A   1      32.030  27.075  24.763  1.00  0.00    -0.475 OA
ATOM     21  C   UNL A   1      33.113  27.386  23.832  1.00  0.00     0.316 C 
BRANCH  12  22
ATOM     22  C   UNL A   1      28.931  30.109  22.622  1.00  0.00    -0.013 A 
ATOM     23  C   UNL A   1      29.871  31.225  24.725  1.00  0.00     0.045 C 
ATOM     24  C   UNL A   1      29.232  31.264  23.370  1.00  0.00    -0.043 A 
ATOM     25  C   UNL A   1      28.871  32.534  22.874  1.00  0.00     0.004 A 
ATOM     26  C   UNL A   1      28.232  32.678  21.646  1.00  0.00     0.000 A 
ATOM     27  C   UNL A   1      28.279  30.289  21.379  1.00  0.00     0.009 A 
ATOM     28  C   UNL A   1      27.935  31.552  20.894  1.00  0.00     0.001 A 
ENDBRANCH  12  22
BRANCH  21  29
ATOM     29  C   UNL A   1      34.046  28.500  24.308  1.00  0.00     0.430 C 
ATOM     30  F   UNL A   1      34.908  28.053  25.256  1.00  0.00    -0.167 F 
ATOM     31  F   UNL A   1      34.819  28.959  23.288  1.00  0.00    -0.167 F 
ATOM     32  F   UNL A   1      33.393  29.564  24.824  1.00  0.00    -0.167 F 
ENDBRANCH  21  29
ENDBRANCH   9  11
ENDBRANCH   8   9
ENDBRANCH   7   8
ENDBRANCH   6   7
ENDBRANCH   5   6
ENDBRANCH   4   5
ENDBRANCH   3   4
ENDBRANCH   2   3
ENDBRANCH   1   2
BRANCH   1  33
ATOM     33  C   UNL A   1      35.321  21.149  25.255  1.00  0.00     0.188 C 
BRANCH  33  34
ATOM     34  O   UNL A   1      36.540  21.477  25.920  1.00  0.00    -0.376 OA
BRANCH  34  35
ATOM     35  C   UNL A   1      37.746  21.381  25.176  1.00  0.00     0.202 C 
BRANCH  35  36
ATOM     36  C   UNL A   1      39.001  21.854  25.924  1.00  0.00     0.261 C 
BRANCH  36  37
ATOM     37  O   UNL A   1      39.621  20.738  26.593  1.00  0.00    -0.460 OA
BRANCH  37  38
ATOM     38  C   UNL A   1      40.844  20.392  26.107  1.00  0.00     0.338 C 
ATOM     39  O   UNL A   1      41.090  19.365  25.493  1.00  0.00    -0.246 OA
BRANCH  38  40
ATOM     40  C   UNL A   1      41.868  21.360  26.593  1.00  0.00     0.060 A 
ATOM     41  C   UNL A   1      42.017  21.581  27.974  1.00  0.00     0.016 A 
ATOM     42  C   UNL A   1      42.440  22.247  25.687  1.00  0.00     0.016 A 
ATOM     43  C   UNL A   1      42.581  22.783  28.438  1.00  0.00     0.010 A 
ATOM     44  C   UNL A   1      42.914  23.461  26.151  1.00  0.00     0.010 A 
ATOM     45  C   UNL A   1      42.937  23.777  27.522  1.00  0.00    -0.014 A 
BRANCH  45  46
ATOM     46  C   UNL A   1      43.026  25.227  27.841  1.00  0.00     0.031 A 
ATOM     47  C   UNL A   1      41.792  26.094  27.844  1.00  0.00     0.074 A 
ATOM     48  C   UNL A   1      44.136  25.639  28.511  1.00  0.00     0.049 A 
ATOM     49  N   UNL A   1      41.739  27.337  28.194  1.00  0.00    -0.248 NA
ATOM     50  C   UNL A   1      40.477  25.615  27.414  1.00  0.00     0.031 C 
ATOM     51  C   UNL A   1      44.185  26.681  29.532  1.00  0.00     0.029 A 
ATOM     52  N   UNL A   1      45.439  25.149  28.521  1.00  0.00    -0.354 N 
ATOM     53  C   UNL A   1      40.411  27.702  28.371  1.00  0.00     0.074 A 
ATOM     54  C   UNL A   1      39.674  26.627  27.760  1.00  0.00     0.031 C 
ATOM     55  C   UNL A   1      45.402  26.743  30.085  1.00  0.00     0.029 A 
ATOM     56  C   UNL A   1      46.283  26.058  29.186  1.00  0.00     0.049 A 
ATOM     57  H   UNL A   1      45.727  24.296  28.123  1.00  0.00     0.167 HD
ATOM     58  C   UNL A   1      40.097  28.801  29.130  1.00  0.00     0.034 A 
ATOM     59  C   UNL A   1      47.236  26.746  28.487  1.00  0.00     0.034 A 
ATOM     60  C   UNL A   1      41.302  29.575  29.481  1.00  0.00     0.049 A 
ATOM     61  C   UNL A   1      46.868  28.210  28.219  1.00  0.00     0.074 A 
ATOM     62  C   UNL A   1      41.808  30.084  30.662  1.00  0.00     0.029 A 
ATOM     63  N   UNL A   1      42.278  29.824  28.512  1.00  0.00    -0.354 N 
ATOM     64  N   UNL A   1      45.682  28.725  28.460  1.00  0.00    -0.248 NA
ATOM     65  C   UNL A   1      47.790  29.229  27.724  1.00  0.00     0.031 C 
ATOM     66  C   UNL A   1      43.107  30.584  30.398  1.00  0.00     0.029 A 
ATOM     67  C   UNL A   1      43.418  30.364  29.066  1.00  0.00     0.049 A 
ATOM     68  H   UNL A   1      42.165  29.637  27.551  1.00  0.00     0.167 HD
ATOM     69  C   UNL A   1      45.642  30.051  28.131  1.00  0.00     0.074 A 
ATOM     70  C   UNL A   1      47.005  30.324  27.701  1.00  0.00     0.031 C 
ATOM     71  C   UNL A   1      44.511  30.822  28.214  1.00  0.00     0.034 A 
BRANCH  58  72
ATOM     72  C   UNL A   1      38.732  29.132  29.780  1.00  0.00     0.023 A 
ATOM     73  C   UNL A   1      37.963  30.217  29.277  1.00  0.00     0.031 A 
ATOM     74  C   UNL A   1      38.187  28.540  30.940  1.00  0.00     0.131 A 
ATOM     75  C   UNL A   1      36.809  30.705  29.935  1.00  0.00     0.055 A 
ATOM     76  C   UNL A   1      36.997  28.976  31.554  1.00  0.00     0.041 A 
ATOM     77  F   UNL A   1      38.783  27.533  31.583  1.00  0.00    -0.206 F 
ATOM     78  C   UNL A   1      36.312  30.075  31.067  1.00  0.00     0.022 A 
BRANCH  75  79
ATOM     79  S   UNL A   1      35.981  32.209  29.326  1.00  0.00     0.124 S 
ATOM     80  O   UNL A   1      36.988  33.239  29.559  1.00  0.00    -0.237 OA
ATOM     81  O   UNL A   1      35.707  31.880  27.932  1.00  0.00    -0.237 OA
ATOM     82  O   UNL A   1      34.793  32.310  30.176  1.00  0.00    -0.744 OA
ENDBRANCH  75  79
ENDBRANCH  58  72
BRANCH  59  83
ATOM     83  C   UNL A   1      48.140  25.778  27.782  1.00  0.00     0.023 A 
ATOM     84  C   UNL A   1      48.017  25.859  26.370  1.00  0.00     0.031 A 
ATOM     85  C   UNL A   1      49.420  25.522  28.306  1.00  0.00     0.131 A 
ATOM     86  C   UNL A   1      49.163  26.051  25.582  1.00  0.00     0.055 A 
ATOM     87  C   UNL A   1      50.563  25.625  27.494  1.00  0.00     0.041 A 
ATOM     88  F   UNL A   1      49.601  25.395  29.628  1.00  0.00    -0.206 F 
ATOM     89  C   UNL A   1      50.439  25.968  26.146  1.00  0.00     0.022 A 
BRANCH  86  90
ATOM     90  S   UNL A   1      48.979  26.789  23.921  1.00  0.00     0.124 S 
ATOM     91  O   UNL A   1      48.250  28.017  24.211  1.00  0.00    -0.237 OA
ATOM     92  O   UNL A   1      50.357  26.960  23.473  1.00  0.00    -0.237 OA
ATOM     93  O   UNL A   1      48.239  25.761  23.190  1.00  0.00    -0.744 OA
ENDBRANCH  86  90
ENDBRANCH  59  83
BRANCH  71  94
ATOM     94  C   UNL A   1      44.320  32.149  27.505  1.00  0.00     0.023 A 
ATOM     95  C   UNL A   1      43.972  33.317  28.191  1.00  0.00     0.031 A 
ATOM     96  C   UNL A   1      44.629  32.317  26.129  1.00  0.00     0.131 A 
ATOM     97  C   UNL A   1      43.843  34.544  27.521  1.00  0.00     0.055 A 
ATOM     98  C   UNL A   1      44.587  33.555  25.483  1.00  0.00     0.041 A 
ATOM     99  F   UNL A   1      45.015  31.294  25.353  1.00  0.00    -0.206 F 
ATOM    100  C   UNL A   1      44.173  34.679  26.175  1.00  0.00     0.022 A 
BRANCH  97 101
ATOM    101  S   UNL A   1      43.168  35.939  28.449  1.00  0.00     0.124 S 
ATOM    102  O   UNL A   1      42.284  36.554  27.462  1.00  0.00    -0.237 OA
ATOM    103  O   UNL A   1      42.503  35.281  29.569  1.00  0.00    -0.237 OA
ATOM    104  O   UNL A   1      44.349  36.725  28.800  1.00  0.00    -0.744 OA
ENDBRANCH  97 101
ENDBRANCH  71  94
ENDBRANCH  45  46
ENDBRANCH  38  40
ENDBRANCH  37  38
ENDBRANCH  36  37
ENDBRANCH  35  36
ENDBRANCH  34  35
ENDBRANCH  33  34
ENDBRANCH   1  33
TORSDOF 25
ENDMDL
MODEL 3
REMARK VINA RESULT:     -10.5      3.438      5.330
REMARK SMILES Cc1ccccc1-c1c(Cl)ccc2c1C=C(C(=O)OCCOCCOCCOCCOC(=O)c1ccc(-c3c4nc(c(-c5cc(S(=O)(=O)[O-])ccc5F)c5ccc([nH]5)c(-c5cc(S(=O)(=O)[O-])ccc5F)c5nc(c(-c6cc(S(=O)(=O)[O-])ccc6F)c6ccc3[nH]6)C=C5)C=C4)cc1)[C@@H](C(F)(F)F)O2
REMARK SMILES IDX 26 1 25 2 24 3 23 4 22 5 21 6 20 7 19 8 17 9 18 10 16 11
REMARK SMILES IDX 8 12 9 13 14 14 10 15 11 16 13 17 15 18 12 19 102 20 97 21
REMARK SMILES IDX 7 22 1 23 2 24 3 25 4 26 6 27 5 28 98 29 99 30 100 31 101 32
REMARK SMILES IDX 27 33 28 34 29 35 30 36 31 37 32 38 33 39 34 40 35 41 96 42
REMARK SMILES IDX 36 43 95 44 37 45 38 46 39 47 89 48 40 49 94 50 88 51 90 52
REMARK SMILES IDX 41 53 93 54 87 55 86 56 42 58 74 59 54 60 73 61 55 62 58 63
REMARK SMILES IDX 72 64 91 65 56 66 57 67 71 69 92 70 59 71 43 72 44 73 52 74
REMARK SMILES IDX 45 75 51 76 53 77 50 78 46 79 47 80 48 81 49 82 75 83 76 84
REMARK SMILES IDX 84 85 77 86 83 87 85 88 82 89 78 90 79 91 80 92 81 93 60 94
REMARK SMILES IDX 61 95 69 96 62 97 68 98 70 99 67 100 63 101 64 102 65 103
REMARK SMILES IDX 66 104
REMARK H PARENT 90 57 58 68
REMARK Flexibility Score: inf
ROOT
ATOM      1  C   UNL A   1      42.973  20.916  25.374  1.00  0.00     0.188 C 
ENDROOT
BRANCH   1   2
ATOM      2  O   UNL A   1      42.553  19.615  25.807  1.00  0.00    -0.377 OA
BRANCH   2   3
ATOM      3  C   UNL A   1      41.417  19.677  26.650  1.00  0.00     0.188 C 
BRANCH   3   4
ATOM      4  C   UNL A   1      40.123  20.127  25.968  1.00  0.00     0.188 C 
BRANCH   4   5
ATOM      5  O   UNL A   1      39.252  19.146  25.417  1.00  0.00    -0.376 OA
BRANCH   5   6
ATOM      6  C   UNL A   1      38.001  19.627  24.911  1.00  0.00     0.202 C 
BRANCH   6   7
ATOM      7  C   UNL A   1      37.765  21.123  25.060  1.00  0.00     0.261 C 
BRANCH   7   8
ATOM      8  O   UNL A   1      36.552  21.503  24.397  1.00  0.00    -0.460 OA
BRANCH   8   9
ATOM      9  C   UNL A   1      36.225  22.786  24.616  1.00  0.00     0.338 C 
ATOM     10  O   UNL A   1      36.485  23.720  23.871  1.00  0.00    -0.246 OA
BRANCH   9  11
ATOM     11  C   UNL A   1      35.157  22.842  25.684  1.00  0.00     0.087 C 
ATOM     12  C   UNL A   1      33.467  25.775  24.489  1.00  0.00     0.012 A 
ATOM     13  C   UNL A   1      33.310  26.092  23.125  1.00  0.00     0.049 A 
ATOM     14  C   UNL A   1      33.731  24.425  24.777  1.00  0.00     0.027 A 
ATOM     15  Cl  UNL A   1      33.082  27.724  22.600  1.00  0.00    -0.084 Cl
ATOM     16  C   UNL A   1      33.321  25.090  22.139  1.00  0.00     0.025 A 
ATOM     17  C   UNL A   1      33.425  23.412  23.843  1.00  0.00     0.128 A 
ATOM     18  C   UNL A   1      34.532  24.008  25.953  1.00  0.00     0.028 C 
ATOM     19  C   UNL A   1      33.294  23.744  22.506  1.00  0.00     0.049 A 
ATOM     20  O   UNL A   1      33.361  22.076  24.208  1.00  0.00    -0.475 OA
ATOM     21  C   UNL A   1      34.212  21.705  25.338  1.00  0.00     0.316 C 
BRANCH  12  22
ATOM     22  C   UNL A   1      33.067  26.705  25.578  1.00  0.00    -0.013 A 
ATOM     23  C   UNL A   1      30.646  25.909  25.815  1.00  0.00     0.045 C 
ATOM     24  C   UNL A   1      31.801  26.786  26.191  1.00  0.00    -0.043 A 
ATOM     25  C   UNL A   1      31.558  27.772  27.170  1.00  0.00     0.004 A 
ATOM     26  C   UNL A   1      32.551  28.666  27.560  1.00  0.00     0.000 A 
ATOM     27  C   UNL A   1      34.052  27.632  25.994  1.00  0.00     0.009 A 
ATOM     28  C   UNL A   1      33.803  28.597  26.971  1.00  0.00     0.001 A 
ENDBRANCH  12  22
BRANCH  21  29
ATOM     29  C   UNL A   1      33.444  21.183  26.552  1.00  0.00     0.430 C 
ATOM     30  F   UNL A   1      34.180  21.291  27.687  1.00  0.00    -0.167 F 
ATOM     31  F   UNL A   1      32.317  21.911  26.768  1.00  0.00    -0.167 F 
ATOM     32  F   UNL A   1      33.068  19.890  26.435  1.00  0.00    -0.167 F 
ENDBRANCH  21  29
ENDBRANCH   9  11
ENDBRANCH   8   9
ENDBRANCH   7   8
ENDBRANCH   6   7
ENDBRANCH   5   6
ENDBRANCH   4   5
ENDBRANCH   3   4
ENDBRANCH   2   3
ENDBRANCH   1   2
BRANCH   1  33
ATOM     33  C   UNL A   1      43.966  21.505  26.366  1.00  0.00     0.188 C 
BRANCH  33  34
ATOM     34  O   UNL A   1      43.609  22.761  26.942  1.00  0.00    -0.376 OA
BRANCH  34  35
ATOM     35  C   UNL A   1      42.570  23.502  26.320  1.00  0.00     0.202 C 
BRANCH  35  36
ATOM     36  C   UNL A   1      41.177  23.296  26.934  1.00  0.00     0.261 C 
BRANCH  36  37
ATOM     37  O   UNL A   1      40.193  24.018  26.169  1.00  0.00    -0.460 OA
BRANCH  37  38
ATOM     38  C   UNL A   1      39.257  24.667  26.914  1.00  0.00     0.338 C 
ATOM     39  O   UNL A   1      38.055  24.659  26.694  1.00  0.00    -0.246 OA
BRANCH  38  40
ATOM     40  C   UNL A   1      39.934  25.532  27.922  1.00  0.00     0.060 A 
ATOM     41  C   UNL A   1      39.257  25.884  29.103  1.00  0.00     0.016 A 
ATOM     42  C   UNL A   1      41.084  26.223  27.552  1.00  0.00     0.016 A 
ATOM     43  C   UNL A   1      39.631  27.041  29.811  1.00  0.00     0.010 A 
ATOM     44  C   UNL A   1      41.390  27.403  28.206  1.00  0.00     0.010 A 
ATOM     45  C   UNL A   1      40.638  27.866  29.302  1.00  0.00    -0.014 A 
BRANCH  45  46
ATOM     46  C   UNL A   1      40.775  29.316  29.602  1.00  0.00     0.031 A 
ATOM     47  C   UNL A   1      39.617  30.260  29.396  1.00  0.00     0.074 A 
ATOM     48  C   UNL A   1      41.793  29.676  30.429  1.00  0.00     0.049 A 
ATOM     49  N   UNL A   1      39.595  31.514  29.710  1.00  0.00    -0.248 NA
ATOM     50  C   UNL A   1      38.355  29.854  28.775  1.00  0.00     0.031 C 
ATOM     51  C   UNL A   1      41.755  30.743  31.425  1.00  0.00     0.029 A 
ATOM     52  N   UNL A   1      43.043  29.104  30.652  1.00  0.00    -0.354 N 
ATOM     53  C   UNL A   1      38.283  31.968  29.669  1.00  0.00     0.074 A 
ATOM     54  C   UNL A   1      37.579  30.925  28.972  1.00  0.00     0.031 C 
ATOM     55  C   UNL A   1      42.873  30.743  32.161  1.00  0.00     0.029 A 
ATOM     56  C   UNL A   1      43.834  29.976  31.423  1.00  0.00     0.049 A 
ATOM     57  H   UNL A   1      43.331  28.223  30.321  1.00  0.00     0.167 HD
ATOM     58  C   UNL A   1      37.931  33.107  30.350  1.00  0.00     0.034 A 
ATOM     59  C   UNL A   1      44.928  30.581  30.869  1.00  0.00     0.034 A 
ATOM     60  C   UNL A   1      39.118  33.812  30.869  1.00  0.00     0.049 A 
ATOM     61  C   UNL A   1      44.706  32.057  30.518  1.00  0.00     0.074 A 
ATOM     62  C   UNL A   1      39.468  34.323  32.104  1.00  0.00     0.029 A 
ATOM     63  N   UNL A   1      40.246  33.969  30.059  1.00  0.00    -0.354 N 
ATOM     64  N   UNL A   1      43.535  32.653  30.562  1.00  0.00    -0.248 NA
ATOM     65  C   UNL A   1      45.761  32.999  30.154  1.00  0.00     0.031 C 
ATOM     66  C   UNL A   1      40.823  34.730  32.037  1.00  0.00     0.029 A 
ATOM     67  C   UNL A   1      41.321  34.451  30.774  1.00  0.00     0.049 A 
ATOM     68  H   UNL A   1      40.270  33.762  29.097  1.00  0.00     0.167 HD
ATOM     69  C   UNL A   1      43.636  33.969  30.205  1.00  0.00     0.074 A 
ATOM     70  C   UNL A   1      45.064  34.141  29.987  1.00  0.00     0.031 C 
ATOM     71  C   UNL A   1      42.560  34.813  30.095  1.00  0.00     0.034 A 
BRANCH  58  72
ATOM     72  C   UNL A   1      36.508  33.543  30.772  1.00  0.00     0.023 A 
ATOM     73  C   UNL A   1      35.610  34.045  29.789  1.00  0.00     0.031 A 
ATOM     74  C   UNL A   1      36.008  33.622  32.089  1.00  0.00     0.131 A 
ATOM     75  C   UNL A   1      34.372  34.645  30.122  1.00  0.00     0.055 A 
ATOM     76  C   UNL A   1      34.744  34.150  32.416  1.00  0.00     0.041 A 
ATOM     77  F   UNL A   1      36.717  33.236  33.153  1.00  0.00    -0.206 F 
ATOM     78  C   UNL A   1      33.927  34.684  31.435  1.00  0.00     0.022 A 
BRANCH  75  79
ATOM     79  S   UNL A   1      33.361  35.424  28.823  1.00  0.00     0.124 S 
ATOM     80  O   UNL A   1      34.359  36.125  28.023  1.00  0.00    -0.237 OA
ATOM     81  O   UNL A   1      32.718  34.279  28.190  1.00  0.00    -0.237 OA
ATOM     82  O   UNL A   1      32.456  36.295  29.574  1.00  0.00    -0.744 OA
ENDBRANCH  75  79
ENDBRANCH  58  72
BRANCH  59  83
ATOM     83  C   UNL A   1      45.862  29.536  30.332  1.00  0.00     0.023 A 
ATOM     84  C   UNL A   1      46.196  29.762  28.971  1.00  0.00     0.031 A 
ATOM     85  C   UNL A   1      46.868  29.016  31.167  1.00  0.00     0.131 A 
ATOM     86  C   UNL A   1      47.545  29.821  28.586  1.00  0.00     0.055 A 
ATOM     87  C   UNL A   1      48.209  28.990  30.747  1.00  0.00     0.041 A 
ATOM     88  F   UNL A   1      46.610  28.743  32.453  1.00  0.00    -0.206 F 
ATOM     89  C   UNL A   1      48.558  29.467  29.481  1.00  0.00     0.022 A 
BRANCH  86  90
ATOM     90  S   UNL A   1      47.990  30.725  27.062  1.00  0.00     0.124 S 
ATOM     91  O   UNL A   1      48.985  31.672  27.548  1.00  0.00    -0.237 OA
ATOM     92  O   UNL A   1      48.491  29.674  26.181  1.00  0.00    -0.237 OA
ATOM     93  O   UNL A   1      46.712  31.297  26.640  1.00  0.00    -0.744 OA
ENDBRANCH  86  90
ENDBRANCH  59  83
BRANCH  71  94
ATOM     94  C   UNL A   1      42.572  36.128  29.340  1.00  0.00     0.023 A 
ATOM     95  C   UNL A   1      43.236  37.260  29.824  1.00  0.00     0.031 A 
ATOM     96  C   UNL A   1      42.039  36.247  28.029  1.00  0.00     0.131 A 
ATOM     97  C   UNL A   1      43.270  38.455  29.088  1.00  0.00     0.055 A 
ATOM     98  C   UNL A   1      42.152  37.408  27.261  1.00  0.00     0.041 A 
ATOM     99  F   UNL A   1      41.409  35.232  27.418  1.00  0.00    -0.206 F 
ATOM    100  C   UNL A   1      42.756  38.532  27.797  1.00  0.00     0.022 A 
BRANCH  97 101
ATOM    101  S   UNL A   1      43.950  39.920  29.899  1.00  0.00     0.124 S 
ATOM    102  O   UNL A   1      45.376  39.782  29.615  1.00  0.00    -0.237 OA
ATOM    103  O   UNL A   1      43.271  41.009  29.204  1.00  0.00    -0.237 OA
ATOM    104  O   UNL A   1      43.576  39.744  31.300  1.00  0.00    -0.744 OA
ENDBRANCH  97 101
ENDBRANCH  71  94
ENDBRANCH  45  46
ENDBRANCH  38  40
ENDBRANCH  37  38
ENDBRANCH  36  37
ENDBRANCH  35  36
ENDBRANCH  34  35
ENDBRANCH  33  34
ENDBRANCH   1  33
TORSDOF 25
ENDMDL
