MODEL 1
REMARK VINA RESULT:      -9.5      0.000      0.000
REMARK SMILES O=C(OCCOCCOCCOCCOC(=O)c1ccc(-c2c3nc(c(-c4cc(S(=O)(=O)[O-])ccc4F)c4ccc([nH]4)c(-c4cc(S(=O)(=O)[O-])ccc4F)c4nc(c(-c5cc(S(=O)(=O)[O-])ccc5F)c5ccc2[nH]5)C=C4)C=C3)cc1)C1=Cc2c(ccc(Cl)c2Sc2ccccc2)O[C@H]1C(F)(F)F
REMARK SMILES IDX 10 1 9 2 8 3 7 4 6 5 5 6 4 7 3 8 2 9 1 10 81 11 82 12 98 13
REMARK SMILES IDX 83 14 97 15 84 16 89 17 85 18 87 19 86 20 88 21 99 22 100 23
REMARK SMILES IDX 101 24 102 25 90 26 91 27 92 28 96 29 93 30 95 31 94 32
REMARK SMILES IDX 11 33 12 34 13 35 14 36 15 37 16 38 17 39 18 40 19 41 80 42
REMARK SMILES IDX 20 43 79 44 21 45 22 46 23 47 73 48 24 49 78 50 72 51 74 52
REMARK SMILES IDX 25 53 77 54 71 55 70 56 26 58 58 59 38 60 57 61 39 62 42 63
REMARK SMILES IDX 56 64 75 65 40 66 41 67 55 69 76 70 43 71 27 72 28 73 36 74
REMARK SMILES IDX 29 75 35 76 37 77 34 78 30 79 31 80 32 81 33 82 59 83 60 84
REMARK SMILES IDX 68 85 61 86 67 87 69 88 66 89 62 90 63 91 64 92 65 93 44 94
REMARK SMILES IDX 45 95 53 96 46 97 52 98 54 99 51 100 47 101 48 102 49 103
REMARK SMILES IDX 50 104
REMARK H PARENT 74 57 42 68
REMARK Flexibility Score: inf
ROOT
ATOM      1  C   UNL A   1      32.892  36.092  29.451  1.00  0.00     0.188 C 
ENDROOT
BRANCH   1   2
ATOM      2  O   UNL A   1      33.050  34.904  28.698  1.00  0.00    -0.377 OA
BRANCH   2   3
ATOM      3  C   UNL A   1      34.254  34.804  27.966  1.00  0.00     0.188 C 
BRANCH   3   4
ATOM      4  C   UNL A   1      35.020  33.477  28.064  1.00  0.00     0.188 C 
BRANCH   4   5
ATOM      5  O   UNL A   1      34.554  32.565  29.057  1.00  0.00    -0.376 OA
BRANCH   5   6
ATOM      6  C   UNL A   1      34.791  31.192  28.772  1.00  0.00     0.202 C 
BRANCH   6   7
ATOM      7  C   UNL A   1      34.315  30.778  27.370  1.00  0.00     0.261 C 
BRANCH   7   8
ATOM      8  O   UNL A   1      34.545  29.385  27.066  1.00  0.00    -0.460 OA
BRANCH   8   9
ATOM      9  C   UNL A   1      33.437  28.594  26.957  1.00  0.00     0.338 C 
ATOM     10  O   UNL A   1      32.642  28.378  27.839  1.00  0.00    -0.246 OA
BRANCH   9  11
ATOM     11  C   UNL A   1      33.464  27.858  25.681  1.00  0.00     0.087 C 
ATOM     12  C   UNL A   1      33.835  26.576  25.763  1.00  0.00     0.028 C 
ATOM     13  C   UNL A   1      32.871  28.509  24.473  1.00  0.00     0.316 C 
ATOM     14  C   UNL A   1      33.279  25.642  24.793  1.00  0.00     0.033 A 
ATOM     15  O   UNL A   1      32.623  27.578  23.391  1.00  0.00    -0.475 OA
ATOM     16  C   UNL A   1      32.681  26.230  23.646  1.00  0.00     0.129 A 
ATOM     17  C   UNL A   1      33.196  24.236  25.018  1.00  0.00     0.042 A 
ATOM     18  C   UNL A   1      32.079  25.449  22.668  1.00  0.00     0.049 A 
ATOM     19  C   UNL A   1      32.515  23.481  24.017  1.00  0.00     0.055 A 
ATOM     20  C   UNL A   1      31.988  24.079  22.858  1.00  0.00     0.025 A 
ATOM     21  Cl  UNL A   1      32.247  21.769  24.138  1.00  0.00    -0.083 Cl
BRANCH  13  22
ATOM     22  C   UNL A   1      31.628  29.391  24.719  1.00  0.00     0.430 C 
ATOM     23  F   UNL A   1      30.994  29.720  23.575  1.00  0.00    -0.167 F 
ATOM     24  F   UNL A   1      30.734  28.772  25.526  1.00  0.00    -0.167 F 
ATOM     25  F   UNL A   1      31.962  30.546  25.344  1.00  0.00    -0.167 F 
ENDBRANCH  13  22
BRANCH  17  26
ATOM     26  S   UNL A   1      34.011  23.273  26.350  1.00  0.00    -0.088 SA
BRANCH  26  27
ATOM     27  C   UNL A   1      35.518  22.441  25.886  1.00  0.00     0.012 A 
ATOM     28  C   UNL A   1      36.729  23.144  25.882  1.00  0.00     0.015 A 
ATOM     29  C   UNL A   1      35.538  21.156  25.333  1.00  0.00     0.015 A 
ATOM     30  C   UNL A   1      37.934  22.524  25.518  1.00  0.00     0.001 A 
ATOM     31  C   UNL A   1      36.743  20.509  25.003  1.00  0.00     0.001 A 
ATOM     32  C   UNL A   1      37.949  21.190  25.124  1.00  0.00     0.000 A 
ENDBRANCH  26  27
ENDBRANCH  17  26
ENDBRANCH   9  11
ENDBRANCH   8   9
ENDBRANCH   7   8
ENDBRANCH   6   7
ENDBRANCH   5   6
ENDBRANCH   4   5
ENDBRANCH   3   4
ENDBRANCH   2   3
ENDBRANCH   1   2
BRANCH   1  33
ATOM     33  C   UNL A   1      33.215  35.862  30.927  1.00  0.00     0.188 C 
BRANCH  33  34
ATOM     34  O   UNL A   1      34.417  35.200  31.276  1.00  0.00    -0.376 OA
BRANCH  34  35
ATOM     35  C   UNL A   1      35.037  35.321  32.548  1.00  0.00     0.202 C 
BRANCH  35  36
ATOM     36  C   UNL A   1      35.113  34.280  33.686  1.00  0.00     0.261 C 
BRANCH  36  37
ATOM     37  O   UNL A   1      35.897  33.110  33.502  1.00  0.00    -0.460 OA
BRANCH  37  38
ATOM     38  C   UNL A   1      35.432  32.268  32.559  1.00  0.00     0.338 C 
ATOM     39  O   UNL A   1      34.299  32.228  32.112  1.00  0.00    -0.246 OA
BRANCH  38  40
ATOM     40  C   UNL A   1      36.575  31.521  31.999  1.00  0.00     0.060 A 
ATOM     41  C   UNL A   1      36.731  30.190  32.399  1.00  0.00     0.016 A 
ATOM     42  C   UNL A   1      37.497  32.123  31.135  1.00  0.00     0.016 A 
ATOM     43  C   UNL A   1      37.851  29.473  31.997  1.00  0.00     0.010 A 
ATOM     44  C   UNL A   1      38.641  31.415  30.761  1.00  0.00     0.010 A 
ATOM     45  C   UNL A   1      38.845  30.110  31.243  1.00  0.00    -0.014 A 
BRANCH  45  46
ATOM     46  C   UNL A   1      40.207  29.534  31.280  1.00  0.00     0.031 A 
ATOM     47  C   UNL A   1      41.140  30.058  32.340  1.00  0.00     0.074 A 
ATOM     48  C   UNL A   1      40.579  28.538  30.460  1.00  0.00     0.049 A 
ATOM     49  N   UNL A   1      42.366  29.705  32.622  1.00  0.00    -0.248 NA
ATOM     50  C   UNL A   1      40.607  31.124  33.207  1.00  0.00     0.031 C 
ATOM     51  C   UNL A   1      39.735  27.923  29.438  1.00  0.00     0.029 A 
ATOM     52  N   UNL A   1      41.771  27.867  30.365  1.00  0.00    -0.354 N 
ATOM     53  C   UNL A   1      42.744  30.496  33.701  1.00  0.00     0.074 A 
ATOM     54  C   UNL A   1      41.634  31.371  34.002  1.00  0.00     0.031 C 
ATOM     55  C   UNL A   1      40.442  26.966  28.810  1.00  0.00     0.029 A 
ATOM     56  C   UNL A   1      41.796  26.924  29.365  1.00  0.00     0.049 A 
ATOM     57  H   UNL A   1      42.536  28.044  30.958  1.00  0.00     0.167 HD
ATOM     58  C   UNL A   1      43.913  30.492  34.386  1.00  0.00     0.034 A 
ATOM     59  C   UNL A   1      42.808  26.139  28.942  1.00  0.00     0.034 A 
ATOM     60  C   UNL A   1      45.025  29.645  34.043  1.00  0.00     0.049 A 
ATOM     61  C   UNL A   1      44.140  26.226  29.651  1.00  0.00     0.074 A 
ATOM     62  C   UNL A   1      46.266  29.565  34.647  1.00  0.00     0.029 A 
ATOM     63  N   UNL A   1      45.036  28.745  32.984  1.00  0.00    -0.354 N 
ATOM     64  N   UNL A   1      44.487  26.969  30.679  1.00  0.00    -0.248 NA
ATOM     65  C   UNL A   1      45.217  25.363  29.148  1.00  0.00     0.031 C 
ATOM     66  C   UNL A   1      47.052  28.674  33.908  1.00  0.00     0.029 A 
ATOM     67  C   UNL A   1      46.275  28.133  32.894  1.00  0.00     0.049 A 
ATOM     68  H   UNL A   1      44.275  28.569  32.385  1.00  0.00     0.167 HD
ATOM     69  C   UNL A   1      45.811  26.639  30.961  1.00  0.00     0.074 A 
ATOM     70  C   UNL A   1      46.194  25.621  30.004  1.00  0.00     0.031 C 
ATOM     71  C   UNL A   1      46.637  27.126  31.923  1.00  0.00     0.034 A 
BRANCH  58  72
ATOM     72  C   UNL A   1      44.053  31.488  35.509  1.00  0.00     0.023 A 
ATOM     73  C   UNL A   1      44.600  32.768  35.300  1.00  0.00     0.031 A 
ATOM     74  C   UNL A   1      43.694  31.130  36.819  1.00  0.00     0.131 A 
ATOM     75  C   UNL A   1      44.838  33.613  36.395  1.00  0.00     0.055 A 
ATOM     76  C   UNL A   1      43.860  32.007  37.893  1.00  0.00     0.041 A 
ATOM     77  F   UNL A   1      43.198  29.912  37.083  1.00  0.00    -0.206 F 
ATOM     78  C   UNL A   1      44.449  33.251  37.686  1.00  0.00     0.022 A 
BRANCH  75  79
ATOM     79  S   UNL A   1      45.798  35.129  36.130  1.00  0.00     0.124 S 
ATOM     80  O   UNL A   1      44.949  36.131  36.770  1.00  0.00    -0.237 OA
ATOM     81  O   UNL A   1      47.056  34.831  36.805  1.00  0.00    -0.237 OA
ATOM     82  O   UNL A   1      45.881  35.232  34.673  1.00  0.00    -0.744 OA
ENDBRANCH  75  79
ENDBRANCH  58  72
BRANCH  59  83
ATOM     83  C   UNL A   1      42.629  25.241  27.764  1.00  0.00     0.023 A 
ATOM     84  C   UNL A   1      42.112  23.943  27.903  1.00  0.00     0.031 A 
ATOM     85  C   UNL A   1      43.041  25.651  26.482  1.00  0.00     0.131 A 
ATOM     86  C   UNL A   1      42.063  23.086  26.791  1.00  0.00     0.055 A 
ATOM     87  C   UNL A   1      42.941  24.814  25.370  1.00  0.00     0.041 A 
ATOM     88  F   UNL A   1      43.549  26.880  26.293  1.00  0.00    -0.206 F 
ATOM     89  C   UNL A   1      42.462  23.518  25.523  1.00  0.00     0.022 A 
BRANCH  86  90
ATOM     90  S   UNL A   1      41.549  21.363  27.038  1.00  0.00     0.124 S 
ATOM     91  O   UNL A   1      41.392  20.900  25.665  1.00  0.00    -0.237 OA
ATOM     92  O   UNL A   1      42.681  20.813  27.777  1.00  0.00    -0.237 OA
ATOM     93  O   UNL A   1      40.309  21.484  27.802  1.00  0.00    -0.744 OA
ENDBRANCH  86  90
ENDBRANCH  59  83
BRANCH  71  94
ATOM     94  C   UNL A   1      48.020  26.528  32.016  1.00  0.00     0.023 A 
ATOM     95  C   UNL A   1      48.274  25.354  32.745  1.00  0.00     0.031 A 
ATOM     96  C   UNL A   1      49.099  27.141  31.352  1.00  0.00     0.131 A 
ATOM     97  C   UNL A   1      49.583  24.858  32.835  1.00  0.00     0.055 A 
ATOM     98  C   UNL A   1      50.386  26.608  31.394  1.00  0.00     0.041 A 
ATOM     99  F   UNL A   1      48.913  28.265  30.641  1.00  0.00    -0.206 F 
ATOM    100  C   UNL A   1      50.637  25.467  32.150  1.00  0.00     0.022 A 
BRANCH  97 101
ATOM    101  S   UNL A   1      49.909  23.453  33.936  1.00  0.00     0.124 S 
ATOM    102  O   UNL A   1      48.560  23.025  34.291  1.00  0.00    -0.237 OA
ATOM    103  O   UNL A   1      50.659  22.547  33.072  1.00  0.00    -0.237 OA
ATOM    104  O   UNL A   1      50.679  24.046  35.028  1.00  0.00    -0.744 OA
ENDBRANCH  97 101
ENDBRANCH  71  94
ENDBRANCH  45  46
ENDBRANCH  38  40
ENDBRANCH  37  38
ENDBRANCH  36  37
ENDBRANCH  35  36
ENDBRANCH  34  35
ENDBRANCH  33  34
ENDBRANCH   1  33
TORSDOF 26
ENDMDL
MODEL 2
REMARK VINA RESULT:      -9.0      7.203      8.497
REMARK SMILES O=C(OCCOCCOCCOCCOC(=O)c1ccc(-c2c3nc(c(-c4cc(S(=O)(=O)[O-])ccc4F)c4ccc([nH]4)c(-c4cc(S(=O)(=O)[O-])ccc4F)c4nc(c(-c5cc(S(=O)(=O)[O-])ccc5F)c5ccc2[nH]5)C=C4)C=C3)cc1)C1=Cc2c(ccc(Cl)c2Sc2ccccc2)O[C@H]1C(F)(F)F
REMARK SMILES IDX 10 1 9 2 8 3 7 4 6 5 5 6 4 7 3 8 2 9 1 10 81 11 82 12 98 13
REMARK SMILES IDX 83 14 97 15 84 16 89 17 85 18 87 19 86 20 88 21 99 22 100 23
REMARK SMILES IDX 101 24 102 25 90 26 91 27 92 28 96 29 93 30 95 31 94 32
REMARK SMILES IDX 11 33 12 34 13 35 14 36 15 37 16 38 17 39 18 40 19 41 80 42
REMARK SMILES IDX 20 43 79 44 21 45 22 46 23 47 73 48 24 49 78 50 72 51 74 52
REMARK SMILES IDX 25 53 77 54 71 55 70 56 26 58 58 59 38 60 57 61 39 62 42 63
REMARK SMILES IDX 56 64 75 65 40 66 41 67 55 69 76 70 43 71 27 72 28 73 36 74
REMARK SMILES IDX 29 75 35 76 37 77 34 78 30 79 31 80 32 81 33 82 59 83 60 84
REMARK SMILES IDX 68 85 61 86 67 87 69 88 66 89 62 90 63 91 64 92 65 93 44 94
REMARK SMILES IDX 45 95 53 96 46 97 52 98 54 99 51 100 47 101 48 102 49 103
REMARK SMILES IDX 50 104
REMARK H PARENT 74 57 42 68
REMARK Flexibility Score: inf
ROOT
ATOM      1  C   UNL A   1      36.267  31.005  27.755  1.00  0.00     0.188 C 
ENDROOT
BRANCH   1   2
ATOM      2  O   UNL A   1      34.990  31.529  27.441  1.00  0.00    -0.377 OA
BRANCH   2   3
ATOM      3  C   UNL A   1      33.911  30.632  27.596  1.00  0.00     0.188 C 
BRANCH   3   4
ATOM      4  C   UNL A   1      33.029  30.383  26.364  1.00  0.00     0.188 C 
BRANCH   4   5
ATOM      5  O   UNL A   1      31.834  29.640  26.599  1.00  0.00    -0.376 OA
BRANCH   5   6
ATOM      6  C   UNL A   1      31.392  28.850  25.501  1.00  0.00     0.202 C 
BRANCH   6   7
ATOM      7  C   UNL A   1      32.543  28.372  24.602  1.00  0.00     0.261 C 
BRANCH   7   8
ATOM      8  O   UNL A   1      32.460  26.976  24.244  1.00  0.00    -0.460 OA
BRANCH   8   9
ATOM      9  C   UNL A   1      33.146  26.101  25.038  1.00  0.00     0.338 C 
ATOM     10  O   UNL A   1      33.995  26.403  25.840  1.00  0.00    -0.246 OA
BRANCH   9  11
ATOM     11  C   UNL A   1      32.868  24.715  24.622  1.00  0.00     0.087 C 
ATOM     12  C   UNL A   1      33.928  24.016  24.201  1.00  0.00     0.028 C 
ATOM     13  C   UNL A   1      31.518  24.143  24.914  1.00  0.00     0.316 C 
ATOM     14  C   UNL A   1      33.922  22.576  24.414  1.00  0.00     0.033 A 
ATOM     15  O   UNL A   1      31.477  22.700  24.801  1.00  0.00    -0.475 OA
ATOM     16  C   UNL A   1      32.659  22.004  24.722  1.00  0.00     0.129 A 
ATOM     17  C   UNL A   1      35.110  21.786  24.459  1.00  0.00     0.042 A 
ATOM     18  C   UNL A   1      32.528  20.647  24.988  1.00  0.00     0.049 A 
ATOM     19  C   UNL A   1      34.934  20.411  24.797  1.00  0.00     0.055 A 
ATOM     20  C   UNL A   1      33.665  19.855  25.035  1.00  0.00     0.025 A 
ATOM     21  Cl  UNL A   1      36.259  19.300  24.971  1.00  0.00    -0.083 Cl
BRANCH  13  22
ATOM     22  C   UNL A   1      30.858  24.598  26.233  1.00  0.00     0.430 C 
ATOM     23  F   UNL A   1      31.755  24.775  27.224  1.00  0.00    -0.167 F 
ATOM     24  F   UNL A   1      30.183  25.761  26.073  1.00  0.00    -0.167 F 
ATOM     25  F   UNL A   1      29.948  23.691  26.665  1.00  0.00    -0.167 F 
ENDBRANCH  13  22
BRANCH  17  26
ATOM     26  S   UNL A   1      36.802  22.294  23.967  1.00  0.00    -0.088 SA
BRANCH  26  27
ATOM     27  C   UNL A   1      37.926  22.632  25.309  1.00  0.00     0.012 A 
ATOM     28  C   UNL A   1      37.993  23.920  25.854  1.00  0.00     0.015 A 
ATOM     29  C   UNL A   1      38.898  21.720  25.734  1.00  0.00     0.015 A 
ATOM     30  C   UNL A   1      38.868  24.225  26.907  1.00  0.00     0.001 A 
ATOM     31  C   UNL A   1      39.754  22.000  26.816  1.00  0.00     0.001 A 
ATOM     32  C   UNL A   1      39.717  23.250  27.422  1.00  0.00     0.000 A 
ENDBRANCH  26  27
ENDBRANCH  17  26
ENDBRANCH   9  11
ENDBRANCH   8   9
ENDBRANCH   7   8
ENDBRANCH   6   7
ENDBRANCH   5   6
ENDBRANCH   4   5
ENDBRANCH   3   4
ENDBRANCH   2   3
ENDBRANCH   1   2
BRANCH   1  33
ATOM     33  C   UNL A   1      36.159  29.614  28.381  1.00  0.00     0.188 C 
BRANCH  33  34
ATOM     34  O   UNL A   1      37.199  29.154  29.224  1.00  0.00    -0.376 OA
BRANCH  34  35
ATOM     35  C   UNL A   1      37.673  29.879  30.350  1.00  0.00     0.202 C 
BRANCH  35  36
ATOM     36  C   UNL A   1      38.671  31.058  30.388  1.00  0.00     0.261 C 
BRANCH  36  37
ATOM     37  O   UNL A   1      38.444  32.127  31.295  1.00  0.00    -0.460 OA
BRANCH  37  38
ATOM     38  C   UNL A   1      38.165  33.307  30.709  1.00  0.00     0.338 C 
ATOM     39  O   UNL A   1      37.064  33.810  30.570  1.00  0.00    -0.246 OA
BRANCH  38  40
ATOM     40  C   UNL A   1      39.438  34.001  30.432  1.00  0.00     0.060 A 
ATOM     41  C   UNL A   1      39.599  34.566  29.162  1.00  0.00     0.016 A 
ATOM     42  C   UNL A   1      40.467  34.059  31.378  1.00  0.00     0.016 A 
ATOM     43  C   UNL A   1      40.817  35.129  28.805  1.00  0.00     0.010 A 
ATOM     44  C   UNL A   1      41.704  34.591  31.007  1.00  0.00     0.010 A 
ATOM     45  C   UNL A   1      41.894  35.071  29.700  1.00  0.00    -0.014 A 
BRANCH  45  46
ATOM     46  C   UNL A   1      43.258  35.178  29.136  1.00  0.00     0.031 A 
ATOM     47  C   UNL A   1      43.807  36.567  28.939  1.00  0.00     0.074 A 
ATOM     48  C   UNL A   1      44.006  34.094  28.878  1.00  0.00     0.049 A 
ATOM     49  N   UNL A   1      44.978  36.947  28.503  1.00  0.00    -0.248 NA
ATOM     50  C   UNL A   1      42.907  37.679  29.293  1.00  0.00     0.031 C 
ATOM     51  C   UNL A   1      43.590  32.709  29.085  1.00  0.00     0.029 A 
ATOM     52  N   UNL A   1      45.282  33.995  28.386  1.00  0.00    -0.354 N 
ATOM     53  C   UNL A   1      44.957  38.338  28.541  1.00  0.00     0.074 A 
ATOM     54  C   UNL A   1      43.649  38.735  29.009  1.00  0.00     0.031 C 
ATOM     55  C   UNL A   1      44.593  31.894  28.713  1.00  0.00     0.029 A 
ATOM     56  C   UNL A   1      45.709  32.699  28.214  1.00  0.00     0.049 A 
ATOM     57  H   UNL A   1      45.840  34.778  28.177  1.00  0.00     0.167 HD
ATOM     58  C   UNL A   1      45.944  39.208  28.220  1.00  0.00     0.034 A 
ATOM     59  C   UNL A   1      46.860  32.231  27.691  1.00  0.00     0.034 A 
ATOM     60  C   UNL A   1      47.227  38.795  27.712  1.00  0.00     0.049 A 
ATOM     61  C   UNL A   1      47.909  33.222  27.237  1.00  0.00     0.074 A 
ATOM     62  C   UNL A   1      48.298  39.583  27.332  1.00  0.00     0.029 A 
ATOM     63  N   UNL A   1      47.601  37.475  27.492  1.00  0.00    -0.354 N 
ATOM     64  N   UNL A   1      47.887  34.535  27.287  1.00  0.00    -0.248 NA
ATOM     65  C   UNL A   1      49.141  32.666  26.662  1.00  0.00     0.031 C 
ATOM     66  C   UNL A   1      49.289  38.745  26.811  1.00  0.00     0.029 A 
ATOM     67  C   UNL A   1      48.872  37.428  26.946  1.00  0.00     0.049 A 
ATOM     68  H   UNL A   1      47.044  36.689  27.693  1.00  0.00     0.167 HD
ATOM     69  C   UNL A   1      49.113  34.958  26.778  1.00  0.00     0.074 A 
ATOM     70  C   UNL A   1      49.854  33.760  26.440  1.00  0.00     0.031 C 
ATOM     71  C   UNL A   1      49.589  36.219  26.607  1.00  0.00     0.034 A 
BRANCH  58  72
ATOM     72  C   UNL A   1      45.627  40.678  28.337  1.00  0.00     0.023 A 
ATOM     73  C   UNL A   1      45.626  41.340  29.579  1.00  0.00     0.031 A 
ATOM     74  C   UNL A   1      45.258  41.412  27.197  1.00  0.00     0.131 A 
ATOM     75  C   UNL A   1      45.194  42.672  29.658  1.00  0.00     0.055 A 
ATOM     76  C   UNL A   1      44.906  42.761  27.274  1.00  0.00     0.041 A 
ATOM     77  F   UNL A   1      45.210  40.825  25.991  1.00  0.00    -0.206 F 
ATOM     78  C   UNL A   1      44.858  43.394  28.512  1.00  0.00     0.022 A 
BRANCH  75  79
ATOM     79  S   UNL A   1      44.935  43.404  31.298  1.00  0.00     0.124 S 
ATOM     80  O   UNL A   1      44.383  44.712  30.954  1.00  0.00    -0.237 OA
ATOM     81  O   UNL A   1      44.011  42.465  31.922  1.00  0.00    -0.237 OA
ATOM     82  O   UNL A   1      46.278  43.435  31.875  1.00  0.00    -0.744 OA
ENDBRANCH  75  79
ENDBRANCH  58  72
BRANCH  59  83
ATOM     83  C   UNL A   1      47.073  30.765  27.518  1.00  0.00     0.023 A 
ATOM     84  C   UNL A   1      46.694  30.103  26.338  1.00  0.00     0.031 A 
ATOM     85  C   UNL A   1      47.601  29.988  28.566  1.00  0.00     0.131 A 
ATOM     86  C   UNL A   1      46.805  28.705  26.253  1.00  0.00     0.055 A 
ATOM     87  C   UNL A   1      47.759  28.606  28.457  1.00  0.00     0.041 A 
ATOM     88  F   UNL A   1      47.973  30.568  29.719  1.00  0.00    -0.206 F 
ATOM     89  C   UNL A   1      47.347  27.954  27.300  1.00  0.00     0.022 A 
BRANCH  86  90
ATOM     90  S   UNL A   1      46.151  27.865  24.783  1.00  0.00     0.124 S 
ATOM     91  O   UNL A   1      46.708  26.526  24.934  1.00  0.00    -0.237 OA
ATOM     92  O   UNL A   1      44.710  27.988  24.981  1.00  0.00    -0.237 OA
ATOM     93  O   UNL A   1      46.694  28.646  23.675  1.00  0.00    -0.744 OA
ENDBRANCH  86  90
ENDBRANCH  59  83
BRANCH  71  94
ATOM     94  C   UNL A   1      50.993  36.362  26.074  1.00  0.00     0.023 A 
ATOM     95  C   UNL A   1      52.115  36.330  26.919  1.00  0.00     0.031 A 
ATOM     96  C   UNL A   1      51.210  36.524  24.693  1.00  0.00     0.131 A 
ATOM     97  C   UNL A   1      53.399  36.507  26.382  1.00  0.00     0.055 A 
ATOM     98  C   UNL A   1      52.493  36.636  24.158  1.00  0.00     0.041 A 
ATOM     99  F   UNL A   1      50.174  36.562  23.839  1.00  0.00    -0.206 F 
ATOM    100  C   UNL A   1      53.596  36.642  25.006  1.00  0.00     0.022 A 
BRANCH  97 101
ATOM    101  S   UNL A   1      54.807  36.650  27.517  1.00  0.00     0.124 S 
ATOM    102  O   UNL A   1      54.173  37.172  28.724  1.00  0.00    -0.237 OA
ATOM    103  O   UNL A   1      55.287  35.274  27.594  1.00  0.00    -0.237 OA
ATOM    104  O   UNL A   1      55.704  37.581  26.835  1.00  0.00    -0.744 OA
ENDBRANCH  97 101
ENDBRANCH  71  94
ENDBRANCH  45  46
ENDBRANCH  38  40
ENDBRANCH  37  38
ENDBRANCH  36  37
ENDBRANCH  35  36
ENDBRANCH  34  35
ENDBRANCH  33  34
ENDBRANCH   1  33
TORSDOF 26
ENDMDL
MODEL 3
REMARK VINA RESULT:      -8.6      4.124      5.036
REMARK SMILES O=C(OCCOCCOCCOCCOC(=O)c1ccc(-c2c3nc(c(-c4cc(S(=O)(=O)[O-])ccc4F)c4ccc([nH]4)c(-c4cc(S(=O)(=O)[O-])ccc4F)c4nc(c(-c5cc(S(=O)(=O)[O-])ccc5F)c5ccc2[nH]5)C=C4)C=C3)cc1)C1=Cc2c(ccc(Cl)c2Sc2ccccc2)O[C@H]1C(F)(F)F
REMARK SMILES IDX 10 1 9 2 8 3 7 4 6 5 5 6 4 7 3 8 2 9 1 10 81 11 82 12 98 13
REMARK SMILES IDX 83 14 97 15 84 16 89 17 85 18 87 19 86 20 88 21 99 22 100 23
REMARK SMILES IDX 101 24 102 25 90 26 91 27 92 28 96 29 93 30 95 31 94 32
REMARK SMILES IDX 11 33 12 34 13 35 14 36 15 37 16 38 17 39 18 40 19 41 80 42
REMARK SMILES IDX 20 43 79 44 21 45 22 46 23 47 73 48 24 49 78 50 72 51 74 52
REMARK SMILES IDX 25 53 77 54 71 55 70 56 26 58 58 59 38 60 57 61 39 62 42 63
REMARK SMILES IDX 56 64 75 65 40 66 41 67 55 69 76 70 43 71 27 72 28 73 36 74
REMARK SMILES IDX 29 75 35 76 37 77 34 78 30 79 31 80 32 81 33 82 59 83 60 84
REMARK SMILES IDX 68 85 61 86 67 87 69 88 66 89 62 90 63 91 64 92 65 93 44 94
REMARK SMILES IDX 45 95 53 96 46 97 52 98 54 99 51 100 47 101 48 102 49 103
REMARK SMILES IDX 50 104
REMARK H PARENT 74 57 42 68
REMARK Flexibility Score: inf
ROOT
ATOM      1  C   UNL A   1      32.804  36.022  29.209  1.00  0.00     0.188 C 
ENDROOT
BRANCH   1   2
ATOM      2  O   UNL A   1      33.053  34.862  28.438  1.00  0.00    -0.377 OA
BRANCH   2   3
ATOM      3  C   UNL A   1      34.354  34.758  27.899  1.00  0.00     0.188 C 
BRANCH   3   4
ATOM      4  C   UNL A   1      35.057  33.400  28.032  1.00  0.00     0.188 C 
BRANCH   4   5
ATOM      5  O   UNL A   1      34.477  32.492  28.967  1.00  0.00    -0.376 OA
BRANCH   5   6
ATOM      6  C   UNL A   1      34.708  31.115  28.691  1.00  0.00     0.202 C 
BRANCH   6   7
ATOM      7  C   UNL A   1      34.307  30.712  27.264  1.00  0.00     0.261 C 
BRANCH   7   8
ATOM      8  O   UNL A   1      34.528  29.316  26.971  1.00  0.00    -0.460 OA
BRANCH   8   9
ATOM      9  C   UNL A   1      33.415  28.530  26.871  1.00  0.00     0.338 C 
ATOM     10  O   UNL A   1      32.613  28.339  27.752  1.00  0.00    -0.246 OA
BRANCH   9  11
ATOM     11  C   UNL A   1      33.446  27.765  25.611  1.00  0.00     0.087 C 
ATOM     12  C   UNL A   1      33.836  26.491  25.720  1.00  0.00     0.028 C 
ATOM     13  C   UNL A   1      32.837  28.381  24.392  1.00  0.00     0.316 C 
ATOM     14  C   UNL A   1      33.288  25.528  24.775  1.00  0.00     0.033 A 
ATOM     15  O   UNL A   1      32.598  27.423  23.333  1.00  0.00    -0.475 OA
ATOM     16  C   UNL A   1      32.676  26.081  23.618  1.00  0.00     0.129 A 
ATOM     17  C   UNL A   1      33.226  24.126  25.031  1.00  0.00     0.042 A 
ATOM     18  C   UNL A   1      32.080  25.270  22.661  1.00  0.00     0.049 A 
ATOM     19  C   UNL A   1      32.550  23.340  24.052  1.00  0.00     0.055 A 
ATOM     20  C   UNL A   1      32.009  23.903  22.883  1.00  0.00     0.025 A 
ATOM     21  Cl  UNL A   1      32.308  21.627  24.213  1.00  0.00    -0.083 Cl
BRANCH  13  22
ATOM     22  C   UNL A   1      31.584  29.251  24.625  1.00  0.00     0.430 C 
ATOM     23  F   UNL A   1      30.957  29.571  23.475  1.00  0.00    -0.167 F 
ATOM     24  F   UNL A   1      30.689  28.624  25.425  1.00  0.00    -0.167 F 
ATOM     25  F   UNL A   1      31.900  30.410  25.252  1.00  0.00    -0.167 F 
ENDBRANCH  13  22
BRANCH  17  26
ATOM     26  S   UNL A   1      34.061  23.205  26.380  1.00  0.00    -0.088 SA
BRANCH  26  27
ATOM     27  C   UNL A   1      35.622  22.457  25.950  1.00  0.00     0.012 A 
ATOM     28  C   UNL A   1      36.798  23.214  26.017  1.00  0.00     0.015 A 
ATOM     29  C   UNL A   1      35.722  21.194  25.358  1.00  0.00     0.015 A 
ATOM     30  C   UNL A   1      38.043  22.662  25.681  1.00  0.00     0.001 A 
ATOM     31  C   UNL A   1      36.968  20.614  25.055  1.00  0.00     0.001 A 
ATOM     32  C   UNL A   1      38.135  21.344  25.245  1.00  0.00     0.000 A 
ENDBRANCH  26  27
ENDBRANCH  17  26
ENDBRANCH   9  11
ENDBRANCH   8   9
ENDBRANCH   7   8
ENDBRANCH   6   7
ENDBRANCH   5   6
ENDBRANCH   4   5
ENDBRANCH   3   4
ENDBRANCH   2   3
ENDBRANCH   1   2
BRANCH   1  33
ATOM     33  C   UNL A   1      32.545  35.671  30.675  1.00  0.00     0.188 C 
BRANCH  33  34
ATOM     34  O   UNL A   1      33.495  34.890  31.376  1.00  0.00    -0.376 OA
BRANCH  34  35
ATOM     35  C   UNL A   1      34.706  35.416  31.901  1.00  0.00     0.202 C 
BRANCH  35  36
ATOM     36  C   UNL A   1      35.113  35.609  33.378  1.00  0.00     0.261 C 
BRANCH  36  37
ATOM     37  O   UNL A   1      36.227  34.890  33.887  1.00  0.00    -0.460 OA
BRANCH  37  38
ATOM     38  C   UNL A   1      35.995  33.582  34.107  1.00  0.00     0.338 C 
ATOM     39  O   UNL A   1      34.965  33.085  34.527  1.00  0.00    -0.246 OA
BRANCH  38  40
ATOM     40  C   UNL A   1      37.131  32.810  33.566  1.00  0.00     0.060 A 
ATOM     41  C   UNL A   1      38.182  32.515  34.440  1.00  0.00     0.016 A 
ATOM     42  C   UNL A   1      37.186  32.424  32.222  1.00  0.00     0.016 A 
ATOM     43  C   UNL A   1      39.328  31.894  33.960  1.00  0.00     0.010 A 
ATOM     44  C   UNL A   1      38.352  31.833  31.731  1.00  0.00     0.010 A 
ATOM     45  C   UNL A   1      39.445  31.624  32.590  1.00  0.00    -0.014 A 
BRANCH  45  46
ATOM     46  C   UNL A   1      40.809  31.472  32.037  1.00  0.00     0.031 A 
ATOM     47  C   UNL A   1      41.502  32.727  31.576  1.00  0.00     0.074 A 
ATOM     48  C   UNL A   1      41.436  30.285  32.012  1.00  0.00     0.049 A 
ATOM     49  N   UNL A   1      42.705  32.886  31.090  1.00  0.00    -0.248 NA
ATOM     50  C   UNL A   1      40.728  33.976  31.687  1.00  0.00     0.031 C 
ATOM     51  C   UNL A   1      40.875  29.021  32.485  1.00  0.00     0.029 A 
ATOM     52  N   UNL A   1      42.691  29.955  31.570  1.00  0.00    -0.354 N 
ATOM     53  C   UNL A   1      42.833  34.250  30.851  1.00  0.00     0.074 A 
ATOM     54  C   UNL A   1      41.577  34.869  31.209  1.00  0.00     0.031 C 
ATOM     55  C   UNL A   1      41.784  28.046  32.298  1.00  0.00     0.029 A 
ATOM     56  C   UNL A   1      42.976  28.613  31.666  1.00  0.00     0.049 A 
ATOM     57  H   UNL A   1      43.328  30.617  31.217  1.00  0.00     0.167 HD
ATOM     58  C   UNL A   1      43.905  34.929  30.377  1.00  0.00     0.034 A 
ATOM     59  C   UNL A   1      44.067  27.931  31.265  1.00  0.00     0.034 A 
ATOM     60  C   UNL A   1      45.133  34.290  29.982  1.00  0.00     0.049 A 
ATOM     61  C   UNL A   1      45.213  28.694  30.638  1.00  0.00     0.074 A 
ATOM     62  C   UNL A   1      46.279  34.867  29.469  1.00  0.00     0.029 A 
ATOM     63  N   UNL A   1      45.363  32.921  30.035  1.00  0.00    -0.354 N 
ATOM     64  N   UNL A   1      45.331  29.986  30.425  1.00  0.00    -0.248 NA
ATOM     65  C   UNL A   1      46.375  27.907  30.205  1.00  0.00     0.031 C 
ATOM     66  C   UNL A   1      47.172  33.842  29.141  1.00  0.00     0.029 A 
ATOM     67  C   UNL A   1      46.618  32.631  29.529  1.00  0.00     0.049 A 
ATOM     68  H   UNL A   1      44.726  32.254  30.380  1.00  0.00     0.167 HD
ATOM     69  C   UNL A   1      46.593  30.166  29.861  1.00  0.00     0.074 A 
ATOM     70  C   UNL A   1      47.200  28.853  29.780  1.00  0.00     0.031 C 
ATOM     71  C   UNL A   1      47.199  31.310  29.449  1.00  0.00     0.034 A 
BRANCH  58  72
ATOM     72  C   UNL A   1      43.747  36.418  30.194  1.00  0.00     0.023 A 
ATOM     73  C   UNL A   1      43.219  36.967  29.010  1.00  0.00     0.031 A 
ATOM     74  C   UNL A   1      44.191  37.302  31.191  1.00  0.00     0.131 A 
ATOM     75  C   UNL A   1      43.216  38.358  28.828  1.00  0.00     0.055 A 
ATOM     76  C   UNL A   1      44.112  38.688  31.034  1.00  0.00     0.041 A 
ATOM     77  F   UNL A   1      44.734  36.836  32.326  1.00  0.00    -0.206 F 
ATOM     78  C   UNL A   1      43.636  39.222  29.841  1.00  0.00     0.022 A 
BRANCH  75  79
ATOM     79  S   UNL A   1      42.795  39.018  27.191  1.00  0.00     0.124 S 
ATOM     80  O   UNL A   1      41.916  37.975  26.670  1.00  0.00    -0.237 OA
ATOM     81  O   UNL A   1      42.157  40.288  27.516  1.00  0.00    -0.237 OA
ATOM     82  O   UNL A   1      44.090  39.124  26.521  1.00  0.00    -0.744 OA
ENDBRANCH  75  79
ENDBRANCH  58  72
BRANCH  59  83
ATOM     83  C   UNL A   1      44.121  26.445  31.391  1.00  0.00     0.023 A 
ATOM     84  C   UNL A   1      44.457  25.823  32.604  1.00  0.00     0.031 A 
ATOM     85  C   UNL A   1      43.900  25.623  30.270  1.00  0.00     0.131 A 
ATOM     86  C   UNL A   1      44.608  24.427  32.657  1.00  0.00     0.055 A 
ATOM     87  C   UNL A   1      43.999  24.233  30.340  1.00  0.00     0.041 A 
ATOM     88  F   UNL A   1      43.582  26.165  29.083  1.00  0.00    -0.206 F 
ATOM     89  C   UNL A   1      44.369  23.627  31.536  1.00  0.00     0.022 A 
BRANCH  86  90
ATOM     90  S   UNL A   1      45.207  23.671  34.194  1.00  0.00     0.124 S 
ATOM     91  O   UNL A   1      44.916  22.261  33.965  1.00  0.00    -0.237 OA
ATOM     92  O   UNL A   1      46.617  24.046  34.186  1.00  0.00    -0.237 OA
ATOM     93  O   UNL A   1      44.400  24.316  35.228  1.00  0.00    -0.744 OA
ENDBRANCH  86  90
ENDBRANCH  59  83
BRANCH  71  94
ATOM     94  C   UNL A   1      48.608  31.194  28.920  1.00  0.00     0.023 A 
ATOM     95  C   UNL A   1      49.728  31.276  29.765  1.00  0.00     0.031 A 
ATOM     96  C   UNL A   1      48.830  30.987  27.546  1.00  0.00     0.131 A 
ATOM     97  C   UNL A   1      51.019  31.203  29.221  1.00  0.00     0.055 A 
ATOM     98  C   UNL A   1      50.114  30.851  27.021  1.00  0.00     0.041 A 
ATOM     99  F   UNL A   1      47.796  30.900  26.693  1.00  0.00    -0.206 F 
ATOM    100  C   UNL A   1      51.219  30.973  27.858  1.00  0.00     0.022 A 
BRANCH  97 101
ATOM    101  S   UNL A   1      52.441  31.502  30.308  1.00  0.00     0.124 S 
ATOM    102  O   UNL A   1      51.881  31.220  31.626  1.00  0.00    -0.237 OA
ATOM    103  O   UNL A   1      53.420  30.540  29.812  1.00  0.00    -0.237 OA
ATOM    104  O   UNL A   1      52.771  32.904  30.062  1.00  0.00    -0.744 OA
ENDBRANCH  97 101
ENDBRANCH  71  94
ENDBRANCH  45  46
ENDBRANCH  38  40
ENDBRANCH  37  38
ENDBRANCH  36  37
ENDBRANCH  35  36
ENDBRANCH  34  35
ENDBRANCH  33  34
ENDBRANCH   1  33
TORSDOF 26
ENDMDL
