MODEL 1
REMARK VINA RESULT:      -7.0      0.000      0.000
REMARK SMILES Cc1c(C(=O)Nc2ccc(C(=O)Nc3ccccc3C(=O)OCCOCCOCCOCCOC(=O)c3ccc(-c4c5nc(c(-c6cc(S(=O)(=O)[O-])ccc6F)c6ccc([nH]6)c(-c6cc(S(=O)(=O)[O-])ccc6F)c6nc(c(-c7cc(S(=O)(=O)[O-])ccc7F)c7ccc4[nH]7)C=C6)C=C5)cc3)cc2)cccc1[N+](=O)[O-]
REMARK SMILES IDX 27 1 26 2 25 3 24 4 23 5 22 6 20 7 21 8 19 9 14 10 15 11
REMARK SMILES IDX 16 12 18 13 17 14 13 15 11 16 12 17 10 19 7 20 8 21 101 22
REMARK SMILES IDX 9 23 100 24 6 25 4 26 5 27 3 29 1 30 2 31 105 32 102 33
REMARK SMILES IDX 104 34 103 35 106 36 107 37 108 38 28 39 29 40 30 41 31 42
REMARK SMILES IDX 32 43 33 44 34 45 35 46 36 47 37 48 38 49 99 50 39 51 98 52
REMARK SMILES IDX 40 53 41 54 42 55 92 56 43 57 97 58 91 59 93 60 44 61 96 62
REMARK SMILES IDX 90 63 89 64 45 66 77 67 57 68 76 69 58 70 61 71 75 72 94 73
REMARK SMILES IDX 59 74 60 75 74 77 95 78 62 79 46 80 47 81 55 82 48 83 54 84
REMARK SMILES IDX 56 85 53 86 49 87 50 88 51 89 52 90 78 91 79 92 87 93 80 94
REMARK SMILES IDX 86 95 88 96 85 97 81 98 82 99 83 100 84 101 63 102 64 103
REMARK SMILES IDX 72 104 65 105 71 106 73 107 70 108 66 109 67 110 68 111
REMARK SMILES IDX 69 112
REMARK H PARENT 13 18 6 28 93 65 61 76
REMARK Flexibility Score: inf
ROOT
ATOM      1  C   UNL A   1      45.939  39.524  35.452  1.00  0.00     0.188 C 
ENDROOT
BRANCH   1   2
ATOM      2  C   UNL A   1      45.099  38.702  36.435  1.00  0.00     0.188 C 
BRANCH   2   3
ATOM      3  O   UNL A   1      45.683  37.968  37.484  1.00  0.00    -0.376 OA
BRANCH   3   4
ATOM      4  C   UNL A   1      45.761  38.643  38.709  1.00  0.00     0.202 C 
BRANCH   4   5
ATOM      5  C   UNL A   1      45.334  40.115  38.854  1.00  0.00     0.261 C 
BRANCH   5   6
ATOM      6  O   UNL A   1      43.954  40.430  38.887  1.00  0.00    -0.460 OA
BRANCH   6   7
ATOM      7  C   UNL A   1      43.673  41.116  40.007  1.00  0.00     0.340 C 
ATOM      8  O   UNL A   1      44.425  41.818  40.689  1.00  0.00    -0.246 OA
BRANCH   7   9
ATOM      9  C   UNL A   1      42.248  41.118  40.236  1.00  0.00     0.083 A 
ATOM     10  C   UNL A   1      41.743  40.052  40.983  1.00  0.00     0.056 A 
ATOM     11  C   UNL A   1      40.385  39.969  41.258  1.00  0.00     0.027 A 
ATOM     12  C   UNL A   1      39.554  41.026  40.895  1.00  0.00     0.002 A 
ATOM     13  C   UNL A   1      41.437  42.212  39.922  1.00  0.00     0.018 A 
ATOM     14  C   UNL A   1      40.087  42.165  40.276  1.00  0.00     0.001 A 
BRANCH  10  15
ATOM     15  N   UNL A   1      42.621  39.219  41.680  1.00  0.00    -0.321 N 
ATOM     16  C   UNL A   1      43.093  38.009  41.215  1.00  0.00     0.255 C 
ATOM     17  O   UNL A   1      44.083  37.516  41.764  1.00  0.00    -0.269 OA
ATOM     18  H   UNL A   1      42.926  39.517  42.568  1.00  0.00     0.170 HD
BRANCH  16  19
ATOM     19  C   UNL A   1      42.314  37.151  40.215  1.00  0.00     0.040 A 
ATOM     20  C   UNL A   1      40.495  35.613  38.655  1.00  0.00     0.041 A 
ATOM     21  C   UNL A   1      41.240  36.594  38.044  1.00  0.00     0.027 A 
ATOM     22  C   UNL A   1      40.567  35.479  40.038  1.00  0.00     0.027 A 
ATOM     23  C   UNL A   1      42.147  37.334  38.826  1.00  0.00     0.016 A 
ATOM     24  C   UNL A   1      41.470  36.213  40.804  1.00  0.00     0.016 A 
BRANCH  20  25
ATOM     25  N   UNL A   1      39.681  34.725  37.927  1.00  0.00    -0.322 N 
ATOM     26  C   UNL A   1      39.966  33.362  37.948  1.00  0.00     0.256 C 
ATOM     27  O   UNL A   1      39.183  32.464  38.218  1.00  0.00    -0.269 OA
ATOM     28  H   UNL A   1      38.918  35.064  37.406  1.00  0.00     0.170 HD
BRANCH  26  29
ATOM     29  C   UNL A   1      41.324  33.069  37.392  1.00  0.00     0.049 A 
ATOM     30  C   UNL A   1      40.881  33.721  34.991  1.00  0.00     0.053 C 
ATOM     31  C   UNL A   1      41.501  32.805  36.013  1.00  0.00     0.039 A 
ATOM     32  C   UNL A   1      42.330  31.714  35.697  1.00  0.00     0.273 A 
ATOM     33  C   UNL A   1      42.188  32.547  38.361  1.00  0.00     0.014 A 
ATOM     34  C   UNL A   1      43.181  31.164  36.676  1.00  0.00     0.086 A 
ATOM     35  C   UNL A   1      43.164  31.639  37.986  1.00  0.00     0.008 A 
BRANCH  32  36
ATOM     36  N   UNL A   1      42.232  30.985  34.411  1.00  0.00     0.063 N 
ATOM     37  O   UNL A   1      43.216  31.033  33.654  1.00  0.00    -0.258 OA
ATOM     38  O   UNL A   1      41.195  30.369  34.143  1.00  0.00    -0.258 OA
ENDBRANCH  32  36
ENDBRANCH  26  29
ENDBRANCH  20  25
ENDBRANCH  16  19
ENDBRANCH  10  15
ENDBRANCH   7   9
ENDBRANCH   6   7
ENDBRANCH   5   6
ENDBRANCH   4   5
ENDBRANCH   3   4
ENDBRANCH   2   3
ENDBRANCH   1   2
BRANCH   1  39
ATOM     39  O   UNL A   1      45.811  39.166  34.087  1.00  0.00    -0.377 OA
BRANCH  39  40
ATOM     40  C   UNL A   1      44.717  38.391  33.584  1.00  0.00     0.188 C 
BRANCH  40  41
ATOM     41  C   UNL A   1      43.335  39.038  33.486  1.00  0.00     0.188 C 
BRANCH  41  42
ATOM     42  O   UNL A   1      43.209  39.727  32.253  1.00  0.00    -0.376 OA
BRANCH  42  43
ATOM     43  C   UNL A   1      42.897  41.101  32.318  1.00  0.00     0.202 C 
BRANCH  43  44
ATOM     44  C   UNL A   1      42.140  41.549  31.074  1.00  0.00     0.261 C 
BRANCH  44  45
ATOM     45  O   UNL A   1      42.861  41.051  29.920  1.00  0.00    -0.460 OA
BRANCH  45  46
ATOM     46  C   UNL A   1      42.083  40.496  28.946  1.00  0.00     0.338 C 
ATOM     47  O   UNL A   1      41.015  40.957  28.576  1.00  0.00    -0.246 OA
BRANCH  46  48
ATOM     48  C   UNL A   1      42.599  39.146  28.524  1.00  0.00     0.060 A 
ATOM     49  C   UNL A   1      41.974  38.443  27.475  1.00  0.00     0.016 A 
ATOM     50  C   UNL A   1      43.491  38.456  29.333  1.00  0.00     0.016 A 
ATOM     51  C   UNL A   1      42.142  37.042  27.321  1.00  0.00     0.010 A 
ATOM     52  C   UNL A   1      43.598  37.070  29.208  1.00  0.00     0.010 A 
ATOM     53  C   UNL A   1      42.911  36.312  28.234  1.00  0.00    -0.014 A 
BRANCH  53  54
ATOM     54  C   UNL A   1      42.878  34.809  28.433  1.00  0.00     0.031 A 
ATOM     55  C   UNL A   1      44.039  33.932  27.870  1.00  0.00     0.074 A 
ATOM     56  C   UNL A   1      42.115  34.353  29.472  1.00  0.00     0.049 A 
ATOM     57  N   UNL A   1      44.251  32.647  28.007  1.00  0.00    -0.248 NA
ATOM     58  C   UNL A   1      45.074  34.523  27.004  1.00  0.00     0.031 C 
ATOM     59  C   UNL A   1      42.626  33.760  30.700  1.00  0.00     0.029 A 
ATOM     60  N   UNL A   1      40.802  34.599  29.868  1.00  0.00    -0.354 N 
ATOM     61  C   UNL A   1      45.566  32.349  27.556  1.00  0.00     0.074 A 
ATOM     62  C   UNL A   1      45.971  33.544  26.866  1.00  0.00     0.031 C 
ATOM     63  C   UNL A   1      41.685  33.372  31.553  1.00  0.00     0.029 A 
ATOM     64  C   UNL A   1      40.469  33.716  30.928  1.00  0.00     0.049 A 
ATOM     65  H   UNL A   1      40.203  35.274  29.475  1.00  0.00     0.167 HD
ATOM     66  C   UNL A   1      46.269  31.216  27.937  1.00  0.00     0.034 A 
ATOM     67  C   UNL A   1      39.424  32.867  30.923  1.00  0.00     0.034 A 
ATOM     68  C   UNL A   1      45.433  30.231  28.665  1.00  0.00     0.049 A 
ATOM     69  C   UNL A   1      39.825  31.440  30.531  1.00  0.00     0.074 A 
ATOM     70  C   UNL A   1      45.649  29.367  29.734  1.00  0.00     0.029 A 
ATOM     71  N   UNL A   1      44.073  30.128  28.391  1.00  0.00    -0.354 N 
ATOM     72  N   UNL A   1      41.060  31.014  30.296  1.00  0.00    -0.248 NA
ATOM     73  C   UNL A   1      38.846  30.370  30.364  1.00  0.00     0.031 C 
ATOM     74  C   UNL A   1      44.385  28.899  30.201  1.00  0.00     0.029 A 
ATOM     75  C   UNL A   1      43.410  29.410  29.364  1.00  0.00     0.049 A 
ATOM     76  H   UNL A   1      43.637  30.518  27.600  1.00  0.00     0.167 HD
ATOM     77  C   UNL A   1      41.010  29.728  29.774  1.00  0.00     0.074 A 
ATOM     78  C   UNL A   1      39.613  29.355  29.937  1.00  0.00     0.031 C 
ATOM     79  C   UNL A   1      42.033  29.038  29.158  1.00  0.00     0.034 A 
BRANCH  66  80
ATOM     80  C   UNL A   1      47.844  31.026  27.938  1.00  0.00     0.023 A 
ATOM     81  C   UNL A   1      48.426  30.017  27.115  1.00  0.00     0.031 A 
ATOM     82  C   UNL A   1      48.786  31.632  28.803  1.00  0.00     0.131 A 
ATOM     83  C   UNL A   1      49.769  29.580  27.242  1.00  0.00     0.055 A 
ATOM     84  C   UNL A   1      50.157  31.276  28.847  1.00  0.00     0.041 A 
ATOM     85  F   UNL A   1      48.451  32.575  29.688  1.00  0.00    -0.206 F 
ATOM     86  C   UNL A   1      50.652  30.230  28.088  1.00  0.00     0.022 A 
BRANCH  83  87
ATOM     87  S   UNL A   1      50.352  28.118  26.318  1.00  0.00     0.124 S 
ATOM     88  O   UNL A   1      49.373  27.103  26.693  1.00  0.00    -0.237 OA
ATOM     89  O   UNL A   1      50.311  28.570  24.932  1.00  0.00    -0.237 OA
ATOM     90  O   UNL A   1      51.698  27.899  26.848  1.00  0.00    -0.744 OA
ENDBRANCH  83  87
ENDBRANCH  66  80
BRANCH  67  91
ATOM     91  C   UNL A   1      38.191  33.733  30.996  1.00  0.00     0.023 A 
ATOM     92  C   UNL A   1      37.426  33.677  29.786  1.00  0.00     0.031 A 
ATOM     93  C   UNL A   1      37.457  33.665  32.200  1.00  0.00     0.131 A 
ATOM     94  C   UNL A   1      36.095  33.201  29.804  1.00  0.00     0.055 A 
ATOM     95  C   UNL A   1      36.124  33.208  32.210  1.00  0.00     0.041 A 
ATOM     96  F   UNL A   1      38.100  33.710  33.377  1.00  0.00    -0.206 F 
ATOM     97  C   UNL A   1      35.461  32.915  31.015  1.00  0.00     0.022 A 
BRANCH  94  98
ATOM     98  S   UNL A   1      35.303  32.650  28.248  1.00  0.00     0.124 S 
ATOM     99  O   UNL A   1      35.956  31.371  28.001  1.00  0.00    -0.237 OA
ATOM    100  O   UNL A   1      33.881  32.589  28.579  1.00  0.00    -0.237 OA
ATOM    101  O   UNL A   1      35.618  33.716  27.299  1.00  0.00    -0.744 OA
ENDBRANCH  94  98
ENDBRANCH  67  91
BRANCH  79 102
ATOM    102  C   UNL A   1      41.850  27.867  28.198  1.00  0.00     0.023 A 
ATOM    103  C   UNL A   1      42.284  26.588  28.534  1.00  0.00     0.031 A 
ATOM    104  C   UNL A   1      41.077  27.953  27.004  1.00  0.00     0.131 A 
ATOM    105  C   UNL A   1      42.083  25.506  27.668  1.00  0.00     0.055 A 
ATOM    106  C   UNL A   1      40.768  26.847  26.208  1.00  0.00     0.041 A 
ATOM    107  F   UNL A   1      40.565  29.104  26.552  1.00  0.00    -0.206 F 
ATOM    108  C   UNL A   1      41.297  25.611  26.525  1.00  0.00     0.022 A 
BRANCH 105 109
ATOM    109  S   UNL A   1      43.006  24.001  28.029  1.00  0.00     0.124 S 
ATOM    110  O   UNL A   1      44.222  24.213  27.246  1.00  0.00    -0.237 OA
ATOM    111  O   UNL A   1      43.168  24.072  29.477  1.00  0.00    -0.237 OA
ATOM    112  O   UNL A   1      42.131  22.937  27.545  1.00  0.00    -0.744 OA
ENDBRANCH 105 109
ENDBRANCH  79 102
ENDBRANCH  53  54
ENDBRANCH  46  48
ENDBRANCH  45  46
ENDBRANCH  44  45
ENDBRANCH  43  44
ENDBRANCH  42  43
ENDBRANCH  41  42
ENDBRANCH  40  41
ENDBRANCH  39  40
ENDBRANCH   1  39
TORSDOF 28
ENDMDL
MODEL 2
REMARK VINA RESULT:      -6.9      4.223     12.509
REMARK SMILES Cc1c(C(=O)Nc2ccc(C(=O)Nc3ccccc3C(=O)OCCOCCOCCOCCOC(=O)c3ccc(-c4c5nc(c(-c6cc(S(=O)(=O)[O-])ccc6F)c6ccc([nH]6)c(-c6cc(S(=O)(=O)[O-])ccc6F)c6nc(c(-c7cc(S(=O)(=O)[O-])ccc7F)c7ccc4[nH]7)C=C6)C=C5)cc3)cc2)cccc1[N+](=O)[O-]
REMARK SMILES IDX 27 1 26 2 25 3 24 4 23 5 22 6 20 7 21 8 19 9 14 10 15 11
REMARK SMILES IDX 16 12 18 13 17 14 13 15 11 16 12 17 10 19 7 20 8 21 101 22
REMARK SMILES IDX 9 23 100 24 6 25 4 26 5 27 3 29 1 30 2 31 105 32 102 33
REMARK SMILES IDX 104 34 103 35 106 36 107 37 108 38 28 39 29 40 30 41 31 42
REMARK SMILES IDX 32 43 33 44 34 45 35 46 36 47 37 48 38 49 99 50 39 51 98 52
REMARK SMILES IDX 40 53 41 54 42 55 92 56 43 57 97 58 91 59 93 60 44 61 96 62
REMARK SMILES IDX 90 63 89 64 45 66 77 67 57 68 76 69 58 70 61 71 75 72 94 73
REMARK SMILES IDX 59 74 60 75 74 77 95 78 62 79 46 80 47 81 55 82 48 83 54 84
REMARK SMILES IDX 56 85 53 86 49 87 50 88 51 89 52 90 78 91 79 92 87 93 80 94
REMARK SMILES IDX 86 95 88 96 85 97 81 98 82 99 83 100 84 101 63 102 64 103
REMARK SMILES IDX 72 104 65 105 71 106 73 107 70 108 66 109 67 110 68 111
REMARK SMILES IDX 69 112
REMARK H PARENT 13 18 6 28 93 65 61 76
REMARK Flexibility Score: inf
ROOT
ATOM      1  C   UNL A   1      48.687  35.280  30.037  1.00  0.00     0.188 C 
ENDROOT
BRANCH   1   2
ATOM      2  C   UNL A   1      49.364  34.068  29.389  1.00  0.00     0.188 C 
BRANCH   2   3
ATOM      3  O   UNL A   1      48.889  33.497  28.193  1.00  0.00    -0.376 OA
BRANCH   3   4
ATOM      4  C   UNL A   1      49.012  32.105  28.110  1.00  0.00     0.202 C 
BRANCH   4   5
ATOM      5  C   UNL A   1      49.131  31.223  29.367  1.00  0.00     0.261 C 
BRANCH   5   6
ATOM      6  O   UNL A   1      48.555  29.929  29.354  1.00  0.00    -0.460 OA
BRANCH   6   7
ATOM      7  C   UNL A   1      49.351  29.074  30.016  1.00  0.00     0.340 C 
ATOM      8  O   UNL A   1      50.544  28.824  29.822  1.00  0.00    -0.246 OA
BRANCH   7   9
ATOM      9  C   UNL A   1      48.675  28.590  31.197  1.00  0.00     0.083 A 
ATOM     10  C   UNL A   1      48.109  27.317  31.105  1.00  0.00     0.056 A 
ATOM     11  C   UNL A   1      47.443  26.766  32.190  1.00  0.00     0.027 A 
ATOM     12  C   UNL A   1      47.459  27.439  33.409  1.00  0.00     0.002 A 
ATOM     13  C   UNL A   1      48.753  29.245  32.429  1.00  0.00     0.018 A 
ATOM     14  C   UNL A   1      48.155  28.648  33.541  1.00  0.00     0.001 A 
BRANCH  10  15
ATOM     15  N   UNL A   1      48.440  26.490  30.028  1.00  0.00    -0.321 N 
ATOM     16  C   UNL A   1      47.689  26.360  28.878  1.00  0.00     0.255 C 
ATOM     17  O   UNL A   1      48.221  25.852  27.886  1.00  0.00    -0.269 OA
ATOM     18  H   UNL A   1      49.268  25.961  30.095  1.00  0.00     0.170 HD
BRANCH  16  19
ATOM     19  C   UNL A   1      46.178  26.600  28.850  1.00  0.00     0.040 A 
ATOM     20  C   UNL A   1      43.354  26.756  29.178  1.00  0.00     0.041 A 
ATOM     21  C   UNL A   1      44.078  27.916  29.033  1.00  0.00     0.027 A 
ATOM     22  C   UNL A   1      44.035  25.548  29.276  1.00  0.00     0.027 A 
ATOM     23  C   UNL A   1      45.470  27.821  28.855  1.00  0.00     0.016 A 
ATOM     24  C   UNL A   1      45.414  25.461  29.095  1.00  0.00     0.016 A 
BRANCH  20  25
ATOM     25  N   UNL A   1      41.946  26.748  29.205  1.00  0.00    -0.322 N 
ATOM     26  C   UNL A   1      41.250  25.879  28.370  1.00  0.00     0.256 C 
ATOM     27  O   UNL A   1      40.382  25.089  28.708  1.00  0.00    -0.269 OA
ATOM     28  H   UNL A   1      41.458  27.352  29.811  1.00  0.00     0.170 HD
BRANCH  26  29
ATOM     29  C   UNL A   1      41.533  26.152  26.926  1.00  0.00     0.049 A 
ATOM     30  C   UNL A   1      42.337  23.846  26.273  1.00  0.00     0.053 C 
ATOM     31  C   UNL A   1      42.444  25.347  26.201  1.00  0.00     0.039 A 
ATOM     32  C   UNL A   1      43.361  26.036  25.388  1.00  0.00     0.273 A 
ATOM     33  C   UNL A   1      41.295  27.488  26.585  1.00  0.00     0.014 A 
ATOM     34  C   UNL A   1      43.144  27.391  25.065  1.00  0.00     0.086 A 
ATOM     35  C   UNL A   1      42.064  28.088  25.602  1.00  0.00     0.008 A 
BRANCH  32  36
ATOM     36  N   UNL A   1      44.660  25.453  24.981  1.00  0.00     0.063 N 
ATOM     37  O   UNL A   1      45.688  26.060  25.323  1.00  0.00    -0.258 OA
ATOM     38  O   UNL A   1      44.674  24.405  24.326  1.00  0.00    -0.258 OA
ENDBRANCH  32  36
ENDBRANCH  26  29
ENDBRANCH  20  25
ENDBRANCH  16  19
ENDBRANCH  10  15
ENDBRANCH   7   9
ENDBRANCH   6   7
ENDBRANCH   5   6
ENDBRANCH   4   5
ENDBRANCH   3   4
ENDBRANCH   2   3
ENDBRANCH   1   2
BRANCH   1  39
ATOM     39  O   UNL A   1      47.395  35.595  29.548  1.00  0.00    -0.377 OA
BRANCH  39  40
ATOM     40  C   UNL A   1      47.141  36.701  28.675  1.00  0.00     0.188 C 
BRANCH  40  41
ATOM     41  C   UNL A   1      47.067  36.452  27.168  1.00  0.00     0.188 C 
BRANCH  41  42
ATOM     42  O   UNL A   1      45.733  36.158  26.790  1.00  0.00    -0.376 OA
BRANCH  42  43
ATOM     43  C   UNL A   1      45.498  34.899  26.199  1.00  0.00     0.202 C 
BRANCH  43  44
ATOM     44  C   UNL A   1      44.105  34.387  26.539  1.00  0.00     0.261 C 
BRANCH  44  45
ATOM     45  O   UNL A   1      43.947  33.092  25.909  1.00  0.00    -0.460 OA
BRANCH  45  46
ATOM     46  C   UNL A   1      44.768  32.112  26.386  1.00  0.00     0.338 C 
ATOM     47  O   UNL A   1      45.635  31.562  25.725  1.00  0.00    -0.246 OA
BRANCH  46  48
ATOM     48  C   UNL A   1      44.346  31.651  27.756  1.00  0.00     0.060 A 
ATOM     49  C   UNL A   1      43.133  30.956  27.928  1.00  0.00     0.016 A 
ATOM     50  C   UNL A   1      44.982  32.147  28.885  1.00  0.00     0.016 A 
ATOM     51  C   UNL A   1      42.503  30.873  29.198  1.00  0.00     0.010 A 
ATOM     52  C   UNL A   1      44.321  32.112  30.115  1.00  0.00     0.010 A 
ATOM     53  C   UNL A   1      43.058  31.513  30.312  1.00  0.00    -0.014 A 
BRANCH  53  54
ATOM     54  C   UNL A   1      42.339  31.839  31.607  1.00  0.00     0.031 A 
ATOM     55  C   UNL A   1      41.059  32.730  31.573  1.00  0.00     0.074 A 
ATOM     56  C   UNL A   1      42.549  30.979  32.649  1.00  0.00     0.049 A 
ATOM     57  N   UNL A   1      40.245  33.053  32.548  1.00  0.00    -0.248 NA
ATOM     58  C   UNL A   1      40.641  33.397  30.327  1.00  0.00     0.031 C 
ATOM     59  C   UNL A   1      41.563  30.058  33.196  1.00  0.00     0.029 A 
ATOM     60  N   UNL A   1      43.700  30.452  33.230  1.00  0.00    -0.354 N 
ATOM     61  C   UNL A   1      39.079  33.649  31.993  1.00  0.00     0.074 A 
ATOM     62  C   UNL A   1      39.445  33.910  30.626  1.00  0.00     0.031 C 
ATOM     63  C   UNL A   1      41.998  29.339  34.225  1.00  0.00     0.029 A 
ATOM     64  C   UNL A   1      43.338  29.741  34.404  1.00  0.00     0.049 A 
ATOM     65  H   UNL A   1      44.616  30.557  32.884  1.00  0.00     0.167 HD
ATOM     66  C   UNL A   1      37.864  33.718  32.655  1.00  0.00     0.034 A 
ATOM     67  C   UNL A   1      43.835  29.980  35.632  1.00  0.00     0.034 A 
ATOM     68  C   UNL A   1      37.957  33.326  34.083  1.00  0.00     0.049 A 
ATOM     69  C   UNL A   1      42.910  30.857  36.483  1.00  0.00     0.074 A 
ATOM     70  C   UNL A   1      37.132  32.630  34.962  1.00  0.00     0.029 A 
ATOM     71  N   UNL A   1      39.132  33.544  34.794  1.00  0.00    -0.354 N 
ATOM     72  N   UNL A   1      41.705  31.290  36.132  1.00  0.00    -0.248 NA
ATOM     73  C   UNL A   1      43.283  31.326  37.815  1.00  0.00     0.031 C 
ATOM     74  C   UNL A   1      37.891  32.284  36.117  1.00  0.00     0.029 A 
ATOM     75  C   UNL A   1      39.149  32.841  35.980  1.00  0.00     0.049 A 
ATOM     76  H   UNL A   1      39.863  34.129  34.489  1.00  0.00     0.167 HD
ATOM     77  C   UNL A   1      41.261  32.217  37.065  1.00  0.00     0.074 A 
ATOM     78  C   UNL A   1      42.246  32.115  38.132  1.00  0.00     0.031 C 
ATOM     79  C   UNL A   1      40.199  33.086  36.937  1.00  0.00     0.034 A 
BRANCH  66  80
ATOM     80  C   UNL A   1      36.427  33.867  32.000  1.00  0.00     0.023 A 
ATOM     81  C   UNL A   1      36.130  33.156  30.799  1.00  0.00     0.031 A 
ATOM     82  C   UNL A   1      35.403  34.774  32.360  1.00  0.00     0.131 A 
ATOM     83  C   UNL A   1      34.998  33.424  29.988  1.00  0.00     0.055 A 
ATOM     84  C   UNL A   1      34.214  34.958  31.613  1.00  0.00     0.041 A 
ATOM     85  F   UNL A   1      35.489  35.571  33.430  1.00  0.00    -0.206 F 
ATOM     86  C   UNL A   1      34.015  34.305  30.408  1.00  0.00     0.022 A 
BRANCH  83  87
ATOM     87  S   UNL A   1      34.833  32.640  28.349  1.00  0.00     0.124 S 
ATOM     88  O   UNL A   1      35.789  33.395  27.546  1.00  0.00    -0.237 OA
ATOM     89  O   UNL A   1      35.177  31.249  28.617  1.00  0.00    -0.237 OA
ATOM     90  O   UNL A   1      33.429  32.866  28.006  1.00  0.00    -0.744 OA
ENDBRANCH  83  87
ENDBRANCH  66  80
BRANCH  67  91
ATOM     91  C   UNL A   1      45.280  29.547  35.581  1.00  0.00     0.023 A 
ATOM     92  C   UNL A   1      46.165  30.662  35.415  1.00  0.00     0.031 A 
ATOM     93  C   UNL A   1      45.670  28.578  36.529  1.00  0.00     0.131 A 
ATOM     94  C   UNL A   1      47.138  30.952  36.399  1.00  0.00     0.055 A 
ATOM     95  C   UNL A   1      46.655  28.865  37.496  1.00  0.00     0.041 A 
ATOM     96  F   UNL A   1      44.894  27.504  36.743  1.00  0.00    -0.206 F 
ATOM     97  C   UNL A   1      47.347  30.079  37.470  1.00  0.00     0.022 A 
BRANCH  94  98
ATOM     98  S   UNL A   1      47.905  32.614  36.460  1.00  0.00     0.124 S 
ATOM     99  O   UNL A   1      46.922  33.383  37.214  1.00  0.00    -0.237 OA
ATOM    100  O   UNL A   1      49.186  32.386  37.124  1.00  0.00    -0.237 OA
ATOM    101  O   UNL A   1      48.054  32.981  35.054  1.00  0.00    -0.744 OA
ENDBRANCH  94  98
ENDBRANCH  67  91
BRANCH  79 102
ATOM    102  C   UNL A   1      40.018  34.377  37.729  1.00  0.00     0.023 A 
ATOM    103  C   UNL A   1      39.696  34.352  39.082  1.00  0.00     0.031 A 
ATOM    104  C   UNL A   1      40.339  35.663  37.204  1.00  0.00     0.131 A 
ATOM    105  C   UNL A   1      39.567  35.536  39.818  1.00  0.00     0.055 A 
ATOM    106  C   UNL A   1      40.334  36.829  37.973  1.00  0.00     0.041 A 
ATOM    107  F   UNL A   1      40.692  35.859  35.928  1.00  0.00    -0.206 F 
ATOM    108  C   UNL A   1      39.918  36.775  39.290  1.00  0.00     0.022 A 
BRANCH 105 109
ATOM    109  S   UNL A   1      38.789  35.400  41.437  1.00  0.00     0.124 S 
ATOM    110  O   UNL A   1      37.383  35.236  41.070  1.00  0.00    -0.237 OA
ATOM    111  O   UNL A   1      39.438  34.220  41.997  1.00  0.00    -0.237 OA
ATOM    112  O   UNL A   1      39.120  36.667  42.084  1.00  0.00    -0.744 OA
ENDBRANCH 105 109
ENDBRANCH  79 102
ENDBRANCH  53  54
ENDBRANCH  46  48
ENDBRANCH  45  46
ENDBRANCH  44  45
ENDBRANCH  43  44
ENDBRANCH  42  43
ENDBRANCH  41  42
ENDBRANCH  40  41
ENDBRANCH  39  40
ENDBRANCH   1  39
TORSDOF 28
ENDMDL
MODEL 3
REMARK VINA RESULT:      -6.8      6.347     14.053
REMARK SMILES Cc1c(C(=O)Nc2ccc(C(=O)Nc3ccccc3C(=O)OCCOCCOCCOCCOC(=O)c3ccc(-c4c5nc(c(-c6cc(S(=O)(=O)[O-])ccc6F)c6ccc([nH]6)c(-c6cc(S(=O)(=O)[O-])ccc6F)c6nc(c(-c7cc(S(=O)(=O)[O-])ccc7F)c7ccc4[nH]7)C=C6)C=C5)cc3)cc2)cccc1[N+](=O)[O-]
REMARK SMILES IDX 27 1 26 2 25 3 24 4 23 5 22 6 20 7 21 8 19 9 14 10 15 11
REMARK SMILES IDX 16 12 18 13 17 14 13 15 11 16 12 17 10 19 7 20 8 21 101 22
REMARK SMILES IDX 9 23 100 24 6 25 4 26 5 27 3 29 1 30 2 31 105 32 102 33
REMARK SMILES IDX 104 34 103 35 106 36 107 37 108 38 28 39 29 40 30 41 31 42
REMARK SMILES IDX 32 43 33 44 34 45 35 46 36 47 37 48 38 49 99 50 39 51 98 52
REMARK SMILES IDX 40 53 41 54 42 55 92 56 43 57 97 58 91 59 93 60 44 61 96 62
REMARK SMILES IDX 90 63 89 64 45 66 77 67 57 68 76 69 58 70 61 71 75 72 94 73
REMARK SMILES IDX 59 74 60 75 74 77 95 78 62 79 46 80 47 81 55 82 48 83 54 84
REMARK SMILES IDX 56 85 53 86 49 87 50 88 51 89 52 90 78 91 79 92 87 93 80 94
REMARK SMILES IDX 86 95 88 96 85 97 81 98 82 99 83 100 84 101 63 102 64 103
REMARK SMILES IDX 72 104 65 105 71 106 73 107 70 108 66 109 67 110 68 111
REMARK SMILES IDX 69 112
REMARK H PARENT 13 18 6 28 93 65 61 76
REMARK Flexibility Score: inf
ROOT
ATOM      1  C   UNL A   1      46.069  32.514  27.860  1.00  0.00     0.188 C 
ENDROOT
BRANCH   1   2
ATOM      2  C   UNL A   1      44.538  32.517  27.928  1.00  0.00     0.188 C 
BRANCH   2   3
ATOM      3  O   UNL A   1      43.806  33.677  28.243  1.00  0.00    -0.376 OA
BRANCH   3   4
ATOM      4  C   UNL A   1      44.505  34.881  28.086  1.00  0.00     0.202 C 
BRANCH   4   5
ATOM      5  C   UNL A   1      43.808  36.248  28.218  1.00  0.00     0.261 C 
BRANCH   5   6
ATOM      6  O   UNL A   1      44.602  37.412  28.354  1.00  0.00    -0.460 OA
BRANCH   6   7
ATOM      7  C   UNL A   1      43.940  38.471  27.860  1.00  0.00     0.340 C 
ATOM      8  O   UNL A   1      43.184  38.521  26.886  1.00  0.00    -0.246 OA
BRANCH   7   9
ATOM      9  C   UNL A   1      44.046  39.585  28.773  1.00  0.00     0.083 A 
ATOM     10  C   UNL A   1      45.330  40.098  28.972  1.00  0.00     0.056 A 
ATOM     11  C   UNL A   1      45.531  41.171  29.829  1.00  0.00     0.027 A 
ATOM     12  C   UNL A   1      44.427  41.811  30.384  1.00  0.00     0.002 A 
ATOM     13  C   UNL A   1      42.928  40.256  29.273  1.00  0.00     0.018 A 
ATOM     14  C   UNL A   1      43.129  41.388  30.067  1.00  0.00     0.001 A 
BRANCH  10  15
ATOM     15  N   UNL A   1      46.366  39.719  28.115  1.00  0.00    -0.321 N 
ATOM     16  C   UNL A   1      46.882  40.509  27.108  1.00  0.00     0.255 C 
ATOM     17  O   UNL A   1      47.977  40.203  26.627  1.00  0.00    -0.269 OA
ATOM     18  H   UNL A   1      46.757  38.824  28.238  1.00  0.00     0.170 HD
BRANCH  16  19
ATOM     19  C   UNL A   1      46.060  41.597  26.413  1.00  0.00     0.040 A 
ATOM     20  C   UNL A   1      44.176  43.297  25.122  1.00  0.00     0.041 A 
ATOM     21  C   UNL A   1      44.885  43.776  26.198  1.00  0.00     0.027 A 
ATOM     22  C   UNL A   1      44.315  41.960  24.767  1.00  0.00     0.027 A 
ATOM     23  C   UNL A   1      45.824  42.929  26.814  1.00  0.00     0.016 A 
ATOM     24  C   UNL A   1      45.251  41.128  25.380  1.00  0.00     0.016 A 
BRANCH  20  25
ATOM     25  N   UNL A   1      43.332  44.121  24.351  1.00  0.00    -0.322 N 
ATOM     26  C   UNL A   1      43.286  43.952  22.971  1.00  0.00     0.256 C 
ATOM     27  O   UNL A   1      42.281  43.793  22.295  1.00  0.00    -0.269 OA
ATOM     28  H   UNL A   1      42.781  44.811  24.786  1.00  0.00     0.170 HD
BRANCH  26  29
ATOM     29  C   UNL A   1      44.620  44.190  22.336  1.00  0.00     0.049 A 
ATOM     30  C   UNL A   1      44.542  42.334  20.622  1.00  0.00     0.053 C 
ATOM     31  C   UNL A   1      45.288  43.153  21.642  1.00  0.00     0.039 A 
ATOM     32  C   UNL A   1      46.659  43.013  21.919  1.00  0.00     0.273 A 
ATOM     33  C   UNL A   1      45.317  45.235  22.952  1.00  0.00     0.014 A 
ATOM     34  C   UNL A   1      47.362  44.049  22.565  1.00  0.00     0.086 A 
ATOM     35  C   UNL A   1      46.700  45.193  23.006  1.00  0.00     0.008 A 
BRANCH  32  36
ATOM     36  N   UNL A   1      47.387  41.738  21.716  1.00  0.00     0.063 N 
ATOM     37  O   UNL A   1      47.972  41.583  20.632  1.00  0.00    -0.258 OA
ATOM     38  O   UNL A   1      47.384  40.891  22.616  1.00  0.00    -0.258 OA
ENDBRANCH  32  36
ENDBRANCH  26  29
ENDBRANCH  20  25
ENDBRANCH  16  19
ENDBRANCH  10  15
ENDBRANCH   7   9
ENDBRANCH   6   7
ENDBRANCH   5   6
ENDBRANCH   4   5
ENDBRANCH   3   4
ENDBRANCH   2   3
ENDBRANCH   1   2
BRANCH   1  39
ATOM     39  O   UNL A   1      46.662  31.299  27.439  1.00  0.00    -0.377 OA
BRANCH  39  40
ATOM     40  C   UNL A   1      45.934  30.270  26.761  1.00  0.00     0.188 C 
BRANCH  40  41
ATOM     41  C   UNL A   1      46.692  29.306  25.848  1.00  0.00     0.188 C 
BRANCH  41  42
ATOM     42  O   UNL A   1      45.777  28.576  25.047  1.00  0.00    -0.376 OA
BRANCH  42  43
ATOM     43  C   UNL A   1      45.190  27.432  25.626  1.00  0.00     0.202 C 
BRANCH  43  44
ATOM     44  C   UNL A   1      46.248  26.534  26.254  1.00  0.00     0.261 C 
BRANCH  44  45
ATOM     45  O   UNL A   1      46.091  25.210  25.686  1.00  0.00    -0.460 OA
BRANCH  45  46
ATOM     46  C   UNL A   1      44.964  24.543  26.072  1.00  0.00     0.338 C 
ATOM     47  O   UNL A   1      43.982  24.389  25.363  1.00  0.00    -0.246 OA
BRANCH  46  48
ATOM     48  C   UNL A   1      44.998  24.197  27.537  1.00  0.00     0.060 A 
ATOM     49  C   UNL A   1      43.827  23.766  28.191  1.00  0.00     0.016 A 
ATOM     50  C   UNL A   1      46.084  24.568  28.317  1.00  0.00     0.016 A 
ATOM     51  C   UNL A   1      43.704  23.830  29.605  1.00  0.00     0.010 A 
ATOM     52  C   UNL A   1      45.927  24.685  29.699  1.00  0.00     0.010 A 
ATOM     53  C   UNL A   1      44.737  24.359  30.386  1.00  0.00    -0.014 A 
BRANCH  53  54
ATOM     54  C   UNL A   1      44.618  24.841  31.819  1.00  0.00     0.031 A 
ATOM     55  C   UNL A   1      43.907  26.197  32.117  1.00  0.00     0.074 A 
ATOM     56  C   UNL A   1      44.703  23.883  32.790  1.00  0.00     0.049 A 
ATOM     57  N   UNL A   1      43.618  26.748  33.270  1.00  0.00    -0.248 NA
ATOM     58  C   UNL A   1      43.504  27.092  31.018  1.00  0.00     0.031 C 
ATOM     59  C   UNL A   1      43.603  23.431  33.630  1.00  0.00     0.029 A 
ATOM     60  N   UNL A   1      45.614  22.858  33.038  1.00  0.00    -0.354 N 
ATOM     61  C   UNL A   1      42.732  27.838  33.048  1.00  0.00     0.074 A 
ATOM     62  C   UNL A   1      42.788  28.041  31.626  1.00  0.00     0.031 C 
ATOM     63  C   UNL A   1      43.938  22.503  34.519  1.00  0.00     0.029 A 
ATOM     64  C   UNL A   1      45.311  22.268  34.293  1.00  0.00     0.049 A 
ATOM     65  H   UNL A   1      46.349  22.589  32.442  1.00  0.00     0.167 HD
ATOM     66  C   UNL A   1      41.903  28.364  34.027  1.00  0.00     0.034 A 
ATOM     67  C   UNL A   1      46.175  22.153  35.318  1.00  0.00     0.034 A 
ATOM     68  C   UNL A   1      42.199  27.840  35.382  1.00  0.00     0.049 A 
ATOM     69  C   UNL A   1      46.002  23.261  36.363  1.00  0.00     0.074 A 
ATOM     70  C   UNL A   1      41.426  27.490  36.486  1.00  0.00     0.029 A 
ATOM     71  N   UNL A   1      43.494  27.461  35.720  1.00  0.00    -0.354 N 
ATOM     72  N   UNL A   1      45.066  24.203  36.354  1.00  0.00    -0.248 NA
ATOM     73  C   UNL A   1      46.891  23.397  37.515  1.00  0.00     0.031 C 
ATOM     74  C   UNL A   1      42.237  26.744  37.390  1.00  0.00     0.029 A 
ATOM     75  C   UNL A   1      43.521  26.713  36.878  1.00  0.00     0.049 A 
ATOM     76  H   UNL A   1      44.294  27.698  35.198  1.00  0.00     0.167 HD
ATOM     77  C   UNL A   1      45.349  25.139  37.339  1.00  0.00     0.074 A 
ATOM     78  C   UNL A   1      46.437  24.524  38.084  1.00  0.00     0.031 C 
ATOM     79  C   UNL A   1      44.788  26.390  37.486  1.00  0.00     0.034 A 
BRANCH  66  80
ATOM     80  C   UNL A   1      40.561  29.180  33.803  1.00  0.00     0.023 A 
ATOM     81  C   UNL A   1      39.712  28.840  32.708  1.00  0.00     0.031 A 
ATOM     82  C   UNL A   1      40.146  30.359  34.466  1.00  0.00     0.131 A 
ATOM     83  C   UNL A   1      38.650  29.663  32.255  1.00  0.00     0.055 A 
ATOM     84  C   UNL A   1      39.013  31.119  34.086  1.00  0.00     0.041 A 
ATOM     85  F   UNL A   1      40.818  30.881  35.497  1.00  0.00    -0.206 F 
ATOM     86  C   UNL A   1      38.274  30.793  32.962  1.00  0.00     0.022 A 
BRANCH  83  87
ATOM     87  S   UNL A   1      37.780  29.270  30.699  1.00  0.00     0.124 S 
ATOM     88  O   UNL A   1      38.202  30.358  29.824  1.00  0.00    -0.237 OA
ATOM     89  O   UNL A   1      38.289  27.944  30.367  1.00  0.00    -0.237 OA
ATOM     90  O   UNL A   1      36.369  29.303  31.084  1.00  0.00    -0.744 OA
ENDBRANCH  83  87
ENDBRANCH  66  80
BRANCH  67  91
ATOM     91  C   UNL A   1      47.207  21.146  34.874  1.00  0.00     0.023 A 
ATOM     92  C   UNL A   1      48.272  21.760  34.139  1.00  0.00     0.031 A 
ATOM     93  C   UNL A   1      47.588  20.184  35.835  1.00  0.00     0.131 A 
ATOM     94  C   UNL A   1      49.601  21.690  34.615  1.00  0.00     0.055 A 
ATOM     95  C   UNL A   1      48.918  20.105  36.293  1.00  0.00     0.041 A 
ATOM     96  F   UNL A   1      46.648  19.563  36.566  1.00  0.00    -0.206 F 
ATOM     97  C   UNL A   1      49.916  20.903  35.726  1.00  0.00     0.022 A 
BRANCH  94  98
ATOM     98  S   UNL A   1      50.857  22.868  33.991  1.00  0.00     0.124 S 
ATOM     99  O   UNL A   1      50.086  24.096  33.843  1.00  0.00    -0.237 OA
ATOM    100  O   UNL A   1      51.880  22.876  35.033  1.00  0.00    -0.237 OA
ATOM    101  O   UNL A   1      51.321  22.256  32.747  1.00  0.00    -0.744 OA
ENDBRANCH  94  98
ENDBRANCH  67  91
BRANCH  79 102
ATOM    102  C   UNL A   1      45.418  27.553  38.246  1.00  0.00     0.023 A 
ATOM    103  C   UNL A   1      45.250  27.688  39.621  1.00  0.00     0.031 A 
ATOM    104  C   UNL A   1      46.350  28.455  37.656  1.00  0.00     0.131 A 
ATOM    105  C   UNL A   1      45.859  28.734  40.325  1.00  0.00     0.055 A 
ATOM    106  C   UNL A   1      47.055  29.416  38.384  1.00  0.00     0.041 A 
ATOM    107  F   UNL A   1      46.644  28.444  36.350  1.00  0.00    -0.206 F 
ATOM    108  C   UNL A   1      46.790  29.580  39.731  1.00  0.00     0.022 A 
BRANCH 105 109
ATOM    109  S   UNL A   1      45.275  29.025  42.004  1.00  0.00     0.124 S 
ATOM    110  O   UNL A   1      46.392  28.507  42.793  1.00  0.00    -0.237 OA
ATOM    111  O   UNL A   1      45.102  30.473  42.030  1.00  0.00    -0.237 OA
ATOM    112  O   UNL A   1      44.044  28.242  42.080  1.00  0.00    -0.744 OA
ENDBRANCH 105 109
ENDBRANCH  79 102
ENDBRANCH  53  54
ENDBRANCH  46  48
ENDBRANCH  45  46
ENDBRANCH  44  45
ENDBRANCH  43  44
ENDBRANCH  42  43
ENDBRANCH  41  42
ENDBRANCH  40  41
ENDBRANCH  39  40
ENDBRANCH   1  39
TORSDOF 28
ENDMDL
