MODEL 1
REMARK VINA RESULT:     -11.7      0.000      0.000
REMARK SMILES C[C@]12C(=O)N(c3ccc(C(=O)OCCOCCOCCOCCOC(=O)c4ccc(-c5c6nc(c(-c7cc(S(=O)(=O)[O-])ccc7F)c7ccc([nH]7)c(-c7cc(S(=O)(=O)[O-])ccc7F)c7nc(c(-c8cc(S(=O)(=O)[O-])ccc8F)c8ccc5[nH]8)C=C7)C=C6)cc4)cc3)C(=O)[C@H]1[C@H]1c3ccccc3[C@@H]2c2ccccc21
REMARK SMILES IDX 19 1 18 2 17 3 16 4 15 5 14 6 13 7 12 8 10 9 11 10 9 11 6 12
REMARK SMILES IDX 7 13 91 14 8 15 90 16 5 17 1 18 2 19 3 20 94 21 102 22 4 23
REMARK SMILES IDX 92 24 95 25 101 26 103 27 93 28 96 29 108 30 100 31 104 32
REMARK SMILES IDX 97 33 107 34 99 35 105 36 98 37 106 38 20 39 21 40 22 41
REMARK SMILES IDX 23 42 24 43 25 44 26 45 27 46 28 47 89 48 29 49 88 50 30 51
REMARK SMILES IDX 31 52 32 53 82 54 33 55 87 56 81 57 83 58 34 59 86 60 80 61
REMARK SMILES IDX 79 62 35 64 67 65 47 66 66 67 48 68 51 69 65 70 84 71 49 72
REMARK SMILES IDX 50 73 64 75 85 76 52 77 36 78 37 79 45 80 38 81 44 82 46 83
REMARK SMILES IDX 43 84 39 85 40 86 41 87 42 88 68 89 69 90 77 91 70 92 76 93
REMARK SMILES IDX 78 94 75 95 71 96 72 97 73 98 74 99 53 100 54 101 62 102
REMARK SMILES IDX 55 103 61 104 63 105 60 106 56 107 57 108 58 109 59 110
REMARK H PARENT 83 63 51 74
REMARK Flexibility Score: inf
ROOT
ATOM      1  C   UNL A   1      40.554  21.683  26.199  1.00  0.00     0.188 C 
ENDROOT
BRANCH   1   2
ATOM      2  O   UNL A   1      39.430  22.094  25.434  1.00  0.00    -0.377 OA
BRANCH   2   3
ATOM      3  C   UNL A   1      38.173  21.975  26.066  1.00  0.00     0.188 C 
BRANCH   3   4
ATOM      4  C   UNL A   1      37.071  21.400  25.154  1.00  0.00     0.188 C 
BRANCH   4   5
ATOM      5  O   UNL A   1      35.924  20.747  25.689  1.00  0.00    -0.376 OA
BRANCH   5   6
ATOM      6  C   UNL A   1      34.739  20.605  24.916  1.00  0.00     0.202 C 
BRANCH   6   7
ATOM      7  C   UNL A   1      33.351  20.874  25.524  1.00  0.00     0.261 C 
BRANCH   7   8
ATOM      8  O   UNL A   1      32.239  20.365  24.776  1.00  0.00    -0.460 OA
BRANCH   8   9
ATOM      9  C   UNL A   1      32.313  20.528  23.438  1.00  0.00     0.338 C 
ATOM     10  O   UNL A   1      32.377  19.662  22.580  1.00  0.00    -0.246 OA
BRANCH   9  11
ATOM     11  C   UNL A   1      32.073  21.943  23.106  1.00  0.00     0.060 A 
ATOM     12  C   UNL A   1      31.890  24.712  22.645  1.00  0.00     0.052 A 
ATOM     13  C   UNL A   1      32.976  23.965  22.155  1.00  0.00     0.028 A 
ATOM     14  C   UNL A   1      30.832  24.012  23.247  1.00  0.00     0.028 A 
ATOM     15  C   UNL A   1      33.097  22.611  22.437  1.00  0.00     0.018 A 
ATOM     16  C   UNL A   1      30.908  22.623  23.455  1.00  0.00     0.018 A 
BRANCH  12  17
ATOM     17  N   UNL A   1      32.038  26.127  22.742  1.00  0.00    -0.250 N 
ATOM     18  C   UNL A   1      33.838  29.152  22.879  1.00  0.00     0.024 C 
ATOM     19  C   UNL A   1      33.225  27.950  23.609  1.00  0.00     0.071 C 
ATOM     20  C   UNL A   1      33.263  26.751  22.703  1.00  0.00     0.241 C 
ATOM     21  C   UNL A   1      31.708  28.158  23.885  1.00  0.00     0.107 C 
ATOM     22  C   UNL A   1      33.974  27.576  24.943  1.00  0.00     0.066 C 
ATOM     23  O   UNL A   1      34.267  26.424  22.079  1.00  0.00    -0.273 OA
ATOM     24  C   UNL A   1      31.050  26.987  23.177  1.00  0.00     0.238 C 
ATOM     25  C   UNL A   1      31.434  28.099  25.425  1.00  0.00     0.063 C 
ATOM     26  C   UNL A   1      33.226  26.418  25.626  1.00  0.00    -0.036 A 
ATOM     27  C   UNL A   1      33.775  28.779  25.856  1.00  0.00    -0.036 A 
ATOM     28  O   UNL A   1      29.834  26.870  23.106  1.00  0.00    -0.274 OA
ATOM     29  C   UNL A   1      31.858  26.703  25.885  1.00  0.00    -0.036 A 
ATOM     30  C   UNL A   1      32.406  29.079  26.099  1.00  0.00    -0.036 A 
ATOM     31  C   UNL A   1      33.753  25.174  25.947  1.00  0.00     0.005 A 
ATOM     32  C   UNL A   1      34.796  29.503  26.455  1.00  0.00     0.005 A 
ATOM     33  C   UNL A   1      31.016  25.740  26.424  1.00  0.00     0.004 A 
ATOM     34  C   UNL A   1      32.069  30.112  26.959  1.00  0.00     0.004 A 
ATOM     35  C   UNL A   1      32.901  24.206  26.486  1.00  0.00     0.000 A 
ATOM     36  C   UNL A   1      34.447  30.543  27.314  1.00  0.00     0.000 A 
ATOM     37  C   UNL A   1      31.544  24.484  26.716  1.00  0.00     0.000 A 
ATOM     38  C   UNL A   1      33.097  30.843  27.564  1.00  0.00     0.000 A 
ENDBRANCH  12  17
ENDBRANCH   9  11
ENDBRANCH   8   9
ENDBRANCH   7   8
ENDBRANCH   6   7
ENDBRANCH   5   6
ENDBRANCH   4   5
ENDBRANCH   3   4
ENDBRANCH   2   3
ENDBRANCH   1   2
BRANCH   1  39
ATOM     39  C   UNL A   1      40.797  20.170  26.337  1.00  0.00     0.188 C 
BRANCH  39  40
ATOM     40  O   UNL A   1      41.585  19.823  27.482  1.00  0.00    -0.376 OA
BRANCH  40  41
ATOM     41  C   UNL A   1      42.439  18.690  27.335  1.00  0.00     0.202 C 
BRANCH  41  42
ATOM     42  C   UNL A   1      42.962  18.473  25.908  1.00  0.00     0.261 C 
BRANCH  42  43
ATOM     43  O   UNL A   1      44.267  19.007  25.641  1.00  0.00    -0.460 OA
BRANCH  43  44
ATOM     44  C   UNL A   1      44.419  19.792  24.551  1.00  0.00     0.338 C 
ATOM     45  O   UNL A   1      44.370  19.441  23.387  1.00  0.00    -0.246 OA
BRANCH  44  46
ATOM     46  C   UNL A   1      44.446  21.198  25.013  1.00  0.00     0.060 A 
ATOM     47  C   UNL A   1      44.632  21.506  26.365  1.00  0.00     0.016 A 
ATOM     48  C   UNL A   1      44.244  22.219  24.076  1.00  0.00     0.016 A 
ATOM     49  C   UNL A   1      44.647  22.841  26.773  1.00  0.00     0.010 A 
ATOM     50  C   UNL A   1      44.250  23.554  24.489  1.00  0.00     0.010 A 
ATOM     51  C   UNL A   1      44.475  23.874  25.836  1.00  0.00    -0.014 A 
BRANCH  51  52
ATOM     52  C   UNL A   1      44.740  25.277  26.236  1.00  0.00     0.031 A 
ATOM     53  C   UNL A   1      43.664  26.183  26.746  1.00  0.00     0.074 A 
ATOM     54  C   UNL A   1      46.005  25.726  26.115  1.00  0.00     0.049 A 
ATOM     55  N   UNL A   1      43.778  27.398  27.217  1.00  0.00    -0.248 NA
ATOM     56  C   UNL A   1      42.288  25.670  26.723  1.00  0.00     0.031 C 
ATOM     57  C   UNL A   1      47.119  24.931  25.597  1.00  0.00     0.029 A 
ATOM     58  N   UNL A   1      46.568  26.941  26.410  1.00  0.00    -0.354 N 
ATOM     59  C   UNL A   1      42.495  27.792  27.573  1.00  0.00     0.074 A 
ATOM     60  C   UNL A   1      41.611  26.702  27.216  1.00  0.00     0.031 C 
ATOM     61  C   UNL A   1      48.234  25.673  25.623  1.00  0.00     0.029 A 
ATOM     62  C   UNL A   1      47.913  27.002  26.135  1.00  0.00     0.049 A 
ATOM     63  H   UNL A   1      46.058  27.695  26.784  1.00  0.00     0.167 HD
ATOM     64  C   UNL A   1      42.106  28.950  28.162  1.00  0.00     0.034 A 
ATOM     65  C   UNL A   1      48.796  28.012  26.282  1.00  0.00     0.034 A 
ATOM     66  C   UNL A   1      43.007  30.030  28.490  1.00  0.00     0.049 A 
ATOM     67  C   UNL A   1      48.331  29.299  26.907  1.00  0.00     0.074 A 
ATOM     68  C   UNL A   1      42.715  31.215  29.145  1.00  0.00     0.029 A 
ATOM     69  N   UNL A   1      44.359  30.072  28.184  1.00  0.00    -0.354 N 
ATOM     70  N   UNL A   1      47.138  29.611  27.356  1.00  0.00    -0.248 NA
ATOM     71  C   UNL A   1      49.327  30.367  27.064  1.00  0.00     0.031 C 
ATOM     72  C   UNL A   1      43.869  31.999  29.170  1.00  0.00     0.029 A 
ATOM     73  C   UNL A   1      44.905  31.277  28.598  1.00  0.00     0.049 A 
ATOM     74  H   UNL A   1      44.859  29.350  27.736  1.00  0.00     0.167 HD
ATOM     75  C   UNL A   1      47.245  30.899  27.870  1.00  0.00     0.074 A 
ATOM     76  C   UNL A   1      48.626  31.300  27.698  1.00  0.00     0.031 C 
ATOM     77  C   UNL A   1      46.284  31.675  28.431  1.00  0.00     0.034 A 
BRANCH  64  78
ATOM     78  C   UNL A   1      40.654  29.126  28.533  1.00  0.00     0.023 A 
ATOM     79  C   UNL A   1      40.241  28.989  29.873  1.00  0.00     0.031 A 
ATOM     80  C   UNL A   1      39.665  29.262  27.542  1.00  0.00     0.131 A 
ATOM     81  C   UNL A   1      38.874  28.954  30.179  1.00  0.00     0.055 A 
ATOM     82  C   UNL A   1      38.306  29.261  27.858  1.00  0.00     0.041 A 
ATOM     83  F   UNL A   1      40.007  29.387  26.250  1.00  0.00    -0.206 F 
ATOM     84  C   UNL A   1      37.905  29.093  29.180  1.00  0.00     0.022 A 
BRANCH  81  85
ATOM     85  S   UNL A   1      38.296  28.655  31.873  1.00  0.00     0.124 S 
ATOM     86  O   UNL A   1      39.101  29.607  32.636  1.00  0.00    -0.237 OA
ATOM     87  O   UNL A   1      36.876  28.980  31.774  1.00  0.00    -0.237 OA
ATOM     88  O   UNL A   1      38.609  27.250  32.108  1.00  0.00    -0.744 OA
ENDBRANCH  81  85
ENDBRANCH  64  78
BRANCH  65  89
ATOM     89  C   UNL A   1      50.217  27.782  25.896  1.00  0.00     0.023 A 
ATOM     90  C   UNL A   1      50.612  27.820  24.546  1.00  0.00     0.031 A 
ATOM     91  C   UNL A   1      51.166  27.389  26.853  1.00  0.00     0.131 A 
ATOM     92  C   UNL A   1      51.900  27.402  24.186  1.00  0.00     0.055 A 
ATOM     93  C   UNL A   1      52.469  27.041  26.497  1.00  0.00     0.041 A 
ATOM     94  F   UNL A   1      50.829  27.320  28.151  1.00  0.00    -0.206 F 
ATOM     95  C   UNL A   1      52.835  27.028  25.154  1.00  0.00     0.022 A 
BRANCH  92  96
ATOM     96  S   UNL A   1      52.355  27.192  22.441  1.00  0.00     0.124 S 
ATOM     97  O   UNL A   1      53.267  26.054  22.499  1.00  0.00    -0.237 OA
ATOM     98  O   UNL A   1      51.056  26.930  21.824  1.00  0.00    -0.237 OA
ATOM     99  O   UNL A   1      52.961  28.471  22.087  1.00  0.00    -0.744 OA
ENDBRANCH  92  96
ENDBRANCH  65  89
BRANCH  77 100
ATOM    100  C   UNL A   1      46.660  33.060  28.906  1.00  0.00     0.023 A 
ATOM    101  C   UNL A   1      46.585  34.155  28.022  1.00  0.00     0.031 A 
ATOM    102  C   UNL A   1      47.229  33.268  30.174  1.00  0.00     0.131 A 
ATOM    103  C   UNL A   1      47.113  35.395  28.403  1.00  0.00     0.055 A 
ATOM    104  C   UNL A   1      47.709  34.518  30.566  1.00  0.00     0.041 A 
ATOM    105  F   UNL A   1      47.330  32.256  31.050  1.00  0.00    -0.206 F 
ATOM    106  C   UNL A   1      47.667  35.585  29.674  1.00  0.00     0.022 A 
BRANCH 103 107
ATOM    107  S   UNL A   1      47.180  36.784  27.237  1.00  0.00     0.124 S 
ATOM    108  O   UNL A   1      48.543  37.275  27.430  1.00  0.00    -0.237 OA
ATOM    109  O   UNL A   1      46.930  36.125  25.958  1.00  0.00    -0.237 OA
ATOM    110  O   UNL A   1      46.127  37.682  27.698  1.00  0.00    -0.744 OA
ENDBRANCH 103 107
ENDBRANCH  77 100
ENDBRANCH  51  52
ENDBRANCH  44  46
ENDBRANCH  43  44
ENDBRANCH  42  43
ENDBRANCH  41  42
ENDBRANCH  40  41
ENDBRANCH  39  40
ENDBRANCH   1  39
TORSDOF 24
ENDMDL
MODEL 2
REMARK VINA RESULT:     -11.5      0.471      7.035
REMARK SMILES C[C@]12C(=O)N(c3ccc(C(=O)OCCOCCOCCOCCOC(=O)c4ccc(-c5c6nc(c(-c7cc(S(=O)(=O)[O-])ccc7F)c7ccc([nH]7)c(-c7cc(S(=O)(=O)[O-])ccc7F)c7nc(c(-c8cc(S(=O)(=O)[O-])ccc8F)c8ccc5[nH]8)C=C7)C=C6)cc4)cc3)C(=O)[C@H]1[C@H]1c3ccccc3[C@@H]2c2ccccc21
REMARK SMILES IDX 19 1 18 2 17 3 16 4 15 5 14 6 13 7 12 8 10 9 11 10 9 11 6 12
REMARK SMILES IDX 7 13 91 14 8 15 90 16 5 17 1 18 2 19 3 20 94 21 102 22 4 23
REMARK SMILES IDX 92 24 95 25 101 26 103 27 93 28 96 29 108 30 100 31 104 32
REMARK SMILES IDX 97 33 107 34 99 35 105 36 98 37 106 38 20 39 21 40 22 41
REMARK SMILES IDX 23 42 24 43 25 44 26 45 27 46 28 47 89 48 29 49 88 50 30 51
REMARK SMILES IDX 31 52 32 53 82 54 33 55 87 56 81 57 83 58 34 59 86 60 80 61
REMARK SMILES IDX 79 62 35 64 67 65 47 66 66 67 48 68 51 69 65 70 84 71 49 72
REMARK SMILES IDX 50 73 64 75 85 76 52 77 36 78 37 79 45 80 38 81 44 82 46 83
REMARK SMILES IDX 43 84 39 85 40 86 41 87 42 88 68 89 69 90 77 91 70 92 76 93
REMARK SMILES IDX 78 94 75 95 71 96 72 97 73 98 74 99 53 100 54 101 62 102
REMARK SMILES IDX 55 103 61 104 63 105 60 106 56 107 57 108 58 109 59 110
REMARK H PARENT 83 63 51 74
REMARK Flexibility Score: inf
ROOT
ATOM      1  C   UNL A   1      40.483  21.620  26.464  1.00  0.00     0.188 C 
ENDROOT
BRANCH   1   2
ATOM      2  O   UNL A   1      39.432  22.029  25.600  1.00  0.00    -0.377 OA
BRANCH   2   3
ATOM      3  C   UNL A   1      38.124  21.686  26.011  1.00  0.00     0.188 C 
BRANCH   3   4
ATOM      4  C   UNL A   1      37.383  20.767  25.020  1.00  0.00     0.188 C 
BRANCH   4   5
ATOM      5  O   UNL A   1      36.110  20.208  25.328  1.00  0.00    -0.376 OA
BRANCH   5   6
ATOM      6  C   UNL A   1      34.950  20.590  24.600  1.00  0.00     0.202 C 
BRANCH   6   7
ATOM      7  C   UNL A   1      33.629  20.920  25.317  1.00  0.00     0.261 C 
BRANCH   7   8
ATOM      8  O   UNL A   1      32.451  20.344  24.738  1.00  0.00    -0.460 OA
BRANCH   8   9
ATOM      9  C   UNL A   1      32.325  20.492  23.402  1.00  0.00     0.338 C 
ATOM     10  O   UNL A   1      32.238  19.616  22.557  1.00  0.00    -0.246 OA
BRANCH   9  11
ATOM     11  C   UNL A   1      32.071  21.909  23.091  1.00  0.00     0.060 A 
ATOM     12  C   UNL A   1      31.863  24.683  22.669  1.00  0.00     0.052 A 
ATOM     13  C   UNL A   1      32.950  23.951  22.160  1.00  0.00     0.028 A 
ATOM     14  C   UNL A   1      30.815  23.966  23.270  1.00  0.00     0.028 A 
ATOM     15  C   UNL A   1      33.084  22.594  22.424  1.00  0.00     0.018 A 
ATOM     16  C   UNL A   1      30.903  22.576  23.459  1.00  0.00     0.018 A 
BRANCH  12  17
ATOM     17  N   UNL A   1      32.000  26.097  22.784  1.00  0.00    -0.250 N 
ATOM     18  C   UNL A   1      33.773  29.140  22.886  1.00  0.00     0.024 C 
ATOM     19  C   UNL A   1      33.210  27.919  23.624  1.00  0.00     0.071 C 
ATOM     20  C   UNL A   1      33.216  26.736  22.696  1.00  0.00     0.241 C 
ATOM     21  C   UNL A   1      31.706  28.104  23.978  1.00  0.00     0.107 C 
ATOM     22  C   UNL A   1      34.027  27.530  24.913  1.00  0.00     0.066 C 
ATOM     23  O   UNL A   1      34.190  26.431  22.018  1.00  0.00    -0.273 OA
ATOM     24  C   UNL A   1      31.026  26.939  23.283  1.00  0.00     0.238 C 
ATOM     25  C   UNL A   1      31.509  28.016  25.528  1.00  0.00     0.063 C 
ATOM     26  C   UNL A   1      33.327  26.352  25.611  1.00  0.00    -0.036 A 
ATOM     27  C   UNL A   1      33.861  28.715  25.856  1.00  0.00    -0.036 A 
ATOM     28  O   UNL A   1      29.809  26.808  23.269  1.00  0.00    -0.274 OA
ATOM     29  C   UNL A   1      31.970  26.617  25.941  1.00  0.00    -0.036 A 
ATOM     30  C   UNL A   1      32.503  28.995  26.171  1.00  0.00    -0.036 A 
ATOM     31  C   UNL A   1      33.882  25.109  25.883  1.00  0.00     0.005 A 
ATOM     32  C   UNL A   1      34.902  29.440  26.417  1.00  0.00     0.005 A 
ATOM     33  C   UNL A   1      31.166  25.635  26.504  1.00  0.00     0.004 A 
ATOM     34  C   UNL A   1      32.198  30.009  27.065  1.00  0.00     0.004 A 
ATOM     35  C   UNL A   1      33.068  24.121  26.447  1.00  0.00     0.000 A 
ATOM     36  C   UNL A   1      34.585  30.461  27.310  1.00  0.00     0.000 A 
ATOM     37  C   UNL A   1      31.721  24.380  26.748  1.00  0.00     0.000 A 
ATOM     38  C   UNL A   1      33.247  30.741  27.631  1.00  0.00     0.000 A 
ENDBRANCH  12  17
ENDBRANCH   9  11
ENDBRANCH   8   9
ENDBRANCH   7   8
ENDBRANCH   6   7
ENDBRANCH   5   6
ENDBRANCH   4   5
ENDBRANCH   3   4
ENDBRANCH   2   3
ENDBRANCH   1   2
BRANCH   1  39
ATOM     39  C   UNL A   1      41.121  20.246  26.198  1.00  0.00     0.188 C 
BRANCH  39  40
ATOM     40  O   UNL A   1      41.719  19.661  27.359  1.00  0.00    -0.376 OA
BRANCH  40  41
ATOM     41  C   UNL A   1      42.622  18.582  27.125  1.00  0.00     0.202 C 
BRANCH  41  42
ATOM     42  C   UNL A   1      43.213  18.549  25.708  1.00  0.00     0.261 C 
BRANCH  42  43
ATOM     43  O   UNL A   1      44.436  19.280  25.532  1.00  0.00    -0.460 OA
BRANCH  43  44
ATOM     44  C   UNL A   1      44.516  20.137  24.490  1.00  0.00     0.338 C 
ATOM     45  O   UNL A   1      44.388  19.865  23.310  1.00  0.00    -0.246 OA
BRANCH  44  46
ATOM     46  C   UNL A   1      44.579  21.509  25.042  1.00  0.00     0.060 A 
ATOM     47  C   UNL A   1      44.850  21.725  26.398  1.00  0.00     0.016 A 
ATOM     48  C   UNL A   1      44.323  22.591  24.192  1.00  0.00     0.016 A 
ATOM     49  C   UNL A   1      44.897  23.029  26.894  1.00  0.00     0.010 A 
ATOM     50  C   UNL A   1      44.362  23.895  24.692  1.00  0.00     0.010 A 
ATOM     51  C   UNL A   1      44.672  24.123  26.041  1.00  0.00    -0.014 A 
BRANCH  51  52
ATOM     52  C   UNL A   1      44.968  25.496  26.517  1.00  0.00     0.031 A 
ATOM     53  C   UNL A   1      46.348  26.074  26.489  1.00  0.00     0.074 A 
ATOM     54  C   UNL A   1      43.937  26.220  26.995  1.00  0.00     0.049 A 
ATOM     55  N   UNL A   1      46.727  27.290  26.786  1.00  0.00    -0.248 NA
ATOM     56  C   UNL A   1      47.442  25.182  26.083  1.00  0.00     0.031 C 
ATOM     57  C   UNL A   1      42.561  25.735  27.095  1.00  0.00     0.029 A 
ATOM     58  N   UNL A   1      43.879  27.500  27.483  1.00  0.00    -0.354 N 
ATOM     59  C   UNL A   1      48.100  27.325  26.580  1.00  0.00     0.074 A 
ATOM     60  C   UNL A   1      48.493  25.989  26.179  1.00  0.00     0.031 C 
ATOM     61  C   UNL A   1      41.790  26.708  27.599  1.00  0.00     0.029 A 
ATOM     62  C   UNL A   1      42.618  27.877  27.881  1.00  0.00     0.049 A 
ATOM     63  H   UNL A   1      44.663  28.093  27.541  1.00  0.00     0.167 HD
ATOM     64  C   UNL A   1      48.940  28.382  26.697  1.00  0.00     0.034 A 
ATOM     65  C   UNL A   1      42.172  29.035  28.410  1.00  0.00     0.034 A 
ATOM     66  C   UNL A   1      48.524  29.700  27.118  1.00  0.00     0.049 A 
ATOM     67  C   UNL A   1      43.133  30.183  28.562  1.00  0.00     0.074 A 
ATOM     68  C   UNL A   1      49.292  30.849  27.205  1.00  0.00     0.029 A 
ATOM     69  N   UNL A   1      47.246  30.047  27.532  1.00  0.00    -0.354 N 
ATOM     70  N   UNL A   1      44.404  30.238  28.242  1.00  0.00    -0.248 NA
ATOM     71  C   UNL A   1      42.602  31.431  29.126  1.00  0.00     0.031 C 
ATOM     72  C   UNL A   1      48.500  31.867  27.737  1.00  0.00     0.029 A 
ATOM     73  C   UNL A   1      47.215  31.379  27.914  1.00  0.00     0.049 A 
ATOM     74  H   UNL A   1      46.474  29.435  27.552  1.00  0.00     0.167 HD
ATOM     75  C   UNL A   1      44.820  31.531  28.544  1.00  0.00     0.074 A 
ATOM     76  C   UNL A   1      43.659  32.232  29.050  1.00  0.00     0.031 C 
ATOM     77  C   UNL A   1      46.054  32.081  28.414  1.00  0.00     0.034 A 
BRANCH  64  78
ATOM     78  C   UNL A   1      50.395  28.200  26.340  1.00  0.00     0.023 A 
ATOM     79  C   UNL A   1      50.801  28.190  24.991  1.00  0.00     0.031 A 
ATOM     80  C   UNL A   1      51.345  27.869  27.323  1.00  0.00     0.131 A 
ATOM     81  C   UNL A   1      52.112  27.822  24.662  1.00  0.00     0.055 A 
ATOM     82  C   UNL A   1      52.659  27.537  26.991  1.00  0.00     0.041 A 
ATOM     83  F   UNL A   1      51.005  27.855  28.622  1.00  0.00    -0.206 F 
ATOM     84  C   UNL A   1      53.044  27.499  25.654  1.00  0.00     0.022 A 
BRANCH  81  85
ATOM     85  S   UNL A   1      52.642  27.676  22.933  1.00  0.00     0.124 S 
ATOM     86  O   UNL A   1      53.471  28.869  22.773  1.00  0.00    -0.237 OA
ATOM     87  O   UNL A   1      53.369  26.410  22.941  1.00  0.00    -0.237 OA
ATOM     88  O   UNL A   1      51.393  27.683  22.180  1.00  0.00    -0.744 OA
ENDBRANCH  81  85
ENDBRANCH  64  78
BRANCH  65  89
ATOM     89  C   UNL A   1      40.725  29.158  28.747  1.00  0.00     0.023 A 
ATOM     90  C   UNL A   1      40.283  29.055  30.079  1.00  0.00     0.031 A 
ATOM     91  C   UNL A   1      39.758  29.242  27.732  1.00  0.00     0.131 A 
ATOM     92  C   UNL A   1      38.913  28.967  30.353  1.00  0.00     0.055 A 
ATOM     93  C   UNL A   1      38.392  29.225  28.016  1.00  0.00     0.041 A 
ATOM     94  F   UNL A   1      40.132  29.323  26.446  1.00  0.00    -0.206 F 
ATOM     95  C   UNL A   1      37.964  29.067  29.331  1.00  0.00     0.022 A 
BRANCH  92  96
ATOM     96  S   UNL A   1      38.322  28.575  32.024  1.00  0.00     0.124 S 
ATOM     97  O   UNL A   1      39.223  29.364  32.858  1.00  0.00    -0.237 OA
ATOM     98  O   UNL A   1      36.939  29.045  31.968  1.00  0.00    -0.237 OA
ATOM     99  O   UNL A   1      38.481  27.128  32.114  1.00  0.00    -0.744 OA
ENDBRANCH  92  96
ENDBRANCH  65  89
BRANCH  77 100
ATOM    100  C   UNL A   1      46.250  33.521  28.828  1.00  0.00     0.023 A 
ATOM    101  C   UNL A   1      46.106  34.555  27.882  1.00  0.00     0.031 A 
ATOM    102  C   UNL A   1      46.721  33.855  30.110  1.00  0.00     0.131 A 
ATOM    103  C   UNL A   1      46.472  35.864  28.218  1.00  0.00     0.055 A 
ATOM    104  C   UNL A   1      47.039  35.169  30.455  1.00  0.00     0.041 A 
ATOM    105  F   UNL A   1      46.883  32.905  31.045  1.00  0.00    -0.206 F 
ATOM    106  C   UNL A   1      46.931  36.178  29.503  1.00  0.00     0.022 A 
BRANCH 103 107
ATOM    107  S   UNL A   1      46.453  37.191  26.982  1.00  0.00     0.124 S 
ATOM    108  O   UNL A   1      47.446  38.120  27.518  1.00  0.00    -0.237 OA
ATOM    109  O   UNL A   1      46.851  36.486  25.766  1.00  0.00    -0.237 OA
ATOM    110  O   UNL A   1      45.077  37.674  27.005  1.00  0.00    -0.744 OA
ENDBRANCH 103 107
ENDBRANCH  77 100
ENDBRANCH  51  52
ENDBRANCH  44  46
ENDBRANCH  43  44
ENDBRANCH  42  43
ENDBRANCH  41  42
ENDBRANCH  40  41
ENDBRANCH  39  40
ENDBRANCH   1  39
TORSDOF 24
ENDMDL
MODEL 3
REMARK VINA RESULT:      -9.7      5.950     11.133
REMARK SMILES C[C@]12C(=O)N(c3ccc(C(=O)OCCOCCOCCOCCOC(=O)c4ccc(-c5c6nc(c(-c7cc(S(=O)(=O)[O-])ccc7F)c7ccc([nH]7)c(-c7cc(S(=O)(=O)[O-])ccc7F)c7nc(c(-c8cc(S(=O)(=O)[O-])ccc8F)c8ccc5[nH]8)C=C7)C=C6)cc4)cc3)C(=O)[C@H]1[C@H]1c3ccccc3[C@@H]2c2ccccc21
REMARK SMILES IDX 19 1 18 2 17 3 16 4 15 5 14 6 13 7 12 8 10 9 11 10 9 11 6 12
REMARK SMILES IDX 7 13 91 14 8 15 90 16 5 17 1 18 2 19 3 20 94 21 102 22 4 23
REMARK SMILES IDX 92 24 95 25 101 26 103 27 93 28 96 29 108 30 100 31 104 32
REMARK SMILES IDX 97 33 107 34 99 35 105 36 98 37 106 38 20 39 21 40 22 41
REMARK SMILES IDX 23 42 24 43 25 44 26 45 27 46 28 47 89 48 29 49 88 50 30 51
REMARK SMILES IDX 31 52 32 53 82 54 33 55 87 56 81 57 83 58 34 59 86 60 80 61
REMARK SMILES IDX 79 62 35 64 67 65 47 66 66 67 48 68 51 69 65 70 84 71 49 72
REMARK SMILES IDX 50 73 64 75 85 76 52 77 36 78 37 79 45 80 38 81 44 82 46 83
REMARK SMILES IDX 43 84 39 85 40 86 41 87 42 88 68 89 69 90 77 91 70 92 76 93
REMARK SMILES IDX 78 94 75 95 71 96 72 97 73 98 74 99 53 100 54 101 62 102
REMARK SMILES IDX 55 103 61 104 63 105 60 106 56 107 57 108 58 109 59 110
REMARK H PARENT 83 63 51 74
REMARK Flexibility Score: inf
ROOT
ATOM      1  C   UNL A   1      34.334  34.748  30.654  1.00  0.00     0.188 C 
ENDROOT
BRANCH   1   2
ATOM      2  O   UNL A   1      34.003  33.483  30.099  1.00  0.00    -0.377 OA
BRANCH   2   3
ATOM      3  C   UNL A   1      35.078  32.747  29.552  1.00  0.00     0.188 C 
BRANCH   3   4
ATOM      4  C   UNL A   1      34.870  32.344  28.079  1.00  0.00     0.188 C 
BRANCH   4   5
ATOM      5  O   UNL A   1      33.623  31.838  27.613  1.00  0.00    -0.376 OA
BRANCH   5   6
ATOM      6  C   UNL A   1      33.440  30.446  27.385  1.00  0.00     0.202 C 
BRANCH   6   7
ATOM      7  C   UNL A   1      32.666  29.933  26.158  1.00  0.00     0.261 C 
BRANCH   7   8
ATOM      8  O   UNL A   1      31.496  29.156  26.447  1.00  0.00    -0.460 OA
BRANCH   8   9
ATOM      9  C   UNL A   1      31.721  27.953  27.017  1.00  0.00     0.338 C 
ATOM     10  O   UNL A   1      31.404  27.583  28.136  1.00  0.00    -0.246 OA
BRANCH   9  11
ATOM     11  C   UNL A   1      32.224  27.017  25.996  1.00  0.00     0.060 A 
ATOM     12  C   UNL A   1      32.928  25.035  24.127  1.00  0.00     0.052 A 
ATOM     13  C   UNL A   1      31.719  25.744  24.013  1.00  0.00     0.028 A 
ATOM     14  C   UNL A   1      33.836  25.445  25.118  1.00  0.00     0.028 A 
ATOM     15  C   UNL A   1      31.344  26.677  24.971  1.00  0.00     0.018 A 
ATOM     16  C   UNL A   1      33.499  26.454  26.037  1.00  0.00     0.018 A 
BRANCH  12  17
ATOM     17  N   UNL A   1      33.052  23.801  23.425  1.00  0.00    -0.250 N 
ATOM     18  C   UNL A   1      31.897  20.753  22.087  1.00  0.00     0.024 C 
ATOM     19  C   UNL A   1      32.487  21.534  23.269  1.00  0.00     0.071 C 
ATOM     20  C   UNL A   1      31.989  22.951  23.221  1.00  0.00     0.241 C 
ATOM     21  C   UNL A   1      34.031  21.679  23.148  1.00  0.00     0.107 C 
ATOM     22  C   UNL A   1      32.106  20.930  24.673  1.00  0.00     0.066 C 
ATOM     23  O   UNL A   1      30.808  23.233  23.053  1.00  0.00    -0.273 OA
ATOM     24  C   UNL A   1      34.252  23.181  23.141  1.00  0.00     0.238 C 
ATOM     25  C   UNL A   1      34.727  21.022  24.387  1.00  0.00     0.063 C 
ATOM     26  C   UNL A   1      32.817  21.740  25.772  1.00  0.00    -0.036 A 
ATOM     27  C   UNL A   1      32.758  19.554  24.700  1.00  0.00    -0.036 A 
ATOM     28  O   UNL A   1      35.358  23.676  22.968  1.00  0.00    -0.274 OA
ATOM     29  C   UNL A   1      34.229  21.787  25.615  1.00  0.00    -0.036 A 
ATOM     30  C   UNL A   1      34.168  19.597  24.521  1.00  0.00    -0.036 A 
ATOM     31  C   UNL A   1      32.207  22.421  26.816  1.00  0.00     0.005 A 
ATOM     32  C   UNL A   1      32.091  18.359  24.926  1.00  0.00     0.005 A 
ATOM     33  C   UNL A   1      35.019  22.540  26.472  1.00  0.00     0.004 A 
ATOM     34  C   UNL A   1      34.907  18.426  24.581  1.00  0.00     0.004 A 
ATOM     35  C   UNL A   1      33.006  23.182  27.676  1.00  0.00     0.000 A 
ATOM     36  C   UNL A   1      32.841  17.187  24.979  1.00  0.00     0.000 A 
ATOM     37  C   UNL A   1      34.398  23.246  27.501  1.00  0.00     0.000 A 
ATOM     38  C   UNL A   1      34.235  17.221  24.809  1.00  0.00     0.000 A 
ENDBRANCH  12  17
ENDBRANCH   9  11
ENDBRANCH   8   9
ENDBRANCH   7   8
ENDBRANCH   6   7
ENDBRANCH   5   6
ENDBRANCH   4   5
ENDBRANCH   3   4
ENDBRANCH   2   3
ENDBRANCH   1   2
BRANCH   1  39
ATOM     39  C   UNL A   1      33.313  35.387  31.612  1.00  0.00     0.188 C 
BRANCH  39  40
ATOM     40  O   UNL A   1      33.690  35.294  32.990  1.00  0.00    -0.376 OA
BRANCH  40  41
ATOM     41  C   UNL A   1      35.090  35.334  33.262  1.00  0.00     0.202 C 
BRANCH  41  42
ATOM     42  C   UNL A   1      35.507  34.593  34.541  1.00  0.00     0.261 C 
BRANCH  42  43
ATOM     43  O   UNL A   1      36.644  33.727  34.410  1.00  0.00    -0.460 OA
BRANCH  43  44
ATOM     44  C   UNL A   1      37.179  33.211  35.540  1.00  0.00     0.338 C 
ATOM     45  O   UNL A   1      36.712  33.274  36.662  1.00  0.00    -0.246 OA
BRANCH  44  46
ATOM     46  C   UNL A   1      38.331  32.371  35.145  1.00  0.00     0.060 A 
ATOM     47  C   UNL A   1      39.353  32.886  34.341  1.00  0.00     0.016 A 
ATOM     48  C   UNL A   1      38.364  31.034  35.559  1.00  0.00     0.016 A 
ATOM     49  C   UNL A   1      40.426  32.068  33.978  1.00  0.00     0.010 A 
ATOM     50  C   UNL A   1      39.433  30.215  35.187  1.00  0.00     0.010 A 
ATOM     51  C   UNL A   1      40.482  30.734  34.414  1.00  0.00    -0.014 A 
BRANCH  51  52
ATOM     52  C   UNL A   1      41.733  29.957  34.235  1.00  0.00     0.031 A 
ATOM     53  C   UNL A   1      42.020  29.175  32.992  1.00  0.00     0.074 A 
ATOM     54  C   UNL A   1      42.618  29.969  35.251  1.00  0.00     0.049 A 
ATOM     55  N   UNL A   1      43.112  28.531  32.670  1.00  0.00    -0.248 NA
ATOM     56  C   UNL A   1      40.953  29.097  31.986  1.00  0.00     0.031 C 
ATOM     57  C   UNL A   1      42.416  30.675  36.516  1.00  0.00     0.029 A 
ATOM     58  N   UNL A   1      43.849  29.381  35.386  1.00  0.00    -0.354 N 
ATOM     59  C   UNL A   1      42.881  27.991  31.412  1.00  0.00     0.074 A 
ATOM     60  C   UNL A   1      41.523  28.342  31.052  1.00  0.00     0.031 C 
ATOM     61  C   UNL A   1      43.490  30.489  37.296  1.00  0.00     0.029 A 
ATOM     62  C   UNL A   1      44.447  29.635  36.598  1.00  0.00     0.049 A 
ATOM     63  H   UNL A   1      44.265  28.831  34.684  1.00  0.00     0.167 HD
ATOM     64  C   UNL A   1      43.736  27.287  30.631  1.00  0.00     0.034 A 
ATOM     65  C   UNL A   1      45.634  29.232  37.095  1.00  0.00     0.034 A 
ATOM     66  C   UNL A   1      45.081  26.933  31.023  1.00  0.00     0.049 A 
ATOM     67  C   UNL A   1      46.552  28.422  36.220  1.00  0.00     0.074 A 
ATOM     68  C   UNL A   1      46.043  26.276  30.273  1.00  0.00     0.029 A 
ATOM     69  N   UNL A   1      45.652  27.188  32.261  1.00  0.00    -0.354 N 
ATOM     70  N   UNL A   1      46.369  28.025  34.982  1.00  0.00    -0.248 NA
ATOM     71  C   UNL A   1      47.842  28.017  36.793  1.00  0.00     0.031 C 
ATOM     72  C   UNL A   1      47.164  26.071  31.079  1.00  0.00     0.029 A 
ATOM     73  C   UNL A   1      46.935  26.666  32.310  1.00  0.00     0.049 A 
ATOM     74  H   UNL A   1      45.209  27.669  32.998  1.00  0.00     0.167 HD
ATOM     75  C   UNL A   1      47.527  27.346  34.621  1.00  0.00     0.074 A 
ATOM     76  C   UNL A   1      48.416  27.406  35.763  1.00  0.00     0.031 C 
ATOM     77  C   UNL A   1      47.824  26.730  33.449  1.00  0.00     0.034 A 
BRANCH  64  78
ATOM     78  C   UNL A   1      43.286  26.866  29.253  1.00  0.00     0.023 A 
ATOM     79  C   UNL A   1      43.064  27.831  28.252  1.00  0.00     0.031 A 
ATOM     80  C   UNL A   1      42.919  25.534  28.987  1.00  0.00     0.131 A 
ATOM     81  C   UNL A   1      42.457  27.455  27.046  1.00  0.00     0.055 A 
ATOM     82  C   UNL A   1      42.348  25.160  27.770  1.00  0.00     0.041 A 
ATOM     83  F   UNL A   1      43.103  24.579  29.912  1.00  0.00    -0.206 F 
ATOM     84  C   UNL A   1      42.102  26.125  26.798  1.00  0.00     0.022 A 
BRANCH  81  85
ATOM     85  S   UNL A   1      42.039  28.685  25.779  1.00  0.00     0.124 S 
ATOM     86  O   UNL A   1      42.374  27.972  24.548  1.00  0.00    -0.237 OA
ATOM     87  O   UNL A   1      40.613  28.891  26.011  1.00  0.00    -0.237 OA
ATOM     88  O   UNL A   1      42.901  29.819  26.092  1.00  0.00    -0.744 OA
ENDBRANCH  81  85
ENDBRANCH  64  78
BRANCH  65  89
ATOM     89  C   UNL A   1      46.025  29.675  38.463  1.00  0.00     0.023 A 
ATOM     90  C   UNL A   1      45.667  28.921  39.595  1.00  0.00     0.031 A 
ATOM     91  C   UNL A   1      46.640  30.922  38.664  1.00  0.00     0.131 A 
ATOM     92  C   UNL A   1      45.862  29.453  40.876  1.00  0.00     0.055 A 
ATOM     93  C   UNL A   1      46.896  31.417  39.943  1.00  0.00     0.041 A 
ATOM     94  F   UNL A   1      46.982  31.684  37.614  1.00  0.00    -0.206 F 
ATOM     95  C   UNL A   1      46.488  30.689  41.058  1.00  0.00     0.022 A 
BRANCH  92  96
ATOM     96  S   UNL A   1      45.179  28.625  42.341  1.00  0.00     0.124 S 
ATOM     97  O   UNL A   1      44.788  29.757  43.174  1.00  0.00    -0.237 OA
ATOM     98  O   UNL A   1      44.079  27.857  41.762  1.00  0.00    -0.237 OA
ATOM     99  O   UNL A   1      46.296  27.830  42.839  1.00  0.00    -0.744 OA
ENDBRANCH  92  96
ENDBRANCH  65  89
BRANCH  77 100
ATOM    100  C   UNL A   1      49.164  26.045  33.311  1.00  0.00     0.023 A 
ATOM    101  C   UNL A   1      50.256  26.736  32.749  1.00  0.00     0.031 A 
ATOM    102  C   UNL A   1      49.319  24.678  33.595  1.00  0.00     0.131 A 
ATOM    103  C   UNL A   1      51.437  26.046  32.447  1.00  0.00     0.055 A 
ATOM    104  C   UNL A   1      50.514  24.006  33.337  1.00  0.00     0.041 A 
ATOM    105  F   UNL A   1      48.306  23.972  34.125  1.00  0.00    -0.206 F 
ATOM    106  C   UNL A   1      51.575  24.686  32.746  1.00  0.00     0.022 A 
BRANCH 103 107
ATOM    107  S   UNL A   1      52.805  26.862  31.578  1.00  0.00     0.124 S 
ATOM    108  O   UNL A   1      52.104  27.575  30.512  1.00  0.00    -0.237 OA
ATOM    109  O   UNL A   1      53.374  27.707  32.625  1.00  0.00    -0.237 OA
ATOM    110  O   UNL A   1      53.649  25.758  31.135  1.00  0.00    -0.744 OA
ENDBRANCH 103 107
ENDBRANCH  77 100
ENDBRANCH  51  52
ENDBRANCH  44  46
ENDBRANCH  43  44
ENDBRANCH  42  43
ENDBRANCH  41  42
ENDBRANCH  40  41
ENDBRANCH  39  40
ENDBRANCH   1  39
TORSDOF 24
ENDMDL
