MODEL 1
REMARK VINA RESULT:      -7.1      0.000      0.000
REMARK SMILES O=C(OCCOCCOCCOCCOC(=O)c1[nH]ncc1C[N@H+]1CCC[C@H](C(=O)c2ccc3ccccc3c2)C1)c1ccc(-c2c3nc(c(-c4cc(S(=O)(=O)[O-])ccc4F)c4ccc([nH]4)c(-c4cc(S(=O)(=O)[O-])ccc4F)c4nc(c(-c5cc(S(=O)(=O)[O-])ccc5F)c5ccc2[nH]5)C=C4)C=C3)cc1
REMARK SMILES IDX 10 1 9 2 8 3 7 4 6 5 5 6 4 7 3 8 2 9 1 10 42 11 43 12 104 13
REMARK SMILES IDX 44 14 103 15 45 16 46 17 47 18 97 19 48 20 102 21 96 22
REMARK SMILES IDX 98 23 49 24 101 25 95 26 94 27 50 29 82 30 62 31 81 32 63 33
REMARK SMILES IDX 66 34 80 35 99 36 64 37 65 38 79 40 100 41 67 42 51 43 52 44
REMARK SMILES IDX 60 45 53 46 59 47 61 48 58 49 54 50 55 51 56 52 57 53 83 54
REMARK SMILES IDX 84 55 92 56 85 57 91 58 93 59 90 60 86 61 87 62 88 63 89 64
REMARK SMILES IDX 68 65 69 66 77 67 70 68 76 69 78 70 75 71 71 72 72 73 73 74
REMARK SMILES IDX 74 75 11 76 12 77 13 78 14 79 15 80 16 81 17 82 18 83 19 84
REMARK SMILES IDX 22 85 20 86 21 88 23 89 24 90 25 91 41 92 26 94 28 95 27 96
REMARK SMILES IDX 29 97 30 98 31 99 32 100 40 101 33 102 39 103 34 104 38 105
REMARK SMILES IDX 35 106 37 107 36 108
REMARK H PARENT 98 28 66 39 19 87 24 93
REMARK Flexibility Score: inf
ROOT
ATOM      1  C   UNL A   1      36.085  34.007  33.731  1.00  0.00     0.188 C 
ENDROOT
BRANCH   1   2
ATOM      2  O   UNL A   1      36.464  34.135  35.100  1.00  0.00    -0.377 OA
BRANCH   2   3
ATOM      3  C   UNL A   1      37.331  33.109  35.598  1.00  0.00     0.188 C 
BRANCH   3   4
ATOM      4  C   UNL A   1      38.537  33.625  36.391  1.00  0.00     0.188 C 
BRANCH   4   5
ATOM      5  O   UNL A   1      38.081  34.175  37.621  1.00  0.00    -0.376 OA
BRANCH   5   6
ATOM      6  C   UNL A   1      39.049  34.714  38.513  1.00  0.00     0.202 C 
BRANCH   6   7
ATOM      7  C   UNL A   1      39.899  35.840  37.936  1.00  0.00     0.261 C 
BRANCH   7   8
ATOM      8  O   UNL A   1      41.313  35.574  37.971  1.00  0.00    -0.460 OA
BRANCH   8   9
ATOM      9  C   UNL A   1      42.238  35.819  37.009  1.00  0.00     0.338 C 
ATOM     10  O   UNL A   1      42.682  36.959  36.883  1.00  0.00    -0.246 OA
BRANCH   9  11
ATOM     11  C   UNL A   1      42.799  34.752  36.143  1.00  0.00     0.060 A 
ATOM     12  C   UNL A   1      44.155  34.451  36.043  1.00  0.00     0.016 A 
ATOM     13  C   UNL A   1      41.889  33.925  35.473  1.00  0.00     0.016 A 
ATOM     14  C   UNL A   1      44.621  33.497  35.152  1.00  0.00     0.010 A 
ATOM     15  C   UNL A   1      42.346  32.893  34.646  1.00  0.00     0.010 A 
ATOM     16  C   UNL A   1      43.721  32.726  34.426  1.00  0.00    -0.014 A 
BRANCH  16  17
ATOM     17  C   UNL A   1      44.234  31.920  33.296  1.00  0.00     0.031 A 
ATOM     18  C   UNL A   1      44.460  32.632  31.991  1.00  0.00     0.074 A 
ATOM     19  C   UNL A   1      44.625  30.644  33.472  1.00  0.00     0.049 A 
ATOM     20  N   UNL A   1      44.767  32.150  30.819  1.00  0.00    -0.248 NA
ATOM     21  C   UNL A   1      44.303  34.096  32.016  1.00  0.00     0.031 C 
ATOM     22  C   UNL A   1      44.585  29.915  34.743  1.00  0.00     0.029 A 
ATOM     23  N   UNL A   1      45.174  29.747  32.595  1.00  0.00    -0.354 N 
ATOM     24  C   UNL A   1      44.767  33.242  29.955  1.00  0.00     0.074 A 
ATOM     25  C   UNL A   1      44.420  34.405  30.737  1.00  0.00     0.031 C 
ATOM     26  C   UNL A   1      45.137  28.703  34.571  1.00  0.00     0.029 A 
ATOM     27  C   UNL A   1      45.477  28.531  33.164  1.00  0.00     0.049 A 
ATOM     28  H   UNL A   1      45.336  29.953  31.646  1.00  0.00     0.167 HD
ATOM     29  C   UNL A   1      45.027  33.258  28.626  1.00  0.00     0.034 A 
ATOM     30  C   UNL A   1      45.937  27.400  32.593  1.00  0.00     0.034 A 
ATOM     31  C   UNL A   1      45.405  32.072  27.899  1.00  0.00     0.049 A 
ATOM     32  C   UNL A   1      46.164  27.422  31.101  1.00  0.00     0.074 A 
ATOM     33  C   UNL A   1      45.617  31.909  26.545  1.00  0.00     0.029 A 
ATOM     34  N   UNL A   1      45.646  30.837  28.495  1.00  0.00    -0.354 N 
ATOM     35  N   UNL A   1      46.028  28.423  30.259  1.00  0.00    -0.248 NA
ATOM     36  C   UNL A   1      46.589  26.164  30.479  1.00  0.00     0.031 C 
ATOM     37  C   UNL A   1      45.938  30.565  26.315  1.00  0.00     0.029 A 
ATOM     38  C   UNL A   1      45.996  29.904  27.534  1.00  0.00     0.049 A 
ATOM     39  H   UNL A   1      45.577  30.653  29.460  1.00  0.00     0.167 HD
ATOM     40  C   UNL A   1      46.364  27.919  29.008  1.00  0.00     0.074 A 
ATOM     41  C   UNL A   1      46.738  26.531  29.214  1.00  0.00     0.031 C 
ATOM     42  C   UNL A   1      46.360  28.530  27.794  1.00  0.00     0.034 A 
BRANCH  29  43
ATOM     43  C   UNL A   1      44.793  34.563  27.903  1.00  0.00     0.023 A 
ATOM     44  C   UNL A   1      45.850  35.406  27.513  1.00  0.00     0.031 A 
ATOM     45  C   UNL A   1      43.479  35.033  27.722  1.00  0.00     0.131 A 
ATOM     46  C   UNL A   1      45.578  36.709  27.065  1.00  0.00     0.055 A 
ATOM     47  C   UNL A   1      43.213  36.296  27.188  1.00  0.00     0.041 A 
ATOM     48  F   UNL A   1      42.429  34.289  28.104  1.00  0.00    -0.206 F 
ATOM     49  C   UNL A   1      44.265  37.152  26.877  1.00  0.00     0.022 A 
BRANCH  46  50
ATOM     50  S   UNL A   1      46.957  37.881  26.912  1.00  0.00     0.124 S 
ATOM     51  O   UNL A   1      47.608  37.741  28.213  1.00  0.00    -0.237 OA
ATOM     52  O   UNL A   1      47.694  37.355  25.769  1.00  0.00    -0.237 OA
ATOM     53  O   UNL A   1      46.294  39.165  26.690  1.00  0.00    -0.744 OA
ENDBRANCH  46  50
ENDBRANCH  29  43
BRANCH  30  54
ATOM     54  C   UNL A   1      46.140  26.155  33.396  1.00  0.00     0.023 A 
ATOM     55  C   UNL A   1      45.167  25.142  33.437  1.00  0.00     0.031 A 
ATOM     56  C   UNL A   1      47.298  25.977  34.177  1.00  0.00     0.131 A 
ATOM     57  C   UNL A   1      45.354  24.020  34.263  1.00  0.00     0.055 A 
ATOM     58  C   UNL A   1      47.505  24.834  34.952  1.00  0.00     0.041 A 
ATOM     59  F   UNL A   1      48.261  26.913  34.190  1.00  0.00    -0.206 F 
ATOM     60  C   UNL A   1      46.523  23.852  35.009  1.00  0.00     0.022 A 
BRANCH  57  61
ATOM     61  S   UNL A   1      44.005  22.816  34.423  1.00  0.00     0.124 S 
ATOM     62  O   UNL A   1      43.401  22.866  33.096  1.00  0.00    -0.237 OA
ATOM     63  O   UNL A   1      44.730  21.593  34.754  1.00  0.00    -0.237 OA
ATOM     64  O   UNL A   1      43.186  23.363  35.503  1.00  0.00    -0.744 OA
ENDBRANCH  57  61
ENDBRANCH  30  54
BRANCH  42  65
ATOM     65  C   UNL A   1      46.821  27.701  26.627  1.00  0.00     0.023 A 
ATOM     66  C   UNL A   1      48.152  27.736  26.181  1.00  0.00     0.031 A 
ATOM     67  C   UNL A   1      45.908  26.880  25.944  1.00  0.00     0.131 A 
ATOM     68  C   UNL A   1      48.522  27.012  25.040  1.00  0.00     0.055 A 
ATOM     69  C   UNL A   1      46.296  26.112  24.846  1.00  0.00     0.041 A 
ATOM     70  F   UNL A   1      44.625  26.812  26.333  1.00  0.00    -0.206 F 
ATOM     71  C   UNL A   1      47.606  26.187  24.379  1.00  0.00     0.022 A 
BRANCH  68  72
ATOM     72  S   UNL A   1      50.189  27.243  24.369  1.00  0.00     0.124 S 
ATOM     73  O   UNL A   1      50.945  26.210  25.070  1.00  0.00    -0.237 OA
ATOM     74  O   UNL A   1      49.983  27.024  22.941  1.00  0.00    -0.237 OA
ATOM     75  O   UNL A   1      50.521  28.616  24.744  1.00  0.00    -0.744 OA
ENDBRANCH  68  72
ENDBRANCH  42  65
ENDBRANCH  16  17
ENDBRANCH   9  11
ENDBRANCH   8   9
ENDBRANCH   7   8
ENDBRANCH   6   7
ENDBRANCH   5   6
ENDBRANCH   4   5
ENDBRANCH   3   4
ENDBRANCH   2   3
ENDBRANCH   1   2
BRANCH   1  76
ATOM     76  C   UNL A   1      34.903  33.071  33.387  1.00  0.00     0.188 C 
BRANCH  76  77
ATOM     77  O   UNL A   1      34.102  33.541  32.313  1.00  0.00    -0.376 OA
BRANCH  77  78
ATOM     78  C   UNL A   1      34.413  33.036  31.021  1.00  0.00     0.202 C 
BRANCH  78  79
ATOM     79  C   UNL A   1      35.134  33.999  30.062  1.00  0.00     0.261 C 
BRANCH  79  80
ATOM     80  O   UNL A   1      35.498  33.456  28.787  1.00  0.00    -0.459 OA
BRANCH  80  81
ATOM     81  C   UNL A   1      36.545  32.613  28.705  1.00  0.00     0.356 C 
ATOM     82  O   UNL A   1      36.558  31.541  28.087  1.00  0.00    -0.244 OA
BRANCH  81  83
ATOM     83  C   UNL A   1      37.686  33.221  29.319  1.00  0.00     0.152 A 
ATOM     84  N   UNL A   1      38.441  34.204  28.741  1.00  0.00    -0.271 N 
ATOM     85  C   UNL A   1      38.305  32.958  30.539  1.00  0.00     0.059 A 
ATOM     86  N   UNL A   1      39.349  34.746  29.575  1.00  0.00    -0.183 NA
ATOM     87  H   UNL A   1      38.332  34.487  27.805  1.00  0.00     0.190 HD
ATOM     88  C   UNL A   1      39.265  33.984  30.669  1.00  0.00     0.145 A 
BRANCH  85  89
ATOM     89  C   UNL A   1      38.063  31.779  31.422  1.00  0.00     0.303 C 
BRANCH  89  90
ATOM     90  N   UNL A   1      39.173  30.795  31.314  1.00  0.00    -0.330 N 
ATOM     91  C   UNL A   1      40.054  30.776  32.493  1.00  0.00     0.262 C 
ATOM     92  C   UNL A   1      38.687  29.461  30.964  1.00  0.00     0.274 C 
ATOM     93  H   UNL A   1      39.759  31.116  30.543  1.00  0.00     0.348 HD
ATOM     94  C   UNL A   1      41.178  29.756  32.504  1.00  0.00     0.062 C 
ATOM     95  C   UNL A   1      39.840  28.483  30.724  1.00  0.00     0.116 C 
ATOM     96  C   UNL A   1      40.771  28.405  31.936  1.00  0.00     0.023 C 
BRANCH  95  97
ATOM     97  C   UNL A   1      40.510  28.708  29.361  1.00  0.00     0.171 C 
ATOM     98  O   UNL A   1      40.733  29.839  28.929  1.00  0.00    -0.294 OA
BRANCH  97  99
ATOM     99  C   UNL A   1      40.995  27.558  28.564  1.00  0.00     0.019 A 
ATOM    100  C   UNL A   1      40.426  27.266  27.328  1.00  0.00     0.012 A 
ATOM    101  C   UNL A   1      42.029  26.766  29.070  1.00  0.00     0.020 A 
ATOM    102  C   UNL A   1      40.773  26.087  26.668  1.00  0.00     0.009 A 
ATOM    103  C   UNL A   1      42.430  25.607  28.384  1.00  0.00    -0.018 A 
ATOM    104  C   UNL A   1      41.762  25.241  27.191  1.00  0.00    -0.018 A 
ATOM    105  C   UNL A   1      43.468  24.791  28.861  1.00  0.00     0.009 A 
ATOM    106  C   UNL A   1      42.105  24.042  26.547  1.00  0.00     0.009 A 
ATOM    107  C   UNL A   1      43.821  23.619  28.190  1.00  0.00     0.001 A 
ATOM    108  C   UNL A   1      43.129  23.235  27.044  1.00  0.00     0.001 A 
ENDBRANCH  97  99
ENDBRANCH  95  97
ENDBRANCH  89  90
ENDBRANCH  85  89
ENDBRANCH  81  83
ENDBRANCH  80  81
ENDBRANCH  79  80
ENDBRANCH  78  79
ENDBRANCH  77  78
ENDBRANCH  76  77
ENDBRANCH   1  76
TORSDOF 27
ENDMDL
MODEL 2
REMARK VINA RESULT:      -7.0      3.648     10.422
REMARK SMILES O=C(OCCOCCOCCOCCOC(=O)c1[nH]ncc1C[N@H+]1CCC[C@H](C(=O)c2ccc3ccccc3c2)C1)c1ccc(-c2c3nc(c(-c4cc(S(=O)(=O)[O-])ccc4F)c4ccc([nH]4)c(-c4cc(S(=O)(=O)[O-])ccc4F)c4nc(c(-c5cc(S(=O)(=O)[O-])ccc5F)c5ccc2[nH]5)C=C4)C=C3)cc1
REMARK SMILES IDX 10 1 9 2 8 3 7 4 6 5 5 6 4 7 3 8 2 9 1 10 42 11 43 12 104 13
REMARK SMILES IDX 44 14 103 15 45 16 46 17 47 18 97 19 48 20 102 21 96 22
REMARK SMILES IDX 98 23 49 24 101 25 95 26 94 27 50 29 82 30 62 31 81 32 63 33
REMARK SMILES IDX 66 34 80 35 99 36 64 37 65 38 79 40 100 41 67 42 51 43 52 44
REMARK SMILES IDX 60 45 53 46 59 47 61 48 58 49 54 50 55 51 56 52 57 53 83 54
REMARK SMILES IDX 84 55 92 56 85 57 91 58 93 59 90 60 86 61 87 62 88 63 89 64
REMARK SMILES IDX 68 65 69 66 77 67 70 68 76 69 78 70 75 71 71 72 72 73 73 74
REMARK SMILES IDX 74 75 11 76 12 77 13 78 14 79 15 80 16 81 17 82 18 83 19 84
REMARK SMILES IDX 22 85 20 86 21 88 23 89 24 90 25 91 41 92 26 94 28 95 27 96
REMARK SMILES IDX 29 97 30 98 31 99 32 100 40 101 33 102 39 103 34 104 38 105
REMARK SMILES IDX 35 106 37 107 36 108
REMARK H PARENT 98 28 66 39 19 87 24 93
REMARK Flexibility Score: inf
ROOT
ATOM      1  C   UNL A   1      46.206  24.062  26.928  1.00  0.00     0.188 C 
ENDROOT
BRANCH   1   2
ATOM      2  O   UNL A   1      46.573  24.459  28.248  1.00  0.00    -0.377 OA
BRANCH   2   3
ATOM      3  C   UNL A   1      45.482  24.679  29.150  1.00  0.00     0.188 C 
BRANCH   3   4
ATOM      4  C   UNL A   1      45.679  25.857  30.111  1.00  0.00     0.188 C 
BRANCH   4   5
ATOM      5  O   UNL A   1      44.734  25.755  31.170  1.00  0.00    -0.376 OA
BRANCH   5   6
ATOM      6  C   UNL A   1      44.341  24.456  31.593  1.00  0.00     0.202 C 
BRANCH   6   7
ATOM      7  C   UNL A   1      44.682  24.120  33.040  1.00  0.00     0.261 C 
BRANCH   7   8
ATOM      8  O   UNL A   1      43.535  23.786  33.842  1.00  0.00    -0.460 OA
BRANCH   8   9
ATOM      9  C   UNL A   1      42.912  24.548  34.776  1.00  0.00     0.338 C 
ATOM     10  O   UNL A   1      42.408  24.001  35.755  1.00  0.00    -0.246 OA
BRANCH   9  11
ATOM     11  C   UNL A   1      42.874  26.031  34.709  1.00  0.00     0.060 A 
ATOM     12  C   UNL A   1      41.780  26.772  34.271  1.00  0.00     0.016 A 
ATOM     13  C   UNL A   1      43.975  26.724  35.229  1.00  0.00     0.016 A 
ATOM     14  C   UNL A   1      41.840  28.152  34.155  1.00  0.00     0.010 A 
ATOM     15  C   UNL A   1      44.006  28.122  35.208  1.00  0.00     0.010 A 
ATOM     16  C   UNL A   1      42.964  28.839  34.599  1.00  0.00    -0.014 A 
BRANCH  16  17
ATOM     17  C   UNL A   1      43.119  30.259  34.217  1.00  0.00     0.031 A 
ATOM     18  C   UNL A   1      43.661  30.547  32.844  1.00  0.00     0.074 A 
ATOM     19  C   UNL A   1      42.653  31.246  35.004  1.00  0.00     0.049 A 
ATOM     20  N   UNL A   1      44.023  31.680  32.309  1.00  0.00    -0.248 NA
ATOM     21  C   UNL A   1      43.829  29.383  31.957  1.00  0.00     0.031 C 
ATOM     22  C   UNL A   1      41.973  31.054  36.288  1.00  0.00     0.029 A 
ATOM     23  N   UNL A   1      42.637  32.604  34.823  1.00  0.00    -0.354 N 
ATOM     24  C   UNL A   1      44.528  31.355  31.053  1.00  0.00     0.074 A 
ATOM     25  C   UNL A   1      44.434  29.921  30.913  1.00  0.00     0.031 C 
ATOM     26  C   UNL A   1      41.561  32.247  36.750  1.00  0.00     0.029 A 
ATOM     27  C   UNL A   1      42.033  33.293  35.851  1.00  0.00     0.049 A 
ATOM     28  H   UNL A   1      43.022  33.046  34.033  1.00  0.00     0.167 HD
ATOM     29  C   UNL A   1      45.030  32.188  30.112  1.00  0.00     0.034 A 
ATOM     30  C   UNL A   1      41.918  34.621  36.052  1.00  0.00     0.034 A 
ATOM     31  C   UNL A   1      45.067  33.618  30.287  1.00  0.00     0.049 A 
ATOM     32  C   UNL A   1      42.538  35.532  35.020  1.00  0.00     0.074 A 
ATOM     33  C   UNL A   1      45.618  34.585  29.469  1.00  0.00     0.029 A 
ATOM     34  N   UNL A   1      44.500  34.286  31.371  1.00  0.00    -0.354 N 
ATOM     35  N   UNL A   1      43.143  35.216  33.895  1.00  0.00    -0.248 NA
ATOM     36  C   UNL A   1      42.477  36.971  35.288  1.00  0.00     0.031 C 
ATOM     37  C   UNL A   1      45.428  35.831  30.081  1.00  0.00     0.029 A 
ATOM     38  C   UNL A   1      44.697  35.650  31.246  1.00  0.00     0.049 A 
ATOM     39  H   UNL A   1      44.029  33.850  32.117  1.00  0.00     0.167 HD
ATOM     40  C   UNL A   1      43.521  36.420  33.314  1.00  0.00     0.074 A 
ATOM     41  C   UNL A   1      43.049  37.468  34.201  1.00  0.00     0.031 C 
ATOM     42  C   UNL A   1      44.204  36.653  32.161  1.00  0.00     0.034 A 
BRANCH  29  43
ATOM     43  C   UNL A   1      45.663  31.544  28.901  1.00  0.00     0.023 A 
ATOM     44  C   UNL A   1      46.953  30.983  28.937  1.00  0.00     0.031 A 
ATOM     45  C   UNL A   1      45.014  31.617  27.655  1.00  0.00     0.131 A 
ATOM     46  C   UNL A   1      47.590  30.617  27.740  1.00  0.00     0.055 A 
ATOM     47  C   UNL A   1      45.619  31.165  26.479  1.00  0.00     0.041 A 
ATOM     48  F   UNL A   1      43.797  32.171  27.550  1.00  0.00    -0.206 F 
ATOM     49  C   UNL A   1      46.923  30.681  26.514  1.00  0.00     0.022 A 
BRANCH  46  50
ATOM     50  S   UNL A   1      49.366  30.235  27.783  1.00  0.00     0.124 S 
ATOM     51  O   UNL A   1      49.816  30.785  26.506  1.00  0.00    -0.237 OA
ATOM     52  O   UNL A   1      49.814  30.943  28.975  1.00  0.00    -0.237 OA
ATOM     53  O   UNL A   1      49.402  28.776  27.872  1.00  0.00    -0.744 OA
ENDBRANCH  46  50
ENDBRANCH  29  43
BRANCH  30  54
ATOM     54  C   UNL A   1      41.271  35.163  37.286  1.00  0.00     0.023 A 
ATOM     55  C   UNL A   1      41.977  35.275  38.496  1.00  0.00     0.031 A 
ATOM     56  C   UNL A   1      39.914  35.540  37.286  1.00  0.00     0.131 A 
ATOM     57  C   UNL A   1      41.318  35.716  39.656  1.00  0.00     0.055 A 
ATOM     58  C   UNL A   1      39.279  36.031  38.428  1.00  0.00     0.041 A 
ATOM     59  F   UNL A   1      39.182  35.447  36.165  1.00  0.00    -0.206 F 
ATOM     60  C   UNL A   1      39.978  36.109  39.627  1.00  0.00     0.022 A 
BRANCH  57  61
ATOM     61  S   UNL A   1      42.212  35.686  41.236  1.00  0.00     0.124 S 
ATOM     62  O   UNL A   1      43.202  36.738  41.038  1.00  0.00    -0.237 OA
ATOM     63  O   UNL A   1      41.146  35.977  42.191  1.00  0.00    -0.237 OA
ATOM     64  O   UNL A   1      42.747  34.327  41.299  1.00  0.00    -0.744 OA
ENDBRANCH  57  61
ENDBRANCH  30  54
BRANCH  42  65
ATOM     65  C   UNL A   1      44.421  38.096  31.794  1.00  0.00     0.023 A 
ATOM     66  C   UNL A   1      43.634  38.734  30.822  1.00  0.00     0.031 A 
ATOM     67  C   UNL A   1      45.444  38.833  32.415  1.00  0.00     0.131 A 
ATOM     68  C   UNL A   1      43.923  40.053  30.451  1.00  0.00     0.055 A 
ATOM     69  C   UNL A   1      45.687  40.165  32.086  1.00  0.00     0.041 A 
ATOM     70  F   UNL A   1      46.223  38.267  33.351  1.00  0.00    -0.206 F 
ATOM     71  C   UNL A   1      44.934  40.779  31.088  1.00  0.00     0.022 A 
BRANCH  68  72
ATOM     72  S   UNL A   1      43.027  40.774  29.050  1.00  0.00     0.124 S 
ATOM     73  O   UNL A   1      41.689  40.952  29.603  1.00  0.00    -0.237 OA
ATOM     74  O   UNL A   1      43.780  41.999  28.797  1.00  0.00    -0.237 OA
ATOM     75  O   UNL A   1      43.139  39.753  28.010  1.00  0.00    -0.744 OA
ENDBRANCH  68  72
ENDBRANCH  42  65
ENDBRANCH  16  17
ENDBRANCH   9  11
ENDBRANCH   8   9
ENDBRANCH   7   8
ENDBRANCH   6   7
ENDBRANCH   5   6
ENDBRANCH   4   5
ENDBRANCH   3   4
ENDBRANCH   2   3
ENDBRANCH   1   2
BRANCH   1  76
ATOM     76  C   UNL A   1      46.102  25.156  25.841  1.00  0.00     0.188 C 
BRANCH  76  77
ATOM     77  O   UNL A   1      45.690  24.661  24.575  1.00  0.00    -0.376 OA
BRANCH  77  78
ATOM     78  C   UNL A   1      45.940  23.286  24.320  1.00  0.00     0.202 C 
BRANCH  78  79
ATOM     79  C   UNL A   1      44.748  22.450  23.825  1.00  0.00     0.261 C 
BRANCH  79  80
ATOM     80  O   UNL A   1      43.482  22.745  24.429  1.00  0.00    -0.459 OA
BRANCH  80  81
ATOM     81  C   UNL A   1      43.132  22.111  25.564  1.00  0.00     0.356 C 
ATOM     82  O   UNL A   1      43.794  21.232  26.130  1.00  0.00    -0.244 OA
BRANCH  81  83
ATOM     83  C   UNL A   1      41.949  22.718  26.095  1.00  0.00     0.152 A 
ATOM     84  N   UNL A   1      40.829  22.029  26.470  1.00  0.00    -0.271 N 
ATOM     85  C   UNL A   1      41.638  24.059  26.306  1.00  0.00     0.059 A 
ATOM     86  N   UNL A   1      39.918  22.788  27.108  1.00  0.00    -0.183 NA
ATOM     87  H   UNL A   1      40.701  21.071  26.289  1.00  0.00     0.190 HD
ATOM     88  C   UNL A   1      40.412  24.025  27.005  1.00  0.00     0.145 A 
BRANCH  85  89
ATOM     89  C   UNL A   1      42.392  25.239  25.789  1.00  0.00     0.303 C 
BRANCH  89  90
ATOM     90  N   UNL A   1      42.130  26.445  26.619  1.00  0.00    -0.330 N 
ATOM     91  C   UNL A   1      43.351  27.046  27.179  1.00  0.00     0.262 C 
ATOM     92  C   UNL A   1      41.306  27.424  25.911  1.00  0.00     0.274 C 
ATOM     93  H   UNL A   1      41.592  26.122  27.422  1.00  0.00     0.348 HD
ATOM     94  C   UNL A   1      43.190  28.321  27.987  1.00  0.00     0.062 C 
ATOM     95  C   UNL A   1      40.928  28.603  26.812  1.00  0.00     0.116 C 
ATOM     96  C   UNL A   1      42.167  29.281  27.399  1.00  0.00     0.023 C 
BRANCH  95  97
ATOM     97  C   UNL A   1      39.816  28.234  27.804  1.00  0.00     0.171 C 
ATOM     98  O   UNL A   1      39.393  27.082  27.901  1.00  0.00    -0.294 OA
BRANCH  97  99
ATOM     99  C   UNL A   1      39.285  29.245  28.746  1.00  0.00     0.019 A 
ATOM    100  C   UNL A   1      38.229  30.071  28.372  1.00  0.00     0.012 A 
ATOM    101  C   UNL A   1      39.857  29.363  30.015  1.00  0.00     0.020 A 
ATOM    102  C   UNL A   1      37.851  31.128  29.200  1.00  0.00     0.009 A 
ATOM    103  C   UNL A   1      39.444  30.387  30.883  1.00  0.00    -0.018 A 
ATOM    104  C   UNL A   1      38.459  31.308  30.451  1.00  0.00    -0.018 A 
ATOM    105  C   UNL A   1      39.995  30.532  32.166  1.00  0.00     0.009 A 
ATOM    106  C   UNL A   1      38.102  32.379  31.284  1.00  0.00     0.009 A 
ATOM    107  C   UNL A   1      39.604  31.583  32.997  1.00  0.00     0.001 A 
ATOM    108  C   UNL A   1      38.671  32.516  32.551  1.00  0.00     0.001 A 
ENDBRANCH  97  99
ENDBRANCH  95  97
ENDBRANCH  89  90
ENDBRANCH  85  89
ENDBRANCH  81  83
ENDBRANCH  80  81
ENDBRANCH  79  80
ENDBRANCH  78  79
ENDBRANCH  77  78
ENDBRANCH  76  77
ENDBRANCH   1  76
TORSDOF 27
ENDMDL
MODEL 3
REMARK VINA RESULT:      -6.8      2.747      5.687
REMARK SMILES O=C(OCCOCCOCCOCCOC(=O)c1[nH]ncc1C[N@H+]1CCC[C@H](C(=O)c2ccc3ccccc3c2)C1)c1ccc(-c2c3nc(c(-c4cc(S(=O)(=O)[O-])ccc4F)c4ccc([nH]4)c(-c4cc(S(=O)(=O)[O-])ccc4F)c4nc(c(-c5cc(S(=O)(=O)[O-])ccc5F)c5ccc2[nH]5)C=C4)C=C3)cc1
REMARK SMILES IDX 10 1 9 2 8 3 7 4 6 5 5 6 4 7 3 8 2 9 1 10 42 11 43 12 104 13
REMARK SMILES IDX 44 14 103 15 45 16 46 17 47 18 97 19 48 20 102 21 96 22
REMARK SMILES IDX 98 23 49 24 101 25 95 26 94 27 50 29 82 30 62 31 81 32 63 33
REMARK SMILES IDX 66 34 80 35 99 36 64 37 65 38 79 40 100 41 67 42 51 43 52 44
REMARK SMILES IDX 60 45 53 46 59 47 61 48 58 49 54 50 55 51 56 52 57 53 83 54
REMARK SMILES IDX 84 55 92 56 85 57 91 58 93 59 90 60 86 61 87 62 88 63 89 64
REMARK SMILES IDX 68 65 69 66 77 67 70 68 76 69 78 70 75 71 71 72 72 73 73 74
REMARK SMILES IDX 74 75 11 76 12 77 13 78 14 79 15 80 16 81 17 82 18 83 19 84
REMARK SMILES IDX 22 85 20 86 21 88 23 89 24 90 25 91 41 92 26 94 28 95 27 96
REMARK SMILES IDX 29 97 30 98 31 99 32 100 40 101 33 102 39 103 34 104 38 105
REMARK SMILES IDX 35 106 37 107 36 108
REMARK H PARENT 98 28 66 39 19 87 24 93
REMARK Flexibility Score: inf
ROOT
ATOM      1  C   UNL A   1      38.132  33.711  37.587  1.00  0.00     0.188 C 
ENDROOT
BRANCH   1   2
ATOM      2  O   UNL A   1      38.570  34.389  38.763  1.00  0.00    -0.377 OA
BRANCH   2   3
ATOM      3  C   UNL A   1      38.425  33.657  39.986  1.00  0.00     0.188 C 
BRANCH   3   4
ATOM      4  C   UNL A   1      39.731  33.074  40.538  1.00  0.00     0.188 C 
BRANCH   4   5
ATOM      5  O   UNL A   1      39.940  33.573  41.854  1.00  0.00    -0.376 OA
BRANCH   5   6
ATOM      6  C   UNL A   1      41.061  34.417  42.079  1.00  0.00     0.202 C 
BRANCH   6   7
ATOM      7  C   UNL A   1      41.718  34.966  40.818  1.00  0.00     0.261 C 
BRANCH   7   8
ATOM      8  O   UNL A   1      43.150  35.067  40.907  1.00  0.00    -0.460 OA
BRANCH   8   9
ATOM      9  C   UNL A   1      44.018  35.551  39.984  1.00  0.00     0.338 C 
ATOM     10  O   UNL A   1      44.832  36.408  40.320  1.00  0.00    -0.246 OA
BRANCH   9  11
ATOM     11  C   UNL A   1      44.081  35.036  38.592  1.00  0.00     0.060 A 
ATOM     12  C   UNL A   1      43.144  35.323  37.603  1.00  0.00     0.016 A 
ATOM     13  C   UNL A   1      45.220  34.307  38.229  1.00  0.00     0.016 A 
ATOM     14  C   UNL A   1      43.217  34.743  36.346  1.00  0.00     0.010 A 
ATOM     15  C   UNL A   1      45.353  33.798  36.933  1.00  0.00     0.010 A 
ATOM     16  C   UNL A   1      44.310  33.954  36.007  1.00  0.00    -0.014 A 
BRANCH  16  17
ATOM     17  C   UNL A   1      44.233  33.133  34.779  1.00  0.00     0.031 A 
ATOM     18  C   UNL A   1      44.580  33.805  33.480  1.00  0.00     0.074 A 
ATOM     19  C   UNL A   1      44.012  31.807  34.842  1.00  0.00     0.049 A 
ATOM     20  N   UNL A   1      44.465  33.368  32.256  1.00  0.00    -0.248 NA
ATOM     21  C   UNL A   1      45.120  35.172  33.581  1.00  0.00     0.031 C 
ATOM     22  C   UNL A   1      43.816  31.039  36.075  1.00  0.00     0.029 A 
ATOM     23  N   UNL A   1      43.960  30.860  33.853  1.00  0.00    -0.354 N 
ATOM     24  C   UNL A   1      44.850  34.431  31.443  1.00  0.00     0.074 A 
ATOM     25  C   UNL A   1      45.189  35.533  32.312  1.00  0.00     0.031 C 
ATOM     26  C   UNL A   1      43.718  29.735  35.769  1.00  0.00     0.029 A 
ATOM     27  C   UNL A   1      43.743  29.583  34.320  1.00  0.00     0.049 A 
ATOM     28  H   UNL A   1      44.066  31.074  32.898  1.00  0.00     0.167 HD
ATOM     29  C   UNL A   1      44.903  34.474  30.091  1.00  0.00     0.034 A 
ATOM     30  C   UNL A   1      43.547  28.436  33.640  1.00  0.00     0.034 A 
ATOM     31  C   UNL A   1      44.588  33.332  29.270  1.00  0.00     0.049 A 
ATOM     32  C   UNL A   1      43.551  28.517  32.132  1.00  0.00     0.074 A 
ATOM     33  C   UNL A   1      44.512  33.240  27.894  1.00  0.00     0.029 A 
ATOM     34  N   UNL A   1      44.312  32.063  29.772  1.00  0.00    -0.354 N 
ATOM     35  N   UNL A   1      43.777  29.558  31.361  1.00  0.00    -0.248 NA
ATOM     36  C   UNL A   1      43.259  27.279  31.404  1.00  0.00     0.031 C 
ATOM     37  C   UNL A   1      44.143  31.928  27.567  1.00  0.00     0.029 A 
ATOM     38  C   UNL A   1      44.056  31.184  28.734  1.00  0.00     0.049 A 
ATOM     39  H   UNL A   1      44.300  31.825  30.727  1.00  0.00     0.167 HD
ATOM     40  C   UNL A   1      43.668  29.097  30.054  1.00  0.00     0.074 A 
ATOM     41  C   UNL A   1      43.385  27.676  30.146  1.00  0.00     0.031 C 
ATOM     42  C   UNL A   1      43.779  29.773  28.881  1.00  0.00     0.034 A 
BRANCH  29  43
ATOM     43  C   UNL A   1      45.199  35.816  29.463  1.00  0.00     0.023 A 
ATOM     44  C   UNL A   1      44.195  36.773  29.229  1.00  0.00     0.031 A 
ATOM     45  C   UNL A   1      46.488  36.083  28.969  1.00  0.00     0.131 A 
ATOM     46  C   UNL A   1      44.471  37.895  28.431  1.00  0.00     0.055 A 
ATOM     47  C   UNL A   1      46.778  37.248  28.255  1.00  0.00     0.041 A 
ATOM     48  F   UNL A   1      47.481  35.195  29.133  1.00  0.00    -0.206 F 
ATOM     49  C   UNL A   1      45.762  38.152  27.962  1.00  0.00     0.022 A 
BRANCH  46  50
ATOM     50  S   UNL A   1      43.082  38.915  27.854  1.00  0.00     0.124 S 
ATOM     51  O   UNL A   1      41.945  38.032  28.108  1.00  0.00    -0.237 OA
ATOM     52  O   UNL A   1      43.178  40.092  28.708  1.00  0.00    -0.237 OA
ATOM     53  O   UNL A   1      43.384  39.140  26.442  1.00  0.00    -0.744 OA
ENDBRANCH  46  50
ENDBRANCH  29  43
BRANCH  30  54
ATOM     54  C   UNL A   1      43.262  27.154  34.353  1.00  0.00     0.023 A 
ATOM     55  C   UNL A   1      44.285  26.239  34.656  1.00  0.00     0.031 A 
ATOM     56  C   UNL A   1      41.946  26.799  34.707  1.00  0.00     0.131 A 
ATOM     57  C   UNL A   1      43.973  25.008  35.257  1.00  0.00     0.055 A 
ATOM     58  C   UNL A   1      41.648  25.599  35.357  1.00  0.00     0.041 A 
ATOM     59  F   UNL A   1      40.922  27.624  34.437  1.00  0.00    -0.206 F 
ATOM     60  C   UNL A   1      42.663  24.689  35.623  1.00  0.00     0.022 A 
BRANCH  57  61
ATOM     61  S   UNL A   1      45.292  23.781  35.478  1.00  0.00     0.124 S 
ATOM     62  O   UNL A   1      44.529  22.562  35.720  1.00  0.00    -0.237 OA
ATOM     63  O   UNL A   1      45.993  23.859  34.199  1.00  0.00    -0.237 OA
ATOM     64  O   UNL A   1      46.040  24.288  36.627  1.00  0.00    -0.744 OA
ENDBRANCH  57  61
ENDBRANCH  30  54
BRANCH  42  65
ATOM     65  C   UNL A   1      43.641  28.958  27.624  1.00  0.00     0.023 A 
ATOM     66  C   UNL A   1      44.742  28.308  27.045  1.00  0.00     0.031 A 
ATOM     67  C   UNL A   1      42.391  28.849  26.991  1.00  0.00     0.131 A 
ATOM     68  C   UNL A   1      44.588  27.628  25.830  1.00  0.00     0.055 A 
ATOM     69  C   UNL A   1      42.229  28.118  25.815  1.00  0.00     0.041 A 
ATOM     70  F   UNL A   1      41.308  29.451  27.507  1.00  0.00    -0.206 F 
ATOM     71  C   UNL A   1      43.335  27.515  25.219  1.00  0.00     0.022 A 
BRANCH  68  72
ATOM     72  S   UNL A   1      46.066  26.981  25.005  1.00  0.00     0.124 S 
ATOM     73  O   UNL A   1      47.081  27.123  26.043  1.00  0.00    -0.237 OA
ATOM     74  O   UNL A   1      45.669  25.614  24.682  1.00  0.00    -0.237 OA
ATOM     75  O   UNL A   1      46.229  27.866  23.853  1.00  0.00    -0.744 OA
ENDBRANCH  68  72
ENDBRANCH  42  65
ENDBRANCH  16  17
ENDBRANCH   9  11
ENDBRANCH   8   9
ENDBRANCH   7   8
ENDBRANCH   6   7
ENDBRANCH   5   6
ENDBRANCH   4   5
ENDBRANCH   3   4
ENDBRANCH   2   3
ENDBRANCH   1   2
BRANCH   1  76
ATOM     76  C   UNL A   1      38.556  32.236  37.396  1.00  0.00     0.188 C 
BRANCH  76  77
ATOM     77  O   UNL A   1      39.881  32.085  36.906  1.00  0.00    -0.376 OA
BRANCH  77  78
ATOM     78  C   UNL A   1      40.160  30.888  36.193  1.00  0.00     0.202 C 
BRANCH  78  79
ATOM     79  C   UNL A   1      39.086  30.412  35.201  1.00  0.00     0.261 C 
BRANCH  79  80
ATOM     80  O   UNL A   1      39.036  31.107  33.949  1.00  0.00    -0.459 OA
BRANCH  80  81
ATOM     81  C   UNL A   1      38.417  32.301  33.884  1.00  0.00     0.356 C 
ATOM     82  O   UNL A   1      37.215  32.500  34.100  1.00  0.00    -0.244 OA
BRANCH  81  83
ATOM     83  C   UNL A   1      39.394  33.326  33.676  1.00  0.00     0.152 A 
ATOM     84  N   UNL A   1      39.569  34.404  34.497  1.00  0.00    -0.271 N 
ATOM     85  C   UNL A   1      40.312  33.504  32.643  1.00  0.00     0.059 A 
ATOM     86  N   UNL A   1      40.662  35.134  34.204  1.00  0.00    -0.183 NA
ATOM     87  H   UNL A   1      38.953  34.626  35.232  1.00  0.00     0.190 HD
ATOM     88  C   UNL A   1      41.112  34.585  33.072  1.00  0.00     0.145 A 
BRANCH  85  89
ATOM     89  C   UNL A   1      40.336  32.777  31.340  1.00  0.00     0.303 C 
BRANCH  89  90
ATOM     90  N   UNL A   1      39.034  32.909  30.631  1.00  0.00    -0.330 N 
ATOM     91  C   UNL A   1      39.026  33.978  29.620  1.00  0.00     0.262 C 
ATOM     92  C   UNL A   1      38.577  31.630  30.090  1.00  0.00     0.274 C 
ATOM     93  H   UNL A   1      38.358  33.198  31.338  1.00  0.00     0.348 HD
ATOM     94  C   UNL A   1      37.760  34.146  28.798  1.00  0.00     0.062 C 
ATOM     95  C   UNL A   1      37.178  31.742  29.479  1.00  0.00     0.116 C 
ATOM     96  C   UNL A   1      37.122  32.824  28.397  1.00  0.00     0.023 C 
BRANCH  95  97
ATOM     97  C   UNL A   1      36.083  31.795  30.554  1.00  0.00     0.171 C 
ATOM     98  O   UNL A   1      35.951  30.896  31.384  1.00  0.00    -0.294 OA
BRANCH  97  99
ATOM     99  C   UNL A   1      35.210  32.984  30.678  1.00  0.00     0.019 A 
ATOM    100  C   UNL A   1      34.282  33.285  29.686  1.00  0.00     0.012 A 
ATOM    101  C   UNL A   1      35.329  33.802  31.805  1.00  0.00     0.020 A 
ATOM    102  C   UNL A   1      33.587  34.494  29.732  1.00  0.00     0.009 A 
ATOM    103  C   UNL A   1      34.590  34.994  31.892  1.00  0.00    -0.018 A 
ATOM    104  C   UNL A   1      33.742  35.365  30.821  1.00  0.00    -0.018 A 
ATOM    105  C   UNL A   1      34.682  35.837  33.010  1.00  0.00     0.009 A 
ATOM    106  C   UNL A   1      33.064  36.592  30.869  1.00  0.00     0.009 A 
ATOM    107  C   UNL A   1      33.975  37.040  33.058  1.00  0.00     0.001 A 
ATOM    108  C   UNL A   1      33.180  37.426  31.982  1.00  0.00     0.001 A 
ENDBRANCH  97  99
ENDBRANCH  95  97
ENDBRANCH  89  90
ENDBRANCH  85  89
ENDBRANCH  81  83
ENDBRANCH  80  81
ENDBRANCH  79  80
ENDBRANCH  78  79
ENDBRANCH  77  78
ENDBRANCH  76  77
ENDBRANCH   1  76
TORSDOF 27
ENDMDL
