MODEL 1
REMARK VINA RESULT:      -8.3      0.000      0.000
REMARK SMILES O=C(OCCOCCOCCOCCOC(=O)c1cc(SCc2csc(-c3ccsc3)n2)ccn1)c1ccc(-c2c3nc(c(-c4cc(S(=O)(=O)[O-])ccc4F)c4ccc([nH]4)c(-c4cc(S(=O)(=O)[O-])ccc4F)c4nc(c(-c5cc(S(=O)(=O)[O-])ccc5F)c5ccc2[nH]5)C=C4)C=C3)cc1
REMARK SMILES IDX 10 1 9 2 8 3 7 4 6 5 5 6 4 7 3 8 2 9 1 10 36 11 37 12 98 13
REMARK SMILES IDX 38 14 97 15 39 16 40 17 41 18 91 19 42 20 96 21 90 22 92 23
REMARK SMILES IDX 43 24 95 25 89 26 88 27 44 29 76 30 56 31 75 32 57 33 60 34
REMARK SMILES IDX 74 35 93 36 58 37 59 38 73 40 94 41 61 42 45 43 46 44 54 45
REMARK SMILES IDX 47 46 53 47 55 48 52 49 48 50 49 51 50 52 51 53 77 54 78 55
REMARK SMILES IDX 86 56 79 57 85 58 87 59 84 60 80 61 81 62 82 63 83 64 62 65
REMARK SMILES IDX 63 66 71 67 64 68 70 69 72 70 69 71 65 72 66 73 67 74 68 75
REMARK SMILES IDX 11 76 12 77 13 78 14 79 15 80 16 81 17 82 18 83 19 84 35 85
REMARK SMILES IDX 20 86 34 87 33 88 21 89 22 90 23 91 24 92 32 93 25 94 26 95
REMARK SMILES IDX 27 96 28 97 31 98 29 99 30 100
REMARK H PARENT 92 28 60 39
REMARK Flexibility Score: inf
ROOT
ATOM      1  C   UNL A   1      36.416  32.680  28.592  1.00  0.00     0.188 C 
ENDROOT
BRANCH   1   2
ATOM      2  O   UNL A   1      37.171  31.569  29.070  1.00  0.00    -0.377 OA
BRANCH   2   3
ATOM      3  C   UNL A   1      37.562  30.595  28.103  1.00  0.00     0.188 C 
BRANCH   3   4
ATOM      4  C   UNL A   1      38.826  29.809  28.449  1.00  0.00     0.188 C 
BRANCH   4   5
ATOM      5  O   UNL A   1      38.864  29.509  29.846  1.00  0.00    -0.376 OA
BRANCH   5   6
ATOM      6  C   UNL A   1      38.327  28.238  30.216  1.00  0.00     0.202 C 
BRANCH   6   7
ATOM      7  C   UNL A   1      38.506  27.885  31.695  1.00  0.00     0.261 C 
BRANCH   7   8
ATOM      8  O   UNL A   1      37.467  28.449  32.509  1.00  0.00    -0.460 OA
BRANCH   8   9
ATOM      9  C   UNL A   1      37.091  29.753  32.581  1.00  0.00     0.338 C 
ATOM     10  O   UNL A   1      36.114  30.111  31.923  1.00  0.00    -0.246 OA
BRANCH   9  11
ATOM     11  C   UNL A   1      37.779  30.782  33.427  1.00  0.00     0.060 A 
ATOM     12  C   UNL A   1      39.059  30.663  33.970  1.00  0.00     0.016 A 
ATOM     13  C   UNL A   1      37.084  31.984  33.653  1.00  0.00     0.016 A 
ATOM     14  C   UNL A   1      39.592  31.635  34.802  1.00  0.00     0.010 A 
ATOM     15  C   UNL A   1      37.629  32.991  34.458  1.00  0.00     0.010 A 
ATOM     16  C   UNL A   1      38.869  32.791  35.075  1.00  0.00    -0.014 A 
BRANCH  16  17
ATOM     17  C   UNL A   1      39.351  33.647  36.175  1.00  0.00     0.031 A 
ATOM     18  C   UNL A   1      38.774  33.408  37.539  1.00  0.00     0.074 A 
ATOM     19  C   UNL A   1      40.398  34.469  35.982  1.00  0.00     0.049 A 
ATOM     20  N   UNL A   1      39.011  34.023  38.665  1.00  0.00    -0.248 NA
ATOM     21  C   UNL A   1      37.802  32.306  37.646  1.00  0.00     0.031 C 
ATOM     22  C   UNL A   1      41.120  34.628  34.717  1.00  0.00     0.029 A 
ATOM     23  N   UNL A   1      41.067  35.285  36.852  1.00  0.00    -0.354 N 
ATOM     24  C   UNL A   1      38.198  33.403  39.608  1.00  0.00     0.074 A 
ATOM     25  C   UNL A   1      37.450  32.375  38.919  1.00  0.00     0.031 C 
ATOM     26  C   UNL A   1      42.151  35.468  34.904  1.00  0.00     0.029 A 
ATOM     27  C   UNL A   1      42.116  35.964  36.275  1.00  0.00     0.049 A 
ATOM     28  H   UNL A   1      40.822  35.379  37.801  1.00  0.00     0.167 HD
ATOM     29  C   UNL A   1      38.088  33.677  40.930  1.00  0.00     0.034 A 
ATOM     30  C   UNL A   1      42.926  36.903  36.800  1.00  0.00     0.034 A 
ATOM     31  C   UNL A   1      38.846  34.724  41.568  1.00  0.00     0.049 A 
ATOM     32  C   UNL A   1      42.695  37.289  38.242  1.00  0.00     0.074 A 
ATOM     33  C   UNL A   1      38.770  35.189  42.866  1.00  0.00     0.029 A 
ATOM     34  N   UNL A   1      39.830  35.477  40.930  1.00  0.00    -0.354 N 
ATOM     35  N   UNL A   1      41.847  36.776  39.108  1.00  0.00    -0.248 NA
ATOM     36  C   UNL A   1      43.514  38.381  38.774  1.00  0.00     0.031 C 
ATOM     37  C   UNL A   1      39.661  36.262  42.994  1.00  0.00     0.029 A 
ATOM     38  C   UNL A   1      40.350  36.419  41.799  1.00  0.00     0.049 A 
ATOM     39  H   UNL A   1      40.114  35.355  39.995  1.00  0.00     0.167 HD
ATOM     40  C   UNL A   1      42.045  37.475  40.295  1.00  0.00     0.074 A 
ATOM     41  C   UNL A   1      43.110  38.425  40.036  1.00  0.00     0.031 C 
ATOM     42  C   UNL A   1      41.409  37.353  41.490  1.00  0.00     0.034 A 
BRANCH  29  43
ATOM     43  C   UNL A   1      37.036  32.910  41.696  1.00  0.00     0.023 A 
ATOM     44  C   UNL A   1      35.694  33.333  41.751  1.00  0.00     0.031 A 
ATOM     45  C   UNL A   1      37.412  31.813  42.493  1.00  0.00     0.131 A 
ATOM     46  C   UNL A   1      34.808  32.733  42.661  1.00  0.00     0.055 A 
ATOM     47  C   UNL A   1      36.502  31.163  43.329  1.00  0.00     0.041 A 
ATOM     48  F   UNL A   1      38.683  31.383  42.508  1.00  0.00    -0.206 F 
ATOM     49  C   UNL A   1      35.197  31.636  43.433  1.00  0.00     0.022 A 
BRANCH  46  50
ATOM     50  S   UNL A   1      33.201  33.525  42.962  1.00  0.00     0.124 S 
ATOM     51  O   UNL A   1      32.626  32.647  43.979  1.00  0.00    -0.237 OA
ATOM     52  O   UNL A   1      33.584  34.857  43.412  1.00  0.00    -0.237 OA
ATOM     53  O   UNL A   1      32.542  33.471  41.659  1.00  0.00    -0.744 OA
ENDBRANCH  46  50
ENDBRANCH  29  43
BRANCH  30  54
ATOM     54  C   UNL A   1      43.957  37.590  35.963  1.00  0.00     0.023 A 
ATOM     55  C   UNL A   1      43.622  38.648  35.103  1.00  0.00     0.031 A 
ATOM     56  C   UNL A   1      45.297  37.157  35.972  1.00  0.00     0.131 A 
ATOM     57  C   UNL A   1      44.601  39.208  34.262  1.00  0.00     0.055 A 
ATOM     58  C   UNL A   1      46.277  37.755  35.179  1.00  0.00     0.041 A 
ATOM     59  F   UNL A   1      45.679  36.140  36.762  1.00  0.00    -0.206 F 
ATOM     60  C   UNL A   1      45.928  38.779  34.306  1.00  0.00     0.022 A 
BRANCH  57  61
ATOM     61  S   UNL A   1      44.095  40.446  33.035  1.00  0.00     0.124 S 
ATOM     62  O   UNL A   1      44.680  39.910  31.812  1.00  0.00    -0.237 OA
ATOM     63  O   UNL A   1      42.640  40.390  33.130  1.00  0.00    -0.237 OA
ATOM     64  O   UNL A   1      44.702  41.682  33.527  1.00  0.00    -0.744 OA
ENDBRANCH  57  61
ENDBRANCH  30  54
BRANCH  42  65
ATOM     65  C   UNL A   1      41.894  38.249  42.600  1.00  0.00     0.023 A 
ATOM     66  C   UNL A   1      42.911  37.843  43.479  1.00  0.00     0.031 A 
ATOM     67  C   UNL A   1      41.318  39.517  42.784  1.00  0.00     0.131 A 
ATOM     68  C   UNL A   1      43.281  38.675  44.544  1.00  0.00     0.055 A 
ATOM     69  C   UNL A   1      41.736  40.368  43.807  1.00  0.00     0.041 A 
ATOM     70  F   UNL A   1      40.343  39.949  41.969  1.00  0.00    -0.206 F 
ATOM     71  C   UNL A   1      42.712  39.942  44.702  1.00  0.00     0.022 A 
BRANCH  68  72
ATOM     72  S   UNL A   1      44.447  38.039  45.778  1.00  0.00     0.124 S 
ATOM     73  O   UNL A   1      45.189  37.044  45.009  1.00  0.00    -0.237 OA
ATOM     74  O   UNL A   1      45.189  39.238  46.154  1.00  0.00    -0.237 OA
ATOM     75  O   UNL A   1      43.579  37.495  46.820  1.00  0.00    -0.744 OA
ENDBRANCH  68  72
ENDBRANCH  42  65
ENDBRANCH  16  17
ENDBRANCH   9  11
ENDBRANCH   8   9
ENDBRANCH   7   8
ENDBRANCH   6   7
ENDBRANCH   5   6
ENDBRANCH   4   5
ENDBRANCH   3   4
ENDBRANCH   2   3
ENDBRANCH   1   2
BRANCH   1  76
ATOM     76  C   UNL A   1      34.892  32.695  28.843  1.00  0.00     0.188 C 
BRANCH  76  77
ATOM     77  O   UNL A   1      34.275  31.419  28.732  1.00  0.00    -0.376 OA
BRANCH  77  78
ATOM     78  C   UNL A   1      33.975  30.996  27.406  1.00  0.00     0.202 C 
BRANCH  78  79
ATOM     79  C   UNL A   1      32.638  30.260  27.245  1.00  0.00     0.261 C 
BRANCH  79  80
ATOM     80  O   UNL A   1      32.739  28.943  26.676  1.00  0.00    -0.459 OA
BRANCH  80  81
ATOM     81  C   UNL A   1      31.775  28.035  26.979  1.00  0.00     0.357 C 
ATOM     82  O   UNL A   1      31.142  27.953  28.004  1.00  0.00    -0.244 OA
BRANCH  81  83
ATOM     83  C   UNL A   1      31.586  27.224  25.739  1.00  0.00     0.149 A 
ATOM     84  C   UNL A   1      31.431  25.849  25.857  1.00  0.00     0.051 A 
ATOM     85  N   UNL A   1      31.769  27.869  24.557  1.00  0.00    -0.249 NA
ATOM     86  C   UNL A   1      31.490  25.075  24.701  1.00  0.00     0.012 A 
ATOM     87  C   UNL A   1      31.842  27.095  23.457  1.00  0.00     0.113 A 
ATOM     88  C   UNL A   1      31.717  25.715  23.480  1.00  0.00     0.035 A 
BRANCH  86  89
ATOM     89  S   UNL A   1      31.292  23.299  24.653  1.00  0.00    -0.120 SA
BRANCH  89  90
ATOM     90  C   UNL A   1      32.623  22.677  25.730  1.00  0.00     0.132 C 
BRANCH  90  91
ATOM     91  C   UNL A   1      33.998  22.657  25.128  1.00  0.00     0.062 A 
ATOM     92  C   UNL A   1      34.264  22.664  23.771  1.00  0.00     0.091 A 
ATOM     93  N   UNL A   1      35.136  22.666  25.926  1.00  0.00    -0.240 NA
ATOM     94  S   UNL A   1      35.942  22.850  23.495  1.00  0.00    -0.122 S 
ATOM     95  C   UNL A   1      36.220  22.800  25.190  1.00  0.00     0.124 A 
BRANCH  95  96
ATOM     96  C   UNL A   1      37.580  22.925  25.813  1.00  0.00     0.021 A 
ATOM     97  C   UNL A   1      38.548  21.876  25.845  1.00  0.00     0.023 A 
ATOM     98  C   UNL A   1      38.042  24.063  26.439  1.00  0.00     0.076 A 
ATOM     99  C   UNL A   1      39.718  22.265  26.458  1.00  0.00     0.065 A 
ATOM    100  S   UNL A   1      39.628  23.865  27.056  1.00  0.00    -0.152 S 
ENDBRANCH  95  96
ENDBRANCH  90  91
ENDBRANCH  89  90
ENDBRANCH  86  89
ENDBRANCH  81  83
ENDBRANCH  80  81
ENDBRANCH  79  80
ENDBRANCH  78  79
ENDBRANCH  77  78
ENDBRANCH  76  77
ENDBRANCH   1  76
TORSDOF 27
ENDMDL
MODEL 2
REMARK VINA RESULT:      -8.0      1.969      2.545
REMARK SMILES O=C(OCCOCCOCCOCCOC(=O)c1cc(SCc2csc(-c3ccsc3)n2)ccn1)c1ccc(-c2c3nc(c(-c4cc(S(=O)(=O)[O-])ccc4F)c4ccc([nH]4)c(-c4cc(S(=O)(=O)[O-])ccc4F)c4nc(c(-c5cc(S(=O)(=O)[O-])ccc5F)c5ccc2[nH]5)C=C4)C=C3)cc1
REMARK SMILES IDX 10 1 9 2 8 3 7 4 6 5 5 6 4 7 3 8 2 9 1 10 36 11 37 12 98 13
REMARK SMILES IDX 38 14 97 15 39 16 40 17 41 18 91 19 42 20 96 21 90 22 92 23
REMARK SMILES IDX 43 24 95 25 89 26 88 27 44 29 76 30 56 31 75 32 57 33 60 34
REMARK SMILES IDX 74 35 93 36 58 37 59 38 73 40 94 41 61 42 45 43 46 44 54 45
REMARK SMILES IDX 47 46 53 47 55 48 52 49 48 50 49 51 50 52 51 53 77 54 78 55
REMARK SMILES IDX 86 56 79 57 85 58 87 59 84 60 80 61 81 62 82 63 83 64 62 65
REMARK SMILES IDX 63 66 71 67 64 68 70 69 72 70 69 71 65 72 66 73 67 74 68 75
REMARK SMILES IDX 11 76 12 77 13 78 14 79 15 80 16 81 17 82 18 83 19 84 35 85
REMARK SMILES IDX 20 86 34 87 33 88 21 89 22 90 23 91 24 92 32 93 25 94 26 95
REMARK SMILES IDX 27 96 28 97 31 98 29 99 30 100
REMARK H PARENT 92 28 60 39
REMARK Flexibility Score: inf
ROOT
ATOM      1  C   UNL A   1      37.320  32.343  28.862  1.00  0.00     0.188 C 
ENDROOT
BRANCH   1   2
ATOM      2  O   UNL A   1      37.867  31.110  29.323  1.00  0.00    -0.377 OA
BRANCH   2   3
ATOM      3  C   UNL A   1      38.473  30.270  28.342  1.00  0.00     0.188 C 
BRANCH   3   4
ATOM      4  C   UNL A   1      39.448  29.230  28.892  1.00  0.00     0.188 C 
BRANCH   4   5
ATOM      5  O   UNL A   1      39.221  29.017  30.288  1.00  0.00    -0.376 OA
BRANCH   5   6
ATOM      6  C   UNL A   1      38.366  27.920  30.610  1.00  0.00     0.202 C 
BRANCH   6   7
ATOM      7  C   UNL A   1      38.533  27.391  32.037  1.00  0.00     0.261 C 
BRANCH   7   8
ATOM      8  O   UNL A   1      37.702  28.097  32.970  1.00  0.00    -0.460 OA
BRANCH   8   9
ATOM      9  C   UNL A   1      37.324  29.401  32.917  1.00  0.00     0.338 C 
ATOM     10  O   UNL A   1      36.384  29.701  32.181  1.00  0.00    -0.246 OA
BRANCH   9  11
ATOM     11  C   UNL A   1      37.969  30.497  33.710  1.00  0.00     0.060 A 
ATOM     12  C   UNL A   1      39.281  30.492  34.185  1.00  0.00     0.016 A 
ATOM     13  C   UNL A   1      37.191  31.642  33.958  1.00  0.00     0.016 A 
ATOM     14  C   UNL A   1      39.776  31.519  34.974  1.00  0.00     0.010 A 
ATOM     15  C   UNL A   1      37.692  32.704  34.719  1.00  0.00     0.010 A 
ATOM     16  C   UNL A   1      38.975  32.617  35.270  1.00  0.00    -0.014 A 
BRANCH  16  17
ATOM     17  C   UNL A   1      39.443  33.529  36.331  1.00  0.00     0.031 A 
ATOM     18  C   UNL A   1      38.879  33.332  37.708  1.00  0.00     0.074 A 
ATOM     19  C   UNL A   1      40.469  34.366  36.099  1.00  0.00     0.049 A 
ATOM     20  N   UNL A   1      39.106  33.999  38.806  1.00  0.00    -0.248 NA
ATOM     21  C   UNL A   1      37.934  32.213  37.866  1.00  0.00     0.031 C 
ATOM     22  C   UNL A   1      41.180  34.490  34.824  1.00  0.00     0.029 A 
ATOM     23  N   UNL A   1      41.123  35.233  36.931  1.00  0.00    -0.354 N 
ATOM     24  C   UNL A   1      38.313  33.398  39.779  1.00  0.00     0.074 A 
ATOM     25  C   UNL A   1      37.587  32.326  39.137  1.00  0.00     0.031 C 
ATOM     26  C   UNL A   1      42.192  35.360  34.970  1.00  0.00     0.029 A 
ATOM     27  C   UNL A   1      42.153  35.911  36.320  1.00  0.00     0.049 A 
ATOM     28  H   UNL A   1      40.880  35.360  37.876  1.00  0.00     0.167 HD
ATOM     29  C   UNL A   1      38.204  33.724  41.089  1.00  0.00     0.034 A 
ATOM     30  C   UNL A   1      42.943  36.891  36.801  1.00  0.00     0.034 A 
ATOM     31  C   UNL A   1      38.940  34.814  41.679  1.00  0.00     0.049 A 
ATOM     32  C   UNL A   1      42.710  37.329  38.227  1.00  0.00     0.074 A 
ATOM     33  C   UNL A   1      38.859  35.330  42.957  1.00  0.00     0.029 A 
ATOM     34  N   UNL A   1      39.903  35.563  41.005  1.00  0.00    -0.354 N 
ATOM     35  N   UNL A   1      41.879  36.833  39.120  1.00  0.00    -0.248 NA
ATOM     36  C   UNL A   1      43.506  38.462  38.709  1.00  0.00     0.031 C 
ATOM     37  C   UNL A   1      39.725  36.428  43.036  1.00  0.00     0.029 A 
ATOM     38  C   UNL A   1      40.404  36.551  41.832  1.00  0.00     0.049 A 
ATOM     39  H   UNL A   1      40.184  35.409  40.074  1.00  0.00     0.167 HD
ATOM     40  C   UNL A   1      42.067  37.584  40.275  1.00  0.00     0.074 A 
ATOM     41  C   UNL A   1      43.108  38.547  39.971  1.00  0.00     0.031 C 
ATOM     42  C   UNL A   1      41.440  37.497  41.478  1.00  0.00     0.034 A 
BRANCH  29  43
ATOM     43  C   UNL A   1      37.175  32.964  41.892  1.00  0.00     0.023 A 
ATOM     44  C   UNL A   1      35.812  33.321  41.889  1.00  0.00     0.031 A 
ATOM     45  C   UNL A   1      37.586  31.952  42.778  1.00  0.00     0.131 A 
ATOM     46  C   UNL A   1      34.937  32.747  42.826  1.00  0.00     0.055 A 
ATOM     47  C   UNL A   1      36.691  31.322  43.645  1.00  0.00     0.041 A 
ATOM     48  F   UNL A   1      38.876  31.591  42.851  1.00  0.00    -0.206 F 
ATOM     49  C   UNL A   1      35.362  31.733  43.688  1.00  0.00     0.022 A 
BRANCH  46  50
ATOM     50  S   UNL A   1      33.286  33.476  43.034  1.00  0.00     0.124 S 
ATOM     51  O   UNL A   1      32.710  33.287  41.703  1.00  0.00    -0.237 OA
ATOM     52  O   UNL A   1      32.712  32.662  44.098  1.00  0.00    -0.237 OA
ATOM     53  O   UNL A   1      33.565  34.865  43.392  1.00  0.00    -0.744 OA
ENDBRANCH  46  50
ENDBRANCH  29  43
BRANCH  30  54
ATOM     54  C   UNL A   1      43.953  37.566  35.931  1.00  0.00     0.023 A 
ATOM     55  C   UNL A   1      43.659  38.760  35.252  1.00  0.00     0.031 A 
ATOM     56  C   UNL A   1      45.222  36.992  35.720  1.00  0.00     0.131 A 
ATOM     57  C   UNL A   1      44.602  39.318  34.369  1.00  0.00     0.055 A 
ATOM     58  C   UNL A   1      46.175  37.580  34.888  1.00  0.00     0.041 A 
ATOM     59  F   UNL A   1      45.559  35.843  36.328  1.00  0.00    -0.206 F 
ATOM     60  C   UNL A   1      45.862  38.743  34.195  1.00  0.00     0.022 A 
BRANCH  57  61
ATOM     61  S   UNL A   1      44.122  40.756  33.372  1.00  0.00     0.124 S 
ATOM     62  O   UNL A   1      45.087  40.698  32.281  1.00  0.00    -0.237 OA
ATOM     63  O   UNL A   1      42.741  40.438  33.026  1.00  0.00    -0.237 OA
ATOM     64  O   UNL A   1      44.289  41.880  34.293  1.00  0.00    -0.744 OA
ENDBRANCH  57  61
ENDBRANCH  30  54
BRANCH  42  65
ATOM     65  C   UNL A   1      41.909  38.448  42.548  1.00  0.00     0.023 A 
ATOM     66  C   UNL A   1      41.330  39.717  42.707  1.00  0.00     0.031 A 
ATOM     67  C   UNL A   1      42.958  38.079  43.407  1.00  0.00     0.131 A 
ATOM     68  C   UNL A   1      41.846  40.600  43.665  1.00  0.00     0.055 A 
ATOM     69  C   UNL A   1      43.424  38.939  44.402  1.00  0.00     0.041 A 
ATOM     70  F   UNL A   1      43.543  36.876  43.294  1.00  0.00    -0.206 F 
ATOM     71  C   UNL A   1      42.877  40.212  44.525  1.00  0.00     0.022 A 
BRANCH  68  72
ATOM     72  S   UNL A   1      41.215  42.299  43.707  1.00  0.00     0.124 S 
ATOM     73  O   UNL A   1      40.343  42.270  44.878  1.00  0.00    -0.237 OA
ATOM     74  O   UNL A   1      42.438  43.084  43.842  1.00  0.00    -0.237 OA
ATOM     75  O   UNL A   1      40.527  42.441  42.426  1.00  0.00    -0.744 OA
ENDBRANCH  68  72
ENDBRANCH  42  65
ENDBRANCH  16  17
ENDBRANCH   9  11
ENDBRANCH   8   9
ENDBRANCH   7   8
ENDBRANCH   6   7
ENDBRANCH   5   6
ENDBRANCH   4   5
ENDBRANCH   3   4
ENDBRANCH   2   3
ENDBRANCH   1   2
BRANCH   1  76
ATOM     76  C   UNL A   1      35.791  32.545  28.946  1.00  0.00     0.188 C 
BRANCH  76  77
ATOM     77  O   UNL A   1      35.040  31.345  28.814  1.00  0.00    -0.376 OA
BRANCH  77  78
ATOM     78  C   UNL A   1      34.543  31.073  27.508  1.00  0.00     0.202 C 
BRANCH  78  79
ATOM     79  C   UNL A   1      33.016  31.122  27.369  1.00  0.00     0.261 C 
BRANCH  79  80
ATOM     80  O   UNL A   1      32.385  29.843  27.187  1.00  0.00    -0.459 OA
BRANCH  80  81
ATOM     81  C   UNL A   1      31.843  29.560  25.974  1.00  0.00     0.357 C 
ATOM     82  O   UNL A   1      31.154  30.281  25.292  1.00  0.00    -0.244 OA
BRANCH  81  83
ATOM     83  C   UNL A   1      32.363  28.209  25.609  1.00  0.00     0.149 A 
ATOM     84  C   UNL A   1      31.507  27.304  24.996  1.00  0.00     0.051 A 
ATOM     85  N   UNL A   1      33.598  27.887  26.076  1.00  0.00    -0.249 NA
ATOM     86  C   UNL A   1      31.919  25.981  24.871  1.00  0.00     0.012 A 
ATOM     87  C   UNL A   1      33.966  26.596  25.960  1.00  0.00     0.113 A 
ATOM     88  C   UNL A   1      33.170  25.621  25.381  1.00  0.00     0.035 A 
BRANCH  86  89
ATOM     89  S   UNL A   1      30.964  24.684  24.095  1.00  0.00    -0.120 SA
BRANCH  89  90
ATOM     90  C   UNL A   1      31.172  23.257  25.208  1.00  0.00     0.132 C 
BRANCH  90  91
ATOM     91  C   UNL A   1      32.290  22.316  24.867  1.00  0.00     0.062 A 
ATOM     92  C   UNL A   1      33.550  22.708  24.451  1.00  0.00     0.091 A 
ATOM     93  N   UNL A   1      32.138  20.940  24.985  1.00  0.00    -0.240 NA
ATOM     94  S   UNL A   1      34.595  21.356  24.368  1.00  0.00    -0.122 S 
ATOM     95  C   UNL A   1      33.285  20.325  24.782  1.00  0.00     0.124 A 
BRANCH  95  96
ATOM     96  C   UNL A   1      33.414  18.837  24.936  1.00  0.00     0.021 A 
ATOM     97  C   UNL A   1      32.565  18.039  25.760  1.00  0.00     0.023 A 
ATOM     98  C   UNL A   1      34.378  18.076  24.309  1.00  0.00     0.076 A 
ATOM     99  C   UNL A   1      32.890  16.701  25.703  1.00  0.00     0.065 A 
ATOM    100  S   UNL A   1      34.257  16.416  24.713  1.00  0.00    -0.152 S 
ENDBRANCH  95  96
ENDBRANCH  90  91
ENDBRANCH  89  90
ENDBRANCH  86  89
ENDBRANCH  81  83
ENDBRANCH  80  81
ENDBRANCH  79  80
ENDBRANCH  78  79
ENDBRANCH  77  78
ENDBRANCH  76  77
ENDBRANCH   1  76
TORSDOF 27
ENDMDL
MODEL 3
REMARK VINA RESULT:      -7.7      8.666     15.900
REMARK SMILES O=C(OCCOCCOCCOCCOC(=O)c1cc(SCc2csc(-c3ccsc3)n2)ccn1)c1ccc(-c2c3nc(c(-c4cc(S(=O)(=O)[O-])ccc4F)c4ccc([nH]4)c(-c4cc(S(=O)(=O)[O-])ccc4F)c4nc(c(-c5cc(S(=O)(=O)[O-])ccc5F)c5ccc2[nH]5)C=C4)C=C3)cc1
REMARK SMILES IDX 10 1 9 2 8 3 7 4 6 5 5 6 4 7 3 8 2 9 1 10 36 11 37 12 98 13
REMARK SMILES IDX 38 14 97 15 39 16 40 17 41 18 91 19 42 20 96 21 90 22 92 23
REMARK SMILES IDX 43 24 95 25 89 26 88 27 44 29 76 30 56 31 75 32 57 33 60 34
REMARK SMILES IDX 74 35 93 36 58 37 59 38 73 40 94 41 61 42 45 43 46 44 54 45
REMARK SMILES IDX 47 46 53 47 55 48 52 49 48 50 49 51 50 52 51 53 77 54 78 55
REMARK SMILES IDX 86 56 79 57 85 58 87 59 84 60 80 61 81 62 82 63 83 64 62 65
REMARK SMILES IDX 63 66 71 67 64 68 70 69 72 70 69 71 65 72 66 73 67 74 68 75
REMARK SMILES IDX 11 76 12 77 13 78 14 79 15 80 16 81 17 82 18 83 19 84 35 85
REMARK SMILES IDX 20 86 34 87 33 88 21 89 22 90 23 91 24 92 32 93 25 94 26 95
REMARK SMILES IDX 27 96 28 97 31 98 29 99 30 100
REMARK H PARENT 92 28 60 39
REMARK Flexibility Score: inf
ROOT
ATOM      1  C   UNL A   1      44.157  34.004  28.763  1.00  0.00     0.188 C 
ENDROOT
BRANCH   1   2
ATOM      2  O   UNL A   1      44.756  34.998  29.591  1.00  0.00    -0.377 OA
BRANCH   2   3
ATOM      3  C   UNL A   1      43.994  35.443  30.714  1.00  0.00     0.188 C 
BRANCH   3   4
ATOM      4  C   UNL A   1      44.818  35.975  31.886  1.00  0.00     0.188 C 
BRANCH   4   5
ATOM      5  O   UNL A   1      45.563  34.919  32.497  1.00  0.00    -0.376 OA
BRANCH   5   6
ATOM      6  C   UNL A   1      46.899  34.754  32.019  1.00  0.00     0.202 C 
BRANCH   6   7
ATOM      7  C   UNL A   1      47.977  34.929  33.092  1.00  0.00     0.261 C 
BRANCH   7   8
ATOM      8  O   UNL A   1      49.243  35.294  32.523  1.00  0.00    -0.460 OA
BRANCH   8   9
ATOM      9  C   UNL A   1      50.172  34.468  31.976  1.00  0.00     0.338 C 
ATOM     10  O   UNL A   1      51.361  34.724  32.169  1.00  0.00    -0.246 OA
BRANCH   9  11
ATOM     11  C   UNL A   1      49.842  33.251  31.166  1.00  0.00     0.060 A 
ATOM     12  C   UNL A   1      49.193  33.249  29.930  1.00  0.00     0.016 A 
ATOM     13  C   UNL A   1      50.262  32.012  31.682  1.00  0.00     0.016 A 
ATOM     14  C   UNL A   1      48.862  32.070  29.281  1.00  0.00     0.010 A 
ATOM     15  C   UNL A   1      49.970  30.816  31.016  1.00  0.00     0.010 A 
ATOM     16  C   UNL A   1      49.223  30.846  29.833  1.00  0.00    -0.014 A 
BRANCH  16  17
ATOM     17  C   UNL A   1      48.607  29.636  29.257  1.00  0.00     0.031 A 
ATOM     18  C   UNL A   1      47.472  29.012  30.015  1.00  0.00     0.074 A 
ATOM     19  C   UNL A   1      48.934  29.236  28.016  1.00  0.00     0.049 A 
ATOM     20  N   UNL A   1      46.772  27.946  29.742  1.00  0.00    -0.248 NA
ATOM     21  C   UNL A   1      47.061  29.703  31.250  1.00  0.00     0.031 C 
ATOM     22  C   UNL A   1      49.914  29.899  27.151  1.00  0.00     0.029 A 
ATOM     23  N   UNL A   1      48.450  28.213  27.248  1.00  0.00    -0.354 N 
ATOM     24  C   UNL A   1      45.857  27.821  30.783  1.00  0.00     0.074 A 
ATOM     25  C   UNL A   1      46.104  28.911  31.701  1.00  0.00     0.031 C 
ATOM     26  C   UNL A   1      49.934  29.281  25.959  1.00  0.00     0.029 A 
ATOM     27  C   UNL A   1      49.030  28.137  26.002  1.00  0.00     0.049 A 
ATOM     28  H   UNL A   1      47.753  27.590  27.556  1.00  0.00     0.167 HD
ATOM     29  C   UNL A   1      44.903  26.875  30.952  1.00  0.00     0.034 A 
ATOM     30  C   UNL A   1      48.865  27.218  25.031  1.00  0.00     0.034 A 
ATOM     31  C   UNL A   1      44.708  25.798  30.014  1.00  0.00     0.049 A 
ATOM     32  C   UNL A   1      47.892  26.095  25.299  1.00  0.00     0.074 A 
ATOM     33  C   UNL A   1      43.860  24.712  30.098  1.00  0.00     0.029 A 
ATOM     34  N   UNL A   1      45.391  25.681  28.805  1.00  0.00    -0.354 N 
ATOM     35  N   UNL A   1      47.103  25.915  26.338  1.00  0.00    -0.248 NA
ATOM     36  C   UNL A   1      47.794  25.048  24.279  1.00  0.00     0.031 C 
ATOM     37  C   UNL A   1      44.076  23.907  28.972  1.00  0.00     0.029 A 
ATOM     38  C   UNL A   1      45.002  24.528  28.146  1.00  0.00     0.049 A 
ATOM     39  H   UNL A   1      46.054  26.326  28.468  1.00  0.00     0.167 HD
ATOM     40  C   UNL A   1      46.402  24.741  26.085  1.00  0.00     0.074 A 
ATOM     41  C   UNL A   1      46.844  24.274  24.785  1.00  0.00     0.031 C 
ATOM     42  C   UNL A   1      45.480  24.099  26.851  1.00  0.00     0.034 A 
BRANCH  29  43
ATOM     43  C   UNL A   1      44.121  26.925  32.243  1.00  0.00     0.023 A 
ATOM     44  C   UNL A   1      44.430  26.093  33.337  1.00  0.00     0.031 A 
ATOM     45  C   UNL A   1      42.965  27.721  32.331  1.00  0.00     0.131 A 
ATOM     46  C   UNL A   1      43.539  26.000  34.419  1.00  0.00     0.055 A 
ATOM     47  C   UNL A   1      42.131  27.690  33.450  1.00  0.00     0.041 A 
ATOM     48  F   UNL A   1      42.600  28.510  31.308  1.00  0.00    -0.206 F 
ATOM     49  C   UNL A   1      42.403  26.810  34.493  1.00  0.00     0.022 A 
BRANCH  46  50
ATOM     50  S   UNL A   1      43.781  24.672  35.634  1.00  0.00     0.124 S 
ATOM     51  O   UNL A   1      42.474  24.017  35.619  1.00  0.00    -0.237 OA
ATOM     52  O   UNL A   1      44.882  23.911  35.057  1.00  0.00    -0.237 OA
ATOM     53  O   UNL A   1      44.096  25.387  36.869  1.00  0.00    -0.744 OA
ENDBRANCH  46  50
ENDBRANCH  29  43
BRANCH  30  54
ATOM     54  C   UNL A   1      49.672  27.269  23.774  1.00  0.00     0.023 A 
ATOM     55  C   UNL A   1      51.038  26.945  23.762  1.00  0.00     0.031 A 
ATOM     56  C   UNL A   1      49.095  27.702  22.564  1.00  0.00     0.131 A 
ATOM     57  C   UNL A   1      51.787  27.093  22.580  1.00  0.00     0.055 A 
ATOM     58  C   UNL A   1      49.829  27.792  21.380  1.00  0.00     0.041 A 
ATOM     59  F   UNL A   1      47.797  28.041  22.512  1.00  0.00    -0.206 F 
ATOM     60  C   UNL A   1      51.187  27.500  21.387  1.00  0.00     0.022 A 
BRANCH  57  61
ATOM     61  S   UNL A   1      53.583  26.840  22.645  1.00  0.00     0.124 S 
ATOM     62  O   UNL A   1      53.860  26.325  21.310  1.00  0.00    -0.237 OA
ATOM     63  O   UNL A   1      54.069  28.186  22.929  1.00  0.00    -0.237 OA
ATOM     64  O   UNL A   1      53.752  25.877  23.732  1.00  0.00    -0.744 OA
ENDBRANCH  57  61
ENDBRANCH  30  54
BRANCH  42  65
ATOM     65  C   UNL A   1      44.874  22.852  26.263  1.00  0.00     0.023 A 
ATOM     66  C   UNL A   1      45.659  21.729  25.956  1.00  0.00     0.031 A 
ATOM     67  C   UNL A   1      43.496  22.797  25.997  1.00  0.00     0.131 A 
ATOM     68  C   UNL A   1      45.069  20.616  25.342  1.00  0.00     0.055 A 
ATOM     69  C   UNL A   1      42.903  21.662  25.445  1.00  0.00     0.041 A 
ATOM     70  F   UNL A   1      42.704  23.845  26.274  1.00  0.00    -0.206 F 
ATOM     71  C   UNL A   1      43.693  20.569  25.101  1.00  0.00     0.022 A 
BRANCH  68  72
ATOM     72  S   UNL A   1      46.140  19.269  24.772  1.00  0.00     0.124 S 
ATOM     73  O   UNL A   1      46.290  18.468  25.983  1.00  0.00    -0.237 OA
ATOM     74  O   UNL A   1      45.347  18.669  23.704  1.00  0.00    -0.237 OA
ATOM     75  O   UNL A   1      47.352  19.958  24.332  1.00  0.00    -0.744 OA
ENDBRANCH  68  72
ENDBRANCH  42  65
ENDBRANCH  16  17
ENDBRANCH   9  11
ENDBRANCH   8   9
ENDBRANCH   7   8
ENDBRANCH   6   7
ENDBRANCH   5   6
ENDBRANCH   4   5
ENDBRANCH   3   4
ENDBRANCH   2   3
ENDBRANCH   1   2
BRANCH   1  76
ATOM     76  C   UNL A   1      44.645  32.545  28.897  1.00  0.00     0.188 C 
BRANCH  76  77
ATOM     77  O   UNL A   1      43.783  31.588  28.294  1.00  0.00    -0.376 OA
BRANCH  77  78
ATOM     78  C   UNL A   1      44.387  30.345  27.955  1.00  0.00     0.202 C 
BRANCH  78  79
ATOM     79  C   UNL A   1      43.982  29.776  26.589  1.00  0.00     0.261 C 
BRANCH  79  80
ATOM     80  O   UNL A   1      42.565  29.707  26.359  1.00  0.00    -0.459 OA
BRANCH  80  81
ATOM     81  C   UNL A   1      42.073  28.640  25.676  1.00  0.00     0.357 C 
ATOM     82  O   UNL A   1      42.475  28.193  24.628  1.00  0.00    -0.244 OA
BRANCH  81  83
ATOM     83  C   UNL A   1      41.001  28.069  26.544  1.00  0.00     0.149 A 
ATOM     84  C   UNL A   1      40.190  28.936  27.265  1.00  0.00     0.051 A 
ATOM     85  N   UNL A   1      41.013  26.721  26.717  1.00  0.00    -0.249 NA
ATOM     86  C   UNL A   1      39.356  28.404  28.243  1.00  0.00     0.012 A 
ATOM     87  C   UNL A   1      40.210  26.233  27.684  1.00  0.00     0.113 A 
ATOM     88  C   UNL A   1      39.383  27.024  28.464  1.00  0.00     0.035 A 
BRANCH  86  89
ATOM     89  S   UNL A   1      38.231  29.358  29.253  1.00  0.00    -0.120 SA
BRANCH  89  90
ATOM     90  C   UNL A   1      38.657  28.880  30.959  1.00  0.00     0.132 C 
BRANCH  90  91
ATOM     91  C   UNL A   1      38.148  29.786  32.041  1.00  0.00     0.062 A 
ATOM     92  C   UNL A   1      38.537  29.725  33.367  1.00  0.00     0.091 A 
ATOM     93  N   UNL A   1      37.245  30.806  31.764  1.00  0.00    -0.240 NA
ATOM     94  S   UNL A   1      37.897  31.052  34.236  1.00  0.00    -0.122 S 
ATOM     95  C   UNL A   1      37.058  31.563  32.826  1.00  0.00     0.124 A 
BRANCH  95  96
ATOM     96  C   UNL A   1      36.194  32.790  32.772  1.00  0.00     0.021 A 
ATOM     97  C   UNL A   1      36.441  33.980  33.520  1.00  0.00     0.023 A 
ATOM     98  C   UNL A   1      35.054  32.899  32.003  1.00  0.00     0.076 A 
ATOM     99  C   UNL A   1      35.506  34.959  33.268  1.00  0.00     0.065 A 
ATOM    100  S   UNL A   1      34.294  34.424  32.185  1.00  0.00    -0.152 S 
ENDBRANCH  95  96
ENDBRANCH  90  91
ENDBRANCH  89  90
ENDBRANCH  86  89
ENDBRANCH  81  83
ENDBRANCH  80  81
ENDBRANCH  79  80
ENDBRANCH  78  79
ENDBRANCH  77  78
ENDBRANCH  76  77
ENDBRANCH   1  76
TORSDOF 27
ENDMDL
