MODEL 1
REMARK VINA RESULT:      -9.4      0.000      0.000
REMARK SMILES COc1ccc2[nH]c(C(=O)c3cc(C)ccn3)c(CC(=O)OCCOCCOCCOCCOC(=O)c3ccc(-c4c5nc(c(-c6cc(S(=O)(=O)[O-])ccc6F)c6ccc([nH]6)c(-c6cc(S(=O)(=O)[O-])ccc6F)c6nc(c(-c7cc(S(=O)(=O)[O-])ccc7F)c7ccc4[nH]7)C=C6)C=C5)cc3)c2c1
REMARK SMILES IDX 28 1 27 2 26 3 25 4 24 5 23 6 22 7 20 8 21 9 19 10 18 11
REMARK SMILES IDX 3 12 4 13 101 14 5 15 100 16 6 17 7 18 8 19 2 21 1 22 9 23
REMARK SMILES IDX 10 24 11 25 12 26 17 27 13 28 16 29 14 30 15 31 29 32 30 33
REMARK SMILES IDX 31 34 32 35 33 36 34 37 35 38 36 39 37 40 38 41 99 42 39 43
REMARK SMILES IDX 98 44 40 45 41 46 42 47 92 48 43 49 97 50 91 51 93 52 44 53
REMARK SMILES IDX 96 54 90 55 89 56 45 58 77 59 57 60 76 61 58 62 61 63 75 64
REMARK SMILES IDX 94 65 59 66 60 67 74 69 95 70 62 71 46 72 47 73 55 74 48 75
REMARK SMILES IDX 54 76 56 77 53 78 49 79 50 80 51 81 52 82 78 83 79 84 87 85
REMARK SMILES IDX 80 86 86 87 88 88 85 89 81 90 82 91 83 92 84 93 63 94 64 95
REMARK SMILES IDX 72 96 65 97 71 98 73 99 70 100 66 101 67 102 68 103 69 104
REMARK H PARENT 7 20 93 57 61 68
REMARK Flexibility Score: inf
ROOT
ATOM      1  O   UNL A   1      34.269  31.975  27.439  1.00  0.00    -0.377 OA
ENDROOT
BRANCH   1   2
ATOM      2  C   UNL A   1      33.352  30.912  27.290  1.00  0.00     0.188 C 
BRANCH   2   3
ATOM      3  C   UNL A   1      33.634  29.436  26.930  1.00  0.00     0.188 C 
BRANCH   3   4
ATOM      4  O   UNL A   1      32.635  28.610  26.374  1.00  0.00    -0.376 OA
BRANCH   4   5
ATOM      5  C   UNL A   1      32.233  27.392  26.960  1.00  0.00     0.202 C 
BRANCH   5   6
ATOM      6  C   UNL A   1      32.297  26.018  26.264  1.00  0.00     0.261 C 
BRANCH   6   7
ATOM      7  O   UNL A   1      31.628  24.912  26.901  1.00  0.00    -0.463 OA
BRANCH   7   8
ATOM      8  C   UNL A   1      30.446  24.503  26.388  1.00  0.00     0.310 C 
ATOM      9  O   UNL A   1      29.378  25.043  26.678  1.00  0.00    -0.252 OA
BRANCH   8  10
ATOM     10  C   UNL A   1      30.483  23.352  25.378  1.00  0.00     0.161 C 
BRANCH  10  11
ATOM     11  C   UNL A   1      31.461  23.297  24.210  1.00  0.00     0.000 A 
ATOM     12  C   UNL A   1      31.383  26.402  21.943  1.00  0.00     0.119 A 
ATOM     13  C   UNL A   1      32.376  25.971  21.066  1.00  0.00     0.048 A 
ATOM     14  C   UNL A   1      30.958  25.569  22.990  1.00  0.00     0.057 A 
ATOM     15  C   UNL A   1      32.979  24.717  21.223  1.00  0.00     0.030 A 
ATOM     16  C   UNL A   1      31.578  24.320  23.200  1.00  0.00     0.008 A 
ATOM     17  C   UNL A   1      32.578  23.936  22.314  1.00  0.00     0.046 A 
ATOM     18  N   UNL A   1      33.034  22.716  22.739  1.00  0.00    -0.352 N 
ATOM     19  C   UNL A   1      32.554  22.423  24.001  1.00  0.00     0.093 A 
ATOM     20  H   UNL A   1      33.623  22.127  22.215  1.00  0.00     0.167 HD
BRANCH  12  21
ATOM     21  O   UNL A   1      30.793  27.637  21.935  1.00  0.00    -0.497 OA
ATOM     22  C   UNL A   1      30.058  28.008  23.093  1.00  0.00     0.278 C 
ENDBRANCH  12  21
BRANCH  19  23
ATOM     23  C   UNL A   1      33.068  21.338  24.856  1.00  0.00     0.227 C 
ATOM     24  O   UNL A   1      33.616  21.569  25.933  1.00  0.00    -0.285 OA
BRANCH  23  25
ATOM     25  C   UNL A   1      32.881  19.883  24.479  1.00  0.00     0.113 A 
ATOM     26  C   UNL A   1      33.046  18.827  25.376  1.00  0.00     0.036 A 
ATOM     27  N   UNL A   1      32.516  19.681  23.184  1.00  0.00    -0.253 NA
ATOM     28  C   UNL A   1      32.869  17.510  24.913  1.00  0.00    -0.047 A 
ATOM     29  C   UNL A   1      32.347  18.408  22.767  1.00  0.00     0.112 A 
ATOM     30  C   UNL A   1      33.029  16.315  25.806  1.00  0.00     0.044 C 
ATOM     31  C   UNL A   1      32.544  17.304  23.572  1.00  0.00     0.023 A 
ENDBRANCH  23  25
ENDBRANCH  19  23
ENDBRANCH  10  11
ENDBRANCH   8  10
ENDBRANCH   7   8
ENDBRANCH   6   7
ENDBRANCH   5   6
ENDBRANCH   4   5
ENDBRANCH   3   4
ENDBRANCH   2   3
ENDBRANCH   1   2
BRANCH   1  32
ATOM     32  C   UNL A   1      34.216  32.745  28.609  1.00  0.00     0.188 C 
BRANCH  32  33
ATOM     33  C   UNL A   1      33.507  34.078  28.378  1.00  0.00     0.188 C 
BRANCH  33  34
ATOM     34  O   UNL A   1      32.715  34.481  29.482  1.00  0.00    -0.376 OA
BRANCH  34  35
ATOM     35  C   UNL A   1      33.249  35.446  30.383  1.00  0.00     0.202 C 
BRANCH  35  36
ATOM     36  C   UNL A   1      33.718  35.064  31.805  1.00  0.00     0.261 C 
BRANCH  36  37
ATOM     37  O   UNL A   1      33.998  33.685  32.046  1.00  0.00    -0.460 OA
BRANCH  37  38
ATOM     38  C   UNL A   1      34.846  33.401  33.048  1.00  0.00     0.338 C 
ATOM     39  O   UNL A   1      34.592  33.340  34.239  1.00  0.00    -0.246 OA
BRANCH  38  40
ATOM     40  C   UNL A   1      36.084  32.949  32.399  1.00  0.00     0.060 A 
ATOM     41  C   UNL A   1      36.920  32.091  33.118  1.00  0.00     0.016 A 
ATOM     42  C   UNL A   1      36.368  33.295  31.072  1.00  0.00     0.016 A 
ATOM     43  C   UNL A   1      38.054  31.574  32.515  1.00  0.00     0.010 A 
ATOM     44  C   UNL A   1      37.534  32.815  30.481  1.00  0.00     0.010 A 
ATOM     45  C   UNL A   1      38.390  31.978  31.217  1.00  0.00    -0.014 A 
BRANCH  45  46
ATOM     46  C   UNL A   1      39.773  31.733  30.772  1.00  0.00     0.031 A 
ATOM     47  C   UNL A   1      40.806  32.749  31.167  1.00  0.00     0.074 A 
ATOM     48  C   UNL A   1      40.099  30.590  30.148  1.00  0.00     0.049 A 
ATOM     49  N   UNL A   1      42.093  32.749  30.960  1.00  0.00    -0.248 NA
ATOM     50  C   UNL A   1      40.313  33.926  31.905  1.00  0.00     0.031 C 
ATOM     51  C   UNL A   1      39.160  29.526  29.794  1.00  0.00     0.029 A 
ATOM     52  N   UNL A   1      41.312  30.128  29.715  1.00  0.00    -0.354 N 
ATOM     53  C   UNL A   1      42.564  33.922  31.542  1.00  0.00     0.074 A 
ATOM     54  C   UNL A   1      41.422  34.626  32.075  1.00  0.00     0.031 C 
ATOM     55  C   UNL A   1      39.836  28.531  29.195  1.00  0.00     0.029 A 
ATOM     56  C   UNL A   1      41.244  28.906  29.090  1.00  0.00     0.049 A 
ATOM     57  H   UNL A   1      42.153  30.624  29.840  1.00  0.00     0.167 HD
ATOM     58  C   UNL A   1      43.842  34.359  31.624  1.00  0.00     0.034 A 
ATOM     59  C   UNL A   1      42.215  28.194  28.484  1.00  0.00     0.034 A 
ATOM     60  C   UNL A   1      44.953  33.633  31.063  1.00  0.00     0.049 A 
ATOM     61  C   UNL A   1      43.619  28.751  28.508  1.00  0.00     0.074 A 
ATOM     62  C   UNL A   1      46.293  33.966  31.073  1.00  0.00     0.029 A 
ATOM     63  N   UNL A   1      44.842  32.429  30.374  1.00  0.00    -0.354 N 
ATOM     64  N   UNL A   1      44.062  29.858  29.064  1.00  0.00    -0.248 NA
ATOM     65  C   UNL A   1      44.657  27.959  27.838  1.00  0.00     0.031 C 
ATOM     66  C   UNL A   1      46.980  33.012  30.316  1.00  0.00     0.029 A 
ATOM     67  C   UNL A   1      46.086  32.028  29.917  1.00  0.00     0.049 A 
ATOM     68  H   UNL A   1      44.003  31.935  30.233  1.00  0.00     0.167 HD
ATOM     69  C   UNL A   1      45.434  29.880  28.832  1.00  0.00     0.074 A 
ATOM     70  C   UNL A   1      45.745  28.664  28.107  1.00  0.00     0.031 C 
ATOM     71  C   UNL A   1      46.358  30.814  29.184  1.00  0.00     0.034 A 
BRANCH  58  72
ATOM     72  C   UNL A   1      44.077  35.703  32.268  1.00  0.00     0.023 A 
ATOM     73  C   UNL A   1      43.987  36.907  31.547  1.00  0.00     0.031 A 
ATOM     74  C   UNL A   1      44.443  35.775  33.624  1.00  0.00     0.131 A 
ATOM     75  C   UNL A   1      44.323  38.121  32.166  1.00  0.00     0.055 A 
ATOM     76  C   UNL A   1      44.696  36.994  34.256  1.00  0.00     0.041 A 
ATOM     77  F   UNL A   1      44.583  34.658  34.354  1.00  0.00    -0.206 F 
ATOM     78  C   UNL A   1      44.650  38.175  33.524  1.00  0.00     0.022 A 
BRANCH  75  79
ATOM     79  S   UNL A   1      44.475  39.610  31.140  1.00  0.00     0.124 S 
ATOM     80  O   UNL A   1      44.664  39.033  29.811  1.00  0.00    -0.237 OA
ATOM     81  O   UNL A   1      43.203  40.283  31.370  1.00  0.00    -0.237 OA
ATOM     82  O   UNL A   1      45.649  40.286  31.689  1.00  0.00    -0.744 OA
ENDBRANCH  75  79
ENDBRANCH  58  72
BRANCH  59  83
ATOM     83  C   UNL A   1      41.894  26.923  27.770  1.00  0.00     0.023 A 
ATOM     84  C   UNL A   1      42.169  25.671  28.340  1.00  0.00     0.031 A 
ATOM     85  C   UNL A   1      41.354  26.948  26.470  1.00  0.00     0.131 A 
ATOM     86  C   UNL A   1      41.950  24.500  27.596  1.00  0.00     0.055 A 
ATOM     87  C   UNL A   1      41.080  25.778  25.759  1.00  0.00     0.041 A 
ATOM     88  F   UNL A   1      41.078  28.117  25.870  1.00  0.00    -0.206 F 
ATOM     89  C   UNL A   1      41.393  24.544  26.317  1.00  0.00     0.022 A 
BRANCH  86  90
ATOM     90  S   UNL A   1      42.507  22.917  28.286  1.00  0.00     0.124 S 
ATOM     91  O   UNL A   1      42.956  23.314  29.616  1.00  0.00    -0.237 OA
ATOM     92  O   UNL A   1      41.288  22.118  28.232  1.00  0.00    -0.237 OA
ATOM     93  O   UNL A   1      43.565  22.500  27.368  1.00  0.00    -0.744 OA
ENDBRANCH  86  90
ENDBRANCH  59  83
BRANCH  71  94
ATOM     94  C   UNL A   1      47.793  30.524  28.817  1.00  0.00     0.023 A 
ATOM     95  C   UNL A   1      48.652  29.834  29.688  1.00  0.00     0.031 A 
ATOM     96  C   UNL A   1      48.305  30.952  27.579  1.00  0.00     0.131 A 
ATOM     97  C   UNL A   1      49.998  29.653  29.338  1.00  0.00     0.055 A 
ATOM     98  C   UNL A   1      49.624  30.698  27.204  1.00  0.00     0.041 A 
ATOM     99  F   UNL A   1      47.528  31.617  26.709  1.00  0.00    -0.206 F 
ATOM    100  C   UNL A   1      50.483  30.060  28.093  1.00  0.00     0.022 A 
BRANCH  97 101
ATOM    101  S   UNL A   1      51.132  28.982  30.583  1.00  0.00     0.124 S 
ATOM    102  O   UNL A   1      50.210  28.556  31.632  1.00  0.00    -0.237 OA
ATOM    103  O   UNL A   1      51.802  27.913  29.852  1.00  0.00    -0.237 OA
ATOM    104  O   UNL A   1      51.977  30.124  30.926  1.00  0.00    -0.744 OA
ENDBRANCH  97 101
ENDBRANCH  71  94
ENDBRANCH  45  46
ENDBRANCH  38  40
ENDBRANCH  37  38
ENDBRANCH  36  37
ENDBRANCH  35  36
ENDBRANCH  34  35
ENDBRANCH  33  34
ENDBRANCH  32  33
ENDBRANCH   1  32
TORSDOF 27
ENDMDL
MODEL 2
REMARK VINA RESULT:      -9.3      5.470      8.724
REMARK SMILES COc1ccc2[nH]c(C(=O)c3cc(C)ccn3)c(CC(=O)OCCOCCOCCOCCOC(=O)c3ccc(-c4c5nc(c(-c6cc(S(=O)(=O)[O-])ccc6F)c6ccc([nH]6)c(-c6cc(S(=O)(=O)[O-])ccc6F)c6nc(c(-c7cc(S(=O)(=O)[O-])ccc7F)c7ccc4[nH]7)C=C6)C=C5)cc3)c2c1
REMARK SMILES IDX 28 1 27 2 26 3 25 4 24 5 23 6 22 7 20 8 21 9 19 10 18 11
REMARK SMILES IDX 3 12 4 13 101 14 5 15 100 16 6 17 7 18 8 19 2 21 1 22 9 23
REMARK SMILES IDX 10 24 11 25 12 26 17 27 13 28 16 29 14 30 15 31 29 32 30 33
REMARK SMILES IDX 31 34 32 35 33 36 34 37 35 38 36 39 37 40 38 41 99 42 39 43
REMARK SMILES IDX 98 44 40 45 41 46 42 47 92 48 43 49 97 50 91 51 93 52 44 53
REMARK SMILES IDX 96 54 90 55 89 56 45 58 77 59 57 60 76 61 58 62 61 63 75 64
REMARK SMILES IDX 94 65 59 66 60 67 74 69 95 70 62 71 46 72 47 73 55 74 48 75
REMARK SMILES IDX 54 76 56 77 53 78 49 79 50 80 51 81 52 82 78 83 79 84 87 85
REMARK SMILES IDX 80 86 86 87 88 88 85 89 81 90 82 91 83 92 84 93 63 94 64 95
REMARK SMILES IDX 72 96 65 97 71 98 73 99 70 100 66 101 67 102 68 103 69 104
REMARK H PARENT 7 20 93 57 61 68
REMARK Flexibility Score: inf
ROOT
ATOM      1  O   UNL A   1      34.086  31.189  27.805  1.00  0.00    -0.377 OA
ENDROOT
BRANCH   1   2
ATOM      2  C   UNL A   1      32.917  30.935  27.056  1.00  0.00     0.188 C 
BRANCH   2   3
ATOM      3  C   UNL A   1      32.036  29.666  27.041  1.00  0.00     0.188 C 
BRANCH   3   4
ATOM      4  O   UNL A   1      32.536  28.426  26.590  1.00  0.00    -0.376 OA
BRANCH   4   5
ATOM      5  C   UNL A   1      31.855  27.207  26.784  1.00  0.00     0.202 C 
BRANCH   5   6
ATOM      6  C   UNL A   1      32.380  25.827  26.341  1.00  0.00     0.261 C 
BRANCH   6   7
ATOM      7  O   UNL A   1      31.780  24.660  26.935  1.00  0.00    -0.463 OA
BRANCH   7   8
ATOM      8  C   UNL A   1      30.610  24.215  26.422  1.00  0.00     0.310 C 
ATOM      9  O   UNL A   1      29.523  24.697  26.745  1.00  0.00    -0.252 OA
BRANCH   8  10
ATOM     10  C   UNL A   1      30.685  23.103  25.373  1.00  0.00     0.161 C 
BRANCH  10  11
ATOM     11  C   UNL A   1      31.642  23.138  24.186  1.00  0.00     0.000 A 
ATOM     12  C   UNL A   1      31.352  26.301  22.020  1.00  0.00     0.119 A 
ATOM     13  C   UNL A   1      32.350  25.953  21.113  1.00  0.00     0.048 A 
ATOM     14  C   UNL A   1      30.993  25.415  23.047  1.00  0.00     0.057 A 
ATOM     15  C   UNL A   1      33.023  24.729  21.220  1.00  0.00     0.030 A 
ATOM     16  C   UNL A   1      31.684  24.196  23.207  1.00  0.00     0.008 A 
ATOM     17  C   UNL A   1      32.685  23.895  22.292  1.00  0.00     0.046 A 
ATOM     18  N   UNL A   1      33.215  22.689  22.670  1.00  0.00    -0.352 N 
ATOM     19  C   UNL A   1      32.777  22.332  23.930  1.00  0.00     0.093 A 
ATOM     20  H   UNL A   1      33.826  22.150  22.117  1.00  0.00     0.167 HD
BRANCH  12  21
ATOM     21  O   UNL A   1      30.696  27.502  22.061  1.00  0.00    -0.497 OA
ATOM     22  C   UNL A   1      29.863  27.743  23.188  1.00  0.00     0.278 C 
ENDBRANCH  12  21
BRANCH  19  23
ATOM     23  C   UNL A   1      33.365  21.251  24.742  1.00  0.00     0.227 C 
ATOM     24  O   UNL A   1      33.851  21.468  25.851  1.00  0.00    -0.285 OA
BRANCH  23  25
ATOM     25  C   UNL A   1      33.335  19.810  24.275  1.00  0.00     0.113 A 
ATOM     26  C   UNL A   1      34.152  18.811  24.805  1.00  0.00     0.036 A 
ATOM     27  N   UNL A   1      32.423  19.556  23.298  1.00  0.00    -0.253 NA
ATOM     28  C   UNL A   1      34.057  17.508  24.282  1.00  0.00    -0.047 A 
ATOM     29  C   UNL A   1      32.347  18.296  22.818  1.00  0.00     0.112 A 
ATOM     30  C   UNL A   1      34.898  16.374  24.789  1.00  0.00     0.044 C 
ATOM     31  C   UNL A   1      33.155  17.262  23.246  1.00  0.00     0.023 A 
ENDBRANCH  23  25
ENDBRANCH  19  23
ENDBRANCH  10  11
ENDBRANCH   8  10
ENDBRANCH   7   8
ENDBRANCH   6   7
ENDBRANCH   5   6
ENDBRANCH   4   5
ENDBRANCH   3   4
ENDBRANCH   2   3
ENDBRANCH   1   2
BRANCH   1  32
ATOM     32  C   UNL A   1      34.193  32.410  28.485  1.00  0.00     0.188 C 
BRANCH  32  33
ATOM     33  C   UNL A   1      33.592  33.560  27.681  1.00  0.00     0.188 C 
BRANCH  33  34
ATOM     34  O   UNL A   1      32.592  34.269  28.394  1.00  0.00    -0.376 OA
BRANCH  34  35
ATOM     35  C   UNL A   1      32.912  35.556  28.912  1.00  0.00     0.202 C 
BRANCH  35  36
ATOM     36  C   UNL A   1      33.589  35.735  30.290  1.00  0.00     0.261 C 
BRANCH  36  37
ATOM     37  O   UNL A   1      34.002  34.548  30.968  1.00  0.00    -0.460 OA
BRANCH  37  38
ATOM     38  C   UNL A   1      33.864  34.530  32.303  1.00  0.00     0.338 C 
ATOM     39  O   UNL A   1      32.835  34.663  32.944  1.00  0.00    -0.246 OA
BRANCH  38  40
ATOM     40  C   UNL A   1      35.162  34.083  32.826  1.00  0.00     0.060 A 
ATOM     41  C   UNL A   1      35.262  32.764  33.280  1.00  0.00     0.016 A 
ATOM     42  C   UNL A   1      36.282  34.923  32.786  1.00  0.00     0.016 A 
ATOM     43  C   UNL A   1      36.486  32.276  33.703  1.00  0.00     0.010 A 
ATOM     44  C   UNL A   1      37.503  34.447  33.258  1.00  0.00     0.010 A 
ATOM     45  C   UNL A   1      37.593  33.131  33.743  1.00  0.00    -0.014 A 
BRANCH  45  46
ATOM     46  C   UNL A   1      38.746  32.703  34.557  1.00  0.00     0.031 A 
ATOM     47  C   UNL A   1      39.832  31.944  33.852  1.00  0.00     0.074 A 
ATOM     48  C   UNL A   1      38.858  33.087  35.839  1.00  0.00     0.049 A 
ATOM     49  N   UNL A   1      40.971  31.505  34.312  1.00  0.00    -0.248 NA
ATOM     50  C   UNL A   1      39.601  31.645  32.428  1.00  0.00     0.031 C 
ATOM     51  C   UNL A   1      37.874  33.885  36.569  1.00  0.00     0.029 A 
ATOM     52  N   UNL A   1      39.858  32.869  36.747  1.00  0.00    -0.354 N 
ATOM     53  C   UNL A   1      41.592  30.881  33.234  1.00  0.00     0.074 A 
ATOM     54  C   UNL A   1      40.688  30.963  32.111  1.00  0.00     0.031 C 
ATOM     55  C   UNL A   1      38.322  34.089  37.820  1.00  0.00     0.029 A 
ATOM     56  C   UNL A   1      39.602  33.406  37.986  1.00  0.00     0.049 A 
ATOM     57  H   UNL A   1      40.682  32.375  36.533  1.00  0.00     0.167 HD
ATOM     58  C   UNL A   1      42.813  30.298  33.196  1.00  0.00     0.034 A 
ATOM     59  C   UNL A   1      40.320  33.325  39.124  1.00  0.00     0.034 A 
ATOM     60  C   UNL A   1      43.677  30.222  34.345  1.00  0.00     0.049 A 
ATOM     61  C   UNL A   1      41.638  32.587  39.077  1.00  0.00     0.074 A 
ATOM     62  C   UNL A   1      44.933  29.658  34.443  1.00  0.00     0.029 A 
ATOM     63  N   UNL A   1      43.359  30.716  35.606  1.00  0.00    -0.354 N 
ATOM     64  N   UNL A   1      42.224  32.002  38.055  1.00  0.00    -0.248 NA
ATOM     65  C   UNL A   1      42.397  32.509  40.331  1.00  0.00     0.031 C 
ATOM     66  C   UNL A   1      45.337  29.731  35.779  1.00  0.00     0.029 A 
ATOM     67  C   UNL A   1      44.378  30.430  36.499  1.00  0.00     0.049 A 
ATOM     68  H   UNL A   1      42.531  31.198  35.831  1.00  0.00     0.167 HD
ATOM     69  C   UNL A   1      43.433  31.511  38.538  1.00  0.00     0.074 A 
ATOM     70  C   UNL A   1      43.500  31.890  39.935  1.00  0.00     0.031 C 
ATOM     71  C   UNL A   1      44.405  30.812  37.892  1.00  0.00     0.034 A 
BRANCH  58  72
ATOM     72  C   UNL A   1      43.230  29.643  31.903  1.00  0.00     0.023 A 
ATOM     73  C   UNL A   1      43.879  30.353  30.877  1.00  0.00     0.031 A 
ATOM     74  C   UNL A   1      42.930  28.288  31.675  1.00  0.00     0.131 A 
ATOM     75  C   UNL A   1      44.145  29.725  29.650  1.00  0.00     0.055 A 
ATOM     76  C   UNL A   1      43.272  27.646  30.484  1.00  0.00     0.041 A 
ATOM     77  F   UNL A   1      42.277  27.568  32.601  1.00  0.00    -0.206 F 
ATOM     78  C   UNL A   1      43.872  28.368  29.457  1.00  0.00     0.022 A 
BRANCH  75  79
ATOM     79  S   UNL A   1      44.716  30.739  28.258  1.00  0.00     0.124 S 
ATOM     80  O   UNL A   1      43.988  30.141  27.141  1.00  0.00    -0.237 OA
ATOM     81  O   UNL A   1      44.298  32.079  28.651  1.00  0.00    -0.237 OA
ATOM     82  O   UNL A   1      46.161  30.515  28.240  1.00  0.00    -0.744 OA
ENDBRANCH  75  79
ENDBRANCH  58  72
BRANCH  59  83
ATOM     83  C   UNL A   1      39.797  33.903  40.397  1.00  0.00     0.023 A 
ATOM     84  C   UNL A   1      40.032  35.242  40.746  1.00  0.00     0.031 A 
ATOM     85  C   UNL A   1      39.096  33.099  41.315  1.00  0.00     0.131 A 
ATOM     86  C   UNL A   1      39.615  35.722  41.998  1.00  0.00     0.055 A 
ATOM     87  C   UNL A   1      38.628  33.598  42.532  1.00  0.00     0.041 A 
ATOM     88  F   UNL A   1      38.849  31.808  41.039  1.00  0.00    -0.206 F 
ATOM     89  C   UNL A   1      38.901  34.916  42.886  1.00  0.00     0.022 A 
BRANCH  86  90
ATOM     90  S   UNL A   1      40.114  37.394  42.497  1.00  0.00     0.124 S 
ATOM     91  O   UNL A   1      39.426  38.216  41.507  1.00  0.00    -0.237 OA
ATOM     92  O   UNL A   1      39.603  37.468  43.860  1.00  0.00    -0.237 OA
ATOM     93  O   UNL A   1      41.570  37.362  42.379  1.00  0.00    -0.744 OA
ENDBRANCH  86  90
ENDBRANCH  59  83
BRANCH  71  94
ATOM     94  C   UNL A   1      45.632  30.453  38.692  1.00  0.00     0.023 A 
ATOM     95  C   UNL A   1      45.714  29.255  39.421  1.00  0.00     0.031 A 
ATOM     96  C   UNL A   1      46.732  31.329  38.729  1.00  0.00     0.131 A 
ATOM     97  C   UNL A   1      46.843  28.996  40.211  1.00  0.00     0.055 A 
ATOM     98  C   UNL A   1      47.885  31.028  39.454  1.00  0.00     0.041 A 
ATOM     99  F   UNL A   1      46.707  32.489  38.054  1.00  0.00    -0.206 F 
ATOM    100  C   UNL A   1      47.938  29.864  40.214  1.00  0.00     0.022 A 
BRANCH  97 101
ATOM    101  S   UNL A   1      46.811  27.567  41.325  1.00  0.00     0.124 S 
ATOM    102  O   UNL A   1      47.545  28.071  42.482  1.00  0.00    -0.237 OA
ATOM    103  O   UNL A   1      45.381  27.355  41.521  1.00  0.00    -0.237 OA
ATOM    104  O   UNL A   1      47.494  26.524  40.563  1.00  0.00    -0.744 OA
ENDBRANCH  97 101
ENDBRANCH  71  94
ENDBRANCH  45  46
ENDBRANCH  38  40
ENDBRANCH  37  38
ENDBRANCH  36  37
ENDBRANCH  35  36
ENDBRANCH  34  35
ENDBRANCH  33  34
ENDBRANCH  32  33
ENDBRANCH   1  32
TORSDOF 27
ENDMDL
MODEL 3
REMARK VINA RESULT:      -9.3      3.020      3.599
REMARK SMILES COc1ccc2[nH]c(C(=O)c3cc(C)ccn3)c(CC(=O)OCCOCCOCCOCCOC(=O)c3ccc(-c4c5nc(c(-c6cc(S(=O)(=O)[O-])ccc6F)c6ccc([nH]6)c(-c6cc(S(=O)(=O)[O-])ccc6F)c6nc(c(-c7cc(S(=O)(=O)[O-])ccc7F)c7ccc4[nH]7)C=C6)C=C5)cc3)c2c1
REMARK SMILES IDX 28 1 27 2 26 3 25 4 24 5 23 6 22 7 20 8 21 9 19 10 18 11
REMARK SMILES IDX 3 12 4 13 101 14 5 15 100 16 6 17 7 18 8 19 2 21 1 22 9 23
REMARK SMILES IDX 10 24 11 25 12 26 17 27 13 28 16 29 14 30 15 31 29 32 30 33
REMARK SMILES IDX 31 34 32 35 33 36 34 37 35 38 36 39 37 40 38 41 99 42 39 43
REMARK SMILES IDX 98 44 40 45 41 46 42 47 92 48 43 49 97 50 91 51 93 52 44 53
REMARK SMILES IDX 96 54 90 55 89 56 45 58 77 59 57 60 76 61 58 62 61 63 75 64
REMARK SMILES IDX 94 65 59 66 60 67 74 69 95 70 62 71 46 72 47 73 55 74 48 75
REMARK SMILES IDX 54 76 56 77 53 78 49 79 50 80 51 81 52 82 78 83 79 84 87 85
REMARK SMILES IDX 80 86 86 87 88 88 85 89 81 90 82 91 83 92 84 93 63 94 64 95
REMARK SMILES IDX 72 96 65 97 71 98 73 99 70 100 66 101 67 102 68 103 69 104
REMARK H PARENT 7 20 93 57 61 68
REMARK Flexibility Score: inf
ROOT
ATOM      1  O   UNL A   1      34.161  31.470  27.521  1.00  0.00    -0.377 OA
ENDROOT
BRANCH   1   2
ATOM      2  C   UNL A   1      32.965  31.025  26.918  1.00  0.00     0.188 C 
BRANCH   2   3
ATOM      3  C   UNL A   1      32.186  29.715  27.169  1.00  0.00     0.188 C 
BRANCH   3   4
ATOM      4  O   UNL A   1      32.602  28.490  26.606  1.00  0.00    -0.376 OA
BRANCH   4   5
ATOM      5  C   UNL A   1      32.166  27.238  27.086  1.00  0.00     0.202 C 
BRANCH   5   6
ATOM      6  C   UNL A   1      32.333  25.902  26.335  1.00  0.00     0.261 C 
BRANCH   6   7
ATOM      7  O   UNL A   1      31.774  24.719  26.939  1.00  0.00    -0.463 OA
BRANCH   7   8
ATOM      8  C   UNL A   1      30.661  24.188  26.384  1.00  0.00     0.310 C 
ATOM      9  O   UNL A   1      29.531  24.592  26.657  1.00  0.00    -0.252 OA
BRANCH   8  10
ATOM     10  C   UNL A   1      30.859  23.075  25.350  1.00  0.00     0.161 C 
BRANCH  10  11
ATOM     11  C   UNL A   1      31.744  23.228  24.118  1.00  0.00     0.000 A 
ATOM     12  C   UNL A   1      31.136  26.464  22.133  1.00  0.00     0.119 A 
ATOM     13  C   UNL A   1      32.101  26.225  21.158  1.00  0.00     0.048 A 
ATOM     14  C   UNL A   1      30.892  25.509  23.132  1.00  0.00     0.057 A 
ATOM     15  C   UNL A   1      32.855  25.044  21.167  1.00  0.00     0.030 A 
ATOM     16  C   UNL A   1      31.665  24.331  23.193  1.00  0.00     0.008 A 
ATOM     17  C   UNL A   1      32.630  24.140  22.212  1.00  0.00     0.046 A 
ATOM     18  N   UNL A   1      33.255  22.955  22.500  1.00  0.00    -0.352 N 
ATOM     19  C   UNL A   1      32.911  22.511  23.762  1.00  0.00     0.093 A 
ATOM     20  H   UNL A   1      33.866  22.483  21.889  1.00  0.00     0.167 HD
BRANCH  12  21
ATOM     21  O   UNL A   1      30.409  27.617  22.269  1.00  0.00    -0.497 OA
ATOM     22  C   UNL A   1      30.631  28.383  23.446  1.00  0.00     0.278 C 
ENDBRANCH  12  21
BRANCH  19  23
ATOM     23  C   UNL A   1      33.610  21.434  24.486  1.00  0.00     0.227 C 
ATOM     24  O   UNL A   1      33.050  20.374  24.764  1.00  0.00    -0.285 OA
BRANCH  23  25
ATOM     25  C   UNL A   1      35.072  21.557  24.861  1.00  0.00     0.113 A 
ATOM     26  C   UNL A   1      35.672  22.758  25.241  1.00  0.00     0.036 A 
ATOM     27  N   UNL A   1      35.763  20.386  24.818  1.00  0.00    -0.253 NA
ATOM     28  C   UNL A   1      37.045  22.763  25.549  1.00  0.00    -0.047 A 
ATOM     29  C   UNL A   1      37.079  20.417  25.123  1.00  0.00     0.112 A 
ATOM     30  C   UNL A   1      37.772  24.009  25.964  1.00  0.00     0.044 C 
ATOM     31  C   UNL A   1      37.762  21.570  25.455  1.00  0.00     0.023 A 
ENDBRANCH  23  25
ENDBRANCH  19  23
ENDBRANCH  10  11
ENDBRANCH   8  10
ENDBRANCH   7   8
ENDBRANCH   6   7
ENDBRANCH   5   6
ENDBRANCH   4   5
ENDBRANCH   3   4
ENDBRANCH   2   3
ENDBRANCH   1   2
BRANCH   1  32
ATOM     32  C   UNL A   1      34.085  32.469  28.501  1.00  0.00     0.188 C 
BRANCH  32  33
ATOM     33  C   UNL A   1      33.658  33.811  27.911  1.00  0.00     0.188 C 
BRANCH  33  34
ATOM     34  O   UNL A   1      32.807  34.548  28.772  1.00  0.00    -0.376 OA
BRANCH  34  35
ATOM     35  C   UNL A   1      33.400  35.442  29.708  1.00  0.00     0.202 C 
BRANCH  35  36
ATOM     36  C   UNL A   1      33.717  35.013  31.159  1.00  0.00     0.261 C 
BRANCH  36  37
ATOM     37  O   UNL A   1      34.157  33.669  31.355  1.00  0.00    -0.460 OA
BRANCH  37  38
ATOM     38  C   UNL A   1      34.678  33.367  32.555  1.00  0.00     0.338 C 
ATOM     39  O   UNL A   1      34.140  33.472  33.644  1.00  0.00    -0.246 OA
BRANCH  38  40
ATOM     40  C   UNL A   1      35.938  32.666  32.272  1.00  0.00     0.060 A 
ATOM     41  C   UNL A   1      36.168  31.452  32.924  1.00  0.00     0.016 A 
ATOM     42  C   UNL A   1      36.834  33.156  31.313  1.00  0.00     0.016 A 
ATOM     43  C   UNL A   1      37.302  30.717  32.624  1.00  0.00     0.010 A 
ATOM     44  C   UNL A   1      37.999  32.441  31.047  1.00  0.00     0.010 A 
ATOM     45  C   UNL A   1      38.243  31.236  31.728  1.00  0.00    -0.014 A 
BRANCH  45  46
ATOM     46  C   UNL A   1      39.590  30.636  31.742  1.00  0.00     0.031 A 
ATOM     47  C   UNL A   1      40.533  31.105  32.811  1.00  0.00     0.074 A 
ATOM     48  C   UNL A   1      39.900  29.632  30.905  1.00  0.00     0.049 A 
ATOM     49  N   UNL A   1      41.744  30.704  33.085  1.00  0.00    -0.248 NA
ATOM     50  C   UNL A   1      40.035  32.171  33.699  1.00  0.00     0.031 C 
ATOM     51  C   UNL A   1      39.008  29.078  29.887  1.00  0.00     0.029 A 
ATOM     52  N   UNL A   1      41.045  28.892  30.792  1.00  0.00    -0.354 N 
ATOM     53  C   UNL A   1      42.151  31.467  34.175  1.00  0.00     0.074 A 
ATOM     54  C   UNL A   1      41.076  32.380  34.487  1.00  0.00     0.031 C 
ATOM     55  C   UNL A   1      39.644  28.080  29.250  1.00  0.00     0.029 A 
ATOM     56  C   UNL A   1      40.996  27.954  29.789  1.00  0.00     0.049 A 
ATOM     57  H   UNL A   1      41.829  29.019  31.374  1.00  0.00     0.167 HD
ATOM     58  C   UNL A   1      43.321  31.399  34.852  1.00  0.00     0.034 A 
ATOM     59  C   UNL A   1      41.953  27.112  29.351  1.00  0.00     0.034 A 
ATOM     60  C   UNL A   1      44.376  30.485  34.497  1.00  0.00     0.049 A 
ATOM     61  C   UNL A   1      43.284  27.121  30.065  1.00  0.00     0.074 A 
ATOM     62  C   UNL A   1      45.608  30.317  35.096  1.00  0.00     0.029 A 
ATOM     63  N   UNL A   1      44.322  29.594  33.430  1.00  0.00    -0.354 N 
ATOM     64  N   UNL A   1      43.664  27.841  31.099  1.00  0.00    -0.248 NA
ATOM     65  C   UNL A   1      44.310  26.199  29.566  1.00  0.00     0.031 C 
ATOM     66  C   UNL A   1      46.333  29.390  34.341  1.00  0.00     0.029 A 
ATOM     67  C   UNL A   1      45.518  28.903  33.328  1.00  0.00     0.049 A 
ATOM     68  H   UNL A   1      43.548  29.471  32.836  1.00  0.00     0.167 HD
ATOM     69  C   UNL A   1      44.964  27.437  31.389  1.00  0.00     0.074 A 
ATOM     70  C   UNL A   1      45.290  26.395  30.435  1.00  0.00     0.031 C 
ATOM     71  C   UNL A   1      45.814  27.879  32.354  1.00  0.00     0.034 A 
BRANCH  58  72
ATOM     72  C   UNL A   1      43.532  32.385  35.975  1.00  0.00     0.023 A 
ATOM     73  C   UNL A   1      44.182  33.617  35.779  1.00  0.00     0.031 A 
ATOM     74  C   UNL A   1      43.113  32.063  37.278  1.00  0.00     0.131 A 
ATOM     75  C   UNL A   1      44.453  34.448  36.877  1.00  0.00     0.055 A 
ATOM     76  C   UNL A   1      43.312  32.931  38.352  1.00  0.00     0.041 A 
ATOM     77  F   UNL A   1      42.522  30.885  37.534  1.00  0.00    -0.206 F 
ATOM     78  C   UNL A   1      43.997  34.127  38.158  1.00  0.00     0.022 A 
BRANCH  75  79
ATOM     79  S   UNL A   1      45.538  35.882  36.638  1.00  0.00     0.124 S 
ATOM     80  O   UNL A   1      44.679  36.978  37.079  1.00  0.00    -0.237 OA
ATOM     81  O   UNL A   1      46.671  35.569  37.501  1.00  0.00    -0.237 OA
ATOM     82  O   UNL A   1      45.821  35.862  35.203  1.00  0.00    -0.744 OA
ENDBRANCH  75  79
ENDBRANCH  58  72
BRANCH  59  83
ATOM     83  C   UNL A   1      41.714  26.239  28.164  1.00  0.00     0.023 A 
ATOM     84  C   UNL A   1      41.613  24.844  28.287  1.00  0.00     0.031 A 
ATOM     85  C   UNL A   1      41.638  26.791  26.871  1.00  0.00     0.131 A 
ATOM     86  C   UNL A   1      41.493  24.048  27.136  1.00  0.00     0.055 A 
ATOM     87  C   UNL A   1      41.454  25.999  25.736  1.00  0.00     0.041 A 
ATOM     88  F   UNL A   1      41.735  28.118  26.692  1.00  0.00    -0.206 F 
ATOM     89  C   UNL A   1      41.396  24.615  25.865  1.00  0.00     0.022 A 
BRANCH  86  90
ATOM     90  S   UNL A   1      41.572  22.244  27.318  1.00  0.00     0.124 S 
ATOM     91  O   UNL A   1      41.911  21.825  25.962  1.00  0.00    -0.237 OA
ATOM     92  O   UNL A   1      42.619  22.086  28.320  1.00  0.00    -0.237 OA
ATOM     93  O   UNL A   1      40.226  21.889  27.763  1.00  0.00    -0.744 OA
ENDBRANCH  86  90
ENDBRANCH  59  83
BRANCH  71  94
ATOM     94  C   UNL A   1      47.160  27.202  32.437  1.00  0.00     0.023 A 
ATOM     95  C   UNL A   1      48.271  27.679  31.721  1.00  0.00     0.031 A 
ATOM     96  C   UNL A   1      47.329  26.061  33.241  1.00  0.00     0.131 A 
ATOM     97  C   UNL A   1      49.483  26.976  31.769  1.00  0.00     0.055 A 
ATOM     98  C   UNL A   1      48.559  25.413  33.346  1.00  0.00     0.041 A 
ATOM     99  F   UNL A   1      46.300  25.561  33.945  1.00  0.00    -0.206 F 
ATOM    100  C   UNL A   1      49.641  25.860  32.595  1.00  0.00     0.022 A 
BRANCH  97 101
ATOM    101  S   UNL A   1      50.817  27.474  30.647  1.00  0.00     0.124 S 
ATOM    102  O   UNL A   1      51.171  26.204  30.019  1.00  0.00    -0.237 OA
ATOM    103  O   UNL A   1      50.156  28.447  29.786  1.00  0.00    -0.237 OA
ATOM    104  O   UNL A   1      51.831  28.025  31.544  1.00  0.00    -0.744 OA
ENDBRANCH  97 101
ENDBRANCH  71  94
ENDBRANCH  45  46
ENDBRANCH  38  40
ENDBRANCH  37  38
ENDBRANCH  36  37
ENDBRANCH  35  36
ENDBRANCH  34  35
ENDBRANCH  33  34
ENDBRANCH  32  33
ENDBRANCH   1  32
TORSDOF 27
ENDMDL
