MODEL 1
REMARK VINA RESULT:     -10.4      0.000      0.000
REMARK SMILES Cc1cccc(-c2ccc(Cl)c(C(=O)OCCOCCOCCOCCOC(=O)c3ccc(-c4c5nc(c(-c6cc(S(=O)(=O)[O-])ccc6F)c6ccc([nH]6)c(-c6cc(S(=O)(=O)[O-])ccc6F)c6nc(c(-c7cc(S(=O)(=O)[O-])ccc7F)c7ccc4[nH]7)C=C6)C=C5)cc3)c2)c1
REMARK SMILES IDX 22 1 21 2 20 3 19 4 18 5 17 6 16 7 15 8 13 9 14 10 12 11
REMARK SMILES IDX 7 12 8 13 93 14 9 15 10 16 11 17 6 18 1 19 2 20 3 21 94 22
REMARK SMILES IDX 4 23 5 24 23 25 24 26 25 27 26 28 27 29 28 30 29 31 30 32
REMARK SMILES IDX 31 33 92 34 32 35 91 36 33 37 34 38 35 39 85 40 36 41 90 42
REMARK SMILES IDX 84 43 86 44 37 45 89 46 83 47 82 48 38 50 70 51 50 52 69 53
REMARK SMILES IDX 51 54 54 55 68 56 87 57 52 58 53 59 67 61 88 62 55 63 39 64
REMARK SMILES IDX 40 65 48 66 41 67 47 68 49 69 46 70 42 71 43 72 44 73 45 74
REMARK SMILES IDX 71 75 72 76 80 77 73 78 79 79 81 80 78 81 74 82 75 83 76 84
REMARK SMILES IDX 77 85 56 86 57 87 65 88 58 89 64 90 66 91 63 92 59 93 60 94
REMARK SMILES IDX 61 95 62 96
REMARK H PARENT 86 49 54 60
REMARK Flexibility Score: inf
ROOT
ATOM      1  C   UNL A   1      35.109  22.361  25.263  1.00  0.00     0.188 C 
ENDROOT
BRANCH   1   2
ATOM      2  O   UNL A   1      35.002  21.153  24.510  1.00  0.00    -0.377 OA
BRANCH   2   3
ATOM      3  C   UNL A   1      33.784  20.442  24.563  1.00  0.00     0.188 C 
BRANCH   3   4
ATOM      4  C   UNL A   1      32.758  20.995  25.571  1.00  0.00     0.188 C 
BRANCH   4   5
ATOM      5  O   UNL A   1      31.662  21.779  25.110  1.00  0.00    -0.376 OA
BRANCH   5   6
ATOM      6  C   UNL A   1      30.883  22.391  26.142  1.00  0.00     0.202 C 
BRANCH   6   7
ATOM      7  C   UNL A   1      31.288  23.793  26.561  1.00  0.00     0.261 C 
BRANCH   7   8
ATOM      8  O   UNL A   1      31.282  24.615  25.392  1.00  0.00    -0.460 OA
BRANCH   8   9
ATOM      9  C   UNL A   1      30.814  25.852  25.606  1.00  0.00     0.339 C 
ATOM     10  O   UNL A   1      30.104  26.228  26.518  1.00  0.00    -0.246 OA
BRANCH   9  11
ATOM     11  C   UNL A   1      31.739  26.773  24.941  1.00  0.00     0.079 A 
ATOM     12  C   UNL A   1      33.342  28.495  25.545  1.00  0.00    -0.017 A 
ATOM     13  C   UNL A   1      33.448  28.860  24.209  1.00  0.00     0.010 A 
ATOM     14  C   UNL A   1      32.501  27.442  25.885  1.00  0.00     0.026 A 
ATOM     15  C   UNL A   1      32.784  28.102  23.238  1.00  0.00     0.022 A 
ATOM     16  C   UNL A   1      31.939  27.042  23.600  1.00  0.00     0.055 A 
ATOM     17  Cl  UNL A   1      31.213  26.184  22.318  1.00  0.00    -0.083 Cl
BRANCH  12  18
ATOM     18  C   UNL A   1      33.797  29.246  26.702  1.00  0.00    -0.018 A 
ATOM     19  C   UNL A   1      37.337  29.962  27.820  1.00  0.00     0.044 C 
ATOM     20  C   UNL A   1      35.857  30.109  27.653  1.00  0.00    -0.051 A 
ATOM     21  C   UNL A   1      35.179  31.271  28.036  1.00  0.00     0.003 A 
ATOM     22  C   UNL A   1      35.150  29.084  27.031  1.00  0.00     0.012 A 
ATOM     23  C   UNL A   1      33.815  31.419  27.769  1.00  0.00     0.001 A 
ATOM     24  C   UNL A   1      33.122  30.410  27.104  1.00  0.00     0.009 A 
ENDBRANCH  12  18
ENDBRANCH   9  11
ENDBRANCH   8   9
ENDBRANCH   7   8
ENDBRANCH   6   7
ENDBRANCH   5   6
ENDBRANCH   4   5
ENDBRANCH   3   4
ENDBRANCH   2   3
ENDBRANCH   1   2
BRANCH   1  25
ATOM     25  C   UNL A   1      35.959  23.501  24.734  1.00  0.00     0.188 C 
BRANCH  25  26
ATOM     26  O   UNL A   1      37.187  23.485  25.457  1.00  0.00    -0.376 OA
BRANCH  26  27
ATOM     27  C   UNL A   1      37.718  22.202  25.735  1.00  0.00     0.202 C 
BRANCH  27  28
ATOM     28  C   UNL A   1      39.153  22.277  26.258  1.00  0.00     0.261 C 
BRANCH  28  29
ATOM     29  O   UNL A   1      39.947  21.225  25.661  1.00  0.00    -0.460 OA
BRANCH  29  30
ATOM     30  C   UNL A   1      40.954  20.734  26.444  1.00  0.00     0.338 C 
ATOM     31  O   UNL A   1      41.009  19.586  26.850  1.00  0.00    -0.246 OA
BRANCH  30  32
ATOM     32  C   UNL A   1      41.905  21.822  26.836  1.00  0.00     0.060 A 
ATOM     33  C   UNL A   1      42.167  22.116  28.186  1.00  0.00     0.016 A 
ATOM     34  C   UNL A   1      42.312  22.720  25.867  1.00  0.00     0.016 A 
ATOM     35  C   UNL A   1      42.652  23.391  28.568  1.00  0.00     0.010 A 
ATOM     36  C   UNL A   1      42.692  23.990  26.261  1.00  0.00     0.010 A 
ATOM     37  C   UNL A   1      42.832  24.383  27.605  1.00  0.00    -0.014 A 
BRANCH  37  38
ATOM     38  C   UNL A   1      42.998  25.851  27.831  1.00  0.00     0.031 A 
ATOM     39  C   UNL A   1      41.755  26.704  28.098  1.00  0.00     0.074 A 
ATOM     40  C   UNL A   1      44.215  26.370  28.178  1.00  0.00     0.049 A 
ATOM     41  N   UNL A   1      41.753  27.944  28.460  1.00  0.00    -0.248 NA
ATOM     42  C   UNL A   1      40.378  26.210  28.013  1.00  0.00     0.031 C 
ATOM     43  C   UNL A   1      44.399  27.523  29.050  1.00  0.00     0.029 A 
ATOM     44  N   UNL A   1      45.538  26.000  27.909  1.00  0.00    -0.354 N 
ATOM     45  C   UNL A   1      40.523  28.279  29.009  1.00  0.00     0.074 A 
ATOM     46  C   UNL A   1      39.677  27.184  28.614  1.00  0.00     0.031 C 
ATOM     47  C   UNL A   1      45.679  27.859  29.172  1.00  0.00     0.029 A 
ATOM     48  C   UNL A   1      46.398  27.079  28.218  1.00  0.00     0.049 A 
ATOM     49  H   UNL A   1      45.825  25.125  27.558  1.00  0.00     0.167 HD
ATOM     50  C   UNL A   1      40.426  29.374  29.835  1.00  0.00     0.034 A 
ATOM     51  C   UNL A   1      47.291  27.626  27.349  1.00  0.00     0.034 A 
ATOM     52  C   UNL A   1      41.707  30.106  29.897  1.00  0.00     0.049 A 
ATOM     53  C   UNL A   1      46.834  29.059  27.074  1.00  0.00     0.074 A 
ATOM     54  C   UNL A   1      42.532  30.536  30.923  1.00  0.00     0.029 A 
ATOM     55  N   UNL A   1      42.402  30.377  28.721  1.00  0.00    -0.354 N 
ATOM     56  N   UNL A   1      45.565  29.414  27.134  1.00  0.00    -0.248 NA
ATOM     57  C   UNL A   1      47.726  30.221  27.035  1.00  0.00     0.031 C 
ATOM     58  C   UNL A   1      43.771  30.951  30.355  1.00  0.00     0.029 A 
ATOM     59  C   UNL A   1      43.659  30.869  28.976  1.00  0.00     0.049 A 
ATOM     60  H   UNL A   1      42.036  30.235  27.819  1.00  0.00     0.167 HD
ATOM     61  C   UNL A   1      45.488  30.765  27.353  1.00  0.00     0.074 A 
ATOM     62  C   UNL A   1      46.859  31.238  27.204  1.00  0.00     0.031 C 
ATOM     63  C   UNL A   1      44.432  31.446  27.898  1.00  0.00     0.034 A 
BRANCH  50  64
ATOM     64  C   UNL A   1      39.270  29.775  30.777  1.00  0.00     0.023 A 
ATOM     65  C   UNL A   1      38.837  31.131  30.804  1.00  0.00     0.031 A 
ATOM     66  C   UNL A   1      38.609  28.950  31.710  1.00  0.00     0.131 A 
ATOM     67  C   UNL A   1      37.880  31.614  31.725  1.00  0.00     0.055 A 
ATOM     68  C   UNL A   1      37.613  29.417  32.593  1.00  0.00     0.041 A 
ATOM     69  F   UNL A   1      38.897  27.653  31.848  1.00  0.00    -0.206 F 
ATOM     70  C   UNL A   1      37.252  30.754  32.615  1.00  0.00     0.022 A 
BRANCH  67  71
ATOM     71  S   UNL A   1      37.472  33.389  31.767  1.00  0.00     0.124 S 
ATOM     72  O   UNL A   1      38.498  33.963  30.903  1.00  0.00    -0.237 OA
ATOM     73  O   UNL A   1      36.105  33.414  31.258  1.00  0.00    -0.237 OA
ATOM     74  O   UNL A   1      37.602  33.734  33.183  1.00  0.00    -0.744 OA
ENDBRANCH  67  71
ENDBRANCH  50  64
BRANCH  51  75
ATOM     75  C   UNL A   1      47.954  26.543  26.558  1.00  0.00     0.023 A 
ATOM     76  C   UNL A   1      47.844  26.716  25.145  1.00  0.00     0.031 A 
ATOM     77  C   UNL A   1      49.158  26.005  27.046  1.00  0.00     0.131 A 
ATOM     78  C   UNL A   1      48.990  26.639  24.328  1.00  0.00     0.055 A 
ATOM     79  C   UNL A   1      50.293  25.929  26.222  1.00  0.00     0.041 A 
ATOM     80  F   UNL A   1      49.329  25.809  28.362  1.00  0.00    -0.206 F 
ATOM     81  C   UNL A   1      50.229  26.305  24.879  1.00  0.00     0.022 A 
BRANCH  78  82
ATOM     82  S   UNL A   1      48.908  27.204  22.592  1.00  0.00     0.124 S 
ATOM     83  O   UNL A   1      48.625  25.965  21.877  1.00  0.00    -0.237 OA
ATOM     84  O   UNL A   1      47.827  28.184  22.622  1.00  0.00    -0.237 OA
ATOM     85  O   UNL A   1      50.232  27.775  22.353  1.00  0.00    -0.744 OA
ENDBRANCH  78  82
ENDBRANCH  51  75
BRANCH  63  86
ATOM     86  C   UNL A   1      44.007  32.799  27.387  1.00  0.00     0.023 A 
ATOM     87  C   UNL A   1      43.901  33.885  28.252  1.00  0.00     0.031 A 
ATOM     88  C   UNL A   1      43.857  33.085  26.003  1.00  0.00     0.131 A 
ATOM     89  C   UNL A   1      43.588  35.159  27.771  1.00  0.00     0.055 A 
ATOM     90  C   UNL A   1      43.630  34.373  25.518  1.00  0.00     0.041 A 
ATOM     91  F   UNL A   1      43.959  32.145  25.054  1.00  0.00    -0.206 F 
ATOM     92  C   UNL A   1      43.479  35.423  26.409  1.00  0.00     0.022 A 
BRANCH  89  93
ATOM     93  S   UNL A   1      43.253  36.424  29.007  1.00  0.00     0.124 S 
ATOM     94  O   UNL A   1      41.801  36.325  29.143  1.00  0.00    -0.237 OA
ATOM     95  O   UNL A   1      44.026  35.956  30.154  1.00  0.00    -0.237 OA
ATOM     96  O   UNL A   1      43.739  37.651  28.385  1.00  0.00    -0.744 OA
ENDBRANCH  89  93
ENDBRANCH  63  86
ENDBRANCH  37  38
ENDBRANCH  30  32
ENDBRANCH  29  30
ENDBRANCH  28  29
ENDBRANCH  27  28
ENDBRANCH  26  27
ENDBRANCH  25  26
ENDBRANCH   1  25
TORSDOF 24
ENDMDL
MODEL 2
REMARK VINA RESULT:     -10.3      2.528      5.139
REMARK SMILES Cc1cccc(-c2ccc(Cl)c(C(=O)OCCOCCOCCOCCOC(=O)c3ccc(-c4c5nc(c(-c6cc(S(=O)(=O)[O-])ccc6F)c6ccc([nH]6)c(-c6cc(S(=O)(=O)[O-])ccc6F)c6nc(c(-c7cc(S(=O)(=O)[O-])ccc7F)c7ccc4[nH]7)C=C6)C=C5)cc3)c2)c1
REMARK SMILES IDX 22 1 21 2 20 3 19 4 18 5 17 6 16 7 15 8 13 9 14 10 12 11
REMARK SMILES IDX 7 12 8 13 93 14 9 15 10 16 11 17 6 18 1 19 2 20 3 21 94 22
REMARK SMILES IDX 4 23 5 24 23 25 24 26 25 27 26 28 27 29 28 30 29 31 30 32
REMARK SMILES IDX 31 33 92 34 32 35 91 36 33 37 34 38 35 39 85 40 36 41 90 42
REMARK SMILES IDX 84 43 86 44 37 45 89 46 83 47 82 48 38 50 70 51 50 52 69 53
REMARK SMILES IDX 51 54 54 55 68 56 87 57 52 58 53 59 67 61 88 62 55 63 39 64
REMARK SMILES IDX 40 65 48 66 41 67 47 68 49 69 46 70 42 71 43 72 44 73 45 74
REMARK SMILES IDX 71 75 72 76 80 77 73 78 79 79 81 80 78 81 74 82 75 83 76 84
REMARK SMILES IDX 77 85 56 86 57 87 65 88 58 89 64 90 66 91 63 92 59 93 60 94
REMARK SMILES IDX 61 95 62 96
REMARK H PARENT 86 49 54 60
REMARK Flexibility Score: inf
ROOT
ATOM      1  C   UNL A   1      39.519  21.268  26.506  1.00  0.00     0.188 C 
ENDROOT
BRANCH   1   2
ATOM      2  O   UNL A   1      38.898  21.970  25.429  1.00  0.00    -0.377 OA
BRANCH   2   3
ATOM      3  C   UNL A   1      37.492  22.088  25.436  1.00  0.00     0.188 C 
BRANCH   3   4
ATOM      4  C   UNL A   1      36.963  23.503  25.130  1.00  0.00     0.188 C 
BRANCH   4   5
ATOM      5  O   UNL A   1      35.783  23.666  24.350  1.00  0.00    -0.376 OA
BRANCH   5   6
ATOM      6  C   UNL A   1      34.810  24.554  24.908  1.00  0.00     0.202 C 
BRANCH   6   7
ATOM      7  C   UNL A   1      34.140  24.110  26.195  1.00  0.00     0.261 C 
BRANCH   7   8
ATOM      8  O   UNL A   1      32.727  24.216  26.009  1.00  0.00    -0.460 OA
BRANCH   8   9
ATOM      9  C   UNL A   1      32.052  23.113  26.360  1.00  0.00     0.339 C 
ATOM     10  O   UNL A   1      31.244  22.995  27.261  1.00  0.00    -0.246 OA
BRANCH   9  11
ATOM     11  C   UNL A   1      31.985  22.263  25.170  1.00  0.00     0.079 A 
ATOM     12  C   UNL A   1      32.627  20.019  24.496  1.00  0.00    -0.017 A 
ATOM     13  C   UNL A   1      32.337  20.335  23.175  1.00  0.00     0.010 A 
ATOM     14  C   UNL A   1      32.427  20.985  25.475  1.00  0.00     0.026 A 
ATOM     15  C   UNL A   1      31.765  21.578  22.880  1.00  0.00     0.022 A 
ATOM     16  C   UNL A   1      31.570  22.542  23.881  1.00  0.00     0.055 A 
ATOM     17  Cl  UNL A   1      30.840  24.002  23.391  1.00  0.00    -0.083 Cl
BRANCH  12  18
ATOM     18  C   UNL A   1      33.378  18.874  24.983  1.00  0.00    -0.018 A 
ATOM     19  C   UNL A   1      32.164  15.360  25.667  1.00  0.00     0.044 C 
ATOM     20  C   UNL A   1      33.089  16.492  25.346  1.00  0.00    -0.051 A 
ATOM     21  C   UNL A   1      34.395  16.277  24.895  1.00  0.00     0.003 A 
ATOM     22  C   UNL A   1      32.606  17.795  25.432  1.00  0.00     0.012 A 
ATOM     23  C   UNL A   1      35.198  17.352  24.503  1.00  0.00     0.001 A 
ATOM     24  C   UNL A   1      34.694  18.651  24.546  1.00  0.00     0.009 A 
ENDBRANCH  12  18
ENDBRANCH   9  11
ENDBRANCH   8   9
ENDBRANCH   7   8
ENDBRANCH   6   7
ENDBRANCH   5   6
ENDBRANCH   4   5
ENDBRANCH   3   4
ENDBRANCH   2   3
ENDBRANCH   1   2
BRANCH   1  25
ATOM     25  C   UNL A   1      40.466  20.121  26.206  1.00  0.00     0.188 C 
BRANCH  25  26
ATOM     26  O   UNL A   1      41.362  20.011  27.309  1.00  0.00    -0.376 OA
BRANCH  26  27
ATOM     27  C   UNL A   1      42.297  18.951  27.236  1.00  0.00     0.202 C 
BRANCH  27  28
ATOM     28  C   UNL A   1      42.996  18.894  25.877  1.00  0.00     0.261 C 
BRANCH  28  29
ATOM     29  O   UNL A   1      44.000  19.933  25.799  1.00  0.00    -0.460 OA
BRANCH  29  30
ATOM     30  C   UNL A   1      44.198  20.466  24.557  1.00  0.00     0.338 C 
ATOM     31  O   UNL A   1      44.557  19.825  23.585  1.00  0.00    -0.246 OA
BRANCH  30  32
ATOM     32  C   UNL A   1      44.038  21.954  24.582  1.00  0.00     0.060 A 
ATOM     33  C   UNL A   1      45.022  22.807  24.050  1.00  0.00     0.016 A 
ATOM     34  C   UNL A   1      43.049  22.496  25.382  1.00  0.00     0.016 A 
ATOM     35  C   UNL A   1      45.123  24.153  24.481  1.00  0.00     0.010 A 
ATOM     36  C   UNL A   1      43.219  23.781  25.865  1.00  0.00     0.010 A 
ATOM     37  C   UNL A   1      44.269  24.630  25.474  1.00  0.00    -0.014 A 
BRANCH  37  38
ATOM     38  C   UNL A   1      44.428  25.872  26.291  1.00  0.00     0.031 A 
ATOM     39  C   UNL A   1      43.239  26.826  26.428  1.00  0.00     0.074 A 
ATOM     40  C   UNL A   1      45.442  25.981  27.203  1.00  0.00     0.049 A 
ATOM     41  N   UNL A   1      43.177  27.848  27.217  1.00  0.00    -0.248 NA
ATOM     42  C   UNL A   1      41.977  26.687  25.697  1.00  0.00     0.031 C 
ATOM     43  C   UNL A   1      45.344  26.713  28.459  1.00  0.00     0.029 A 
ATOM     44  N   UNL A   1      46.738  25.455  27.278  1.00  0.00    -0.354 N 
ATOM     45  C   UNL A   1      41.855  28.229  27.400  1.00  0.00     0.074 A 
ATOM     46  C   UNL A   1      41.162  27.529  26.350  1.00  0.00     0.031 C 
ATOM     47  C   UNL A   1      46.492  26.716  29.128  1.00  0.00     0.029 A 
ATOM     48  C   UNL A   1      47.476  26.166  28.252  1.00  0.00     0.049 A 
ATOM     49  H   UNL A   1      47.081  24.707  26.737  1.00  0.00     0.167 HD
ATOM     50  C   UNL A   1      41.513  28.983  28.498  1.00  0.00     0.034 A 
ATOM     51  C   UNL A   1      48.672  26.772  28.022  1.00  0.00     0.034 A 
ATOM     52  C   UNL A   1      42.712  29.369  29.269  1.00  0.00     0.049 A 
ATOM     53  C   UNL A   1      48.454  28.276  28.184  1.00  0.00     0.074 A 
ATOM     54  C   UNL A   1      43.094  29.252  30.595  1.00  0.00     0.029 A 
ATOM     55  N   UNL A   1      43.828  29.864  28.601  1.00  0.00    -0.354 N 
ATOM     56  N   UNL A   1      47.290  28.847  27.942  1.00  0.00    -0.248 NA
ATOM     57  C   UNL A   1      49.365  29.173  28.903  1.00  0.00     0.031 C 
ATOM     58  C   UNL A   1      44.481  29.565  30.689  1.00  0.00     0.029 A 
ATOM     59  C   UNL A   1      44.915  29.970  29.437  1.00  0.00     0.049 A 
ATOM     60  H   UNL A   1      43.838  30.109  27.648  1.00  0.00     0.167 HD
ATOM     61  C   UNL A   1      47.223  30.034  28.626  1.00  0.00     0.074 A 
ATOM     62  C   UNL A   1      48.569  30.233  29.147  1.00  0.00     0.031 C 
ATOM     63  C   UNL A   1      46.084  30.698  28.998  1.00  0.00     0.034 A 
BRANCH  50  64
ATOM     64  C   UNL A   1      40.109  29.279  29.068  1.00  0.00     0.023 A 
ATOM     65  C   UNL A   1      39.911  29.240  30.478  1.00  0.00     0.031 A 
ATOM     66  C   UNL A   1      38.928  29.519  28.336  1.00  0.00     0.131 A 
ATOM     67  C   UNL A   1      38.638  29.367  31.079  1.00  0.00     0.055 A 
ATOM     68  C   UNL A   1      37.664  29.703  28.937  1.00  0.00     0.041 A 
ATOM     69  F   UNL A   1      38.911  29.568  27.001  1.00  0.00    -0.206 F 
ATOM     70  C   UNL A   1      37.510  29.615  30.311  1.00  0.00     0.022 A 
BRANCH  67  71
ATOM     71  S   UNL A   1      38.463  29.186  32.883  1.00  0.00     0.124 S 
ATOM     72  O   UNL A   1      38.173  30.552  33.305  1.00  0.00    -0.237 OA
ATOM     73  O   UNL A   1      37.373  28.224  33.003  1.00  0.00    -0.237 OA
ATOM     74  O   UNL A   1      39.771  28.681  33.302  1.00  0.00    -0.744 OA
ENDBRANCH  67  71
ENDBRANCH  50  64
BRANCH  51  75
ATOM     75  C   UNL A   1      49.520  25.900  27.150  1.00  0.00     0.023 A 
ATOM     76  C   UNL A   1      49.561  26.321  25.786  1.00  0.00     0.031 A 
ATOM     77  C   UNL A   1      50.703  25.368  27.693  1.00  0.00     0.131 A 
ATOM     78  C   UNL A   1      50.797  26.474  25.126  1.00  0.00     0.055 A 
ATOM     79  C   UNL A   1      51.929  25.523  27.024  1.00  0.00     0.041 A 
ATOM     80  F   UNL A   1      50.736  24.947  28.965  1.00  0.00    -0.206 F 
ATOM     81  C   UNL A   1      51.988  26.132  25.769  1.00  0.00     0.022 A 
BRANCH  78  82
ATOM     82  S   UNL A   1      50.866  27.340  23.518  1.00  0.00     0.124 S 
ATOM     83  O   UNL A   1      49.599  26.957  22.907  1.00  0.00    -0.237 OA
ATOM     84  O   UNL A   1      50.987  28.740  23.910  1.00  0.00    -0.237 OA
ATOM     85  O   UNL A   1      52.060  26.786  22.882  1.00  0.00    -0.744 OA
ENDBRANCH  78  82
ENDBRANCH  51  75
BRANCH  63  86
ATOM     86  C   UNL A   1      45.984  32.201  28.938  1.00  0.00     0.023 A 
ATOM     87  C   UNL A   1      45.529  32.839  27.787  1.00  0.00     0.031 A 
ATOM     88  C   UNL A   1      46.181  33.031  30.075  1.00  0.00     0.131 A 
ATOM     89  C   UNL A   1      45.356  34.225  27.753  1.00  0.00     0.055 A 
ATOM     90  C   UNL A   1      45.925  34.402  30.063  1.00  0.00     0.041 A 
ATOM     91  F   UNL A   1      46.591  32.553  31.258  1.00  0.00    -0.206 F 
ATOM     92  C   UNL A   1      45.521  35.013  28.889  1.00  0.00     0.022 A 
BRANCH  89  93
ATOM     93  S   UNL A   1      44.988  34.949  26.147  1.00  0.00     0.124 S 
ATOM     94  O   UNL A   1      45.333  36.352  26.370  1.00  0.00    -0.237 OA
ATOM     95  O   UNL A   1      45.883  34.214  25.257  1.00  0.00    -0.237 OA
ATOM     96  O   UNL A   1      43.565  34.678  25.965  1.00  0.00    -0.744 OA
ENDBRANCH  89  93
ENDBRANCH  63  86
ENDBRANCH  37  38
ENDBRANCH  30  32
ENDBRANCH  29  30
ENDBRANCH  28  29
ENDBRANCH  27  28
ENDBRANCH  26  27
ENDBRANCH  25  26
ENDBRANCH   1  25
TORSDOF 24
ENDMDL
MODEL 3
REMARK VINA RESULT:     -10.2      2.145      3.363
REMARK SMILES Cc1cccc(-c2ccc(Cl)c(C(=O)OCCOCCOCCOCCOC(=O)c3ccc(-c4c5nc(c(-c6cc(S(=O)(=O)[O-])ccc6F)c6ccc([nH]6)c(-c6cc(S(=O)(=O)[O-])ccc6F)c6nc(c(-c7cc(S(=O)(=O)[O-])ccc7F)c7ccc4[nH]7)C=C6)C=C5)cc3)c2)c1
REMARK SMILES IDX 22 1 21 2 20 3 19 4 18 5 17 6 16 7 15 8 13 9 14 10 12 11
REMARK SMILES IDX 7 12 8 13 93 14 9 15 10 16 11 17 6 18 1 19 2 20 3 21 94 22
REMARK SMILES IDX 4 23 5 24 23 25 24 26 25 27 26 28 27 29 28 30 29 31 30 32
REMARK SMILES IDX 31 33 92 34 32 35 91 36 33 37 34 38 35 39 85 40 36 41 90 42
REMARK SMILES IDX 84 43 86 44 37 45 89 46 83 47 82 48 38 50 70 51 50 52 69 53
REMARK SMILES IDX 51 54 54 55 68 56 87 57 52 58 53 59 67 61 88 62 55 63 39 64
REMARK SMILES IDX 40 65 48 66 41 67 47 68 49 69 46 70 42 71 43 72 44 73 45 74
REMARK SMILES IDX 71 75 72 76 80 77 73 78 79 79 81 80 78 81 74 82 75 83 76 84
REMARK SMILES IDX 77 85 56 86 57 87 65 88 58 89 64 90 66 91 63 92 59 93 60 94
REMARK SMILES IDX 61 95 62 96
REMARK H PARENT 86 49 54 60
REMARK Flexibility Score: inf
ROOT
ATOM      1  C   UNL A   1      38.803  22.433  26.429  1.00  0.00     0.188 C 
ENDROOT
BRANCH   1   2
ATOM      2  O   UNL A   1      37.877  22.171  25.374  1.00  0.00    -0.377 OA
BRANCH   2   3
ATOM      3  C   UNL A   1      36.675  21.505  25.695  1.00  0.00     0.188 C 
BRANCH   3   4
ATOM      4  C   UNL A   1      35.398  22.193  25.177  1.00  0.00     0.188 C 
BRANCH   4   5
ATOM      5  O   UNL A   1      34.737  23.163  25.985  1.00  0.00    -0.376 OA
BRANCH   5   6
ATOM      6  C   UNL A   1      34.509  22.764  27.340  1.00  0.00     0.202 C 
BRANCH   6   7
ATOM      7  C   UNL A   1      33.099  22.332  27.695  1.00  0.00     0.261 C 
BRANCH   7   8
ATOM      8  O   UNL A   1      32.235  23.452  27.486  1.00  0.00    -0.460 OA
BRANCH   8   9
ATOM      9  C   UNL A   1      31.038  23.122  26.982  1.00  0.00     0.339 C 
ATOM     10  O   UNL A   1      29.979  23.053  27.576  1.00  0.00    -0.246 OA
BRANCH   9  11
ATOM     11  C   UNL A   1      31.082  23.432  25.552  1.00  0.00     0.079 A 
ATOM     12  C   UNL A   1      30.443  25.240  24.059  1.00  0.00    -0.017 A 
ATOM     13  C   UNL A   1      30.696  24.422  22.966  1.00  0.00     0.010 A 
ATOM     14  C   UNL A   1      30.660  24.735  25.336  1.00  0.00     0.026 A 
ATOM     15  C   UNL A   1      31.250  23.153  23.174  1.00  0.00     0.022 A 
ATOM     16  C   UNL A   1      31.462  22.659  24.470  1.00  0.00     0.055 A 
ATOM     17  Cl  UNL A   1      32.167  21.112  24.582  1.00  0.00    -0.083 Cl
BRANCH  12  18
ATOM     18  C   UNL A   1      29.715  26.497  24.070  1.00  0.00    -0.018 A 
ATOM     19  C   UNL A   1      30.411  29.655  22.111  1.00  0.00     0.044 C 
ATOM     20  C   UNL A   1      29.663  28.613  22.882  1.00  0.00    -0.051 A 
ATOM     21  C   UNL A   1      28.266  28.604  22.954  1.00  0.00     0.003 A 
ATOM     22  C   UNL A   1      30.379  27.582  23.483  1.00  0.00     0.012 A 
ATOM     23  C   UNL A   1      27.593  27.558  23.592  1.00  0.00     0.001 A 
ATOM     24  C   UNL A   1      28.314  26.504  24.151  1.00  0.00     0.009 A 
ENDBRANCH  12  18
ENDBRANCH   9  11
ENDBRANCH   8   9
ENDBRANCH   7   8
ENDBRANCH   6   7
ENDBRANCH   5   6
ENDBRANCH   4   5
ENDBRANCH   3   4
ENDBRANCH   2   3
ENDBRANCH   1   2
BRANCH   1  25
ATOM     25  C   UNL A   1      40.293  22.349  26.155  1.00  0.00     0.188 C 
BRANCH  25  26
ATOM     26  O   UNL A   1      40.874  21.578  27.203  1.00  0.00    -0.376 OA
BRANCH  26  27
ATOM     27  C   UNL A   1      40.821  20.174  27.033  1.00  0.00     0.202 C 
BRANCH  27  28
ATOM     28  C   UNL A   1      41.873  19.676  26.041  1.00  0.00     0.261 C 
BRANCH  28  29
ATOM     29  O   UNL A   1      43.124  20.366  26.267  1.00  0.00    -0.460 OA
BRANCH  29  30
ATOM     30  C   UNL A   1      43.874  20.603  25.149  1.00  0.00     0.338 C 
ATOM     31  O   UNL A   1      44.076  19.779  24.273  1.00  0.00    -0.246 OA
BRANCH  30  32
ATOM     32  C   UNL A   1      44.512  21.955  25.209  1.00  0.00     0.060 A 
ATOM     33  C   UNL A   1      45.408  22.298  26.238  1.00  0.00     0.016 A 
ATOM     34  C   UNL A   1      44.002  22.960  24.407  1.00  0.00     0.016 A 
ATOM     35  C   UNL A   1      45.630  23.655  26.581  1.00  0.00     0.010 A 
ATOM     36  C   UNL A   1      44.153  24.272  24.815  1.00  0.00     0.010 A 
ATOM     37  C   UNL A   1      44.924  24.662  25.924  1.00  0.00    -0.014 A 
BRANCH  37  38
ATOM     38  C   UNL A   1      44.757  26.084  26.354  1.00  0.00     0.031 A 
ATOM     39  C   UNL A   1      43.347  26.674  26.431  1.00  0.00     0.074 A 
ATOM     40  C   UNL A   1      45.756  26.731  27.028  1.00  0.00     0.049 A 
ATOM     41  N   UNL A   1      43.034  27.826  26.926  1.00  0.00    -0.248 NA
ATOM     42  C   UNL A   1      42.136  25.985  25.976  1.00  0.00     0.031 C 
ATOM     43  C   UNL A   1      45.536  27.746  28.050  1.00  0.00     0.029 A 
ATOM     44  N   UNL A   1      47.153  26.625  27.026  1.00  0.00    -0.354 N 
ATOM     45  C   UNL A   1      41.678  27.868  27.217  1.00  0.00     0.074 A 
ATOM     46  C   UNL A   1      41.155  26.727  26.513  1.00  0.00     0.031 C 
ATOM     47  C   UNL A   1      46.676  28.261  28.499  1.00  0.00     0.029 A 
ATOM     48  C   UNL A   1      47.710  27.766  27.648  1.00  0.00     0.049 A 
ATOM     49  H   UNL A   1      47.666  25.873  26.649  1.00  0.00     0.167 HD
ATOM     50  C   UNL A   1      41.208  28.790  28.123  1.00  0.00     0.034 A 
ATOM     51  C   UNL A   1      48.639  28.579  27.077  1.00  0.00     0.034 A 
ATOM     52  C   UNL A   1      42.286  29.699  28.561  1.00  0.00     0.049 A 
ATOM     53  C   UNL A   1      47.982  29.944  26.876  1.00  0.00     0.074 A 
ATOM     54  C   UNL A   1      42.788  30.089  29.792  1.00  0.00     0.029 A 
ATOM     55  N   UNL A   1      43.140  30.259  27.615  1.00  0.00    -0.354 N 
ATOM     56  N   UNL A   1      46.684  30.078  26.688  1.00  0.00    -0.248 NA
ATOM     57  C   UNL A   1      48.626  31.226  27.180  1.00  0.00     0.031 C 
ATOM     58  C   UNL A   1      44.014  30.781  29.574  1.00  0.00     0.029 A 
ATOM     59  C   UNL A   1      44.203  30.900  28.206  1.00  0.00     0.049 A 
ATOM     60  H   UNL A   1      42.999  30.204  26.643  1.00  0.00     0.167 HD
ATOM     61  C   UNL A   1      46.308  31.348  27.042  1.00  0.00     0.074 A 
ATOM     62  C   UNL A   1      47.564  32.052  27.266  1.00  0.00     0.031 C 
ATOM     63  C   UNL A   1      45.053  31.755  27.409  1.00  0.00     0.034 A 
BRANCH  50  64
ATOM     64  C   UNL A   1      39.830  28.847  28.817  1.00  0.00     0.023 A 
ATOM     65  C   UNL A   1      39.044  30.028  28.700  1.00  0.00     0.031 A 
ATOM     66  C   UNL A   1      39.257  27.865  29.652  1.00  0.00     0.131 A 
ATOM     67  C   UNL A   1      37.835  30.219  29.407  1.00  0.00     0.055 A 
ATOM     68  C   UNL A   1      38.023  28.031  30.315  1.00  0.00     0.041 A 
ATOM     69  F   UNL A   1      39.860  26.699  29.901  1.00  0.00    -0.206 F 
ATOM     70  C   UNL A   1      37.311  29.214  30.207  1.00  0.00     0.022 A 
BRANCH  67  71
ATOM     71  S   UNL A   1      36.955  31.810  29.290  1.00  0.00     0.124 S 
ATOM     72  O   UNL A   1      38.042  32.748  29.031  1.00  0.00    -0.237 OA
ATOM     73  O   UNL A   1      36.021  31.578  28.193  1.00  0.00    -0.237 OA
ATOM     74  O   UNL A   1      36.328  31.949  30.605  1.00  0.00    -0.744 OA
ENDBRANCH  67  71
ENDBRANCH  50  64
BRANCH  51  75
ATOM     75  C   UNL A   1      49.644  27.753  26.335  1.00  0.00     0.023 A 
ATOM     76  C   UNL A   1      49.202  27.340  25.041  1.00  0.00     0.031 A 
ATOM     77  C   UNL A   1      51.004  28.080  26.474  1.00  0.00     0.131 A 
ATOM     78  C   UNL A   1      50.020  27.546  23.912  1.00  0.00     0.055 A 
ATOM     79  C   UNL A   1      51.811  28.278  25.341  1.00  0.00     0.041 A 
ATOM     80  F   UNL A   1      51.490  28.469  27.662  1.00  0.00    -0.206 F 
ATOM     81  C   UNL A   1      51.304  28.073  24.057  1.00  0.00     0.022 A 
BRANCH  78  82
ATOM     82  S   UNL A   1      49.320  27.346  22.236  1.00  0.00     0.124 S 
ATOM     83  O   UNL A   1      50.477  26.898  21.470  1.00  0.00    -0.237 OA
ATOM     84  O   UNL A   1      48.269  26.355  22.441  1.00  0.00    -0.237 OA
ATOM     85  O   UNL A   1      48.831  28.683  21.905  1.00  0.00    -0.744 OA
ENDBRANCH  78  82
ENDBRANCH  51  75
BRANCH  63  86
ATOM     86  C   UNL A   1      44.491  33.086  26.978  1.00  0.00     0.023 A 
ATOM     87  C   UNL A   1      44.576  34.198  27.812  1.00  0.00     0.031 A 
ATOM     88  C   UNL A   1      44.003  33.326  25.665  1.00  0.00     0.131 A 
ATOM     89  C   UNL A   1      44.131  35.452  27.385  1.00  0.00     0.055 A 
ATOM     90  C   UNL A   1      43.641  34.595  25.213  1.00  0.00     0.041 A 
ATOM     91  F   UNL A   1      43.891  32.357  24.746  1.00  0.00    -0.206 F 
ATOM     92  C   UNL A   1      43.690  35.671  26.083  1.00  0.00     0.022 A 
BRANCH  89  93
ATOM     93  S   UNL A   1      44.082  36.752  28.630  1.00  0.00     0.124 S 
ATOM     94  O   UNL A   1      44.552  37.907  27.867  1.00  0.00    -0.237 OA
ATOM     95  O   UNL A   1      42.671  36.776  29.004  1.00  0.00    -0.237 OA
ATOM     96  O   UNL A   1      44.994  36.274  29.664  1.00  0.00    -0.744 OA
ENDBRANCH  89  93
ENDBRANCH  63  86
ENDBRANCH  37  38
ENDBRANCH  30  32
ENDBRANCH  29  30
ENDBRANCH  28  29
ENDBRANCH  27  28
ENDBRANCH  26  27
ENDBRANCH  25  26
ENDBRANCH   1  25
TORSDOF 24
ENDMDL
