MODEL 1
REMARK VINA RESULT:      -7.8      0.000      0.000
REMARK SMILES CCC[C@H](NC(=O)Cn1cccc1C(=O)OCCOCCOCCOCCOC(=O)c1ccc(-c2c3nc(c(-c4cc(S(=O)(=O)[O-])ccc4F)c4ccc([nH]4)c(-c4cc(S(=O)(=O)[O-])ccc4F)c4nc(c(-c5cc(S(=O)(=O)[O-])ccc5F)c5ccc2[nH]5)C=C4)C=C3)cc1)c1cccs1
REMARK SMILES IDX 21 1 20 2 19 3 18 4 17 5 16 6 14 7 15 8 13 9 9 10 10 11
REMARK SMILES IDX 11 12 12 13 8 14 6 15 5 16 7 18 4 19 3 20 2 21 1 22 94 23
REMARK SMILES IDX 95 24 98 25 96 26 97 27 22 28 23 29 24 30 25 31 26 32 27 33
REMARK SMILES IDX 28 34 29 35 30 36 31 37 32 38 93 39 33 40 92 41 34 42 35 43
REMARK SMILES IDX 36 44 86 45 37 46 91 47 85 48 87 49 38 50 90 51 84 52 83 53
REMARK SMILES IDX 39 55 71 56 51 57 70 58 52 59 55 60 69 61 88 62 53 63 54 64
REMARK SMILES IDX 68 66 89 67 56 68 40 69 41 70 49 71 42 72 48 73 50 74 47 75
REMARK SMILES IDX 43 76 44 77 45 78 46 79 72 80 73 81 81 82 74 83 80 84 82 85
REMARK SMILES IDX 79 86 75 87 76 88 77 89 78 90 57 91 58 92 66 93 59 94 65 95
REMARK SMILES IDX 67 96 64 97 60 98 61 99 62 100 63 101
REMARK H PARENT 5 17 87 54 55 65
REMARK Flexibility Score: inf
ROOT
ATOM      1  C   UNL A   1      33.008  27.963  26.823  1.00  0.00     0.188 C 
ENDROOT
BRANCH   1   2
ATOM      2  C   UNL A   1      31.527  27.617  27.124  1.00  0.00     0.188 C 
BRANCH   2   3
ATOM      3  O   UNL A   1      30.852  26.490  26.564  1.00  0.00    -0.376 OA
BRANCH   3   4
ATOM      4  C   UNL A   1      31.533  25.578  25.723  1.00  0.00     0.202 C 
BRANCH   4   5
ATOM      5  C   UNL A   1      32.209  24.393  26.420  1.00  0.00     0.261 C 
BRANCH   5   6
ATOM      6  O   UNL A   1      33.601  24.254  26.109  1.00  0.00    -0.459 OA
BRANCH   6   7
ATOM      7  C   UNL A   1      33.877  23.766  24.867  1.00  0.00     0.355 C 
ATOM      8  O   UNL A   1      34.162  24.453  23.898  1.00  0.00    -0.244 OA
BRANCH   7   9
ATOM      9  C   UNL A   1      33.871  22.306  24.870  1.00  0.00     0.128 A 
ATOM     10  N   UNL A   1      34.856  21.404  25.244  1.00  0.00    -0.333 N 
ATOM     11  C   UNL A   1      34.467  20.131  24.883  1.00  0.00     0.087 A 
ATOM     12  C   UNL A   1      33.176  20.184  24.421  1.00  0.00     0.020 A 
ATOM     13  C   UNL A   1      32.791  21.538  24.446  1.00  0.00     0.035 A 
BRANCH  10  14
ATOM     14  C   UNL A   1      36.165  21.674  25.825  1.00  0.00     0.222 C 
BRANCH  14  15
ATOM     15  C   UNL A   1      37.211  22.153  24.836  1.00  0.00     0.240 C 
ATOM     16  N   UNL A   1      38.481  22.502  25.184  1.00  0.00    -0.347 N 
ATOM     17  H   UNL A   1      38.939  23.029  24.490  1.00  0.00     0.164 HD
ATOM     18  O   UNL A   1      36.909  22.318  23.648  1.00  0.00    -0.273 OA
BRANCH  16  19
ATOM     19  C   UNL A   1      39.317  22.265  26.368  1.00  0.00     0.122 C 
BRANCH  19  20
ATOM     20  C   UNL A   1      40.611  21.497  26.066  1.00  0.00     0.030 C 
BRANCH  20  21
ATOM     21  C   UNL A   1      40.915  20.280  26.938  1.00  0.00    -0.001 C 
ATOM     22  C   UNL A   1      41.733  19.234  26.203  1.00  0.00     0.004 C 
ENDBRANCH  20  21
ENDBRANCH  19  20
BRANCH  19  23
ATOM     23  C   UNL A   1      39.524  23.585  27.103  1.00  0.00     0.027 A 
ATOM     24  C   UNL A   1      38.642  24.639  27.295  1.00  0.00     0.017 A 
ATOM     25  S   UNL A   1      41.012  23.911  27.910  1.00  0.00    -0.147 S 
ATOM     26  C   UNL A   1      39.225  25.740  27.987  1.00  0.00     0.012 A 
ATOM     27  C   UNL A   1      40.522  25.482  28.356  1.00  0.00     0.065 A 
ENDBRANCH  19  23
ENDBRANCH  16  19
ENDBRANCH  14  15
ENDBRANCH  10  14
ENDBRANCH   7   9
ENDBRANCH   6   7
ENDBRANCH   5   6
ENDBRANCH   4   5
ENDBRANCH   3   4
ENDBRANCH   2   3
ENDBRANCH   1   2
BRANCH   1  28
ATOM     28  O   UNL A   1      33.552  29.072  27.526  1.00  0.00    -0.377 OA
BRANCH  28  29
ATOM     29  C   UNL A   1      34.740  29.614  26.956  1.00  0.00     0.188 C 
BRANCH  29  30
ATOM     30  C   UNL A   1      35.982  29.568  27.866  1.00  0.00     0.188 C 
BRANCH  30  31
ATOM     31  O   UNL A   1      36.389  30.846  28.341  1.00  0.00    -0.376 OA
BRANCH  31  32
ATOM     32  C   UNL A   1      35.779  31.394  29.500  1.00  0.00     0.202 C 
BRANCH  32  33
ATOM     33  C   UNL A   1      36.332  30.843  30.821  1.00  0.00     0.261 C 
BRANCH  33  34
ATOM     34  O   UNL A   1      36.020  31.628  31.967  1.00  0.00    -0.460 OA
BRANCH  34  35
ATOM     35  C   UNL A   1      36.068  32.953  31.738  1.00  0.00     0.338 C 
ATOM     36  O   UNL A   1      35.178  33.676  31.325  1.00  0.00    -0.246 OA
BRANCH  35  37
ATOM     37  C   UNL A   1      37.402  33.470  31.991  1.00  0.00     0.060 A 
ATOM     38  C   UNL A   1      37.975  34.159  30.919  1.00  0.00     0.016 A 
ATOM     39  C   UNL A   1      38.144  32.817  32.977  1.00  0.00     0.016 A 
ATOM     40  C   UNL A   1      39.311  33.966  30.680  1.00  0.00     0.010 A 
ATOM     41  C   UNL A   1      39.472  32.591  32.712  1.00  0.00     0.010 A 
ATOM     42  C   UNL A   1      40.016  33.104  31.526  1.00  0.00    -0.014 A 
BRANCH  42  43
ATOM     43  C   UNL A   1      41.399  32.798  31.171  1.00  0.00     0.031 A 
ATOM     44  C   UNL A   1      41.469  31.479  30.419  1.00  0.00     0.074 A 
ATOM     45  C   UNL A   1      42.338  33.688  31.613  1.00  0.00     0.049 A 
ATOM     46  N   UNL A   1      42.428  30.614  30.367  1.00  0.00    -0.248 NA
ATOM     47  C   UNL A   1      40.247  30.975  29.722  1.00  0.00     0.031 C 
ATOM     48  C   UNL A   1      42.047  34.913  32.402  1.00  0.00     0.029 A 
ATOM     49  N   UNL A   1      43.709  33.756  31.508  1.00  0.00    -0.354 N 
ATOM     50  C   UNL A   1      42.038  29.637  29.432  1.00  0.00     0.074 A 
ATOM     51  C   UNL A   1      40.634  29.800  29.229  1.00  0.00     0.031 C 
ATOM     52  C   UNL A   1      43.188  35.551  32.746  1.00  0.00     0.029 A 
ATOM     53  C   UNL A   1      44.323  34.841  32.190  1.00  0.00     0.049 A 
ATOM     54  H   UNL A   1      44.229  33.097  30.994  1.00  0.00     0.167 HD
ATOM     55  C   UNL A   1      42.933  28.887  28.733  1.00  0.00     0.034 A 
ATOM     56  C   UNL A   1      45.654  35.140  32.309  1.00  0.00     0.034 A 
ATOM     57  C   UNL A   1      44.262  29.211  29.140  1.00  0.00     0.049 A 
ATOM     58  C   UNL A   1      46.341  34.189  31.419  1.00  0.00     0.074 A 
ATOM     59  C   UNL A   1      44.958  29.004  30.301  1.00  0.00     0.029 A 
ATOM     60  N   UNL A   1      44.933  30.141  28.377  1.00  0.00    -0.354 N 
ATOM     61  N   UNL A   1      46.311  34.236  30.122  1.00  0.00    -0.248 NA
ATOM     62  C   UNL A   1      47.067  33.058  32.009  1.00  0.00     0.031 C 
ATOM     63  C   UNL A   1      45.797  30.133  30.397  1.00  0.00     0.029 A 
ATOM     64  C   UNL A   1      45.684  30.907  29.233  1.00  0.00     0.049 A 
ATOM     65  H   UNL A   1      44.884  30.238  27.399  1.00  0.00     0.167 HD
ATOM     66  C   UNL A   1      46.724  32.979  29.760  1.00  0.00     0.074 A 
ATOM     67  C   UNL A   1      47.452  32.446  30.891  1.00  0.00     0.031 C 
ATOM     68  C   UNL A   1      45.989  32.276  28.859  1.00  0.00     0.034 A 
BRANCH  55  69
ATOM     69  C   UNL A   1      42.772  28.041  27.502  1.00  0.00     0.023 A 
ATOM     70  C   UNL A   1      43.569  26.874  27.456  1.00  0.00     0.031 A 
ATOM     71  C   UNL A   1      42.160  28.426  26.301  1.00  0.00     0.131 A 
ATOM     72  C   UNL A   1      43.842  26.222  26.250  1.00  0.00     0.055 A 
ATOM     73  C   UNL A   1      42.370  27.722  25.107  1.00  0.00     0.041 A 
ATOM     74  F   UNL A   1      41.416  29.535  26.206  1.00  0.00    -0.206 F 
ATOM     75  C   UNL A   1      43.244  26.639  25.068  1.00  0.00     0.022 A 
BRANCH  72  76
ATOM     76  S   UNL A   1      45.137  24.954  26.248  1.00  0.00     0.124 S 
ATOM     77  O   UNL A   1      44.969  24.338  27.560  1.00  0.00    -0.237 OA
ATOM     78  O   UNL A   1      44.753  24.132  25.105  1.00  0.00    -0.237 OA
ATOM     79  O   UNL A   1      46.365  25.726  26.075  1.00  0.00    -0.744 OA
ENDBRANCH  72  76
ENDBRANCH  55  69
BRANCH  56  80
ATOM     80  C   UNL A   1      46.549  36.096  33.077  1.00  0.00     0.023 A 
ATOM     81  C   UNL A   1      47.237  37.199  32.544  1.00  0.00     0.031 A 
ATOM     82  C   UNL A   1      46.676  35.943  34.494  1.00  0.00     0.131 A 
ATOM     83  C   UNL A   1      47.936  38.093  33.402  1.00  0.00     0.055 A 
ATOM     84  C   UNL A   1      47.300  36.862  35.338  1.00  0.00     0.041 A 
ATOM     85  F   UNL A   1      46.183  34.881  35.146  1.00  0.00    -0.206 F 
ATOM     86  C   UNL A   1      47.928  37.956  34.793  1.00  0.00     0.022 A 
BRANCH  83  87
ATOM     87  S   UNL A   1      48.883  39.500  32.752  1.00  0.00     0.124 S 
ATOM     88  O   UNL A   1      49.564  39.984  33.949  1.00  0.00    -0.237 OA
ATOM     89  O   UNL A   1      49.734  38.895  31.735  1.00  0.00    -0.237 OA
ATOM     90  O   UNL A   1      47.835  40.382  32.235  1.00  0.00    -0.744 OA
ENDBRANCH  83  87
ENDBRANCH  56  80
BRANCH  68  91
ATOM     91  C   UNL A   1      45.214  33.147  27.869  1.00  0.00     0.023 A 
ATOM     92  C   UNL A   1      44.323  34.137  28.333  1.00  0.00     0.031 A 
ATOM     93  C   UNL A   1      45.236  32.949  26.478  1.00  0.00     0.131 A 
ATOM     94  C   UNL A   1      43.491  34.842  27.438  1.00  0.00     0.055 A 
ATOM     95  C   UNL A   1      44.417  33.651  25.585  1.00  0.00     0.041 A 
ATOM     96  F   UNL A   1      46.053  32.053  25.929  1.00  0.00    -0.206 F 
ATOM     97  C   UNL A   1      43.531  34.601  26.064  1.00  0.00     0.022 A 
BRANCH  94  98
ATOM     98  S   UNL A   1      42.363  36.113  28.075  1.00  0.00     0.124 S 
ATOM     99  O   UNL A   1      42.126  36.949  26.904  1.00  0.00    -0.237 OA
ATOM    100  O   UNL A   1      41.225  35.325  28.539  1.00  0.00    -0.237 OA
ATOM    101  O   UNL A   1      43.136  36.750  29.142  1.00  0.00    -0.744 OA
ENDBRANCH  94  98
ENDBRANCH  68  91
ENDBRANCH  42  43
ENDBRANCH  35  37
ENDBRANCH  34  35
ENDBRANCH  33  34
ENDBRANCH  32  33
ENDBRANCH  31  32
ENDBRANCH  30  31
ENDBRANCH  29  30
ENDBRANCH  28  29
ENDBRANCH   1  28
TORSDOF 29
ENDMDL
MODEL 2
REMARK VINA RESULT:      -7.5      4.616     13.884
REMARK SMILES CCC[C@H](NC(=O)Cn1cccc1C(=O)OCCOCCOCCOCCOC(=O)c1ccc(-c2c3nc(c(-c4cc(S(=O)(=O)[O-])ccc4F)c4ccc([nH]4)c(-c4cc(S(=O)(=O)[O-])ccc4F)c4nc(c(-c5cc(S(=O)(=O)[O-])ccc5F)c5ccc2[nH]5)C=C4)C=C3)cc1)c1cccs1
REMARK SMILES IDX 21 1 20 2 19 3 18 4 17 5 16 6 14 7 15 8 13 9 9 10 10 11
REMARK SMILES IDX 11 12 12 13 8 14 6 15 5 16 7 18 4 19 3 20 2 21 1 22 94 23
REMARK SMILES IDX 95 24 98 25 96 26 97 27 22 28 23 29 24 30 25 31 26 32 27 33
REMARK SMILES IDX 28 34 29 35 30 36 31 37 32 38 93 39 33 40 92 41 34 42 35 43
REMARK SMILES IDX 36 44 86 45 37 46 91 47 85 48 87 49 38 50 90 51 84 52 83 53
REMARK SMILES IDX 39 55 71 56 51 57 70 58 52 59 55 60 69 61 88 62 53 63 54 64
REMARK SMILES IDX 68 66 89 67 56 68 40 69 41 70 49 71 42 72 48 73 50 74 47 75
REMARK SMILES IDX 43 76 44 77 45 78 46 79 72 80 73 81 81 82 74 83 80 84 82 85
REMARK SMILES IDX 79 86 75 87 76 88 77 89 78 90 57 91 58 92 66 93 59 94 65 95
REMARK SMILES IDX 67 96 64 97 60 98 61 99 62 100 63 101
REMARK H PARENT 5 17 87 54 55 65
REMARK Flexibility Score: inf
ROOT
ATOM      1  C   UNL A   1      47.726  37.665  28.523  1.00  0.00     0.188 C 
ENDROOT
BRANCH   1   2
ATOM      2  C   UNL A   1      46.968  38.211  29.760  1.00  0.00     0.188 C 
BRANCH   2   3
ATOM      3  O   UNL A   1      47.609  38.902  30.834  1.00  0.00    -0.376 OA
BRANCH   3   4
ATOM      4  C   UNL A   1      46.889  39.268  31.997  1.00  0.00     0.202 C 
BRANCH   4   5
ATOM      5  C   UNL A   1      46.042  40.540  31.891  1.00  0.00     0.261 C 
BRANCH   5   6
ATOM      6  O   UNL A   1      45.136  40.725  32.987  1.00  0.00    -0.459 OA
BRANCH   6   7
ATOM      7  C   UNL A   1      43.813  40.652  32.671  1.00  0.00     0.355 C 
ATOM      8  O   UNL A   1      43.273  39.681  32.164  1.00  0.00    -0.244 OA
BRANCH   7   9
ATOM      9  C   UNL A   1      43.110  41.858  33.099  1.00  0.00     0.128 A 
ATOM     10  N   UNL A   1      42.714  42.972  32.372  1.00  0.00    -0.333 N 
ATOM     11  C   UNL A   1      42.263  43.944  33.241  1.00  0.00     0.087 A 
ATOM     12  C   UNL A   1      42.220  43.412  34.506  1.00  0.00     0.020 A 
ATOM     13  C   UNL A   1      42.716  42.098  34.411  1.00  0.00     0.035 A 
BRANCH  10  14
ATOM     14  C   UNL A   1      42.820  43.210  30.939  1.00  0.00     0.222 C 
BRANCH  14  15
ATOM     15  C   UNL A   1      43.846  44.256  30.545  1.00  0.00     0.240 C 
ATOM     16  N   UNL A   1      45.005  43.973  29.887  1.00  0.00    -0.347 N 
ATOM     17  H   UNL A   1      45.666  44.701  29.940  1.00  0.00     0.164 HD
ATOM     18  O   UNL A   1      43.691  45.435  30.887  1.00  0.00    -0.273 OA
BRANCH  16  19
ATOM     19  C   UNL A   1      45.485  42.819  29.115  1.00  0.00     0.122 C 
BRANCH  19  20
ATOM     20  C   UNL A   1      44.542  42.404  27.976  1.00  0.00     0.030 C 
BRANCH  20  21
ATOM     21  C   UNL A   1      44.024  40.968  27.996  1.00  0.00    -0.001 C 
ATOM     22  C   UNL A   1      44.756  40.077  27.009  1.00  0.00     0.004 C 
ENDBRANCH  20  21
ENDBRANCH  19  20
BRANCH  19  23
ATOM     23  C   UNL A   1      46.923  43.076  28.681  1.00  0.00     0.027 A 
ATOM     24  C   UNL A   1      47.537  44.263  28.306  1.00  0.00     0.017 A 
ATOM     25  S   UNL A   1      48.075  41.792  28.671  1.00  0.00    -0.147 S 
ATOM     26  C   UNL A   1      48.892  44.092  27.902  1.00  0.00     0.012 A 
ATOM     27  C   UNL A   1      49.303  42.787  28.029  1.00  0.00     0.065 A 
ENDBRANCH  19  23
ENDBRANCH  16  19
ENDBRANCH  14  15
ENDBRANCH  10  14
ENDBRANCH   7   9
ENDBRANCH   6   7
ENDBRANCH   5   6
ENDBRANCH   4   5
ENDBRANCH   3   4
ENDBRANCH   2   3
ENDBRANCH   1   2
BRANCH   1  28
ATOM     28  O   UNL A   1      46.939  37.395  27.371  1.00  0.00    -0.377 OA
BRANCH  28  29
ATOM     29  C   UNL A   1      47.668  37.359  26.147  1.00  0.00     0.188 C 
BRANCH  29  30
ATOM     30  C   UNL A   1      47.774  35.971  25.489  1.00  0.00     0.188 C 
BRANCH  30  31
ATOM     31  O   UNL A   1      48.933  35.242  25.879  1.00  0.00    -0.376 OA
BRANCH  31  32
ATOM     32  C   UNL A   1      48.793  34.021  26.589  1.00  0.00     0.202 C 
BRANCH  32  33
ATOM     33  C   UNL A   1      48.990  34.149  28.105  1.00  0.00     0.261 C 
BRANCH  33  34
ATOM     34  O   UNL A   1      47.961  33.553  28.888  1.00  0.00    -0.460 OA
BRANCH  34  35
ATOM     35  C   UNL A   1      47.531  34.335  29.894  1.00  0.00     0.338 C 
ATOM     36  O   UNL A   1      48.199  34.927  30.723  1.00  0.00    -0.246 OA
BRANCH  35  37
ATOM     37  C   UNL A   1      46.078  34.360  29.939  1.00  0.00     0.060 A 
ATOM     38  C   UNL A   1      45.521  33.831  31.107  1.00  0.00     0.016 A 
ATOM     39  C   UNL A   1      45.419  34.388  28.709  1.00  0.00     0.016 A 
ATOM     40  C   UNL A   1      44.386  33.072  30.981  1.00  0.00     0.010 A 
ATOM     41  C   UNL A   1      44.307  33.593  28.579  1.00  0.00     0.010 A 
ATOM     42  C   UNL A   1      43.855  32.885  29.701  1.00  0.00    -0.014 A 
BRANCH  42  43
ATOM     43  C   UNL A   1      42.734  31.958  29.569  1.00  0.00     0.031 A 
ATOM     44  C   UNL A   1      43.203  30.650  28.953  1.00  0.00     0.074 A 
ATOM     45  C   UNL A   1      41.514  32.441  29.953  1.00  0.00     0.049 A 
ATOM     46  N   UNL A   1      42.551  29.806  28.224  1.00  0.00    -0.248 NA
ATOM     47  C   UNL A   1      44.648  30.280  29.050  1.00  0.00     0.031 C 
ATOM     48  C   UNL A   1      41.266  33.805  30.487  1.00  0.00     0.029 A 
ATOM     49  N   UNL A   1      40.243  31.910  29.973  1.00  0.00    -0.354 N 
ATOM     50  C   UNL A   1      43.404  28.705  28.023  1.00  0.00     0.074 A 
ATOM     51  C   UNL A   1      44.720  29.135  28.373  1.00  0.00     0.031 C 
ATOM     52  C   UNL A   1      39.948  34.006  30.714  1.00  0.00     0.029 A 
ATOM     53  C   UNL A   1      39.216  32.796  30.395  1.00  0.00     0.049 A 
ATOM     54  H   UNL A   1      40.060  30.979  29.714  1.00  0.00     0.167 HD
ATOM     55  C   UNL A   1      42.941  27.450  27.774  1.00  0.00     0.034 A 
ATOM     56  C   UNL A   1      37.866  32.576  30.469  1.00  0.00     0.034 A 
ATOM     57  C   UNL A   1      41.516  27.463  27.698  1.00  0.00     0.049 A 
ATOM     58  C   UNL A   1      37.697  31.140  30.187  1.00  0.00     0.074 A 
ATOM     59  C   UNL A   1      40.635  27.994  26.794  1.00  0.00     0.029 A 
ATOM     60  N   UNL A   1      40.832  27.139  28.849  1.00  0.00    -0.354 N 
ATOM     61  N   UNL A   1      38.033  30.183  30.998  1.00  0.00    -0.248 NA
ATOM     62  C   UNL A   1      37.175  30.728  28.880  1.00  0.00     0.031 C 
ATOM     63  C   UNL A   1      39.530  28.376  27.583  1.00  0.00     0.029 A 
ATOM     64  C   UNL A   1      39.717  27.939  28.902  1.00  0.00     0.049 A 
ATOM     65  H   UNL A   1      41.093  26.460  29.511  1.00  0.00     0.167 HD
ATOM     66  C   UNL A   1      38.070  29.085  30.176  1.00  0.00     0.074 A 
ATOM     67  C   UNL A   1      37.253  29.407  29.025  1.00  0.00     0.031 C 
ATOM     68  C   UNL A   1      39.163  28.279  30.200  1.00  0.00     0.034 A 
BRANCH  55  69
ATOM     69  C   UNL A   1      43.618  26.111  27.838  1.00  0.00     0.023 A 
ATOM     70  C   UNL A   1      43.185  25.162  26.882  1.00  0.00     0.031 A 
ATOM     71  C   UNL A   1      44.393  25.619  28.897  1.00  0.00     0.131 A 
ATOM     72  C   UNL A   1      43.402  23.793  27.062  1.00  0.00     0.055 A 
ATOM     73  C   UNL A   1      44.679  24.253  29.033  1.00  0.00     0.041 A 
ATOM     74  F   UNL A   1      44.826  26.410  29.888  1.00  0.00    -0.206 F 
ATOM     75  C   UNL A   1      44.151  23.328  28.135  1.00  0.00     0.022 A 
BRANCH  72  76
ATOM     76  S   UNL A   1      42.520  22.647  25.969  1.00  0.00     0.124 S 
ATOM     77  O   UNL A   1      42.911  21.347  26.504  1.00  0.00    -0.237 OA
ATOM     78  O   UNL A   1      41.129  23.033  26.187  1.00  0.00    -0.237 OA
ATOM     79  O   UNL A   1      43.054  22.963  24.647  1.00  0.00    -0.744 OA
ENDBRANCH  72  76
ENDBRANCH  55  69
BRANCH  56  80
ATOM     80  C   UNL A   1      36.589  33.359  30.717  1.00  0.00     0.023 A 
ATOM     81  C   UNL A   1      35.766  33.937  29.738  1.00  0.00     0.031 A 
ATOM     82  C   UNL A   1      36.100  33.483  32.057  1.00  0.00     0.131 A 
ATOM     83  C   UNL A   1      34.524  34.531  30.101  1.00  0.00     0.055 A 
ATOM     84  C   UNL A   1      34.850  34.000  32.399  1.00  0.00     0.041 A 
ATOM     85  F   UNL A   1      36.817  33.093  33.120  1.00  0.00    -0.206 F 
ATOM     86  C   UNL A   1      34.046  34.520  31.414  1.00  0.00     0.022 A 
BRANCH  83  87
ATOM     87  S   UNL A   1      33.453  35.337  28.876  1.00  0.00     0.124 S 
ATOM     88  O   UNL A   1      32.535  36.089  29.726  1.00  0.00    -0.237 OA
ATOM     89  O   UNL A   1      34.384  36.132  28.084  1.00  0.00    -0.237 OA
ATOM     90  O   UNL A   1      32.858  34.201  28.172  1.00  0.00    -0.744 OA
ENDBRANCH  83  87
ENDBRANCH  56  80
BRANCH  68  91
ATOM     91  C   UNL A   1      39.898  28.263  31.540  1.00  0.00     0.023 A 
ATOM     92  C   UNL A   1      41.190  28.817  31.654  1.00  0.00     0.031 A 
ATOM     93  C   UNL A   1      39.413  27.606  32.684  1.00  0.00     0.131 A 
ATOM     94  C   UNL A   1      41.940  28.674  32.841  1.00  0.00     0.055 A 
ATOM     95  C   UNL A   1      40.150  27.469  33.867  1.00  0.00     0.041 A 
ATOM     96  F   UNL A   1      38.198  27.063  32.695  1.00  0.00    -0.206 F 
ATOM     97  C   UNL A   1      41.427  27.999  33.949  1.00  0.00     0.022 A 
BRANCH  94  98
ATOM     98  S   UNL A   1      43.597  29.409  32.948  1.00  0.00     0.124 S 
ATOM     99  O   UNL A   1      44.019  29.052  34.297  1.00  0.00    -0.237 OA
ATOM    100  O   UNL A   1      44.308  28.748  31.859  1.00  0.00    -0.237 OA
ATOM    101  O   UNL A   1      43.350  30.836  32.736  1.00  0.00    -0.744 OA
ENDBRANCH  94  98
ENDBRANCH  68  91
ENDBRANCH  42  43
ENDBRANCH  35  37
ENDBRANCH  34  35
ENDBRANCH  33  34
ENDBRANCH  32  33
ENDBRANCH  31  32
ENDBRANCH  30  31
ENDBRANCH  29  30
ENDBRANCH  28  29
ENDBRANCH   1  28
TORSDOF 29
ENDMDL
MODEL 3
REMARK VINA RESULT:      -7.4      5.117     13.606
REMARK SMILES CCC[C@H](NC(=O)Cn1cccc1C(=O)OCCOCCOCCOCCOC(=O)c1ccc(-c2c3nc(c(-c4cc(S(=O)(=O)[O-])ccc4F)c4ccc([nH]4)c(-c4cc(S(=O)(=O)[O-])ccc4F)c4nc(c(-c5cc(S(=O)(=O)[O-])ccc5F)c5ccc2[nH]5)C=C4)C=C3)cc1)c1cccs1
REMARK SMILES IDX 21 1 20 2 19 3 18 4 17 5 16 6 14 7 15 8 13 9 9 10 10 11
REMARK SMILES IDX 11 12 12 13 8 14 6 15 5 16 7 18 4 19 3 20 2 21 1 22 94 23
REMARK SMILES IDX 95 24 98 25 96 26 97 27 22 28 23 29 24 30 25 31 26 32 27 33
REMARK SMILES IDX 28 34 29 35 30 36 31 37 32 38 93 39 33 40 92 41 34 42 35 43
REMARK SMILES IDX 36 44 86 45 37 46 91 47 85 48 87 49 38 50 90 51 84 52 83 53
REMARK SMILES IDX 39 55 71 56 51 57 70 58 52 59 55 60 69 61 88 62 53 63 54 64
REMARK SMILES IDX 68 66 89 67 56 68 40 69 41 70 49 71 42 72 48 73 50 74 47 75
REMARK SMILES IDX 43 76 44 77 45 78 46 79 72 80 73 81 81 82 74 83 80 84 82 85
REMARK SMILES IDX 79 86 75 87 76 88 77 89 78 90 57 91 58 92 66 93 59 94 65 95
REMARK SMILES IDX 67 96 64 97 60 98 61 99 62 100 63 101
REMARK H PARENT 5 17 87 54 55 65
REMARK Flexibility Score: inf
ROOT
ATOM      1  C   UNL A   1      45.438  38.317  26.519  1.00  0.00     0.188 C 
ENDROOT
BRANCH   1   2
ATOM      2  C   UNL A   1      44.724  39.686  26.378  1.00  0.00     0.188 C 
BRANCH   2   3
ATOM      3  O   UNL A   1      43.307  39.846  26.462  1.00  0.00    -0.376 OA
BRANCH   3   4
ATOM      4  C   UNL A   1      42.521  38.975  27.254  1.00  0.00     0.202 C 
BRANCH   4   5
ATOM      5  C   UNL A   1      42.098  39.508  28.626  1.00  0.00     0.261 C 
BRANCH   5   6
ATOM      6  O   UNL A   1      42.644  40.795  28.942  1.00  0.00    -0.459 OA
BRANCH   6   7
ATOM      7  C   UNL A   1      43.794  40.779  29.672  1.00  0.00     0.355 C 
ATOM      8  O   UNL A   1      44.848  41.285  29.319  1.00  0.00    -0.244 OA
BRANCH   7   9
ATOM      9  C   UNL A   1      43.575  40.151  30.971  1.00  0.00     0.128 A 
ATOM     10  N   UNL A   1      42.988  40.653  32.124  1.00  0.00    -0.333 N 
ATOM     11  C   UNL A   1      43.188  39.763  33.159  1.00  0.00     0.087 A 
ATOM     12  C   UNL A   1      43.763  38.625  32.652  1.00  0.00     0.020 A 
ATOM     13  C   UNL A   1      43.972  38.853  31.278  1.00  0.00     0.035 A 
BRANCH  10  14
ATOM     14  C   UNL A   1      42.343  41.942  32.331  1.00  0.00     0.222 C 
BRANCH  14  15
ATOM     15  C   UNL A   1      43.157  43.139  31.876  1.00  0.00     0.240 C 
ATOM     16  N   UNL A   1      44.349  43.500  32.427  1.00  0.00    -0.347 N 
ATOM     17  H   UNL A   1      44.611  44.423  32.207  1.00  0.00     0.164 HD
ATOM     18  O   UNL A   1      42.711  43.896  31.005  1.00  0.00    -0.273 OA
BRANCH  16  19
ATOM     19  C   UNL A   1      45.329  42.814  33.279  1.00  0.00     0.122 C 
BRANCH  19  20
ATOM     20  C   UNL A   1      46.319  41.938  32.498  1.00  0.00     0.030 C 
BRANCH  20  21
ATOM     21  C   UNL A   1      47.240  42.647  31.508  1.00  0.00    -0.001 C 
ATOM     22  C   UNL A   1      48.496  41.846  31.214  1.00  0.00     0.004 C 
ENDBRANCH  20  21
ENDBRANCH  19  20
BRANCH  19  23
ATOM     23  C   UNL A   1      45.985  43.835  34.203  1.00  0.00     0.027 A 
ATOM     24  C   UNL A   1      45.726  45.191  34.351  1.00  0.00     0.017 A 
ATOM     25  S   UNL A   1      47.200  43.344  35.324  1.00  0.00    -0.147 S 
ATOM     26  C   UNL A   1      46.597  45.830  35.279  1.00  0.00     0.012 A 
ATOM     27  C   UNL A   1      47.466  44.941  35.862  1.00  0.00     0.065 A 
ENDBRANCH  19  23
ENDBRANCH  16  19
ENDBRANCH  14  15
ENDBRANCH  10  14
ENDBRANCH   7   9
ENDBRANCH   6   7
ENDBRANCH   5   6
ENDBRANCH   4   5
ENDBRANCH   3   4
ENDBRANCH   2   3
ENDBRANCH   1   2
BRANCH   1  28
ATOM     28  O   UNL A   1      46.644  38.157  25.785  1.00  0.00    -0.377 OA
BRANCH  28  29
ATOM     29  C   UNL A   1      47.513  37.141  26.279  1.00  0.00     0.188 C 
BRANCH  29  30
ATOM     30  C   UNL A   1      48.923  37.620  26.670  1.00  0.00     0.188 C 
BRANCH  30  31
ATOM     31  O   UNL A   1      48.931  38.564  27.735  1.00  0.00    -0.376 OA
BRANCH  31  32
ATOM     32  C   UNL A   1      48.107  38.351  28.871  1.00  0.00     0.202 C 
BRANCH  32  33
ATOM     33  C   UNL A   1      48.699  37.384  29.905  1.00  0.00     0.261 C 
BRANCH  33  34
ATOM     34  O   UNL A   1      47.762  36.888  30.855  1.00  0.00    -0.460 OA
BRANCH  34  35
ATOM     35  C   UNL A   1      47.442  35.595  30.668  1.00  0.00     0.338 C 
ATOM     36  O   UNL A   1      48.195  34.643  30.560  1.00  0.00    -0.246 OA
BRANCH  35  37
ATOM     37  C   UNL A   1      46.003  35.435  30.536  1.00  0.00     0.060 A 
ATOM     38  C   UNL A   1      45.377  34.842  31.636  1.00  0.00     0.016 A 
ATOM     39  C   UNL A   1      45.502  35.376  29.235  1.00  0.00     0.016 A 
ATOM     40  C   UNL A   1      44.371  33.945  31.387  1.00  0.00     0.010 A 
ATOM     41  C   UNL A   1      44.524  34.446  28.984  1.00  0.00     0.010 A 
ATOM     42  C   UNL A   1      44.029  33.689  30.055  1.00  0.00    -0.014 A 
BRANCH  42  43
ATOM     43  C   UNL A   1      43.059  32.626  29.804  1.00  0.00     0.031 A 
ATOM     44  C   UNL A   1      43.763  31.385  29.280  1.00  0.00     0.074 A 
ATOM     45  C   UNL A   1      41.750  32.953  30.023  1.00  0.00     0.049 A 
ATOM     46  N   UNL A   1      43.319  30.461  28.493  1.00  0.00    -0.248 NA
ATOM     47  C   UNL A   1      45.218  31.202  29.564  1.00  0.00     0.031 C 
ATOM     48  C   UNL A   1      41.267  34.277  30.492  1.00  0.00     0.029 A 
ATOM     49  N   UNL A   1      40.563  32.265  29.895  1.00  0.00    -0.354 N 
ATOM     50  C   UNL A   1      44.321  29.475  28.425  1.00  0.00     0.074 A 
ATOM     51  C   UNL A   1      45.517  30.071  28.927  1.00  0.00     0.031 C 
ATOM     52  C   UNL A   1      39.917  34.311  30.548  1.00  0.00     0.029 A 
ATOM     53  C   UNL A   1      39.388  33.016  30.166  1.00  0.00     0.049 A 
ATOM     54  H   UNL A   1      40.532  31.317  29.635  1.00  0.00     0.167 HD
ATOM     55  C   UNL A   1      44.054  28.171  28.147  1.00  0.00     0.034 A 
ATOM     56  C   UNL A   1      38.078  32.627  30.076  1.00  0.00     0.034 A 
ATOM     57  C   UNL A   1      42.659  28.003  27.893  1.00  0.00     0.049 A 
ATOM     58  C   UNL A   1      38.126  31.180  29.806  1.00  0.00     0.074 A 
ATOM     59  C   UNL A   1      41.841  28.413  26.874  1.00  0.00     0.029 A 
ATOM     60  N   UNL A   1      41.881  27.601  28.956  1.00  0.00    -0.354 N 
ATOM     61  N   UNL A   1      38.474  30.277  30.673  1.00  0.00    -0.248 NA
ATOM     62  C   UNL A   1      37.830  30.698  28.453  1.00  0.00     0.031 C 
ATOM     63  C   UNL A   1      40.606  28.656  27.511  1.00  0.00     0.029 A 
ATOM     64  C   UNL A   1      40.678  28.254  28.852  1.00  0.00     0.049 A 
ATOM     65  H   UNL A   1      42.140  26.964  29.660  1.00  0.00     0.167 HD
ATOM     66  C   UNL A   1      38.752  29.189  29.886  1.00  0.00     0.074 A 
ATOM     67  C   UNL A   1      38.053  29.398  28.635  1.00  0.00     0.031 C 
ATOM     68  C   UNL A   1      39.926  28.528  30.064  1.00  0.00     0.034 A 
BRANCH  55  69
ATOM     69  C   UNL A   1      44.879  26.929  28.323  1.00  0.00     0.023 A 
ATOM     70  C   UNL A   1      45.729  26.601  27.241  1.00  0.00     0.031 A 
ATOM     71  C   UNL A   1      44.683  25.929  29.287  1.00  0.00     0.131 A 
ATOM     72  C   UNL A   1      46.232  25.309  27.073  1.00  0.00     0.055 A 
ATOM     73  C   UNL A   1      45.256  24.656  29.157  1.00  0.00     0.041 A 
ATOM     74  F   UNL A   1      43.868  26.101  30.335  1.00  0.00    -0.206 F 
ATOM     75  C   UNL A   1      46.002  24.327  28.029  1.00  0.00     0.022 A 
BRANCH  72  76
ATOM     76  S   UNL A   1      47.020  24.908  25.490  1.00  0.00     0.124 S 
ATOM     77  O   UNL A   1      46.820  23.465  25.401  1.00  0.00    -0.237 OA
ATOM     78  O   UNL A   1      46.245  25.717  24.553  1.00  0.00    -0.237 OA
ATOM     79  O   UNL A   1      48.403  25.334  25.684  1.00  0.00    -0.744 OA
ENDBRANCH  72  76
ENDBRANCH  55  69
BRANCH  56  80
ATOM     80  C   UNL A   1      36.692  33.243  30.146  1.00  0.00     0.023 A 
ATOM     81  C   UNL A   1      35.968  33.531  31.314  1.00  0.00     0.031 A 
ATOM     82  C   UNL A   1      36.052  33.654  28.933  1.00  0.00     0.131 A 
ATOM     83  C   UNL A   1      34.733  34.233  31.241  1.00  0.00     0.055 A 
ATOM     84  C   UNL A   1      34.879  34.406  28.870  1.00  0.00     0.041 A 
ATOM     85  F   UNL A   1      36.548  33.351  27.725  1.00  0.00    -0.206 F 
ATOM     86  C   UNL A   1      34.215  34.710  30.034  1.00  0.00     0.022 A 
BRANCH  83  87
ATOM     87  S   UNL A   1      33.738  34.579  32.720  1.00  0.00     0.124 S 
ATOM     88  O   UNL A   1      32.544  35.190  32.145  1.00  0.00    -0.237 OA
ATOM     89  O   UNL A   1      33.556  33.263  33.321  1.00  0.00    -0.237 OA
ATOM     90  O   UNL A   1      34.597  35.490  33.479  1.00  0.00    -0.744 OA
ENDBRANCH  83  87
ENDBRANCH  56  80
BRANCH  68  91
ATOM     91  C   UNL A   1      40.481  28.613  31.485  1.00  0.00     0.023 A 
ATOM     92  C   UNL A   1      41.766  29.145  31.720  1.00  0.00     0.031 A 
ATOM     93  C   UNL A   1      39.830  28.071  32.607  1.00  0.00     0.131 A 
ATOM     94  C   UNL A   1      42.352  29.089  33.003  1.00  0.00     0.055 A 
ATOM     95  C   UNL A   1      40.404  28.021  33.883  1.00  0.00     0.041 A 
ATOM     96  F   UNL A   1      38.606  27.559  32.504  1.00  0.00    -0.206 F 
ATOM     97  C   UNL A   1      41.677  28.526  34.086  1.00  0.00     0.022 A 
BRANCH  94  98
ATOM     98  S   UNL A   1      44.005  29.792  33.264  1.00  0.00     0.124 S 
ATOM     99  O   UNL A   1      44.288  29.439  34.650  1.00  0.00    -0.237 OA
ATOM    100  O   UNL A   1      44.805  29.107  32.253  1.00  0.00    -0.237 OA
ATOM    101  O   UNL A   1      43.810  31.221  33.019  1.00  0.00    -0.744 OA
ENDBRANCH  94  98
ENDBRANCH  68  91
ENDBRANCH  42  43
ENDBRANCH  35  37
ENDBRANCH  34  35
ENDBRANCH  33  34
ENDBRANCH  32  33
ENDBRANCH  31  32
ENDBRANCH  30  31
ENDBRANCH  29  30
ENDBRANCH  28  29
ENDBRANCH   1  28
TORSDOF 29
ENDMDL
