MODEL 1
REMARK VINA RESULT:      -9.3      0.000      0.000
REMARK SMILES CCOc1cc(C(=O)OCCOCCOCCOCCOC(=O)c2ccc(-c3c4nc(c(-c5cc(S(=O)(=O)[O-])ccc5F)c5ccc([nH]5)c(-c5cc(S(=O)(=O)[O-])ccc5F)c5nc(c(-c6cc(S(=O)(=O)[O-])ccc6F)c6ccc3[nH]6)C=C5)C=C4)cc2)cc(I)c1OCC
REMARK SMILES IDX 16 1 15 2 14 3 13 4 12 5 11 6 10 7 9 8 7 9 8 10 6 11 4 12
REMARK SMILES IDX 5 13 90 14 88 15 87 16 89 17 3 18 2 19 1 20 91 21 92 22
REMARK SMILES IDX 93 23 17 24 18 25 19 26 20 27 21 28 22 29 23 30 24 31 25 32
REMARK SMILES IDX 86 33 26 34 85 35 27 36 28 37 29 38 79 39 30 40 84 41 78 42
REMARK SMILES IDX 80 43 31 44 83 45 77 46 76 47 32 49 64 50 44 51 63 52 45 53
REMARK SMILES IDX 48 54 62 55 81 56 46 57 47 58 61 60 82 61 49 62 33 63 34 64
REMARK SMILES IDX 42 65 35 66 41 67 43 68 40 69 36 70 37 71 38 72 39 73 65 74
REMARK SMILES IDX 66 75 74 76 67 77 73 78 75 79 72 80 68 81 69 82 70 83 71 84
REMARK SMILES IDX 50 85 51 86 59 87 52 88 58 89 60 90 57 91 53 92 54 93 55 94
REMARK SMILES IDX 56 95
REMARK H PARENT 80 48 48 59
REMARK Flexibility Score: inf
ROOT
ATOM      1  C   UNL A   1      31.747  27.833  26.199  1.00  0.00     0.188 C 
ENDROOT
BRANCH   1   2
ATOM      2  O   UNL A   1      31.096  28.569  25.161  1.00  0.00    -0.377 OA
BRANCH   2   3
ATOM      3  C   UNL A   1      31.685  28.617  23.873  1.00  0.00     0.188 C 
BRANCH   3   4
ATOM      4  C   UNL A   1      30.680  28.637  22.705  1.00  0.00     0.188 C 
BRANCH   4   5
ATOM      5  O   UNL A   1      30.676  27.451  21.934  1.00  0.00    -0.376 OA
BRANCH   5   6
ATOM      6  C   UNL A   1      31.503  26.350  22.264  1.00  0.00     0.202 C 
BRANCH   6   7
ATOM      7  C   UNL A   1      32.904  26.117  21.670  1.00  0.00     0.261 C 
BRANCH   7   8
ATOM      8  O   UNL A   1      33.733  25.140  22.300  1.00  0.00    -0.460 OA
BRANCH   8   9
ATOM      9  C   UNL A   1      34.056  25.320  23.594  1.00  0.00     0.338 C 
ATOM     10  O   UNL A   1      34.229  26.379  24.174  1.00  0.00    -0.246 OA
BRANCH   9  11
ATOM     11  C   UNL A   1      33.926  24.002  24.253  1.00  0.00     0.065 A 
ATOM     12  C   UNL A   1      32.508  22.325  25.230  1.00  0.00     0.163 A 
ATOM     13  C   UNL A   1      32.687  23.622  24.746  1.00  0.00     0.066 A 
ATOM     14  C   UNL A   1      33.583  21.398  25.324  1.00  0.00     0.174 A 
ATOM     15  C   UNL A   1      34.846  21.823  24.865  1.00  0.00     0.060 A 
ATOM     16  C   UNL A   1      34.996  23.109  24.304  1.00  0.00     0.034 A 
ATOM     17  I   UNL A   1      36.695  20.793  24.883  1.00  0.00    -0.040 I 
BRANCH  12  18
ATOM     18  O   UNL A   1      31.275  22.025  25.769  1.00  0.00    -0.490 OA
BRANCH  18  19
ATOM     19  C   UNL A   1      30.670  23.111  26.486  1.00  0.00     0.226 C 
ATOM     20  C   UNL A   1      29.383  22.703  27.191  1.00  0.00     0.049 C 
ENDBRANCH  18  19
ENDBRANCH  12  18
BRANCH  14  21
ATOM     21  O   UNL A   1      33.170  20.193  25.823  1.00  0.00    -0.489 OA
BRANCH  21  22
ATOM     22  C   UNL A   1      33.291  18.972  25.113  1.00  0.00     0.226 C 
ATOM     23  C   UNL A   1      32.550  19.057  23.787  1.00  0.00     0.049 C 
ENDBRANCH  21  22
ENDBRANCH  14  21
ENDBRANCH   9  11
ENDBRANCH   8   9
ENDBRANCH   7   8
ENDBRANCH   6   7
ENDBRANCH   5   6
ENDBRANCH   4   5
ENDBRANCH   3   4
ENDBRANCH   2   3
ENDBRANCH   1   2
BRANCH   1  24
ATOM     24  C   UNL A   1      32.298  28.496  27.488  1.00  0.00     0.188 C 
BRANCH  24  25
ATOM     25  O   UNL A   1      33.366  29.410  27.278  1.00  0.00    -0.376 OA
BRANCH  25  26
ATOM     26  C   UNL A   1      33.042  30.728  26.878  1.00  0.00     0.202 C 
BRANCH  26  27
ATOM     27  C   UNL A   1      33.848  31.849  27.548  1.00  0.00     0.261 C 
BRANCH  27  28
ATOM     28  O   UNL A   1      33.078  32.873  28.193  1.00  0.00    -0.460 OA
BRANCH  28  29
ATOM     29  C   UNL A   1      33.726  34.015  28.518  1.00  0.00     0.338 C 
ATOM     30  O   UNL A   1      33.368  35.152  28.270  1.00  0.00    -0.246 OA
BRANCH  29  31
ATOM     31  C   UNL A   1      34.857  33.651  29.397  1.00  0.00     0.060 A 
ATOM     32  C   UNL A   1      36.146  34.096  29.076  1.00  0.00     0.016 A 
ATOM     33  C   UNL A   1      34.637  32.884  30.544  1.00  0.00     0.016 A 
ATOM     34  C   UNL A   1      37.226  33.745  29.886  1.00  0.00     0.010 A 
ATOM     35  C   UNL A   1      35.724  32.519  31.343  1.00  0.00     0.010 A 
ATOM     36  C   UNL A   1      37.028  32.920  31.002  1.00  0.00    -0.014 A 
BRANCH  36  37
ATOM     37  C   UNL A   1      38.192  32.310  31.692  1.00  0.00     0.031 A 
ATOM     38  C   UNL A   1      38.898  31.166  31.012  1.00  0.00     0.074 A 
ATOM     39  C   UNL A   1      38.632  32.768  32.878  1.00  0.00     0.049 A 
ATOM     40  N   UNL A   1      39.874  30.413  31.446  1.00  0.00    -0.248 NA
ATOM     41  C   UNL A   1      38.429  30.826  29.658  1.00  0.00     0.031 C 
ATOM     42  C   UNL A   1      38.070  33.903  33.607  1.00  0.00     0.029 A 
ATOM     43  N   UNL A   1      39.652  32.323  33.685  1.00  0.00    -0.354 N 
ATOM     44  C   UNL A   1      40.144  29.517  30.417  1.00  0.00     0.074 A 
ATOM     45  C   UNL A   1      39.193  29.787  29.361  1.00  0.00     0.031 C 
ATOM     46  C   UNL A   1      38.743  34.054  34.763  1.00  0.00     0.029 A 
ATOM     47  C   UNL A   1      39.751  33.000  34.878  1.00  0.00     0.049 A 
ATOM     48  H   UNL A   1      40.255  31.587  33.432  1.00  0.00     0.167 HD
ATOM     49  C   UNL A   1      41.109  28.567  30.350  1.00  0.00     0.034 A 
ATOM     50  C   UNL A   1      40.539  32.773  35.950  1.00  0.00     0.034 A 
ATOM     51  C   UNL A   1      42.037  28.292  31.419  1.00  0.00     0.049 A 
ATOM     52  C   UNL A   1      41.526  31.625  35.902  1.00  0.00     0.074 A 
ATOM     53  C   UNL A   1      43.036  27.335  31.467  1.00  0.00     0.029 A 
ATOM     54  N   UNL A   1      42.078  28.970  32.630  1.00  0.00    -0.354 N 
ATOM     55  N   UNL A   1      41.765  30.776  34.927  1.00  0.00    -0.248 NA
ATOM     56  C   UNL A   1      42.357  31.410  37.095  1.00  0.00     0.031 C 
ATOM     57  C   UNL A   1      43.632  27.387  32.731  1.00  0.00     0.029 A 
ATOM     58  C   UNL A   1      43.068  28.436  33.440  1.00  0.00     0.049 A 
ATOM     59  H   UNL A   1      41.490  29.720  32.877  1.00  0.00     0.167 HD
ATOM     60  C   UNL A   1      42.802  29.959  35.378  1.00  0.00     0.074 A 
ATOM     61  C   UNL A   1      43.152  30.427  36.701  1.00  0.00     0.031 C 
ATOM     62  C   UNL A   1      43.412  28.918  34.756  1.00  0.00     0.034 A 
BRANCH  49  63
ATOM     63  C   UNL A   1      41.180  27.738  29.093  1.00  0.00     0.023 A 
ATOM     64  C   UNL A   1      42.186  27.943  28.134  1.00  0.00     0.031 A 
ATOM     65  C   UNL A   1      40.224  26.737  28.842  1.00  0.00     0.131 A 
ATOM     66  C   UNL A   1      42.180  27.202  26.943  1.00  0.00     0.055 A 
ATOM     67  C   UNL A   1      40.271  25.948  27.691  1.00  0.00     0.041 A 
ATOM     68  F   UNL A   1      39.224  26.514  29.708  1.00  0.00    -0.206 F 
ATOM     69  C   UNL A   1      41.247  26.186  26.728  1.00  0.00     0.022 A 
BRANCH  66  70
ATOM     70  S   UNL A   1      43.331  27.676  25.623  1.00  0.00     0.124 S 
ATOM     71  O   UNL A   1      44.116  26.453  25.465  1.00  0.00    -0.237 OA
ATOM     72  O   UNL A   1      42.432  28.004  24.523  1.00  0.00    -0.237 OA
ATOM     73  O   UNL A   1      44.060  28.807  26.194  1.00  0.00    -0.744 OA
ENDBRANCH  66  70
ENDBRANCH  49  63
BRANCH  50  74
ATOM     74  C   UNL A   1      40.404  33.593  37.192  1.00  0.00     0.023 A 
ATOM     75  C   UNL A   1      39.765  33.084  38.336  1.00  0.00     0.031 A 
ATOM     76  C   UNL A   1      40.814  34.938  37.218  1.00  0.00     0.131 A 
ATOM     77  C   UNL A   1      39.487  33.932  39.421  1.00  0.00     0.055 A 
ATOM     78  C   UNL A   1      40.603  35.758  38.329  1.00  0.00     0.041 A 
ATOM     79  F   UNL A   1      41.421  35.485  36.152  1.00  0.00    -0.206 F 
ATOM     80  C   UNL A   1      39.916  35.261  39.432  1.00  0.00     0.022 A 
BRANCH  77  81
ATOM     81  S   UNL A   1      38.426  33.312  40.756  1.00  0.00     0.124 S 
ATOM     82  O   UNL A   1      37.126  33.256  40.097  1.00  0.00    -0.237 OA
ATOM     83  O   UNL A   1      39.047  32.027  41.062  1.00  0.00    -0.237 OA
ATOM     84  O   UNL A   1      38.558  34.330  41.795  1.00  0.00    -0.744 OA
ENDBRANCH  77  81
ENDBRANCH  50  74
BRANCH  62  85
ATOM     85  C   UNL A   1      44.569  28.260  35.472  1.00  0.00     0.023 A 
ATOM     86  C   UNL A   1      44.373  27.293  36.474  1.00  0.00     0.031 A 
ATOM     87  C   UNL A   1      45.891  28.613  35.147  1.00  0.00     0.131 A 
ATOM     88  C   UNL A   1      45.477  26.758  37.155  1.00  0.00     0.055 A 
ATOM     89  C   UNL A   1      46.988  28.025  35.778  1.00  0.00     0.041 A 
ATOM     90  F   UNL A   1      46.140  29.532  34.200  1.00  0.00    -0.206 F 
ATOM     91  C   UNL A   1      46.784  27.102  36.800  1.00  0.00     0.022 A 
BRANCH  88  92
ATOM     92  S   UNL A   1      45.182  25.678  38.581  1.00  0.00     0.124 S 
ATOM     93  O   UNL A   1      46.409  25.851  39.352  1.00  0.00    -0.237 OA
ATOM     94  O   UNL A   1      43.975  26.255  39.166  1.00  0.00    -0.237 OA
ATOM     95  O   UNL A   1      45.007  24.356  37.982  1.00  0.00    -0.744 OA
ENDBRANCH  88  92
ENDBRANCH  62  85
ENDBRANCH  36  37
ENDBRANCH  29  31
ENDBRANCH  28  29
ENDBRANCH  27  28
ENDBRANCH  26  27
ENDBRANCH  25  26
ENDBRANCH  24  25
ENDBRANCH   1  24
TORSDOF 27
ENDMDL
MODEL 2
REMARK VINA RESULT:      -9.1      3.775      8.796
REMARK SMILES CCOc1cc(C(=O)OCCOCCOCCOCCOC(=O)c2ccc(-c3c4nc(c(-c5cc(S(=O)(=O)[O-])ccc5F)c5ccc([nH]5)c(-c5cc(S(=O)(=O)[O-])ccc5F)c5nc(c(-c6cc(S(=O)(=O)[O-])ccc6F)c6ccc3[nH]6)C=C5)C=C4)cc2)cc(I)c1OCC
REMARK SMILES IDX 16 1 15 2 14 3 13 4 12 5 11 6 10 7 9 8 7 9 8 10 6 11 4 12
REMARK SMILES IDX 5 13 90 14 88 15 87 16 89 17 3 18 2 19 1 20 91 21 92 22
REMARK SMILES IDX 93 23 17 24 18 25 19 26 20 27 21 28 22 29 23 30 24 31 25 32
REMARK SMILES IDX 86 33 26 34 85 35 27 36 28 37 29 38 79 39 30 40 84 41 78 42
REMARK SMILES IDX 80 43 31 44 83 45 77 46 76 47 32 49 64 50 44 51 63 52 45 53
REMARK SMILES IDX 48 54 62 55 81 56 46 57 47 58 61 60 82 61 49 62 33 63 34 64
REMARK SMILES IDX 42 65 35 66 41 67 43 68 40 69 36 70 37 71 38 72 39 73 65 74
REMARK SMILES IDX 66 75 74 76 67 77 73 78 75 79 72 80 68 81 69 82 70 83 71 84
REMARK SMILES IDX 50 85 51 86 59 87 52 88 58 89 60 90 57 91 53 92 54 93 55 94
REMARK SMILES IDX 56 95
REMARK H PARENT 80 48 48 59
REMARK Flexibility Score: inf
ROOT
ATOM      1  C   UNL A   1      31.568  29.106  22.380  1.00  0.00     0.188 C 
ENDROOT
BRANCH   1   2
ATOM      2  O   UNL A   1      30.309  29.446  22.967  1.00  0.00    -0.377 OA
BRANCH   2   3
ATOM      3  C   UNL A   1      29.130  28.829  22.481  1.00  0.00     0.188 C 
BRANCH   3   4
ATOM      4  C   UNL A   1      28.381  27.965  23.513  1.00  0.00     0.188 C 
BRANCH   4   5
ATOM      5  O   UNL A   1      28.760  26.603  23.501  1.00  0.00    -0.376 OA
BRANCH   5   6
ATOM      6  C   UNL A   1      30.055  26.191  23.903  1.00  0.00     0.202 C 
BRANCH   6   7
ATOM      7  C   UNL A   1      31.085  25.547  22.959  1.00  0.00     0.261 C 
BRANCH   7   8
ATOM      8  O   UNL A   1      32.311  25.093  23.531  1.00  0.00    -0.460 OA
BRANCH   8   9
ATOM      9  C   UNL A   1      33.315  24.761  22.699  1.00  0.00     0.338 C 
ATOM     10  O   UNL A   1      33.718  25.391  21.736  1.00  0.00    -0.246 OA
BRANCH   9  11
ATOM     11  C   UNL A   1      34.007  23.602  23.306  1.00  0.00     0.065 A 
ATOM     12  C   UNL A   1      36.009  22.676  24.262  1.00  0.00     0.163 A 
ATOM     13  C   UNL A   1      35.370  23.692  23.551  1.00  0.00     0.066 A 
ATOM     14  C   UNL A   1      35.329  21.495  24.669  1.00  0.00     0.174 A 
ATOM     15  C   UNL A   1      33.955  21.401  24.364  1.00  0.00     0.060 A 
ATOM     16  C   UNL A   1      33.304  22.470  23.716  1.00  0.00     0.034 A 
ATOM     17  I   UNL A   1      32.607  19.811  24.730  1.00  0.00    -0.040 I 
BRANCH  12  18
ATOM     18  O   UNL A   1      37.375  22.787  24.416  1.00  0.00    -0.490 OA
BRANCH  18  19
ATOM     19  C   UNL A   1      37.778  23.817  25.330  1.00  0.00     0.226 C 
ATOM     20  C   UNL A   1      38.231  23.262  26.674  1.00  0.00     0.049 C 
ENDBRANCH  18  19
ENDBRANCH  12  18
BRANCH  14  21
ATOM     21  O   UNL A   1      36.155  20.645  25.353  1.00  0.00    -0.489 OA
BRANCH  21  22
ATOM     22  C   UNL A   1      36.617  19.413  24.825  1.00  0.00     0.226 C 
ATOM     23  C   UNL A   1      38.137  19.364  24.854  1.00  0.00     0.049 C 
ENDBRANCH  21  22
ENDBRANCH  14  21
ENDBRANCH   9  11
ENDBRANCH   8   9
ENDBRANCH   7   8
ENDBRANCH   6   7
ENDBRANCH   5   6
ENDBRANCH   4   5
ENDBRANCH   3   4
ENDBRANCH   2   3
ENDBRANCH   1   2
BRANCH   1  24
ATOM     24  C   UNL A   1      32.868  28.933  23.207  1.00  0.00     0.188 C 
BRANCH  24  25
ATOM     25  O   UNL A   1      32.796  29.420  24.540  1.00  0.00    -0.376 OA
BRANCH  25  26
ATOM     26  C   UNL A   1      32.620  28.479  25.582  1.00  0.00     0.202 C 
BRANCH  26  27
ATOM     27  C   UNL A   1      33.841  28.236  26.479  1.00  0.00     0.261 C 
BRANCH  27  28
ATOM     28  O   UNL A   1      33.848  28.938  27.729  1.00  0.00    -0.460 OA
BRANCH  28  29
ATOM     29  C   UNL A   1      34.487  30.130  27.760  1.00  0.00     0.338 C 
ATOM     30  O   UNL A   1      33.992  31.227  27.578  1.00  0.00    -0.246 OA
BRANCH  29  31
ATOM     31  C   UNL A   1      35.863  29.886  28.242  1.00  0.00     0.060 A 
ATOM     32  C   UNL A   1      36.945  30.157  27.394  1.00  0.00     0.016 A 
ATOM     33  C   UNL A   1      36.080  29.404  29.536  1.00  0.00     0.016 A 
ATOM     34  C   UNL A   1      38.248  29.914  27.829  1.00  0.00     0.010 A 
ATOM     35  C   UNL A   1      37.385  29.145  29.961  1.00  0.00     0.010 A 
ATOM     36  C   UNL A   1      38.474  29.368  29.100  1.00  0.00    -0.014 A 
BRANCH  36  37
ATOM     37  C   UNL A   1      39.816  28.840  29.454  1.00  0.00     0.031 A 
ATOM     38  C   UNL A   1      40.607  29.569  30.509  1.00  0.00     0.074 A 
ATOM     39  C   UNL A   1      40.316  27.732  28.878  1.00  0.00     0.049 A 
ATOM     40  N   UNL A   1      41.829  29.361  30.925  1.00  0.00    -0.248 NA
ATOM     41  C   UNL A   1      39.923  30.687  31.177  1.00  0.00     0.031 C 
ATOM     42  C   UNL A   1      39.623  26.908  27.888  1.00  0.00     0.029 A 
ATOM     43  N   UNL A   1      41.532  27.113  29.037  1.00  0.00    -0.354 N 
ATOM     44  C   UNL A   1      42.056  30.314  31.912  1.00  0.00     0.074 A 
ATOM     45  C   UNL A   1      40.866  31.133  31.991  1.00  0.00     0.031 C 
ATOM     46  C   UNL A   1      40.434  25.901  27.515  1.00  0.00     0.029 A 
ATOM     47  C   UNL A   1      41.718  26.034  28.203  1.00  0.00     0.049 A 
ATOM     48  H   UNL A   1      42.208  27.414  29.686  1.00  0.00     0.167 HD
ATOM     49  C   UNL A   1      43.152  30.482  32.693  1.00  0.00     0.034 A 
ATOM     50  C   UNL A   1      42.810  25.267  27.996  1.00  0.00     0.034 A 
ATOM     51  C   UNL A   1      44.341  29.674  32.589  1.00  0.00     0.049 A 
ATOM     52  C   UNL A   1      44.066  25.552  28.794  1.00  0.00     0.074 A 
ATOM     53  C   UNL A   1      45.517  29.774  33.312  1.00  0.00     0.029 A 
ATOM     54  N   UNL A   1      44.509  28.618  31.703  1.00  0.00    -0.354 N 
ATOM     55  N   UNL A   1      44.274  26.466  29.716  1.00  0.00    -0.248 NA
ATOM     56  C   UNL A   1      45.232  24.697  28.529  1.00  0.00     0.031 C 
ATOM     57  C   UNL A   1      46.419  28.829  32.816  1.00  0.00     0.029 A 
ATOM     58  C   UNL A   1      45.777  28.076  31.844  1.00  0.00     0.049 A 
ATOM     59  H   UNL A   1      43.827  28.301  31.067  1.00  0.00     0.167 HD
ATOM     60  C   UNL A   1      45.578  26.262  30.167  1.00  0.00     0.074 A 
ATOM     61  C   UNL A   1      46.100  25.132  29.429  1.00  0.00     0.031 C 
ATOM     62  C   UNL A   1      46.282  26.943  31.107  1.00  0.00     0.034 A 
BRANCH  49  63
ATOM     63  C   UNL A   1      43.120  31.604  33.701  1.00  0.00     0.023 A 
ATOM     64  C   UNL A   1      42.667  31.398  35.014  1.00  0.00     0.031 A 
ATOM     65  C   UNL A   1      43.535  32.899  33.342  1.00  0.00     0.131 A 
ATOM     66  C   UNL A   1      42.584  32.479  35.904  1.00  0.00     0.055 A 
ATOM     67  C   UNL A   1      43.526  33.954  34.256  1.00  0.00     0.041 A 
ATOM     68  F   UNL A   1      43.952  33.162  32.093  1.00  0.00    -0.206 F 
ATOM     69  C   UNL A   1      43.037  33.749  35.543  1.00  0.00     0.022 A 
BRANCH  66  70
ATOM     70  S   UNL A   1      41.752  32.228  37.496  1.00  0.00     0.124 S 
ATOM     71  O   UNL A   1      41.835  33.563  38.085  1.00  0.00    -0.237 OA
ATOM     72  O   UNL A   1      40.421  31.791  37.092  1.00  0.00    -0.237 OA
ATOM     73  O   UNL A   1      42.571  31.212  38.154  1.00  0.00    -0.744 OA
ENDBRANCH  66  70
ENDBRANCH  49  63
BRANCH  50  74
ATOM     74  C   UNL A   1      42.810  24.194  26.956  1.00  0.00     0.023 A 
ATOM     75  C   UNL A   1      42.159  22.967  27.175  1.00  0.00     0.031 A 
ATOM     76  C   UNL A   1      43.554  24.336  25.771  1.00  0.00     0.131 A 
ATOM     77  C   UNL A   1      42.329  21.911  26.265  1.00  0.00     0.055 A 
ATOM     78  C   UNL A   1      43.657  23.308  24.832  1.00  0.00     0.041 A 
ATOM     79  F   UNL A   1      44.206  25.481  25.510  1.00  0.00    -0.206 F 
ATOM     80  C   UNL A   1      43.059  22.078  25.087  1.00  0.00     0.022 A 
BRANCH  77  81
ATOM     81  S   UNL A   1      41.701  20.270  26.716  1.00  0.00     0.124 S 
ATOM     82  O   UNL A   1      41.932  19.518  25.488  1.00  0.00    -0.237 OA
ATOM     83  O   UNL A   1      42.550  19.924  27.852  1.00  0.00    -0.237 OA
ATOM     84  O   UNL A   1      40.299  20.520  27.042  1.00  0.00    -0.744 OA
ENDBRANCH  77  81
ENDBRANCH  50  74
BRANCH  62  85
ATOM     85  C   UNL A   1      47.668  26.440  31.440  1.00  0.00     0.023 A 
ATOM     86  C   UNL A   1      48.802  26.843  30.714  1.00  0.00     0.031 A 
ATOM     87  C   UNL A   1      47.852  25.538  32.503  1.00  0.00     0.131 A 
ATOM     88  C   UNL A   1      50.058  26.298  31.021  1.00  0.00     0.055 A 
ATOM     89  C   UNL A   1      49.114  25.054  32.849  1.00  0.00     0.041 A 
ATOM     90  F   UNL A   1      46.806  25.116  33.231  1.00  0.00    -0.206 F 
ATOM     91  C   UNL A   1      50.226  25.422  32.097  1.00  0.00     0.022 A 
BRANCH  88  92
ATOM     92  S   UNL A   1      51.460  26.672  29.932  1.00  0.00     0.124 S 
ATOM     93  O   UNL A   1      51.256  25.727  28.839  1.00  0.00    -0.237 OA
ATOM     94  O   UNL A   1      51.239  28.078  29.609  1.00  0.00    -0.237 OA
ATOM     95  O   UNL A   1      52.628  26.407  30.771  1.00  0.00    -0.744 OA
ENDBRANCH  88  92
ENDBRANCH  62  85
ENDBRANCH  36  37
ENDBRANCH  29  31
ENDBRANCH  28  29
ENDBRANCH  27  28
ENDBRANCH  26  27
ENDBRANCH  25  26
ENDBRANCH  24  25
ENDBRANCH   1  24
TORSDOF 27
ENDMDL
MODEL 3
REMARK VINA RESULT:      -9.1      1.721      2.387
REMARK SMILES CCOc1cc(C(=O)OCCOCCOCCOCCOC(=O)c2ccc(-c3c4nc(c(-c5cc(S(=O)(=O)[O-])ccc5F)c5ccc([nH]5)c(-c5cc(S(=O)(=O)[O-])ccc5F)c5nc(c(-c6cc(S(=O)(=O)[O-])ccc6F)c6ccc3[nH]6)C=C5)C=C4)cc2)cc(I)c1OCC
REMARK SMILES IDX 16 1 15 2 14 3 13 4 12 5 11 6 10 7 9 8 7 9 8 10 6 11 4 12
REMARK SMILES IDX 5 13 90 14 88 15 87 16 89 17 3 18 2 19 1 20 91 21 92 22
REMARK SMILES IDX 93 23 17 24 18 25 19 26 20 27 21 28 22 29 23 30 24 31 25 32
REMARK SMILES IDX 86 33 26 34 85 35 27 36 28 37 29 38 79 39 30 40 84 41 78 42
REMARK SMILES IDX 80 43 31 44 83 45 77 46 76 47 32 49 64 50 44 51 63 52 45 53
REMARK SMILES IDX 48 54 62 55 81 56 46 57 47 58 61 60 82 61 49 62 33 63 34 64
REMARK SMILES IDX 42 65 35 66 41 67 43 68 40 69 36 70 37 71 38 72 39 73 65 74
REMARK SMILES IDX 66 75 74 76 67 77 73 78 75 79 72 80 68 81 69 82 70 83 71 84
REMARK SMILES IDX 50 85 51 86 59 87 52 88 58 89 60 90 57 91 53 92 54 93 55 94
REMARK SMILES IDX 56 95
REMARK H PARENT 80 48 48 59
REMARK Flexibility Score: inf
ROOT
ATOM      1  C   UNL A   1      31.504  29.054  23.963  1.00  0.00     0.188 C 
ENDROOT
BRANCH   1   2
ATOM      2  O   UNL A   1      30.209  29.294  23.407  1.00  0.00    -0.377 OA
BRANCH   2   3
ATOM      3  C   UNL A   1      29.508  28.224  22.799  1.00  0.00     0.188 C 
BRANCH   3   4
ATOM      4  C   UNL A   1      28.907  27.204  23.785  1.00  0.00     0.188 C 
BRANCH   4   5
ATOM      5  O   UNL A   1      29.547  25.943  23.764  1.00  0.00    -0.376 OA
BRANCH   5   6
ATOM      6  C   UNL A   1      30.126  25.387  24.931  1.00  0.00     0.202 C 
BRANCH   6   7
ATOM      7  C   UNL A   1      31.344  24.446  24.924  1.00  0.00     0.261 C 
BRANCH   7   8
ATOM      8  O   UNL A   1      32.239  24.517  26.034  1.00  0.00    -0.460 OA
BRANCH   8   9
ATOM      9  C   UNL A   1      32.387  23.420  26.800  1.00  0.00     0.338 C 
ATOM     10  O   UNL A   1      31.604  22.981  27.626  1.00  0.00    -0.246 OA
BRANCH   9  11
ATOM     11  C   UNL A   1      33.571  22.698  26.285  1.00  0.00     0.065 A 
ATOM     12  C   UNL A   1      34.467  20.848  25.038  1.00  0.00     0.163 A 
ATOM     13  C   UNL A   1      33.388  21.470  25.666  1.00  0.00     0.066 A 
ATOM     14  C   UNL A   1      35.783  21.385  25.090  1.00  0.00     0.174 A 
ATOM     15  C   UNL A   1      35.957  22.609  25.769  1.00  0.00     0.060 A 
ATOM     16  C   UNL A   1      34.844  23.267  26.330  1.00  0.00     0.034 A 
ATOM     17  I   UNL A   1      37.734  23.702  26.127  1.00  0.00    -0.040 I 
BRANCH  12  18
ATOM     18  O   UNL A   1      34.241  19.600  24.498  1.00  0.00    -0.490 OA
BRANCH  18  19
ATOM     19  C   UNL A   1      33.241  18.838  25.189  1.00  0.00     0.226 C 
ATOM     20  C   UNL A   1      32.213  18.228  24.243  1.00  0.00     0.049 C 
ENDBRANCH  18  19
ENDBRANCH  12  18
BRANCH  14  21
ATOM     21  O   UNL A   1      36.675  20.608  24.402  1.00  0.00    -0.489 OA
BRANCH  21  22
ATOM     22  C   UNL A   1      37.431  19.570  25.002  1.00  0.00     0.226 C 
ATOM     23  C   UNL A   1      38.841  20.053  25.307  1.00  0.00     0.049 C 
ENDBRANCH  21  22
ENDBRANCH  14  21
ENDBRANCH   9  11
ENDBRANCH   8   9
ENDBRANCH   7   8
ENDBRANCH   6   7
ENDBRANCH   5   6
ENDBRANCH   4   5
ENDBRANCH   3   4
ENDBRANCH   2   3
ENDBRANCH   1   2
BRANCH   1  24
ATOM     24  C   UNL A   1      31.801  29.141  25.483  1.00  0.00     0.188 C 
BRANCH  24  25
ATOM     25  O   UNL A   1      32.708  30.171  25.853  1.00  0.00    -0.376 OA
BRANCH  25  26
ATOM     26  C   UNL A   1      32.318  31.058  26.886  1.00  0.00     0.202 C 
BRANCH  26  27
ATOM     27  C   UNL A   1      33.460  31.766  27.627  1.00  0.00     0.261 C 
BRANCH  27  28
ATOM     28  O   UNL A   1      33.574  33.177  27.397  1.00  0.00    -0.460 OA
BRANCH  28  29
ATOM     29  C   UNL A   1      33.491  33.984  28.479  1.00  0.00     0.338 C 
ATOM     30  O   UNL A   1      32.576  34.737  28.759  1.00  0.00    -0.246 OA
BRANCH  29  31
ATOM     31  C   UNL A   1      34.624  33.655  29.369  1.00  0.00     0.060 A 
ATOM     32  C   UNL A   1      35.916  34.069  29.017  1.00  0.00     0.016 A 
ATOM     33  C   UNL A   1      34.405  32.950  30.555  1.00  0.00     0.016 A 
ATOM     34  C   UNL A   1      36.998  33.750  29.838  1.00  0.00     0.010 A 
ATOM     35  C   UNL A   1      35.493  32.616  31.366  1.00  0.00     0.010 A 
ATOM     36  C   UNL A   1      36.799  32.986  30.996  1.00  0.00    -0.014 A 
BRANCH  36  37
ATOM     37  C   UNL A   1      37.962  32.399  31.709  1.00  0.00     0.031 A 
ATOM     38  C   UNL A   1      38.698  31.264  31.048  1.00  0.00     0.074 A 
ATOM     39  C   UNL A   1      38.373  32.872  32.900  1.00  0.00     0.049 A 
ATOM     40  N   UNL A   1      39.680  30.531  31.504  1.00  0.00    -0.248 NA
ATOM     41  C   UNL A   1      38.259  30.909  29.689  1.00  0.00     0.031 C 
ATOM     42  C   UNL A   1      37.778  34.001  33.613  1.00  0.00     0.029 A 
ATOM     43  N   UNL A   1      39.386  32.449  33.727  1.00  0.00    -0.354 N 
ATOM     44  C   UNL A   1      39.984  29.635  30.485  1.00  0.00     0.074 A 
ATOM     45  C   UNL A   1      39.046  29.882  29.411  1.00  0.00     0.031 C 
ATOM     46  C   UNL A   1      38.428  34.171  34.779  1.00  0.00     0.029 A 
ATOM     47  C   UNL A   1      39.453  33.135  34.918  1.00  0.00     0.049 A 
ATOM     48  H   UNL A   1      40.007  31.723  33.489  1.00  0.00     0.167 HD
ATOM     49  C   UNL A   1      40.966  28.701  30.441  1.00  0.00     0.034 A 
ATOM     50  C   UNL A   1      40.226  32.928  36.005  1.00  0.00     0.034 A 
ATOM     51  C   UNL A   1      41.880  28.448  31.526  1.00  0.00     0.049 A 
ATOM     52  C   UNL A   1      41.234  31.797  35.981  1.00  0.00     0.074 A 
ATOM     53  C   UNL A   1      42.895  27.510  31.598  1.00  0.00     0.029 A 
ATOM     54  N   UNL A   1      41.888  29.134  32.734  1.00  0.00    -0.354 N 
ATOM     55  N   UNL A   1      41.504  30.947  35.014  1.00  0.00    -0.248 NA
ATOM     56  C   UNL A   1      42.047  31.604  37.189  1.00  0.00     0.031 C 
ATOM     57  C   UNL A   1      43.467  27.579  32.871  1.00  0.00     0.029 A 
ATOM     58  C   UNL A   1      42.873  28.622  33.564  1.00  0.00     0.049 A 
ATOM     59  H   UNL A   1      41.283  29.875  32.966  1.00  0.00     0.167 HD
ATOM     60  C   UNL A   1      42.547  30.151  35.488  1.00  0.00     0.074 A 
ATOM     61  C   UNL A   1      42.866  30.633  36.814  1.00  0.00     0.031 C 
ATOM     62  C   UNL A   1      43.186  29.118  34.883  1.00  0.00     0.034 A 
BRANCH  49  63
ATOM     63  C   UNL A   1      41.073  27.866  29.189  1.00  0.00     0.023 A 
ATOM     64  C   UNL A   1      42.061  28.117  28.222  1.00  0.00     0.031 A 
ATOM     65  C   UNL A   1      40.171  26.814  28.953  1.00  0.00     0.131 A 
ATOM     66  C   UNL A   1      42.087  27.366  27.037  1.00  0.00     0.055 A 
ATOM     67  C   UNL A   1      40.252  26.018  27.809  1.00  0.00     0.041 A 
ATOM     68  F   UNL A   1      39.189  26.545  29.828  1.00  0.00    -0.206 F 
ATOM     69  C   UNL A   1      41.208  26.300  26.837  1.00  0.00     0.022 A 
BRANCH  66  70
ATOM     70  S   UNL A   1      43.202  27.889  25.706  1.00  0.00     0.124 S 
ATOM     71  O   UNL A   1      44.015  26.690  25.515  1.00  0.00    -0.237 OA
ATOM     72  O   UNL A   1      42.276  28.211  24.626  1.00  0.00    -0.237 OA
ATOM     73  O   UNL A   1      43.912  29.030  26.282  1.00  0.00    -0.744 OA
ENDBRANCH  66  70
ENDBRANCH  49  63
BRANCH  50  74
ATOM     74  C   UNL A   1      40.055  33.753  37.239  1.00  0.00     0.023 A 
ATOM     75  C   UNL A   1      40.960  34.779  37.561  1.00  0.00     0.031 A 
ATOM     76  C   UNL A   1      39.046  33.455  38.173  1.00  0.00     0.131 A 
ATOM     77  C   UNL A   1      40.885  35.414  38.812  1.00  0.00     0.055 A 
ATOM     78  C   UNL A   1      38.930  34.141  39.384  1.00  0.00     0.041 A 
ATOM     79  F   UNL A   1      38.158  32.479  37.927  1.00  0.00    -0.206 F 
ATOM     80  C   UNL A   1      39.867  35.114  39.719  1.00  0.00     0.022 A 
BRANCH  77  81
ATOM     81  S   UNL A   1      42.228  36.534  39.296  1.00  0.00     0.124 S 
ATOM     82  O   UNL A   1      42.544  36.053  40.636  1.00  0.00    -0.237 OA
ATOM     83  O   UNL A   1      43.227  36.270  38.265  1.00  0.00    -0.237 OA
ATOM     84  O   UNL A   1      41.606  37.855  39.236  1.00  0.00    -0.744 OA
ENDBRANCH  77  81
ENDBRANCH  50  74
BRANCH  62  85
ATOM     85  C   UNL A   1      44.341  28.484  35.623  1.00  0.00     0.023 A 
ATOM     86  C   UNL A   1      44.146  27.506  36.613  1.00  0.00     0.031 A 
ATOM     87  C   UNL A   1      45.661  28.872  35.332  1.00  0.00     0.131 A 
ATOM     88  C   UNL A   1      45.247  26.994  37.317  1.00  0.00     0.055 A 
ATOM     89  C   UNL A   1      46.758  28.308  35.986  1.00  0.00     0.041 A 
ATOM     90  F   UNL A   1      45.910  29.804  34.397  1.00  0.00    -0.206 F 
ATOM     91  C   UNL A   1      46.553  27.373  36.996  1.00  0.00     0.022 A 
BRANCH  88  92
ATOM     92  S   UNL A   1      44.945  25.897  38.730  1.00  0.00     0.124 S 
ATOM     93  O   UNL A   1      44.707  24.616  38.074  1.00  0.00    -0.237 OA
ATOM     94  O   UNL A   1      46.192  26.005  39.482  1.00  0.00    -0.237 OA
ATOM     95  O   UNL A   1      43.777  26.488  39.381  1.00  0.00    -0.744 OA
ENDBRANCH  88  92
ENDBRANCH  62  85
ENDBRANCH  36  37
ENDBRANCH  29  31
ENDBRANCH  28  29
ENDBRANCH  27  28
ENDBRANCH  26  27
ENDBRANCH  25  26
ENDBRANCH  24  25
ENDBRANCH   1  24
TORSDOF 27
ENDMDL
