MODEL 1
REMARK VINA RESULT:      -9.5      0.000      0.000
REMARK SMILES Cc1ccc(Nc2c(Cl)cccc2Cl)c(CC(=O)OCCOCCOCCOCCOC(=O)c2ccc(-c3c4nc(c(-c5cc(S(=O)(=O)[O-])ccc5F)c5ccc([nH]5)c(-c5cc(S(=O)(=O)[O-])ccc5F)c5nc(c(-c6cc(S(=O)(=O)[O-])ccc6F)c6ccc3[nH]6)C=C5)C=C4)cc2)c1
REMARK SMILES IDX 25 1 24 2 23 3 22 4 21 5 20 6 19 7 17 8 18 9 16 10 15 11
REMARK SMILES IDX 1 12 2 13 3 14 97 15 4 16 5 17 6 18 7 20 8 21 13 22 9 23
REMARK SMILES IDX 10 24 12 25 14 26 11 27 26 28 27 29 28 30 29 31 30 32 31 33
REMARK SMILES IDX 32 34 33 35 34 36 35 37 96 38 36 39 95 40 37 41 38 42 39 43
REMARK SMILES IDX 89 44 40 45 94 46 88 47 90 48 41 49 93 50 87 51 86 52 42 54
REMARK SMILES IDX 74 55 54 56 73 57 55 58 58 59 72 60 91 61 56 62 57 63 71 65
REMARK SMILES IDX 92 66 59 67 43 68 44 69 52 70 45 71 51 72 53 73 50 74 46 75
REMARK SMILES IDX 47 76 48 77 49 78 75 79 76 80 84 81 77 82 83 83 85 84 82 85
REMARK SMILES IDX 78 86 79 87 80 88 81 89 60 90 61 91 69 92 62 93 68 94 70 95
REMARK SMILES IDX 67 96 63 97 64 98 65 99 66 100
REMARK H PARENT 6 19 90 53 58 64
REMARK Flexibility Score: inf
ROOT
ATOM      1  O   UNL A   1      40.687  20.278  27.293  1.00  0.00    -0.377 OA
ENDROOT
BRANCH   1   2
ATOM      2  C   UNL A   1      40.378  21.658  27.298  1.00  0.00     0.188 C 
BRANCH   2   3
ATOM      3  C   UNL A   1      39.347  22.088  26.293  1.00  0.00     0.188 C 
BRANCH   3   4
ATOM      4  O   UNL A   1      38.679  21.102  25.535  1.00  0.00    -0.376 OA
BRANCH   4   5
ATOM      5  C   UNL A   1      37.384  21.527  25.174  1.00  0.00     0.202 C 
BRANCH   5   6
ATOM      6  C   UNL A   1      36.855  22.779  25.868  1.00  0.00     0.261 C 
BRANCH   6   7
ATOM      7  O   UNL A   1      36.410  23.780  24.938  1.00  0.00    -0.463 OA
BRANCH   7   8
ATOM      8  C   UNL A   1      35.171  24.267  25.175  1.00  0.00     0.310 C 
ATOM      9  O   UNL A   1      34.564  24.155  26.236  1.00  0.00    -0.252 OA
BRANCH   8  10
ATOM     10  C   UNL A   1      34.534  24.941  23.990  1.00  0.00     0.160 C 
BRANCH  10  11
ATOM     11  C   UNL A   1      33.021  24.949  23.833  1.00  0.00    -0.013 A 
ATOM     12  C   UNL A   1      30.421  27.781  24.147  1.00  0.00     0.044 C 
ATOM     13  C   UNL A   1      31.042  26.433  23.936  1.00  0.00    -0.051 A 
ATOM     14  C   UNL A   1      30.258  25.368  23.527  1.00  0.00     0.005 A 
ATOM     15  C   UNL A   1      32.407  26.205  24.122  1.00  0.00     0.009 A 
ATOM     16  C   UNL A   1      30.830  24.110  23.309  1.00  0.00     0.026 A 
ATOM     17  C   UNL A   1      32.214  23.852  23.404  1.00  0.00     0.042 A 
BRANCH  17  18
ATOM     18  N   UNL A   1      32.739  22.539  23.104  1.00  0.00    -0.353 N 
ATOM     19  H   UNL A   1      33.453  22.516  22.427  1.00  0.00     0.167 HD
BRANCH  18  20
ATOM     20  C   UNL A   1      32.366  21.253  23.655  1.00  0.00     0.076 A 
ATOM     21  C   UNL A   1      32.366  20.965  25.027  1.00  0.00     0.066 A 
ATOM     22  C   UNL A   1      32.244  20.119  22.815  1.00  0.00     0.066 A 
ATOM     23  Cl  UNL A   1      31.897  22.160  26.194  1.00  0.00    -0.082 Cl
ATOM     24  C   UNL A   1      32.626  19.669  25.509  1.00  0.00     0.023 A 
ATOM     25  C   UNL A   1      32.557  18.826  23.276  1.00  0.00     0.023 A 
ATOM     26  Cl  UNL A   1      31.740  20.274  21.161  1.00  0.00    -0.082 Cl
ATOM     27  C   UNL A   1      32.814  18.612  24.625  1.00  0.00     0.003 A 
ENDBRANCH  18  20
ENDBRANCH  17  18
ENDBRANCH  10  11
ENDBRANCH   8  10
ENDBRANCH   7   8
ENDBRANCH   6   7
ENDBRANCH   5   6
ENDBRANCH   4   5
ENDBRANCH   3   4
ENDBRANCH   2   3
ENDBRANCH   1   2
BRANCH   1  28
ATOM     28  C   UNL A   1      42.097  20.058  27.153  1.00  0.00     0.188 C 
BRANCH  28  29
ATOM     29  C   UNL A   1      42.593  19.422  25.852  1.00  0.00     0.188 C 
BRANCH  29  30
ATOM     30  O   UNL A   1      43.330  20.386  25.101  1.00  0.00    -0.376 OA
BRANCH  30  31
ATOM     31  C   UNL A   1      43.791  21.537  25.788  1.00  0.00     0.202 C 
BRANCH  31  32
ATOM     32  C   UNL A   1      45.287  21.656  25.528  1.00  0.00     0.261 C 
BRANCH  32  33
ATOM     33  O   UNL A   1      45.872  22.458  26.581  1.00  0.00    -0.460 OA
BRANCH  33  34
ATOM     34  C   UNL A   1      45.725  23.804  26.389  1.00  0.00     0.338 C 
ATOM     35  O   UNL A   1      45.951  24.378  25.342  1.00  0.00    -0.246 OA
BRANCH  34  36
ATOM     36  C   UNL A   1      45.339  24.489  27.664  1.00  0.00     0.060 A 
ATOM     37  C   UNL A   1      44.111  24.179  28.269  1.00  0.00     0.016 A 
ATOM     38  C   UNL A   1      46.084  25.560  28.151  1.00  0.00     0.016 A 
ATOM     39  C   UNL A   1      43.574  25.009  29.272  1.00  0.00     0.010 A 
ATOM     40  C   UNL A   1      45.532  26.396  29.118  1.00  0.00     0.010 A 
ATOM     41  C   UNL A   1      44.249  26.171  29.652  1.00  0.00    -0.014 A 
BRANCH  41  42
ATOM     42  C   UNL A   1      43.645  27.303  30.403  1.00  0.00     0.031 A 
ATOM     43  C   UNL A   1      42.786  28.315  29.700  1.00  0.00     0.074 A 
ATOM     44  C   UNL A   1      43.516  27.162  31.749  1.00  0.00     0.049 A 
ATOM     45  N   UNL A   1      42.096  29.235  30.290  1.00  0.00    -0.248 NA
ATOM     46  C   UNL A   1      42.609  28.369  28.248  1.00  0.00     0.031 C 
ATOM     47  C   UNL A   1      42.436  27.671  32.601  1.00  0.00     0.029 A 
ATOM     48  N   UNL A   1      44.289  26.476  32.668  1.00  0.00    -0.354 N 
ATOM     49  C   UNL A   1      41.122  29.682  29.416  1.00  0.00     0.074 A 
ATOM     50  C   UNL A   1      41.589  29.232  28.126  1.00  0.00     0.031 C 
ATOM     51  C   UNL A   1      42.640  27.335  33.883  1.00  0.00     0.029 A 
ATOM     52  C   UNL A   1      44.024  26.952  33.958  1.00  0.00     0.049 A 
ATOM     53  H   UNL A   1      44.929  25.761  32.449  1.00  0.00     0.167 HD
ATOM     54  C   UNL A   1      39.958  30.214  29.917  1.00  0.00     0.034 A 
ATOM     55  C   UNL A   1      44.965  27.661  34.652  1.00  0.00     0.034 A 
ATOM     56  C   UNL A   1      40.035  30.496  31.370  1.00  0.00     0.049 A 
ATOM     57  C   UNL A   1      44.589  29.157  34.722  1.00  0.00     0.074 A 
ATOM     58  C   UNL A   1      39.194  30.385  32.470  1.00  0.00     0.029 A 
ATOM     59  N   UNL A   1      41.246  30.930  31.901  1.00  0.00    -0.354 N 
ATOM     60  N   UNL A   1      43.484  29.651  34.214  1.00  0.00    -0.248 NA
ATOM     61  C   UNL A   1      45.381  30.216  35.340  1.00  0.00     0.031 C 
ATOM     62  C   UNL A   1      39.950  30.669  33.653  1.00  0.00     0.029 A 
ATOM     63  C   UNL A   1      41.219  31.060  33.268  1.00  0.00     0.049 A 
ATOM     64  H   UNL A   1      42.039  31.126  31.353  1.00  0.00     0.167 HD
ATOM     65  C   UNL A   1      43.401  31.001  34.372  1.00  0.00     0.074 A 
ATOM     66  C   UNL A   1      44.641  31.314  35.071  1.00  0.00     0.031 C 
ATOM     67  C   UNL A   1      42.337  31.737  33.906  1.00  0.00     0.034 A 
BRANCH  54  68
ATOM     68  C   UNL A   1      38.637  30.353  29.143  1.00  0.00     0.023 A 
ATOM     69  C   UNL A   1      37.937  31.585  29.172  1.00  0.00     0.031 A 
ATOM     70  C   UNL A   1      37.950  29.308  28.483  1.00  0.00     0.131 A 
ATOM     71  C   UNL A   1      36.643  31.728  28.622  1.00  0.00     0.055 A 
ATOM     72  C   UNL A   1      36.696  29.472  27.869  1.00  0.00     0.041 A 
ATOM     73  F   UNL A   1      38.421  28.056  28.444  1.00  0.00    -0.206 F 
ATOM     74  C   UNL A   1      36.027  30.682  27.947  1.00  0.00     0.022 A 
BRANCH  71  75
ATOM     75  S   UNL A   1      35.740  33.293  28.839  1.00  0.00     0.124 S 
ATOM     76  O   UNL A   1      35.042  33.425  27.565  1.00  0.00    -0.237 OA
ATOM     77  O   UNL A   1      34.908  33.020  30.005  1.00  0.00    -0.237 OA
ATOM     78  O   UNL A   1      36.805  34.272  29.063  1.00  0.00    -0.744 OA
ENDBRANCH  71  75
ENDBRANCH  54  68
BRANCH  55  79
ATOM     79  C   UNL A   1      46.290  26.955  34.541  1.00  0.00     0.023 A 
ATOM     80  C   UNL A   1      46.327  25.680  35.177  1.00  0.00     0.031 A 
ATOM     81  C   UNL A   1      47.100  27.129  33.406  1.00  0.00     0.131 A 
ATOM     82  C   UNL A   1      46.932  24.579  34.541  1.00  0.00     0.055 A 
ATOM     83  C   UNL A   1      47.743  26.031  32.801  1.00  0.00     0.041 A 
ATOM     84  F   UNL A   1      47.089  28.289  32.733  1.00  0.00    -0.206 F 
ATOM     85  C   UNL A   1      47.604  24.745  33.330  1.00  0.00     0.022 A 
BRANCH  82  86
ATOM     86  S   UNL A   1      46.582  22.891  35.153  1.00  0.00     0.124 S 
ATOM     87  O   UNL A   1      46.633  23.075  36.597  1.00  0.00    -0.237 OA
ATOM     88  O   UNL A   1      45.266  22.605  34.592  1.00  0.00    -0.237 OA
ATOM     89  O   UNL A   1      47.666  22.095  34.584  1.00  0.00    -0.744 OA
ENDBRANCH  82  86
ENDBRANCH  55  79
BRANCH  67  90
ATOM     90  C   UNL A   1      42.261  33.242  33.923  1.00  0.00     0.023 A 
ATOM     91  C   UNL A   1      41.494  33.919  34.862  1.00  0.00     0.031 A 
ATOM     92  C   UNL A   1      42.966  34.050  32.989  1.00  0.00     0.131 A 
ATOM     93  C   UNL A   1      41.602  35.310  34.988  1.00  0.00     0.055 A 
ATOM     94  C   UNL A   1      42.975  35.442  33.043  1.00  0.00     0.041 A 
ATOM     95  F   UNL A   1      43.719  33.533  32.008  1.00  0.00    -0.206 F 
ATOM     96  C   UNL A   1      42.324  36.083  34.080  1.00  0.00     0.022 A 
BRANCH  93  97
ATOM     97  S   UNL A   1      40.911  36.049  36.481  1.00  0.00     0.124 S 
ATOM     98  O   UNL A   1      42.011  36.879  36.959  1.00  0.00    -0.237 OA
ATOM     99  O   UNL A   1      39.763  36.772  35.940  1.00  0.00    -0.237 OA
ATOM    100  O   UNL A   1      40.584  34.896  37.316  1.00  0.00    -0.744 OA
ENDBRANCH  93  97
ENDBRANCH  67  90
ENDBRANCH  41  42
ENDBRANCH  34  36
ENDBRANCH  33  34
ENDBRANCH  32  33
ENDBRANCH  31  32
ENDBRANCH  30  31
ENDBRANCH  29  30
ENDBRANCH  28  29
ENDBRANCH   1  28
TORSDOF 26
ENDMDL
MODEL 2
REMARK VINA RESULT:      -9.0      3.437      4.899
REMARK SMILES Cc1ccc(Nc2c(Cl)cccc2Cl)c(CC(=O)OCCOCCOCCOCCOC(=O)c2ccc(-c3c4nc(c(-c5cc(S(=O)(=O)[O-])ccc5F)c5ccc([nH]5)c(-c5cc(S(=O)(=O)[O-])ccc5F)c5nc(c(-c6cc(S(=O)(=O)[O-])ccc6F)c6ccc3[nH]6)C=C5)C=C4)cc2)c1
REMARK SMILES IDX 25 1 24 2 23 3 22 4 21 5 20 6 19 7 17 8 18 9 16 10 15 11
REMARK SMILES IDX 1 12 2 13 3 14 97 15 4 16 5 17 6 18 7 20 8 21 13 22 9 23
REMARK SMILES IDX 10 24 12 25 14 26 11 27 26 28 27 29 28 30 29 31 30 32 31 33
REMARK SMILES IDX 32 34 33 35 34 36 35 37 96 38 36 39 95 40 37 41 38 42 39 43
REMARK SMILES IDX 89 44 40 45 94 46 88 47 90 48 41 49 93 50 87 51 86 52 42 54
REMARK SMILES IDX 74 55 54 56 73 57 55 58 58 59 72 60 91 61 56 62 57 63 71 65
REMARK SMILES IDX 92 66 59 67 43 68 44 69 52 70 45 71 51 72 53 73 50 74 46 75
REMARK SMILES IDX 47 76 48 77 49 78 75 79 76 80 84 81 77 82 83 83 85 84 82 85
REMARK SMILES IDX 78 86 79 87 80 88 81 89 60 90 61 91 69 92 62 93 68 94 70 95
REMARK SMILES IDX 67 96 63 97 64 98 65 99 66 100
REMARK H PARENT 6 19 90 53 58 64
REMARK Flexibility Score: inf
ROOT
ATOM      1  O   UNL A   1      39.493  20.119  26.235  1.00  0.00    -0.377 OA
ENDROOT
BRANCH   1   2
ATOM      2  C   UNL A   1      39.077  21.456  26.032  1.00  0.00     0.188 C 
BRANCH   2   3
ATOM      3  C   UNL A   1      37.743  21.618  25.358  1.00  0.00     0.188 C 
BRANCH   3   4
ATOM      4  O   UNL A   1      37.430  22.852  24.749  1.00  0.00    -0.376 OA
BRANCH   4   5
ATOM      5  C   UNL A   1      36.753  22.660  23.527  1.00  0.00     0.202 C 
BRANCH   5   6
ATOM      6  C   UNL A   1      35.231  22.576  23.594  1.00  0.00     0.261 C 
BRANCH   6   7
ATOM      7  O   UNL A   1      34.587  23.659  22.904  1.00  0.00    -0.463 OA
BRANCH   7   8
ATOM      8  C   UNL A   1      33.425  23.335  22.293  1.00  0.00     0.310 C 
ATOM      9  O   UNL A   1      33.216  23.429  21.087  1.00  0.00    -0.252 OA
BRANCH   8  10
ATOM     10  C   UNL A   1      32.339  22.878  23.229  1.00  0.00     0.160 C 
BRANCH  10  11
ATOM     11  C   UNL A   1      32.319  21.446  23.741  1.00  0.00    -0.013 A 
ATOM     12  C   UNL A   1      32.195  18.061  21.894  1.00  0.00     0.044 C 
ATOM     13  C   UNL A   1      32.243  19.090  22.983  1.00  0.00    -0.051 A 
ATOM     14  C   UNL A   1      32.371  18.691  24.303  1.00  0.00     0.005 A 
ATOM     15  C   UNL A   1      32.180  20.459  22.719  1.00  0.00     0.009 A 
ATOM     16  C   UNL A   1      32.436  19.643  25.327  1.00  0.00     0.026 A 
ATOM     17  C   UNL A   1      32.459  21.035  25.102  1.00  0.00     0.042 A 
BRANCH  17  18
ATOM     18  N   UNL A   1      32.589  21.957  26.207  1.00  0.00    -0.353 N 
ATOM     19  H   UNL A   1      33.074  21.610  26.990  1.00  0.00     0.167 HD
BRANCH  18  20
ATOM     20  C   UNL A   1      32.109  23.318  26.329  1.00  0.00     0.076 A 
ATOM     21  C   UNL A   1      30.751  23.660  26.404  1.00  0.00     0.066 A 
ATOM     22  C   UNL A   1      32.980  24.411  26.099  1.00  0.00     0.066 A 
ATOM     23  Cl  UNL A   1      29.620  22.657  27.254  1.00  0.00    -0.082 Cl
ATOM     24  C   UNL A   1      30.270  24.884  25.904  1.00  0.00     0.023 A 
ATOM     25  C   UNL A   1      32.514  25.619  25.546  1.00  0.00     0.023 A 
ATOM     26  Cl  UNL A   1      34.676  24.300  26.452  1.00  0.00    -0.082 Cl
ATOM     27  C   UNL A   1      31.149  25.829  25.388  1.00  0.00     0.003 A 
ENDBRANCH  18  20
ENDBRANCH  17  18
ENDBRANCH  10  11
ENDBRANCH   8  10
ENDBRANCH   7   8
ENDBRANCH   6   7
ENDBRANCH   5   6
ENDBRANCH   4   5
ENDBRANCH   3   4
ENDBRANCH   2   3
ENDBRANCH   1   2
BRANCH   1  28
ATOM     28  C   UNL A   1      40.776  20.062  26.874  1.00  0.00     0.188 C 
BRANCH  28  29
ATOM     29  C   UNL A   1      41.910  20.894  26.270  1.00  0.00     0.188 C 
BRANCH  29  30
ATOM     30  O   UNL A   1      42.650  20.092  25.350  1.00  0.00    -0.376 OA
BRANCH  30  31
ATOM     31  C   UNL A   1      43.957  20.523  25.010  1.00  0.00     0.202 C 
BRANCH  31  32
ATOM     32  C   UNL A   1      43.827  21.872  24.314  1.00  0.00     0.261 C 
BRANCH  32  33
ATOM     33  O   UNL A   1      45.135  22.488  24.263  1.00  0.00    -0.460 OA
BRANCH  33  34
ATOM     34  C   UNL A   1      45.562  22.964  25.472  1.00  0.00     0.338 C 
ATOM     35  O   UNL A   1      46.430  22.446  26.147  1.00  0.00    -0.246 OA
BRANCH  34  36
ATOM     36  C   UNL A   1      44.755  24.151  25.898  1.00  0.00     0.060 A 
ATOM     37  C   UNL A   1      44.584  25.224  25.008  1.00  0.00     0.016 A 
ATOM     38  C   UNL A   1      44.337  24.294  27.219  1.00  0.00     0.016 A 
ATOM     39  C   UNL A   1      44.114  26.470  25.465  1.00  0.00     0.010 A 
ATOM     40  C   UNL A   1      43.905  25.538  27.672  1.00  0.00     0.010 A 
ATOM     41  C   UNL A   1      43.841  26.658  26.822  1.00  0.00    -0.014 A 
BRANCH  41  42
ATOM     42  C   UNL A   1      43.702  27.979  27.490  1.00  0.00     0.031 A 
ATOM     43  C   UNL A   1      42.364  28.655  27.576  1.00  0.00     0.074 A 
ATOM     44  C   UNL A   1      44.671  28.336  28.375  1.00  0.00     0.049 A 
ATOM     45  N   UNL A   1      42.118  29.719  28.268  1.00  0.00    -0.248 NA
ATOM     46  C   UNL A   1      41.160  28.174  26.897  1.00  0.00     0.031 C 
ATOM     47  C   UNL A   1      44.510  29.108  29.612  1.00  0.00     0.029 A 
ATOM     48  N   UNL A   1      46.022  28.041  28.411  1.00  0.00    -0.354 N 
ATOM     49  C   UNL A   1      40.752  29.805  28.468  1.00  0.00     0.074 A 
ATOM     50  C   UNL A   1      40.204  28.922  27.468  1.00  0.00     0.031 C 
ATOM     51  C   UNL A   1      45.688  29.265  30.234  1.00  0.00     0.029 A 
ATOM     52  C   UNL A   1      46.682  28.951  29.245  1.00  0.00     0.049 A 
ATOM     53  H   UNL A   1      46.453  27.302  27.923  1.00  0.00     0.167 HD
ATOM     54  C   UNL A   1      40.273  30.470  29.572  1.00  0.00     0.034 A 
ATOM     55  C   UNL A   1      47.549  29.875  28.729  1.00  0.00     0.034 A 
ATOM     56  C   UNL A   1      41.317  31.263  30.263  1.00  0.00     0.049 A 
ATOM     57  C   UNL A   1      46.930  31.289  28.759  1.00  0.00     0.074 A 
ATOM     58  C   UNL A   1      41.669  31.550  31.576  1.00  0.00     0.029 A 
ATOM     59  N   UNL A   1      42.305  31.875  29.497  1.00  0.00    -0.354 N 
ATOM     60  N   UNL A   1      45.745  31.552  29.259  1.00  0.00    -0.248 NA
ATOM     61  C   UNL A   1      47.546  32.509  28.246  1.00  0.00     0.031 C 
ATOM     62  C   UNL A   1      42.917  32.255  31.570  1.00  0.00     0.029 A 
ATOM     63  C   UNL A   1      43.269  32.492  30.255  1.00  0.00     0.049 A 
ATOM     64  H   UNL A   1      42.311  31.866  28.513  1.00  0.00     0.167 HD
ATOM     65  C   UNL A   1      45.410  32.866  29.132  1.00  0.00     0.074 A 
ATOM     66  C   UNL A   1      46.577  33.426  28.462  1.00  0.00     0.031 C 
ATOM     67  C   UNL A   1      44.208  33.368  29.573  1.00  0.00     0.034 A 
BRANCH  54  68
ATOM     68  C   UNL A   1      38.867  30.302  30.171  1.00  0.00     0.023 A 
ATOM     69  C   UNL A   1      37.933  31.363  30.068  1.00  0.00     0.031 A 
ATOM     70  C   UNL A   1      38.427  29.213  30.958  1.00  0.00     0.131 A 
ATOM     71  C   UNL A   1      36.688  31.337  30.737  1.00  0.00     0.055 A 
ATOM     72  C   UNL A   1      37.158  29.155  31.560  1.00  0.00     0.041 A 
ATOM     73  F   UNL A   1      39.216  28.169  31.240  1.00  0.00    -0.206 F 
ATOM     74  C   UNL A   1      36.284  30.225  31.465  1.00  0.00     0.022 A 
BRANCH  71  75
ATOM     75  S   UNL A   1      35.609  32.802  30.690  1.00  0.00     0.124 S 
ATOM     76  O   UNL A   1      34.955  32.745  31.993  1.00  0.00    -0.237 OA
ATOM     77  O   UNL A   1      36.561  33.889  30.492  1.00  0.00    -0.237 OA
ATOM     78  O   UNL A   1      34.732  32.542  29.548  1.00  0.00    -0.744 OA
ENDBRANCH  71  75
ENDBRANCH  54  68
BRANCH  55  79
ATOM     79  C   UNL A   1      48.467  29.192  27.750  1.00  0.00     0.023 A 
ATOM     80  C   UNL A   1      49.376  28.271  28.347  1.00  0.00     0.031 A 
ATOM     81  C   UNL A   1      48.037  28.911  26.442  1.00  0.00     0.131 A 
ATOM     82  C   UNL A   1      49.611  27.013  27.760  1.00  0.00     0.055 A 
ATOM     83  C   UNL A   1      48.316  27.669  25.840  1.00  0.00     0.041 A 
ATOM     84  F   UNL A   1      47.153  29.712  25.830  1.00  0.00    -0.206 F 
ATOM     85  C   UNL A   1      49.046  26.694  26.525  1.00  0.00     0.022 A 
BRANCH  82  86
ATOM     86  S   UNL A   1      50.410  25.700  28.751  1.00  0.00     0.124 S 
ATOM     87  O   UNL A   1      51.654  26.341  29.157  1.00  0.00    -0.237 OA
ATOM     88  O   UNL A   1      49.441  25.456  29.814  1.00  0.00    -0.237 OA
ATOM     89  O   UNL A   1      50.553  24.600  27.801  1.00  0.00    -0.744 OA
ENDBRANCH  82  86
ENDBRANCH  55  79
BRANCH  67  90
ATOM     90  C   UNL A   1      43.726  34.776  29.329  1.00  0.00     0.023 A 
ATOM     91  C   UNL A   1      43.835  35.759  30.304  1.00  0.00     0.031 A 
ATOM     92  C   UNL A   1      43.139  35.176  28.098  1.00  0.00     0.131 A 
ATOM     93  C   UNL A   1      43.573  37.097  29.986  1.00  0.00     0.055 A 
ATOM     94  C   UNL A   1      42.765  36.490  27.826  1.00  0.00     0.041 A 
ATOM     95  F   UNL A   1      42.940  34.327  27.080  1.00  0.00    -0.206 F 
ATOM     96  C   UNL A   1      43.026  37.474  28.760  1.00  0.00     0.022 A 
BRANCH  93  97
ATOM     97  S   UNL A   1      44.138  38.340  31.163  1.00  0.00     0.124 S 
ATOM     98  O   UNL A   1      43.409  39.531  30.739  1.00  0.00    -0.237 OA
ATOM     99  O   UNL A   1      43.707  37.754  32.431  1.00  0.00    -0.237 OA
ATOM    100  O   UNL A   1      45.583  38.380  30.955  1.00  0.00    -0.744 OA
ENDBRANCH  93  97
ENDBRANCH  67  90
ENDBRANCH  41  42
ENDBRANCH  34  36
ENDBRANCH  33  34
ENDBRANCH  32  33
ENDBRANCH  31  32
ENDBRANCH  30  31
ENDBRANCH  29  30
ENDBRANCH  28  29
ENDBRANCH   1  28
TORSDOF 26
ENDMDL
MODEL 3
REMARK VINA RESULT:      -8.5      3.700      8.341
REMARK SMILES Cc1ccc(Nc2c(Cl)cccc2Cl)c(CC(=O)OCCOCCOCCOCCOC(=O)c2ccc(-c3c4nc(c(-c5cc(S(=O)(=O)[O-])ccc5F)c5ccc([nH]5)c(-c5cc(S(=O)(=O)[O-])ccc5F)c5nc(c(-c6cc(S(=O)(=O)[O-])ccc6F)c6ccc3[nH]6)C=C5)C=C4)cc2)c1
REMARK SMILES IDX 25 1 24 2 23 3 22 4 21 5 20 6 19 7 17 8 18 9 16 10 15 11
REMARK SMILES IDX 1 12 2 13 3 14 97 15 4 16 5 17 6 18 7 20 8 21 13 22 9 23
REMARK SMILES IDX 10 24 12 25 14 26 11 27 26 28 27 29 28 30 29 31 30 32 31 33
REMARK SMILES IDX 32 34 33 35 34 36 35 37 96 38 36 39 95 40 37 41 38 42 39 43
REMARK SMILES IDX 89 44 40 45 94 46 88 47 90 48 41 49 93 50 87 51 86 52 42 54
REMARK SMILES IDX 74 55 54 56 73 57 55 58 58 59 72 60 91 61 56 62 57 63 71 65
REMARK SMILES IDX 92 66 59 67 43 68 44 69 52 70 45 71 51 72 53 73 50 74 46 75
REMARK SMILES IDX 47 76 48 77 49 78 75 79 76 80 84 81 77 82 83 83 85 84 82 85
REMARK SMILES IDX 78 86 79 87 80 88 81 89 60 90 61 91 69 92 62 93 68 94 70 95
REMARK SMILES IDX 67 96 63 97 64 98 65 99 66 100
REMARK H PARENT 6 19 90 53 58 64
REMARK Flexibility Score: inf
ROOT
ATOM      1  O   UNL A   1      42.731  23.746  28.796  1.00  0.00    -0.377 OA
ENDROOT
BRANCH   1   2
ATOM      2  C   UNL A   1      41.488  23.480  28.175  1.00  0.00     0.188 C 
BRANCH   2   3
ATOM      3  C   UNL A   1      41.322  22.083  27.645  1.00  0.00     0.188 C 
BRANCH   3   4
ATOM      4  O   UNL A   1      40.019  21.589  27.420  1.00  0.00    -0.376 OA
BRANCH   4   5
ATOM      5  C   UNL A   1      39.604  21.830  26.094  1.00  0.00     0.202 C 
BRANCH   5   6
ATOM      6  C   UNL A   1      38.100  21.851  25.839  1.00  0.00     0.261 C 
BRANCH   6   7
ATOM      7  O   UNL A   1      37.774  21.698  24.449  1.00  0.00    -0.463 OA
BRANCH   7   8
ATOM      8  C   UNL A   1      36.847  22.565  23.982  1.00  0.00     0.310 C 
ATOM      9  O   UNL A   1      36.943  23.197  22.934  1.00  0.00    -0.252 OA
BRANCH   8  10
ATOM     10  C   UNL A   1      35.662  22.753  24.889  1.00  0.00     0.160 C 
BRANCH  10  11
ATOM     11  C   UNL A   1      34.294  22.225  24.484  1.00  0.00    -0.013 A 
ATOM     12  C   UNL A   1      32.816  18.662  24.479  1.00  0.00     0.044 C 
ATOM     13  C   UNL A   1      32.963  20.144  24.313  1.00  0.00    -0.051 A 
ATOM     14  C   UNL A   1      31.873  20.907  23.929  1.00  0.00     0.005 A 
ATOM     15  C   UNL A   1      34.170  20.804  24.549  1.00  0.00     0.009 A 
ATOM     16  C   UNL A   1      31.993  22.295  23.789  1.00  0.00     0.026 A 
ATOM     17  C   UNL A   1      33.168  23.013  24.096  1.00  0.00     0.042 A 
BRANCH  17  18
ATOM     18  N   UNL A   1      33.198  24.454  23.985  1.00  0.00    -0.353 N 
ATOM     19  H   UNL A   1      33.980  24.823  23.515  1.00  0.00     0.167 HD
BRANCH  18  20
ATOM     20  C   UNL A   1      32.244  25.432  24.466  1.00  0.00     0.076 A 
ATOM     21  C   UNL A   1      31.754  26.489  23.686  1.00  0.00     0.066 A 
ATOM     22  C   UNL A   1      31.961  25.540  25.849  1.00  0.00     0.066 A 
ATOM     23  Cl  UNL A   1      31.443  26.284  21.992  1.00  0.00    -0.082 Cl
ATOM     24  C   UNL A   1      31.379  27.717  24.260  1.00  0.00     0.023 A 
ATOM     25  C   UNL A   1      31.640  26.777  26.440  1.00  0.00     0.023 A 
ATOM     26  Cl  UNL A   1      32.034  24.155  26.893  1.00  0.00    -0.082 Cl
ATOM     27  C   UNL A   1      31.411  27.890  25.639  1.00  0.00     0.003 A 
ENDBRANCH  18  20
ENDBRANCH  17  18
ENDBRANCH  10  11
ENDBRANCH   8  10
ENDBRANCH   7   8
ENDBRANCH   6   7
ENDBRANCH   5   6
ENDBRANCH   4   5
ENDBRANCH   3   4
ENDBRANCH   2   3
ENDBRANCH   1   2
BRANCH   1  28
ATOM     28  C   UNL A   1      43.395  24.859  28.181  1.00  0.00     0.188 C 
BRANCH  28  29
ATOM     29  C   UNL A   1      43.103  25.136  26.704  1.00  0.00     0.188 C 
BRANCH  29  30
ATOM     30  O   UNL A   1      44.122  25.979  26.168  1.00  0.00    -0.376 OA
BRANCH  30  31
ATOM     31  C   UNL A   1      43.719  27.214  25.601  1.00  0.00     0.202 C 
BRANCH  31  32
ATOM     32  C   UNL A   1      43.502  28.195  26.746  1.00  0.00     0.261 C 
BRANCH  32  33
ATOM     33  O   UNL A   1      42.264  28.906  26.511  1.00  0.00    -0.460 OA
BRANCH  33  34
ATOM     34  C   UNL A   1      41.292  28.630  27.432  1.00  0.00     0.338 C 
ATOM     35  O   UNL A   1      40.247  28.062  27.181  1.00  0.00    -0.246 OA
BRANCH  34  36
ATOM     36  C   UNL A   1      41.643  29.204  28.771  1.00  0.00     0.060 A 
ATOM     37  C   UNL A   1      41.136  28.602  29.934  1.00  0.00     0.016 A 
ATOM     38  C   UNL A   1      42.300  30.428  28.872  1.00  0.00     0.016 A 
ATOM     39  C   UNL A   1      41.176  29.278  31.168  1.00  0.00     0.010 A 
ATOM     40  C   UNL A   1      42.305  31.105  30.089  1.00  0.00     0.010 A 
ATOM     41  C   UNL A   1      41.695  30.572  31.240  1.00  0.00    -0.014 A 
BRANCH  41  42
ATOM     42  C   UNL A   1      41.469  31.523  32.360  1.00  0.00     0.031 A 
ATOM     43  C   UNL A   1      42.579  31.859  33.313  1.00  0.00     0.074 A 
ATOM     44  C   UNL A   1      40.424  32.386  32.246  1.00  0.00     0.049 A 
ATOM     45  N   UNL A   1      42.524  32.785  34.214  1.00  0.00    -0.248 NA
ATOM     46  C   UNL A   1      43.880  31.187  33.324  1.00  0.00     0.031 C 
ATOM     47  C   UNL A   1      40.354  33.771  32.723  1.00  0.00     0.029 A 
ATOM     48  N   UNL A   1      39.199  32.250  31.619  1.00  0.00    -0.354 N 
ATOM     49  C   UNL A   1      43.815  33.106  34.593  1.00  0.00     0.074 A 
ATOM     50  C   UNL A   1      44.595  31.981  34.135  1.00  0.00     0.031 C 
ATOM     51  C   UNL A   1      39.166  34.318  32.429  1.00  0.00     0.029 A 
ATOM     52  C   UNL A   1      38.307  33.209  32.113  1.00  0.00     0.049 A 
ATOM     53  H   UNL A   1      38.986  31.580  30.929  1.00  0.00     0.167 HD
ATOM     54  C   UNL A   1      44.082  34.362  35.082  1.00  0.00     0.034 A 
ATOM     55  C   UNL A   1      37.236  32.842  32.881  1.00  0.00     0.034 A 
ATOM     56  C   UNL A   1      42.853  35.127  35.403  1.00  0.00     0.049 A 
ATOM     57  C   UNL A   1      37.460  33.230  34.360  1.00  0.00     0.074 A 
ATOM     58  C   UNL A   1      42.414  36.439  35.278  1.00  0.00     0.029 A 
ATOM     59  N   UNL A   1      41.753  34.439  35.906  1.00  0.00    -0.354 N 
ATOM     60  N   UNL A   1      38.525  33.867  34.789  1.00  0.00    -0.248 NA
ATOM     61  C   UNL A   1      36.553  32.952  35.469  1.00  0.00     0.031 C 
ATOM     62  C   UNL A   1      41.025  36.491  35.626  1.00  0.00     0.029 A 
ATOM     63  C   UNL A   1      40.647  35.236  36.066  1.00  0.00     0.049 A 
ATOM     64  H   UNL A   1      41.767  33.480  36.125  1.00  0.00     0.167 HD
ATOM     65  C   UNL A   1      38.504  34.058  36.137  1.00  0.00     0.074 A 
ATOM     66  C   UNL A   1      37.243  33.438  36.525  1.00  0.00     0.031 C 
ATOM     67  C   UNL A   1      39.522  34.691  36.810  1.00  0.00     0.034 A 
BRANCH  54  68
ATOM     68  C   UNL A   1      45.471  35.018  35.140  1.00  0.00     0.023 A 
ATOM     69  C   UNL A   1      46.183  35.253  33.938  1.00  0.00     0.031 A 
ATOM     70  C   UNL A   1      46.201  35.308  36.316  1.00  0.00     0.131 A 
ATOM     71  C   UNL A   1      47.526  35.698  33.933  1.00  0.00     0.055 A 
ATOM     72  C   UNL A   1      47.509  35.823  36.309  1.00  0.00     0.041 A 
ATOM     73  F   UNL A   1      45.717  35.056  37.538  1.00  0.00    -0.206 F 
ATOM     74  C   UNL A   1      48.186  36.008  35.115  1.00  0.00     0.022 A 
BRANCH  71  75
ATOM     75  S   UNL A   1      48.427  35.823  32.358  1.00  0.00     0.124 S 
ATOM     76  O   UNL A   1      48.076  34.568  31.702  1.00  0.00    -0.237 OA
ATOM     77  O   UNL A   1      47.872  37.036  31.770  1.00  0.00    -0.237 OA
ATOM     78  O   UNL A   1      49.826  35.929  32.774  1.00  0.00    -0.744 OA
ENDBRANCH  71  75
ENDBRANCH  54  68
BRANCH  55  79
ATOM     79  C   UNL A   1      36.549  31.669  32.236  1.00  0.00     0.023 A 
ATOM     80  C   UNL A   1      35.979  31.955  30.962  1.00  0.00     0.031 A 
ATOM     81  C   UNL A   1      37.014  30.360  32.451  1.00  0.00     0.131 A 
ATOM     82  C   UNL A   1      36.127  31.052  29.892  1.00  0.00     0.055 A 
ATOM     83  C   UNL A   1      37.114  29.444  31.386  1.00  0.00     0.041 A 
ATOM     84  F   UNL A   1      37.597  30.028  33.612  1.00  0.00    -0.206 F 
ATOM     85  C   UNL A   1      36.733  29.812  30.092  1.00  0.00     0.022 A 
BRANCH  82  86
ATOM     86  S   UNL A   1      35.790  31.625  28.187  1.00  0.00     0.124 S 
ATOM     87  O   UNL A   1      36.462  32.917  28.163  1.00  0.00    -0.237 OA
ATOM     88  O   UNL A   1      36.389  30.579  27.365  1.00  0.00    -0.237 OA
ATOM     89  O   UNL A   1      34.332  31.675  28.131  1.00  0.00    -0.744 OA
ENDBRANCH  82  86
ENDBRANCH  55  79
BRANCH  67  90
ATOM     90  C   UNL A   1      39.620  34.801  38.311  1.00  0.00     0.023 A 
ATOM     91  C   UNL A   1      39.837  33.684  39.107  1.00  0.00     0.031 A 
ATOM     92  C   UNL A   1      39.500  36.043  38.992  1.00  0.00     0.131 A 
ATOM     93  C   UNL A   1      40.128  33.836  40.468  1.00  0.00     0.055 A 
ATOM     94  C   UNL A   1      39.671  36.175  40.368  1.00  0.00     0.041 A 
ATOM     95  F   UNL A   1      39.256  37.198  38.356  1.00  0.00    -0.206 F 
ATOM     96  C   UNL A   1      40.035  35.070  41.113  1.00  0.00     0.022 A 
BRANCH  93  97
ATOM     97  S   UNL A   1      40.804  32.400  41.323  1.00  0.00     0.124 S 
ATOM     98  O   UNL A   1      41.334  32.983  42.550  1.00  0.00    -0.237 OA
ATOM     99  O   UNL A   1      39.611  31.571  41.481  1.00  0.00    -0.237 OA
ATOM    100  O   UNL A   1      41.802  31.883  40.390  1.00  0.00    -0.744 OA
ENDBRANCH  93  97
ENDBRANCH  67  90
ENDBRANCH  41  42
ENDBRANCH  34  36
ENDBRANCH  33  34
ENDBRANCH  32  33
ENDBRANCH  31  32
ENDBRANCH  30  31
ENDBRANCH  29  30
ENDBRANCH  28  29
ENDBRANCH   1  28
TORSDOF 26
ENDMDL
