MODEL 1
REMARK VINA RESULT:      -7.9      0.000      0.000
REMARK SMILES CC[C@@](C)(NC(=O)CCc1ccc(OC)c(Br)c1)C(=O)OCCOCCOCCOCCOC(=O)c1ccc(-c2c3nc(c(-c4cc(S(=O)(=O)[O-])ccc4F)c4ccc([nH]4)c(-c4cc(S(=O)(=O)[O-])ccc4F)c4nc(c(-c5cc(S(=O)(=O)[O-])ccc5F)c5ccc2[nH]5)C=C4)C=C3)cc1
REMARK SMILES IDX 26 1 25 2 24 3 23 4 22 5 21 6 19 7 20 8 3 9 4 10 2 11 1 12
REMARK SMILES IDX 5 13 6 14 7 16 8 17 9 18 10 19 11 20 18 21 12 22 16 23 13 24
REMARK SMILES IDX 17 25 14 26 15 27 27 28 28 29 29 30 30 31 31 32 32 33 33 34
REMARK SMILES IDX 34 35 35 36 36 37 37 38 98 39 38 40 97 41 39 42 40 43 41 44
REMARK SMILES IDX 91 45 42 46 96 47 90 48 92 49 43 50 95 51 89 52 88 53 44 55
REMARK SMILES IDX 76 56 56 57 75 58 57 59 60 60 74 61 93 62 58 63 59 64 73 66
REMARK SMILES IDX 94 67 61 68 45 69 46 70 54 71 47 72 53 73 55 74 52 75 48 76
REMARK SMILES IDX 49 77 50 78 51 79 77 80 78 81 86 82 79 83 85 84 87 85 84 86
REMARK SMILES IDX 80 87 81 88 82 89 83 90 62 91 63 92 71 93 64 94 70 95 72 96
REMARK SMILES IDX 69 97 65 98 66 99 67 100 68 101
REMARK H PARENT 5 15 92 54 60 65
REMARK Flexibility Score: inf
ROOT
ATOM      1  C   UNL A   1      32.639  28.072  26.646  1.00  0.00     0.188 C 
ENDROOT
BRANCH   1   2
ATOM      2  C   UNL A   1      32.220  27.954  25.161  1.00  0.00     0.188 C 
BRANCH   2   3
ATOM      3  O   UNL A   1      31.192  26.997  24.832  1.00  0.00    -0.376 OA
BRANCH   3   4
ATOM      4  C   UNL A   1      31.117  26.518  23.463  1.00  0.00     0.202 C 
BRANCH   4   5
ATOM      5  C   UNL A   1      32.452  25.783  22.969  1.00  0.00     0.261 C 
BRANCH   5   6
ATOM      6  O   UNL A   1      32.260  24.371  22.500  1.00  0.00    -0.462 OA
BRANCH   6   7
ATOM      7  C   UNL A   1      33.264  23.438  22.694  1.00  0.00     0.331 C 
ATOM      8  O   UNL A   1      34.348  23.531  22.118  1.00  0.00    -0.249 OA
BRANCH   7   9
ATOM      9  C   UNL A   1      32.968  22.264  23.793  1.00  0.00     0.135 C 
ATOM     10  C   UNL A   1      31.946  21.342  23.089  1.00  0.00     0.047 C 
BRANCH   9  11
ATOM     11  C   UNL A   1      33.992  21.248  24.464  1.00  0.00     0.037 C 
ATOM     12  C   UNL A   1      33.865  19.734  24.467  1.00  0.00     0.007 C 
ENDBRANCH   9  11
BRANCH   9  13
ATOM     13  N   UNL A   1      32.359  22.888  24.967  1.00  0.00    -0.340 N 
ATOM     14  C   UNL A   1      33.032  23.613  25.895  1.00  0.00     0.221 C 
ATOM     15  H   UNL A   1      31.390  22.772  25.093  1.00  0.00     0.164 HD
ATOM     16  O   UNL A   1      32.550  23.641  27.033  1.00  0.00    -0.275 OA
BRANCH  14  17
ATOM     17  C   UNL A   1      34.274  24.441  25.587  1.00  0.00     0.105 C 
BRANCH  17  18
ATOM     18  C   UNL A   1      35.760  24.349  26.023  1.00  0.00     0.045 C 
BRANCH  18  19
ATOM     19  C   UNL A   1      37.016  23.519  26.269  1.00  0.00    -0.046 A 
ATOM     20  C   UNL A   1      37.222  22.276  25.630  1.00  0.00     0.007 A 
ATOM     21  C   UNL A   1      38.170  24.124  26.779  1.00  0.00     0.023 A 
ATOM     22  C   UNL A   1      38.439  21.600  25.599  1.00  0.00     0.048 A 
ATOM     23  C   UNL A   1      39.428  23.508  26.657  1.00  0.00     0.060 A 
ATOM     24  C   UNL A   1      39.548  22.220  26.126  1.00  0.00     0.133 A 
ATOM     25  Br  UNL A   1      40.968  24.514  27.117  1.00  0.00    -0.047 Br
BRANCH  24  26
ATOM     26  O   UNL A   1      40.742  21.563  26.042  1.00  0.00    -0.496 OA
ATOM     27  C   UNL A   1      40.740  20.461  26.949  1.00  0.00     0.278 C 
ENDBRANCH  24  26
ENDBRANCH  18  19
ENDBRANCH  17  18
ENDBRANCH  14  17
ENDBRANCH   9  13
ENDBRANCH   7   9
ENDBRANCH   6   7
ENDBRANCH   5   6
ENDBRANCH   4   5
ENDBRANCH   3   4
ENDBRANCH   2   3
ENDBRANCH   1   2
BRANCH   1  28
ATOM     28  O   UNL A   1      32.399  29.353  27.216  1.00  0.00    -0.377 OA
BRANCH  28  29
ATOM     29  C   UNL A   1      33.174  30.410  26.672  1.00  0.00     0.188 C 
BRANCH  29  30
ATOM     30  C   UNL A   1      33.860  31.289  27.724  1.00  0.00     0.188 C 
BRANCH  30  31
ATOM     31  O   UNL A   1      35.250  31.143  28.002  1.00  0.00    -0.376 OA
BRANCH  31  32
ATOM     32  C   UNL A   1      35.968  30.014  27.529  1.00  0.00     0.202 C 
BRANCH  32  33
ATOM     33  C   UNL A   1      37.261  29.629  28.262  1.00  0.00     0.261 C 
BRANCH  33  34
ATOM     34  O   UNL A   1      37.129  29.448  29.677  1.00  0.00    -0.460 OA
BRANCH  34  35
ATOM     35  C   UNL A   1      38.088  30.064  30.414  1.00  0.00     0.338 C 
ATOM     36  O   UNL A   1      37.929  30.900  31.279  1.00  0.00    -0.246 OA
BRANCH  35  37
ATOM     37  C   UNL A   1      39.401  29.468  30.099  1.00  0.00     0.060 A 
ATOM     38  C   UNL A   1      39.597  28.101  30.337  1.00  0.00     0.016 A 
ATOM     39  C   UNL A   1      40.463  30.280  29.701  1.00  0.00     0.016 A 
ATOM     40  C   UNL A   1      40.869  27.550  30.232  1.00  0.00     0.010 A 
ATOM     41  C   UNL A   1      41.746  29.732  29.624  1.00  0.00     0.010 A 
ATOM     42  C   UNL A   1      41.959  28.377  29.940  1.00  0.00    -0.014 A 
BRANCH  42  43
ATOM     43  C   UNL A   1      43.324  27.875  30.215  1.00  0.00     0.031 A 
ATOM     44  C   UNL A   1      43.851  27.989  31.621  1.00  0.00     0.074 A 
ATOM     45  C   UNL A   1      44.045  27.269  29.256  1.00  0.00     0.049 A 
ATOM     46  N   UNL A   1      45.024  27.667  32.098  1.00  0.00    -0.248 NA
ATOM     47  C   UNL A   1      42.925  28.544  32.624  1.00  0.00     0.031 C 
ATOM     48  C   UNL A   1      43.598  27.037  27.884  1.00  0.00     0.029 A 
ATOM     49  N   UNL A   1      45.309  26.740  29.295  1.00  0.00    -0.354 N 
ATOM     50  C   UNL A   1      44.981  27.983  33.453  1.00  0.00     0.074 A 
ATOM     51  C   UNL A   1      43.678  28.555  33.712  1.00  0.00     0.031 C 
ATOM     52  C   UNL A   1      44.582  26.422  27.205  1.00  0.00     0.029 A 
ATOM     53  C   UNL A   1      45.742  26.261  28.081  1.00  0.00     0.049 A 
ATOM     54  H   UNL A   1      45.856  26.707  30.112  1.00  0.00     0.167 HD
ATOM     55  C   UNL A   1      45.940  27.802  34.393  1.00  0.00     0.034 A 
ATOM     56  C   UNL A   1      46.948  25.781  27.716  1.00  0.00     0.034 A 
ATOM     57  C   UNL A   1      47.235  27.239  34.110  1.00  0.00     0.049 A 
ATOM     58  C   UNL A   1      48.037  25.690  28.762  1.00  0.00     0.074 A 
ATOM     59  C   UNL A   1      48.287  27.014  34.980  1.00  0.00     0.029 A 
ATOM     60  N   UNL A   1      47.662  26.816  32.857  1.00  0.00    -0.354 N 
ATOM     61  N   UNL A   1      47.990  26.001  30.038  1.00  0.00    -0.248 NA
ATOM     62  C   UNL A   1      49.338  25.173  28.318  1.00  0.00     0.031 C 
ATOM     63  C   UNL A   1      49.372  26.532  34.242  1.00  0.00     0.029 A 
ATOM     64  C   UNL A   1      48.971  26.367  32.926  1.00  0.00     0.049 A 
ATOM     65  H   UNL A   1      47.113  26.834  32.038  1.00  0.00     0.167 HD
ATOM     66  C   UNL A   1      49.246  25.684  30.554  1.00  0.00     0.074 A 
ATOM     67  C   UNL A   1      50.014  25.134  29.456  1.00  0.00     0.031 C 
ATOM     68  C   UNL A   1      49.725  25.831  31.816  1.00  0.00     0.034 A 
BRANCH  55  69
ATOM     69  C   UNL A   1      45.639  28.270  35.796  1.00  0.00     0.023 A 
ATOM     70  C   UNL A   1      45.897  29.589  36.213  1.00  0.00     0.031 A 
ATOM     71  C   UNL A   1      45.091  27.379  36.736  1.00  0.00     0.131 A 
ATOM     72  C   UNL A   1      45.656  29.961  37.544  1.00  0.00     0.055 A 
ATOM     73  C   UNL A   1      44.783  27.777  38.038  1.00  0.00     0.041 A 
ATOM     74  F   UNL A   1      44.850  26.100  36.404  1.00  0.00    -0.206 F 
ATOM     75  C   UNL A   1      45.076  29.072  38.452  1.00  0.00     0.022 A 
BRANCH  72  76
ATOM     76  S   UNL A   1      46.225  31.588  38.108  1.00  0.00     0.124 S 
ATOM     77  O   UNL A   1      46.196  32.359  36.868  1.00  0.00    -0.237 OA
ATOM     78  O   UNL A   1      45.223  31.945  39.106  1.00  0.00    -0.237 OA
ATOM     79  O   UNL A   1      47.562  31.321  38.636  1.00  0.00    -0.744 OA
ENDBRANCH  72  76
ENDBRANCH  55  69
BRANCH  56  80
ATOM     80  C   UNL A   1      47.223  25.401  26.300  1.00  0.00     0.023 A 
ATOM     81  C   UNL A   1      47.815  26.307  25.405  1.00  0.00     0.031 A 
ATOM     82  C   UNL A   1      46.818  24.151  25.796  1.00  0.00     0.131 A 
ATOM     83  C   UNL A   1      47.923  25.978  24.045  1.00  0.00     0.055 A 
ATOM     84  C   UNL A   1      46.991  23.802  24.456  1.00  0.00     0.041 A 
ATOM     85  F   UNL A   1      46.241  23.246  26.603  1.00  0.00    -0.206 F 
ATOM     86  C   UNL A   1      47.530  24.726  23.567  1.00  0.00     0.022 A 
BRANCH  83  87
ATOM     87  S   UNL A   1      48.473  27.260  22.885  1.00  0.00     0.124 S 
ATOM     88  O   UNL A   1      48.726  26.479  21.680  1.00  0.00    -0.237 OA
ATOM     89  O   UNL A   1      47.314  28.146  22.845  1.00  0.00    -0.237 OA
ATOM     90  O   UNL A   1      49.659  27.817  23.531  1.00  0.00    -0.744 OA
ENDBRANCH  83  87
ENDBRANCH  56  80
BRANCH  68  91
ATOM     91  C   UNL A   1      51.131  25.343  32.077  1.00  0.00     0.023 A 
ATOM     92  C   UNL A   1      51.402  23.998  32.383  1.00  0.00     0.031 A 
ATOM     93  C   UNL A   1      52.212  26.243  32.045  1.00  0.00     0.131 A 
ATOM     94  C   UNL A   1      52.705  23.606  32.721  1.00  0.00     0.055 A 
ATOM     95  C   UNL A   1      53.519  25.832  32.307  1.00  0.00     0.041 A 
ATOM     96  F   UNL A   1      52.015  27.540  31.761  1.00  0.00    -0.206 F 
ATOM     97  C   UNL A   1      53.770  24.510  32.665  1.00  0.00     0.022 A 
BRANCH  94  98
ATOM     98  S   UNL A   1      52.971  21.929  33.356  1.00  0.00     0.124 S 
ATOM     99  O   UNL A   1      54.374  21.699  33.023  1.00  0.00    -0.237 OA
ATOM    100  O   UNL A   1      52.670  22.081  34.775  1.00  0.00    -0.237 OA
ATOM    101  O   UNL A   1      52.015  21.121  32.602  1.00  0.00    -0.744 OA
ENDBRANCH  94  98
ENDBRANCH  68  91
ENDBRANCH  42  43
ENDBRANCH  35  37
ENDBRANCH  34  35
ENDBRANCH  33  34
ENDBRANCH  32  33
ENDBRANCH  31  32
ENDBRANCH  30  31
ENDBRANCH  29  30
ENDBRANCH  28  29
ENDBRANCH   1  28
TORSDOF 29
ENDMDL
MODEL 2
REMARK VINA RESULT:      -7.1      6.039     10.232
REMARK SMILES CC[C@@](C)(NC(=O)CCc1ccc(OC)c(Br)c1)C(=O)OCCOCCOCCOCCOC(=O)c1ccc(-c2c3nc(c(-c4cc(S(=O)(=O)[O-])ccc4F)c4ccc([nH]4)c(-c4cc(S(=O)(=O)[O-])ccc4F)c4nc(c(-c5cc(S(=O)(=O)[O-])ccc5F)c5ccc2[nH]5)C=C4)C=C3)cc1
REMARK SMILES IDX 26 1 25 2 24 3 23 4 22 5 21 6 19 7 20 8 3 9 4 10 2 11 1 12
REMARK SMILES IDX 5 13 6 14 7 16 8 17 9 18 10 19 11 20 18 21 12 22 16 23 13 24
REMARK SMILES IDX 17 25 14 26 15 27 27 28 28 29 29 30 30 31 31 32 32 33 33 34
REMARK SMILES IDX 34 35 35 36 36 37 37 38 98 39 38 40 97 41 39 42 40 43 41 44
REMARK SMILES IDX 91 45 42 46 96 47 90 48 92 49 43 50 95 51 89 52 88 53 44 55
REMARK SMILES IDX 76 56 56 57 75 58 57 59 60 60 74 61 93 62 58 63 59 64 73 66
REMARK SMILES IDX 94 67 61 68 45 69 46 70 54 71 47 72 53 73 55 74 52 75 48 76
REMARK SMILES IDX 49 77 50 78 51 79 77 80 78 81 86 82 79 83 85 84 87 85 84 86
REMARK SMILES IDX 80 87 81 88 82 89 83 90 62 91 63 92 71 93 64 94 70 95 72 96
REMARK SMILES IDX 69 97 65 98 66 99 67 100 68 101
REMARK H PARENT 5 15 92 54 60 65
REMARK Flexibility Score: inf
ROOT
ATOM      1  C   UNL A   1      32.326  28.305  27.408  1.00  0.00     0.188 C 
ENDROOT
BRANCH   1   2
ATOM      2  C   UNL A   1      31.987  27.023  26.612  1.00  0.00     0.188 C 
BRANCH   2   3
ATOM      3  O   UNL A   1      30.683  26.438  26.811  1.00  0.00    -0.376 OA
BRANCH   3   4
ATOM      4  C   UNL A   1      30.500  25.040  26.466  1.00  0.00     0.202 C 
BRANCH   4   5
ATOM      5  C   UNL A   1      31.841  24.171  26.582  1.00  0.00     0.261 C 
BRANCH   5   6
ATOM      6  O   UNL A   1      31.691  22.724  26.219  1.00  0.00    -0.462 OA
BRANCH   6   7
ATOM      7  C   UNL A   1      31.595  22.354  24.888  1.00  0.00     0.331 C 
ATOM      8  O   UNL A   1      30.748  22.847  24.144  1.00  0.00    -0.249 OA
BRANCH   7   9
ATOM      9  C   UNL A   1      32.718  21.300  24.340  1.00  0.00     0.135 C 
ATOM     10  C   UNL A   1      32.830  20.251  25.470  1.00  0.00     0.047 C 
BRANCH   9  11
ATOM     11  C   UNL A   1      32.696  20.423  23.012  1.00  0.00     0.037 C 
ATOM     12  C   UNL A   1      32.258  18.972  22.917  1.00  0.00     0.007 C 
ENDBRANCH   9  11
BRANCH   9  13
ATOM     13  N   UNL A   1      33.982  22.022  24.195  1.00  0.00    -0.340 N 
ATOM     14  C   UNL A   1      34.297  22.830  23.152  1.00  0.00     0.221 C 
ATOM     15  H   UNL A   1      34.653  21.913  24.906  1.00  0.00     0.164 HD
ATOM     16  O   UNL A   1      35.499  22.955  22.892  1.00  0.00    -0.275 OA
BRANCH  14  17
ATOM     17  C   UNL A   1      33.271  23.634  22.362  1.00  0.00     0.105 C 
BRANCH  17  18
ATOM     18  C   UNL A   1      32.923  25.143  22.281  1.00  0.00     0.045 C 
BRANCH  18  19
ATOM     19  C   UNL A   1      32.183  26.360  22.827  1.00  0.00    -0.046 A 
ATOM     20  C   UNL A   1      32.608  27.678  22.544  1.00  0.00     0.007 A 
ATOM     21  C   UNL A   1      30.855  26.242  23.256  1.00  0.00     0.023 A 
ATOM     22  C   UNL A   1      31.845  28.818  22.781  1.00  0.00     0.048 A 
ATOM     23  C   UNL A   1      30.034  27.375  23.394  1.00  0.00     0.060 A 
ATOM     24  C   UNL A   1      30.550  28.662  23.219  1.00  0.00     0.133 A 
ATOM     25  Br  UNL A   1      28.182  27.107  23.702  1.00  0.00    -0.047 Br
BRANCH  24  26
ATOM     26  O   UNL A   1      29.801  29.790  23.399  1.00  0.00    -0.496 OA
ATOM     27  C   UNL A   1      29.450  30.331  22.126  1.00  0.00     0.278 C 
ENDBRANCH  24  26
ENDBRANCH  18  19
ENDBRANCH  17  18
ENDBRANCH  14  17
ENDBRANCH   9  13
ENDBRANCH   7   9
ENDBRANCH   6   7
ENDBRANCH   5   6
ENDBRANCH   4   5
ENDBRANCH   3   4
ENDBRANCH   2   3
ENDBRANCH   1   2
BRANCH   1  28
ATOM     28  O   UNL A   1      32.372  29.484  26.615  1.00  0.00    -0.377 OA
BRANCH  28  29
ATOM     29  C   UNL A   1      32.764  30.660  27.305  1.00  0.00     0.188 C 
BRANCH  29  30
ATOM     30  C   UNL A   1      34.281  30.855  27.400  1.00  0.00     0.188 C 
BRANCH  30  31
ATOM     31  O   UNL A   1      35.172  29.762  27.191  1.00  0.00    -0.376 OA
BRANCH  31  32
ATOM     32  C   UNL A   1      36.384  29.666  27.923  1.00  0.00     0.202 C 
BRANCH  32  33
ATOM     33  C   UNL A   1      36.298  29.670  29.455  1.00  0.00     0.261 C 
BRANCH  33  34
ATOM     34  O   UNL A   1      37.138  30.626  30.112  1.00  0.00    -0.460 OA
BRANCH  34  35
ATOM     35  C   UNL A   1      36.479  31.489  30.925  1.00  0.00     0.338 C 
ATOM     36  O   UNL A   1      35.313  31.820  30.857  1.00  0.00    -0.246 OA
BRANCH  35  37
ATOM     37  C   UNL A   1      37.370  31.898  32.028  1.00  0.00     0.060 A 
ATOM     38  C   UNL A   1      38.605  32.483  31.717  1.00  0.00     0.016 A 
ATOM     39  C   UNL A   1      37.045  31.582  33.347  1.00  0.00     0.016 A 
ATOM     40  C   UNL A   1      39.544  32.704  32.718  1.00  0.00     0.010 A 
ATOM     41  C   UNL A   1      37.999  31.777  34.348  1.00  0.00     0.010 A 
ATOM     42  C   UNL A   1      39.270  32.290  34.026  1.00  0.00    -0.014 A 
BRANCH  42  43
ATOM     43  C   UNL A   1      40.394  32.166  34.981  1.00  0.00     0.031 A 
ATOM     44  C   UNL A   1      41.078  30.830  35.101  1.00  0.00     0.074 A 
ATOM     45  C   UNL A   1      40.841  33.232  35.668  1.00  0.00     0.049 A 
ATOM     46  N   UNL A   1      42.048  30.460  35.894  1.00  0.00    -0.248 NA
ATOM     47  C   UNL A   1      40.598  29.767  34.201  1.00  0.00     0.031 C 
ATOM     48  C   UNL A   1      40.301  34.588  35.567  1.00  0.00     0.029 A 
ATOM     49  N   UNL A   1      41.850  33.338  36.589  1.00  0.00    -0.354 N 
ATOM     50  C   UNL A   1      42.293  29.123  35.595  1.00  0.00     0.074 A 
ATOM     51  C   UNL A   1      41.344  28.739  34.573  1.00  0.00     0.031 C 
ATOM     52  C   UNL A   1      40.980  35.388  36.406  1.00  0.00     0.029 A 
ATOM     53  C   UNL A   1      41.967  34.594  37.136  1.00  0.00     0.049 A 
ATOM     54  H   UNL A   1      42.436  32.587  36.836  1.00  0.00     0.167 HD
ATOM     55  C   UNL A   1      43.230  28.299  36.121  1.00  0.00     0.034 A 
ATOM     56  C   UNL A   1      42.756  35.036  38.135  1.00  0.00     0.034 A 
ATOM     57  C   UNL A   1      44.159  28.700  37.146  1.00  0.00     0.049 A 
ATOM     58  C   UNL A   1      43.721  34.065  38.780  1.00  0.00     0.074 A 
ATOM     59  C   UNL A   1      45.146  27.949  37.759  1.00  0.00     0.029 A 
ATOM     60  N   UNL A   1      44.211  29.965  37.720  1.00  0.00    -0.354 N 
ATOM     61  N   UNL A   1      43.937  32.800  38.497  1.00  0.00    -0.248 NA
ATOM     62  C   UNL A   1      44.553  34.586  39.872  1.00  0.00     0.031 C 
ATOM     63  C   UNL A   1      45.741  28.732  38.753  1.00  0.00     0.029 A 
ATOM     64  C   UNL A   1      45.189  30.003  38.701  1.00  0.00     0.049 A 
ATOM     65  H   UNL A   1      43.636  30.724  37.466  1.00  0.00     0.167 HD
ATOM     66  C   UNL A   1      44.955  32.387  39.355  1.00  0.00     0.074 A 
ATOM     67  C   UNL A   1      45.324  33.545  40.143  1.00  0.00     0.031 C 
ATOM     68  C   UNL A   1      45.536  31.166  39.485  1.00  0.00     0.034 A 
BRANCH  55  69
ATOM     69  C   UNL A   1      43.254  26.870  35.635  1.00  0.00     0.023 A 
ATOM     70  C   UNL A   1      43.976  26.485  34.490  1.00  0.00     0.031 A 
ATOM     71  C   UNL A   1      42.538  25.876  36.325  1.00  0.00     0.131 A 
ATOM     72  C   UNL A   1      43.921  25.156  34.043  1.00  0.00     0.055 A 
ATOM     73  C   UNL A   1      42.549  24.541  35.918  1.00  0.00     0.041 A 
ATOM     74  F   UNL A   1      41.807  26.189  37.408  1.00  0.00    -0.206 F 
ATOM     75  C   UNL A   1      43.235  24.176  34.764  1.00  0.00     0.022 A 
BRANCH  72  76
ATOM     76  S   UNL A   1      44.659  24.748  32.437  1.00  0.00     0.124 S 
ATOM     77  O   UNL A   1      46.085  24.809  32.742  1.00  0.00    -0.237 OA
ATOM     78  O   UNL A   1      44.118  23.419  32.170  1.00  0.00    -0.237 OA
ATOM     79  O   UNL A   1      44.172  25.807  31.556  1.00  0.00    -0.744 OA
ENDBRANCH  72  76
ENDBRANCH  55  69
BRANCH  56  80
ATOM     80  C   UNL A   1      42.645  36.438  38.634  1.00  0.00     0.023 A 
ATOM     81  C   UNL A   1      43.514  37.443  38.181  1.00  0.00     0.031 A 
ATOM     82  C   UNL A   1      41.721  36.775  39.640  1.00  0.00     0.131 A 
ATOM     83  C   UNL A   1      43.487  38.714  38.776  1.00  0.00     0.055 A 
ATOM     84  C   UNL A   1      41.652  38.059  40.182  1.00  0.00     0.041 A 
ATOM     85  F   UNL A   1      40.869  35.854  40.119  1.00  0.00    -0.206 F 
ATOM     86  C   UNL A   1      42.552  39.034  39.763  1.00  0.00     0.022 A 
BRANCH  83  87
ATOM     87  S   UNL A   1      44.778  39.907  38.329  1.00  0.00     0.124 S 
ATOM     88  O   UNL A   1      44.036  41.162  38.338  1.00  0.00    -0.237 OA
ATOM     89  O   UNL A   1      45.743  39.725  39.408  1.00  0.00    -0.237 OA
ATOM     90  O   UNL A   1      45.221  39.451  37.014  1.00  0.00    -0.744 OA
ENDBRANCH  83  87
ENDBRANCH  56  80
BRANCH  68  91
ATOM     91  C   UNL A   1      46.662  31.044  40.484  1.00  0.00     0.023 A 
ATOM     92  C   UNL A   1      47.999  31.288  40.126  1.00  0.00     0.031 A 
ATOM     93  C   UNL A   1      46.395  30.653  41.809  1.00  0.00     0.131 A 
ATOM     94  C   UNL A   1      49.025  31.063  41.055  1.00  0.00     0.055 A 
ATOM     95  C   UNL A   1      47.413  30.505  42.752  1.00  0.00     0.041 A 
ATOM     96  F   UNL A   1      45.138  30.405  42.210  1.00  0.00    -0.206 F 
ATOM     97  C   UNL A   1      48.739  30.693  42.372  1.00  0.00     0.022 A 
BRANCH  94  98
ATOM     98  S   UNL A   1      50.744  31.139  40.486  1.00  0.00     0.124 S 
ATOM     99  O   UNL A   1      50.709  30.283  39.304  1.00  0.00    -0.237 OA
ATOM    100  O   UNL A   1      50.928  32.564  40.236  1.00  0.00    -0.237 OA
ATOM    101  O   UNL A   1      51.504  30.605  41.615  1.00  0.00    -0.744 OA
ENDBRANCH  94  98
ENDBRANCH  68  91
ENDBRANCH  42  43
ENDBRANCH  35  37
ENDBRANCH  34  35
ENDBRANCH  33  34
ENDBRANCH  32  33
ENDBRANCH  31  32
ENDBRANCH  30  31
ENDBRANCH  29  30
ENDBRANCH  28  29
ENDBRANCH   1  28
TORSDOF 29
ENDMDL
MODEL 3
REMARK VINA RESULT:      -7.1      2.134      7.493
REMARK SMILES CC[C@@](C)(NC(=O)CCc1ccc(OC)c(Br)c1)C(=O)OCCOCCOCCOCCOC(=O)c1ccc(-c2c3nc(c(-c4cc(S(=O)(=O)[O-])ccc4F)c4ccc([nH]4)c(-c4cc(S(=O)(=O)[O-])ccc4F)c4nc(c(-c5cc(S(=O)(=O)[O-])ccc5F)c5ccc2[nH]5)C=C4)C=C3)cc1
REMARK SMILES IDX 26 1 25 2 24 3 23 4 22 5 21 6 19 7 20 8 3 9 4 10 2 11 1 12
REMARK SMILES IDX 5 13 6 14 7 16 8 17 9 18 10 19 11 20 18 21 12 22 16 23 13 24
REMARK SMILES IDX 17 25 14 26 15 27 27 28 28 29 29 30 30 31 31 32 32 33 33 34
REMARK SMILES IDX 34 35 35 36 36 37 37 38 98 39 38 40 97 41 39 42 40 43 41 44
REMARK SMILES IDX 91 45 42 46 96 47 90 48 92 49 43 50 95 51 89 52 88 53 44 55
REMARK SMILES IDX 76 56 56 57 75 58 57 59 60 60 74 61 93 62 58 63 59 64 73 66
REMARK SMILES IDX 94 67 61 68 45 69 46 70 54 71 47 72 53 73 55 74 52 75 48 76
REMARK SMILES IDX 49 77 50 78 51 79 77 80 78 81 86 82 79 83 85 84 87 85 84 86
REMARK SMILES IDX 80 87 81 88 82 89 83 90 62 91 63 92 71 93 64 94 70 95 72 96
REMARK SMILES IDX 69 97 65 98 66 99 67 100 68 101
REMARK H PARENT 5 15 92 54 60 65
REMARK Flexibility Score: inf
ROOT
ATOM      1  C   UNL A   1      33.199  29.205  26.810  1.00  0.00     0.188 C 
ENDROOT
BRANCH   1   2
ATOM      2  C   UNL A   1      32.833  29.347  25.314  1.00  0.00     0.188 C 
BRANCH   2   3
ATOM      3  O   UNL A   1      31.497  28.975  24.915  1.00  0.00    -0.376 OA
BRANCH   3   4
ATOM      4  C   UNL A   1      31.270  28.629  23.523  1.00  0.00     0.202 C 
BRANCH   4   5
ATOM      5  C   UNL A   1      32.590  28.132  22.763  1.00  0.00     0.261 C 
BRANCH   5   6
ATOM      6  O   UNL A   1      32.454  26.818  22.054  1.00  0.00    -0.462 OA
BRANCH   6   7
ATOM      7  C   UNL A   1      32.908  25.658  22.660  1.00  0.00     0.331 C 
ATOM      8  O   UNL A   1      34.078  25.293  22.553  1.00  0.00    -0.249 OA
BRANCH   7   9
ATOM      9  C   UNL A   1      31.834  24.853  23.593  1.00  0.00     0.135 C 
ATOM     10  C   UNL A   1      30.540  24.841  22.748  1.00  0.00     0.047 C 
BRANCH   9  11
ATOM     11  C   UNL A   1      31.926  23.371  24.165  1.00  0.00     0.037 C 
ATOM     12  C   UNL A   1      32.836  22.275  23.639  1.00  0.00     0.007 C 
ENDBRANCH   9  11
BRANCH   9  13
ATOM     13  N   UNL A   1      31.629  25.629  24.816  1.00  0.00    -0.340 N 
ATOM     14  C   UNL A   1      32.433  25.579  25.908  1.00  0.00     0.221 C 
ATOM     15  H   UNL A   1      30.851  26.230  24.850  1.00  0.00     0.164 HD
ATOM     16  O   UNL A   1      31.909  25.852  26.994  1.00  0.00    -0.275 OA
BRANCH  14  17
ATOM     17  C   UNL A   1      33.929  25.293  25.847  1.00  0.00     0.105 C 
BRANCH  17  18
ATOM     18  C   UNL A   1      34.789  24.024  26.085  1.00  0.00     0.045 C 
BRANCH  18  19
ATOM     19  C   UNL A   1      36.156  23.362  26.228  1.00  0.00    -0.046 A 
ATOM     20  C   UNL A   1      36.464  22.146  25.579  1.00  0.00     0.007 A 
ATOM     21  C   UNL A   1      37.262  24.115  26.638  1.00  0.00     0.023 A 
ATOM     22  C   UNL A   1      37.750  21.628  25.448  1.00  0.00     0.048 A 
ATOM     23  C   UNL A   1      38.573  23.660  26.414  1.00  0.00     0.060 A 
ATOM     24  C   UNL A   1      38.811  22.391  25.880  1.00  0.00     0.133 A 
ATOM     25  Br  UNL A   1      40.006  24.859  26.739  1.00  0.00    -0.047 Br
BRANCH  24  26
ATOM     26  O   UNL A   1      40.068  21.888  25.698  1.00  0.00    -0.496 OA
ATOM     27  C   UNL A   1      40.231  20.722  26.505  1.00  0.00     0.278 C 
ENDBRANCH  24  26
ENDBRANCH  18  19
ENDBRANCH  17  18
ENDBRANCH  14  17
ENDBRANCH   9  13
ENDBRANCH   7   9
ENDBRANCH   6   7
ENDBRANCH   5   6
ENDBRANCH   4   5
ENDBRANCH   3   4
ENDBRANCH   2   3
ENDBRANCH   1   2
BRANCH   1  28
ATOM     28  O   UNL A   1      32.913  30.361  27.588  1.00  0.00    -0.377 OA
BRANCH  28  29
ATOM     29  C   UNL A   1      33.678  31.511  27.263  1.00  0.00     0.188 C 
BRANCH  29  30
ATOM     30  C   UNL A   1      34.285  32.223  28.476  1.00  0.00     0.188 C 
BRANCH  30  31
ATOM     31  O   UNL A   1      35.630  31.967  28.875  1.00  0.00    -0.376 OA
BRANCH  31  32
ATOM     32  C   UNL A   1      36.379  30.926  28.267  1.00  0.00     0.202 C 
BRANCH  32  33
ATOM     33  C   UNL A   1      37.435  30.212  29.122  1.00  0.00     0.261 C 
BRANCH  33  34
ATOM     34  O   UNL A   1      36.925  29.225  30.026  1.00  0.00    -0.460 OA
BRANCH  34  35
ATOM     35  C   UNL A   1      37.573  29.165  31.216  1.00  0.00     0.338 C 
ATOM     36  O   UNL A   1      37.078  29.152  32.324  1.00  0.00    -0.246 OA
BRANCH  35  37
ATOM     37  C   UNL A   1      39.018  28.982  30.975  1.00  0.00     0.060 A 
ATOM     38  C   UNL A   1      39.488  27.712  30.619  1.00  0.00     0.016 A 
ATOM     39  C   UNL A   1      39.909  30.025  31.229  1.00  0.00     0.016 A 
ATOM     40  C   UNL A   1      40.855  27.462  30.570  1.00  0.00     0.010 A 
ATOM     41  C   UNL A   1      41.282  29.767  31.208  1.00  0.00     0.010 A 
ATOM     42  C   UNL A   1      41.755  28.471  30.929  1.00  0.00    -0.014 A 
BRANCH  42  43
ATOM     43  C   UNL A   1      43.150  28.095  31.252  1.00  0.00     0.031 A 
ATOM     44  C   UNL A   1      43.977  27.445  30.175  1.00  0.00     0.074 A 
ATOM     45  C   UNL A   1      43.687  28.391  32.448  1.00  0.00     0.049 A 
ATOM     46  N   UNL A   1      45.199  26.986  30.227  1.00  0.00    -0.248 NA
ATOM     47  C   UNL A   1      43.333  27.293  28.858  1.00  0.00     0.031 C 
ATOM     48  C   UNL A   1      42.999  29.088  33.534  1.00  0.00     0.029 A 
ATOM     49  N   UNL A   1      44.938  28.138  32.949  1.00  0.00    -0.354 N 
ATOM     50  C   UNL A   1      45.470  26.487  28.957  1.00  0.00     0.074 A 
ATOM     51  C   UNL A   1      44.272  26.667  28.167  1.00  0.00     0.031 C 
ATOM     52  C   UNL A   1      43.836  29.196  34.580  1.00  0.00     0.029 A 
ATOM     53  C   UNL A   1      45.098  28.535  34.255  1.00  0.00     0.049 A 
ATOM     54  H   UNL A   1      45.653  27.713  32.423  1.00  0.00     0.167 HD
ATOM     55  C   UNL A   1      46.619  25.937  28.494  1.00  0.00     0.034 A 
ATOM     56  C   UNL A   1      46.134  28.351  35.098  1.00  0.00     0.034 A 
ATOM     57  C   UNL A   1      47.798  25.758  29.302  1.00  0.00     0.049 A 
ATOM     58  C   UNL A   1      47.366  27.637  34.586  1.00  0.00     0.074 A 
ATOM     59  C   UNL A   1      49.015  25.207  28.942  1.00  0.00     0.029 A 
ATOM     60  N   UNL A   1      47.907  26.118  30.639  1.00  0.00    -0.354 N 
ATOM     61  N   UNL A   1      47.609  27.159  33.386  1.00  0.00    -0.248 NA
ATOM     62  C   UNL A   1      48.466  27.447  35.541  1.00  0.00     0.031 C 
ATOM     63  C   UNL A   1      49.830  25.163  30.077  1.00  0.00     0.029 A 
ATOM     64  C   UNL A   1      49.157  25.770  31.126  1.00  0.00     0.049 A 
ATOM     65  H   UNL A   1      47.199  26.557  31.165  1.00  0.00     0.167 HD
ATOM     66  C   UNL A   1      48.904  26.644  33.437  1.00  0.00     0.074 A 
ATOM     67  C   UNL A   1      49.394  26.895  34.776  1.00  0.00     0.031 C 
ATOM     68  C   UNL A   1      49.625  26.020  32.470  1.00  0.00     0.034 A 
BRANCH  55  69
ATOM     69  C   UNL A   1      46.630  25.442  27.068  1.00  0.00     0.023 A 
ATOM     70  C   UNL A   1      45.964  24.264  26.683  1.00  0.00     0.031 A 
ATOM     71  C   UNL A   1      47.326  26.158  26.077  1.00  0.00     0.131 A 
ATOM     72  C   UNL A   1      46.052  23.812  25.357  1.00  0.00     0.055 A 
ATOM     73  C   UNL A   1      47.347  25.743  24.744  1.00  0.00     0.041 A 
ATOM     74  F   UNL A   1      48.004  27.274  26.391  1.00  0.00    -0.206 F 
ATOM     75  C   UNL A   1      46.716  24.557  24.380  1.00  0.00     0.022 A 
BRANCH  72  76
ATOM     76  S   UNL A   1      45.391  22.172  24.952  1.00  0.00     0.124 S 
ATOM     77  O   UNL A   1      44.827  22.401  23.624  1.00  0.00    -0.237 OA
ATOM     78  O   UNL A   1      46.582  21.330  25.004  1.00  0.00    -0.237 OA
ATOM     79  O   UNL A   1      44.408  21.928  26.005  1.00  0.00    -0.744 OA
ENDBRANCH  72  76
ENDBRANCH  55  69
BRANCH  56  80
ATOM     80  C   UNL A   1      46.050  28.790  36.521  1.00  0.00     0.023 A 
ATOM     81  C   UNL A   1      45.832  27.866  37.556  1.00  0.00     0.031 A 
ATOM     82  C   UNL A   1      46.099  30.155  36.860  1.00  0.00     0.131 A 
ATOM     83  C   UNL A   1      45.605  28.321  38.865  1.00  0.00     0.055 A 
ATOM     84  C   UNL A   1      45.942  30.597  38.174  1.00  0.00     0.041 A 
ATOM     85  F   UNL A   1      46.298  31.085  35.913  1.00  0.00    -0.206 F 
ATOM     86  C   UNL A   1      45.674  29.679  39.184  1.00  0.00     0.022 A 
BRANCH  83  87
ATOM     87  S   UNL A   1      45.094  27.118  40.123  1.00  0.00     0.124 S 
ATOM     88  O   UNL A   1      44.098  26.338  39.398  1.00  0.00    -0.237 OA
ATOM     89  O   UNL A   1      46.351  26.439  40.418  1.00  0.00    -0.237 OA
ATOM     90  O   UNL A   1      44.571  27.955  41.200  1.00  0.00    -0.744 OA
ENDBRANCH  83  87
ENDBRANCH  56  80
BRANCH  68  91
ATOM     91  C   UNL A   1      51.037  25.614  32.822  1.00  0.00     0.023 A 
ATOM     92  C   UNL A   1      51.368  24.284  33.135  1.00  0.00     0.031 A 
ATOM     93  C   UNL A   1      52.061  26.577  32.869  1.00  0.00     0.131 A 
ATOM     94  C   UNL A   1      52.667  23.967  33.557  1.00  0.00     0.055 A 
ATOM     95  C   UNL A   1      53.371  26.242  33.216  1.00  0.00     0.041 A 
ATOM     96  F   UNL A   1      51.806  27.863  32.582  1.00  0.00    -0.206 F 
ATOM     97  C   UNL A   1      53.676  24.934  33.580  1.00  0.00     0.022 A 
BRANCH  94  98
ATOM     98  S   UNL A   1      52.991  22.302  34.196  1.00  0.00     0.124 S 
ATOM     99  O   UNL A   1      51.989  22.183  35.252  1.00  0.00    -0.237 OA
ATOM    100  O   UNL A   1      52.777  21.468  33.019  1.00  0.00    -0.237 OA
ATOM    101  O   UNL A   1      54.375  22.375  34.661  1.00  0.00    -0.744 OA
ENDBRANCH  94  98
ENDBRANCH  68  91
ENDBRANCH  42  43
ENDBRANCH  35  37
ENDBRANCH  34  35
ENDBRANCH  33  34
ENDBRANCH  32  33
ENDBRANCH  31  32
ENDBRANCH  30  31
ENDBRANCH  29  30
ENDBRANCH  28  29
ENDBRANCH   1  28
TORSDOF 29
ENDMDL
