MODEL 1
REMARK VINA RESULT:      -9.9      0.000      0.000
REMARK SMILES C[C@@H](C(=O)OCCOCCOCCOCCOC(=O)c1ccc(-c2c3nc(c(-c4cc(S(=O)(=O)[O-])ccc4F)c4ccc([nH]4)c(-c4cc(S(=O)(=O)[O-])ccc4F)c4nc(c(-c5cc(S(=O)(=O)[O-])ccc5F)c5ccc2[nH]5)C=C4)C=C3)cc1)c1ccc(C(=O)c2cccs2)cc1
REMARK SMILES IDX 11 1 10 2 9 3 8 4 7 5 6 6 5 7 3 8 4 9 2 10 1 11 83 12 84 13
REMARK SMILES IDX 95 14 85 15 94 16 86 17 87 18 88 19 89 20 90 21 93 22 91 23
REMARK SMILES IDX 92 24 12 25 13 26 14 27 15 28 16 29 17 30 18 31 19 32 20 33
REMARK SMILES IDX 21 34 82 35 22 36 81 37 23 38 24 39 25 40 75 41 26 42 80 43
REMARK SMILES IDX 74 44 76 45 27 46 79 47 73 48 72 49 28 51 60 52 40 53 59 54
REMARK SMILES IDX 41 55 44 56 58 57 77 58 42 59 43 60 57 62 78 63 45 64 29 65
REMARK SMILES IDX 30 66 38 67 31 68 37 69 39 70 36 71 32 72 33 73 34 74 35 75
REMARK SMILES IDX 61 76 62 77 70 78 63 79 69 80 71 81 68 82 64 83 65 84 66 85
REMARK SMILES IDX 67 86 46 87 47 88 55 89 48 90 54 91 56 92 53 93 49 94 50 95
REMARK SMILES IDX 51 96 52 97
REMARK H PARENT 76 50 44 61
REMARK Flexibility Score: inf
ROOT
ATOM      1  O   UNL A   1      32.387  27.689  27.272  1.00  0.00    -0.377 OA
ENDROOT
BRANCH   1   2
ATOM      2  C   UNL A   1      31.798  27.050  26.163  1.00  0.00     0.188 C 
BRANCH   2   3
ATOM      3  C   UNL A   1      30.912  25.838  26.509  1.00  0.00     0.188 C 
BRANCH   3   4
ATOM      4  O   UNL A   1      30.977  24.686  25.697  1.00  0.00    -0.376 OA
BRANCH   4   5
ATOM      5  C   UNL A   1      30.891  23.398  26.290  1.00  0.00     0.202 C 
BRANCH   5   6
ATOM      6  C   UNL A   1      32.022  22.731  27.108  1.00  0.00     0.261 C 
BRANCH   6   7
ATOM      7  O   UNL A   1      32.623  21.523  26.605  1.00  0.00    -0.463 OA
BRANCH   7   8
ATOM      8  C   UNL A   1      33.975  21.513  26.476  1.00  0.00     0.313 C 
ATOM      9  O   UNL A   1      34.748  21.439  27.427  1.00  0.00    -0.252 OA
BRANCH   8  10
ATOM     10  C   UNL A   1      34.475  21.601  25.019  1.00  0.00     0.126 C 
ATOM     11  C   UNL A   1      35.959  21.356  24.722  1.00  0.00     0.025 C 
BRANCH  10  12
ATOM     12  C   UNL A   1      33.956  22.861  24.323  1.00  0.00    -0.034 A 
ATOM     13  C   UNL A   1      33.071  22.821  23.236  1.00  0.00     0.005 A 
ATOM     14  C   UNL A   1      34.410  24.114  24.736  1.00  0.00     0.005 A 
ATOM     15  C   UNL A   1      32.762  23.958  22.490  1.00  0.00     0.012 A 
ATOM     16  C   UNL A   1      34.059  25.269  24.027  1.00  0.00     0.012 A 
ATOM     17  C   UNL A   1      33.276  25.196  22.865  1.00  0.00     0.023 A 
BRANCH  17  18
ATOM     18  C   UNL A   1      32.932  26.383  22.017  1.00  0.00     0.202 C 
ATOM     19  O   UNL A   1      33.531  26.549  20.956  1.00  0.00    -0.288 OA
BRANCH  18  20
ATOM     20  C   UNL A   1      31.877  27.265  22.465  1.00  0.00     0.075 A 
ATOM     21  C   UNL A   1      30.524  27.020  22.593  1.00  0.00     0.024 A 
ATOM     22  S   UNL A   1      32.282  28.868  22.895  1.00  0.00    -0.140 S 
ATOM     23  C   UNL A   1      29.802  28.201  22.930  1.00  0.00     0.012 A 
ATOM     24  C   UNL A   1      30.637  29.280  23.115  1.00  0.00     0.065 A 
ENDBRANCH  18  20
ENDBRANCH  17  18
ENDBRANCH  10  12
ENDBRANCH   8  10
ENDBRANCH   7   8
ENDBRANCH   6   7
ENDBRANCH   5   6
ENDBRANCH   4   5
ENDBRANCH   3   4
ENDBRANCH   2   3
ENDBRANCH   1   2
BRANCH   1  25
ATOM     25  C   UNL A   1      33.470  28.567  27.011  1.00  0.00     0.188 C 
BRANCH  25  26
ATOM     26  C   UNL A   1      33.188  29.994  26.497  1.00  0.00     0.188 C 
BRANCH  26  27
ATOM     27  O   UNL A   1      32.030  30.611  27.050  1.00  0.00    -0.376 OA
BRANCH  27  28
ATOM     28  C   UNL A   1      31.526  31.792  26.442  1.00  0.00     0.202 C 
BRANCH  28  29
ATOM     29  C   UNL A   1      31.855  33.133  27.120  1.00  0.00     0.261 C 
BRANCH  29  30
ATOM     30  O   UNL A   1      33.230  33.543  27.098  1.00  0.00    -0.460 OA
BRANCH  30  31
ATOM     31  C   UNL A   1      33.767  34.021  28.242  1.00  0.00     0.338 C 
ATOM     32  O   UNL A   1      33.288  34.873  28.972  1.00  0.00    -0.246 OA
BRANCH  31  33
ATOM     33  C   UNL A   1      34.931  33.173  28.576  1.00  0.00     0.060 A 
ATOM     34  C   UNL A   1      34.710  31.866  29.033  1.00  0.00     0.016 A 
ATOM     35  C   UNL A   1      36.232  33.655  28.410  1.00  0.00     0.016 A 
ATOM     36  C   UNL A   1      35.792  31.047  29.355  1.00  0.00     0.010 A 
ATOM     37  C   UNL A   1      37.313  32.843  28.761  1.00  0.00     0.010 A 
ATOM     38  C   UNL A   1      37.097  31.548  29.267  1.00  0.00    -0.014 A 
BRANCH  38  39
ATOM     39  C   UNL A   1      38.207  30.812  29.920  1.00  0.00     0.031 A 
ATOM     40  C   UNL A   1      38.506  31.126  31.362  1.00  0.00     0.074 A 
ATOM     41  C   UNL A   1      38.914  29.872  29.267  1.00  0.00     0.049 A 
ATOM     42  N   UNL A   1      39.456  30.670  32.135  1.00  0.00    -0.248 NA
ATOM     43  C   UNL A   1      37.607  32.091  32.015  1.00  0.00     0.031 C 
ATOM     44  C   UNL A   1      38.675  29.438  27.892  1.00  0.00     0.029 A 
ATOM     45  N   UNL A   1      39.983  29.115  29.678  1.00  0.00    -0.354 N 
ATOM     46  C   UNL A   1      39.277  31.300  33.362  1.00  0.00     0.074 A 
ATOM     47  C   UNL A   1      38.150  32.196  33.217  1.00  0.00     0.031 C 
ATOM     48  C   UNL A   1      39.579  28.495  27.571  1.00  0.00     0.029 A 
ATOM     49  C   UNL A   1      40.487  28.291  28.699  1.00  0.00     0.049 A 
ATOM     50  H   UNL A   1      40.354  29.158  30.589  1.00  0.00     0.167 HD
ATOM     51  C   UNL A   1      39.986  31.142  34.506  1.00  0.00     0.034 A 
ATOM     52  C   UNL A   1      41.574  27.490  28.707  1.00  0.00     0.034 A 
ATOM     53  C   UNL A   1      41.114  30.252  34.628  1.00  0.00     0.049 A 
ATOM     54  C   UNL A   1      42.414  27.410  29.963  1.00  0.00     0.074 A 
ATOM     55  C   UNL A   1      41.897  30.004  35.742  1.00  0.00     0.029 A 
ATOM     56  N   UNL A   1      41.634  29.479  33.597  1.00  0.00    -0.354 N 
ATOM     57  N   UNL A   1      42.235  28.008  31.119  1.00  0.00    -0.248 NA
ATOM     58  C   UNL A   1      43.599  26.544  29.914  1.00  0.00     0.031 C 
ATOM     59  C   UNL A   1      42.938  29.152  35.362  1.00  0.00     0.029 A 
ATOM     60  C   UNL A   1      42.750  28.787  34.039  1.00  0.00     0.049 A 
ATOM     61  H   UNL A   1      41.262  29.430  32.687  1.00  0.00     0.167 HD
ATOM     62  C   UNL A   1      43.263  27.556  31.945  1.00  0.00     0.074 A 
ATOM     63  C   UNL A   1      44.049  26.628  31.158  1.00  0.00     0.031 C 
ATOM     64  C   UNL A   1      43.531  27.870  33.239  1.00  0.00     0.034 A 
BRANCH  51  65
ATOM     65  C   UNL A   1      39.599  31.997  35.688  1.00  0.00     0.023 A 
ATOM     66  C   UNL A   1      38.756  31.524  36.708  1.00  0.00     0.031 A 
ATOM     67  C   UNL A   1      40.063  33.323  35.780  1.00  0.00     0.131 A 
ATOM     68  C   UNL A   1      38.347  32.388  37.735  1.00  0.00     0.055 A 
ATOM     69  C   UNL A   1      39.721  34.150  36.851  1.00  0.00     0.041 A 
ATOM     70  F   UNL A   1      40.847  33.841  34.822  1.00  0.00    -0.206 F 
ATOM     71  C   UNL A   1      38.847  33.689  37.830  1.00  0.00     0.022 A 
BRANCH  68  72
ATOM     72  S   UNL A   1      37.037  31.836  38.863  1.00  0.00     0.124 S 
ATOM     73  O   UNL A   1      37.659  32.054  40.166  1.00  0.00    -0.237 OA
ATOM     74  O   UNL A   1      35.934  32.727  38.525  1.00  0.00    -0.237 OA
ATOM     75  O   UNL A   1      36.843  30.433  38.501  1.00  0.00    -0.744 OA
ENDBRANCH  68  72
ENDBRANCH  51  65
BRANCH  52  76
ATOM     76  C   UNL A   1      41.970  26.730  27.484  1.00  0.00     0.023 A 
ATOM     77  C   UNL A   1      41.734  25.349  27.379  1.00  0.00     0.031 A 
ATOM     78  C   UNL A   1      42.660  27.359  26.432  1.00  0.00     0.131 A 
ATOM     79  C   UNL A   1      42.231  24.634  26.277  1.00  0.00     0.055 A 
ATOM     80  C   UNL A   1      43.096  26.656  25.308  1.00  0.00     0.041 A 
ATOM     81  F   UNL A   1      42.922  28.675  26.482  1.00  0.00    -0.206 F 
ATOM     82  C   UNL A   1      42.894  25.281  25.233  1.00  0.00     0.022 A 
BRANCH  79  83
ATOM     83  S   UNL A   1      42.088  22.826  26.278  1.00  0.00     0.124 S 
ATOM     84  O   UNL A   1      42.675  22.483  24.989  1.00  0.00    -0.237 OA
ATOM     85  O   UNL A   1      42.868  22.463  27.457  1.00  0.00    -0.237 OA
ATOM     86  O   UNL A   1      40.649  22.599  26.391  1.00  0.00    -0.744 OA
ENDBRANCH  79  83
ENDBRANCH  52  76
BRANCH  64  87
ATOM     87  C   UNL A   1      44.688  27.159  33.903  1.00  0.00     0.023 A 
ATOM     88  C   UNL A   1      44.544  25.891  34.494  1.00  0.00     0.031 A 
ATOM     89  C   UNL A   1      45.957  27.765  33.943  1.00  0.00     0.131 A 
ATOM     90  C   UNL A   1      45.635  25.299  35.151  1.00  0.00     0.055 A 
ATOM     91  C   UNL A   1      47.055  27.138  34.534  1.00  0.00     0.041 A 
ATOM     92  F   UNL A   1      46.155  28.975  33.398  1.00  0.00    -0.206 F 
ATOM     93  C   UNL A   1      46.894  25.904  35.156  1.00  0.00     0.022 A 
BRANCH  90  94
ATOM     94  S   UNL A   1      45.361  23.772  36.091  1.00  0.00     0.124 S 
ATOM     95  O   UNL A   1      45.523  24.230  37.467  1.00  0.00    -0.237 OA
ATOM     96  O   UNL A   1      44.005  23.401  35.699  1.00  0.00    -0.237 OA
ATOM     97  O   UNL A   1      46.412  22.878  35.607  1.00  0.00    -0.744 OA
ENDBRANCH  90  94
ENDBRANCH  64  87
ENDBRANCH  38  39
ENDBRANCH  31  33
ENDBRANCH  30  31
ENDBRANCH  29  30
ENDBRANCH  28  29
ENDBRANCH  27  28
ENDBRANCH  26  27
ENDBRANCH  25  26
ENDBRANCH   1  25
TORSDOF 26
ENDMDL
MODEL 2
REMARK VINA RESULT:      -9.4      1.929      7.544
REMARK SMILES C[C@@H](C(=O)OCCOCCOCCOCCOC(=O)c1ccc(-c2c3nc(c(-c4cc(S(=O)(=O)[O-])ccc4F)c4ccc([nH]4)c(-c4cc(S(=O)(=O)[O-])ccc4F)c4nc(c(-c5cc(S(=O)(=O)[O-])ccc5F)c5ccc2[nH]5)C=C4)C=C3)cc1)c1ccc(C(=O)c2cccs2)cc1
REMARK SMILES IDX 11 1 10 2 9 3 8 4 7 5 6 6 5 7 3 8 4 9 2 10 1 11 83 12 84 13
REMARK SMILES IDX 95 14 85 15 94 16 86 17 87 18 88 19 89 20 90 21 93 22 91 23
REMARK SMILES IDX 92 24 12 25 13 26 14 27 15 28 16 29 17 30 18 31 19 32 20 33
REMARK SMILES IDX 21 34 82 35 22 36 81 37 23 38 24 39 25 40 75 41 26 42 80 43
REMARK SMILES IDX 74 44 76 45 27 46 79 47 73 48 72 49 28 51 60 52 40 53 59 54
REMARK SMILES IDX 41 55 44 56 58 57 77 58 42 59 43 60 57 62 78 63 45 64 29 65
REMARK SMILES IDX 30 66 38 67 31 68 37 69 39 70 36 71 32 72 33 73 34 74 35 75
REMARK SMILES IDX 61 76 62 77 70 78 63 79 69 80 71 81 68 82 64 83 65 84 66 85
REMARK SMILES IDX 67 86 46 87 47 88 55 89 48 90 54 91 56 92 53 93 49 94 50 95
REMARK SMILES IDX 51 96 52 97
REMARK H PARENT 76 50 44 61
REMARK Flexibility Score: inf
ROOT
ATOM      1  O   UNL A   1      32.423  27.525  27.345  1.00  0.00    -0.377 OA
ENDROOT
BRANCH   1   2
ATOM      2  C   UNL A   1      31.932  26.736  26.287  1.00  0.00     0.188 C 
BRANCH   2   3
ATOM      3  C   UNL A   1      31.923  25.220  26.560  1.00  0.00     0.188 C 
BRANCH   3   4
ATOM      4  O   UNL A   1      31.227  24.366  25.677  1.00  0.00    -0.376 OA
BRANCH   4   5
ATOM      5  C   UNL A   1      31.094  22.986  25.987  1.00  0.00     0.202 C 
BRANCH   5   6
ATOM      6  C   UNL A   1      32.165  22.145  26.721  1.00  0.00     0.261 C 
BRANCH   6   7
ATOM      7  O   UNL A   1      32.970  21.228  25.958  1.00  0.00    -0.463 OA
BRANCH   7   8
ATOM      8  C   UNL A   1      34.317  21.388  26.021  1.00  0.00     0.313 C 
ATOM      9  O   UNL A   1      34.964  21.303  27.061  1.00  0.00    -0.252 OA
BRANCH   8  10
ATOM     10  C   UNL A   1      34.986  21.689  24.664  1.00  0.00     0.126 C 
ATOM     11  C   UNL A   1      36.515  21.774  24.586  1.00  0.00     0.025 C 
BRANCH  10  12
ATOM     12  C   UNL A   1      34.314  22.868  23.957  1.00  0.00    -0.034 A 
ATOM     13  C   UNL A   1      33.473  22.710  22.846  1.00  0.00     0.005 A 
ATOM     14  C   UNL A   1      34.578  24.170  24.384  1.00  0.00     0.005 A 
ATOM     15  C   UNL A   1      33.026  23.797  22.095  1.00  0.00     0.012 A 
ATOM     16  C   UNL A   1      34.087  25.268  23.668  1.00  0.00     0.012 A 
ATOM     17  C   UNL A   1      33.352  25.092  22.486  1.00  0.00     0.023 A 
BRANCH  17  18
ATOM     18  C   UNL A   1      32.867  26.224  21.630  1.00  0.00     0.202 C 
ATOM     19  O   UNL A   1      33.236  26.284  20.458  1.00  0.00    -0.288 OA
BRANCH  18  20
ATOM     20  C   UNL A   1      31.951  27.180  22.211  1.00  0.00     0.075 A 
ATOM     21  C   UNL A   1      30.591  27.074  22.425  1.00  0.00     0.024 A 
ATOM     22  S   UNL A   1      32.561  28.696  22.709  1.00  0.00    -0.140 S 
ATOM     23  C   UNL A   1      30.030  28.298  22.888  1.00  0.00     0.012 A 
ATOM     24  C   UNL A   1      30.992  29.266  23.078  1.00  0.00     0.065 A 
ENDBRANCH  18  20
ENDBRANCH  17  18
ENDBRANCH  10  12
ENDBRANCH   8  10
ENDBRANCH   7   8
ENDBRANCH   6   7
ENDBRANCH   5   6
ENDBRANCH   4   5
ENDBRANCH   3   4
ENDBRANCH   2   3
ENDBRANCH   1   2
BRANCH   1  25
ATOM     25  C   UNL A   1      33.397  28.506  27.021  1.00  0.00     0.188 C 
BRANCH  25  26
ATOM     26  C   UNL A   1      32.964  29.802  26.304  1.00  0.00     0.188 C 
BRANCH  26  27
ATOM     27  O   UNL A   1      31.839  30.457  26.879  1.00  0.00    -0.376 OA
BRANCH  27  28
ATOM     28  C   UNL A   1      31.230  31.526  26.169  1.00  0.00     0.202 C 
BRANCH  28  29
ATOM     29  C   UNL A   1      31.515  32.956  26.660  1.00  0.00     0.261 C 
BRANCH  29  30
ATOM     30  O   UNL A   1      32.895  33.321  26.807  1.00  0.00    -0.460 OA
BRANCH  30  31
ATOM     31  C   UNL A   1      33.266  33.948  27.944  1.00  0.00     0.338 C 
ATOM     32  O   UNL A   1      32.632  34.795  28.551  1.00  0.00    -0.246 OA
BRANCH  31  33
ATOM     33  C   UNL A   1      34.478  33.270  28.451  1.00  0.00     0.060 A 
ATOM     34  C   UNL A   1      34.356  31.991  29.012  1.00  0.00     0.016 A 
ATOM     35  C   UNL A   1      35.730  33.881  28.346  1.00  0.00     0.016 A 
ATOM     36  C   UNL A   1      35.485  31.331  29.498  1.00  0.00     0.010 A 
ATOM     37  C   UNL A   1      36.855  33.230  28.860  1.00  0.00     0.010 A 
ATOM     38  C   UNL A   1      36.732  31.968  29.469  1.00  0.00    -0.014 A 
BRANCH  38  39
ATOM     39  C   UNL A   1      37.849  31.422  30.277  1.00  0.00     0.031 A 
ATOM     40  C   UNL A   1      38.742  30.394  29.636  1.00  0.00     0.074 A 
ATOM     41  C   UNL A   1      38.087  31.844  31.532  1.00  0.00     0.049 A 
ATOM     42  N   UNL A   1      39.742  29.723  30.146  1.00  0.00    -0.248 NA
ATOM     43  C   UNL A   1      38.462  30.079  28.226  1.00  0.00     0.031 C 
ATOM     44  C   UNL A   1      37.332  32.880  32.234  1.00  0.00     0.029 A 
ATOM     45  N   UNL A   1      39.036  31.446  32.441  1.00  0.00    -0.354 N 
ATOM     46  C   UNL A   1      40.203  28.899  29.124  1.00  0.00     0.074 A 
ATOM     47  C   UNL A   1      39.350  29.131  27.978  1.00  0.00     0.031 C 
ATOM     48  C   UNL A   1      37.843  33.029  33.469  1.00  0.00     0.029 A 
ATOM     49  C   UNL A   1      38.930  32.071  33.662  1.00  0.00     0.049 A 
ATOM     50  H   UNL A   1      39.728  30.775  32.238  1.00  0.00     0.167 HD
ATOM     51  C   UNL A   1      41.244  28.033  29.141  1.00  0.00     0.034 A 
ATOM     52  C   UNL A   1      39.613  31.867  34.808  1.00  0.00     0.034 A 
ATOM     53  C   UNL A   1      42.076  27.808  30.297  1.00  0.00     0.049 A 
ATOM     54  C   UNL A   1      40.703  30.819  34.833  1.00  0.00     0.074 A 
ATOM     55  C   UNL A   1      43.166  26.965  30.421  1.00  0.00     0.029 A 
ATOM     56  N   UNL A   1      41.900  28.414  31.535  1.00  0.00    -0.354 N 
ATOM     57  N   UNL A   1      41.134  30.046  33.861  1.00  0.00    -0.248 NA
ATOM     58  C   UNL A   1      41.401  30.617  36.110  1.00  0.00     0.031 C 
ATOM     59  C   UNL A   1      43.592  26.994  31.752  1.00  0.00     0.029 A 
ATOM     60  C   UNL A   1      42.834  27.931  32.437  1.00  0.00     0.049 A 
ATOM     61  H   UNL A   1      41.213  29.089  31.740  1.00  0.00     0.167 HD
ATOM     62  C   UNL A   1      42.180  29.300  34.402  1.00  0.00     0.074 A 
ATOM     63  C   UNL A   1      42.321  29.723  35.779  1.00  0.00     0.031 C 
ATOM     64  C   UNL A   1      42.960  28.357  33.813  1.00  0.00     0.034 A 
BRANCH  51  65
ATOM     65  C   UNL A   1      41.495  27.223  27.892  1.00  0.00     0.023 A 
ATOM     66  C   UNL A   1      41.127  25.870  27.793  1.00  0.00     0.031 A 
ATOM     67  C   UNL A   1      42.140  27.811  26.789  1.00  0.00     0.131 A 
ATOM     68  C   UNL A   1      41.468  25.134  26.648  1.00  0.00     0.055 A 
ATOM     69  C   UNL A   1      42.399  27.095  25.619  1.00  0.00     0.041 A 
ATOM     70  F   UNL A   1      42.542  29.091  26.834  1.00  0.00    -0.206 F 
ATOM     71  C   UNL A   1      42.076  25.744  25.549  1.00  0.00     0.022 A 
BRANCH  68  72
ATOM     72  S   UNL A   1      41.241  23.334  26.676  1.00  0.00     0.124 S 
ATOM     73  O   UNL A   1      41.712  22.998  28.017  1.00  0.00    -0.237 OA
ATOM     74  O   UNL A   1      39.809  23.193  26.448  1.00  0.00    -0.237 OA
ATOM     75  O   UNL A   1      42.098  22.865  25.588  1.00  0.00    -0.744 OA
ENDBRANCH  68  72
ENDBRANCH  51  65
BRANCH  52  76
ATOM     76  C   UNL A   1      39.271  32.630  36.045  1.00  0.00     0.023 A 
ATOM     77  C   UNL A   1      39.829  33.894  36.297  1.00  0.00     0.031 A 
ATOM     78  C   UNL A   1      38.438  32.072  37.032  1.00  0.00     0.131 A 
ATOM     79  C   UNL A   1      39.593  34.534  37.525  1.00  0.00     0.055 A 
ATOM     80  C   UNL A   1      38.155  32.740  38.226  1.00  0.00     0.041 A 
ATOM     81  F   UNL A   1      37.884  30.863  36.851  1.00  0.00    -0.206 F 
ATOM     82  C   UNL A   1      38.746  33.973  38.483  1.00  0.00     0.022 A 
BRANCH  79  83
ATOM     83  S   UNL A   1      40.495  36.063  37.896  1.00  0.00     0.124 S 
ATOM     84  O   UNL A   1      41.851  35.565  38.091  1.00  0.00    -0.237 OA
ATOM     85  O   UNL A   1      40.266  36.849  36.688  1.00  0.00    -0.237 OA
ATOM     86  O   UNL A   1      39.833  36.564  39.098  1.00  0.00    -0.744 OA
ENDBRANCH  79  83
ENDBRANCH  52  76
BRANCH  64  87
ATOM     87  C   UNL A   1      44.075  27.760  34.641  1.00  0.00     0.023 A 
ATOM     88  C   UNL A   1      45.321  28.396  34.781  1.00  0.00     0.031 A 
ATOM     89  C   UNL A   1      43.884  26.532  35.300  1.00  0.00     0.131 A 
ATOM     90  C   UNL A   1      46.346  27.773  35.511  1.00  0.00     0.055 A 
ATOM     91  C   UNL A   1      44.882  25.953  36.084  1.00  0.00     0.041 A 
ATOM     92  F   UNL A   1      42.716  25.877  35.200  1.00  0.00    -0.206 F 
ATOM     93  C   UNL A   1      46.128  26.566  36.181  1.00  0.00     0.022 A 
BRANCH  90  94
ATOM     94  S   UNL A   1      48.004  28.509  35.489  1.00  0.00     0.124 S 
ATOM     95  O   UNL A   1      48.790  27.503  36.196  1.00  0.00    -0.237 OA
ATOM     96  O   UNL A   1      48.270  28.637  34.060  1.00  0.00    -0.237 OA
ATOM     97  O   UNL A   1      47.827  29.773  36.202  1.00  0.00    -0.744 OA
ENDBRANCH  90  94
ENDBRANCH  64  87
ENDBRANCH  38  39
ENDBRANCH  31  33
ENDBRANCH  30  31
ENDBRANCH  29  30
ENDBRANCH  28  29
ENDBRANCH  27  28
ENDBRANCH  26  27
ENDBRANCH  25  26
ENDBRANCH   1  25
TORSDOF 26
ENDMDL
MODEL 3
REMARK VINA RESULT:      -8.2      3.373      8.407
REMARK SMILES C[C@@H](C(=O)OCCOCCOCCOCCOC(=O)c1ccc(-c2c3nc(c(-c4cc(S(=O)(=O)[O-])ccc4F)c4ccc([nH]4)c(-c4cc(S(=O)(=O)[O-])ccc4F)c4nc(c(-c5cc(S(=O)(=O)[O-])ccc5F)c5ccc2[nH]5)C=C4)C=C3)cc1)c1ccc(C(=O)c2cccs2)cc1
REMARK SMILES IDX 11 1 10 2 9 3 8 4 7 5 6 6 5 7 3 8 4 9 2 10 1 11 83 12 84 13
REMARK SMILES IDX 95 14 85 15 94 16 86 17 87 18 88 19 89 20 90 21 93 22 91 23
REMARK SMILES IDX 92 24 12 25 13 26 14 27 15 28 16 29 17 30 18 31 19 32 20 33
REMARK SMILES IDX 21 34 82 35 22 36 81 37 23 38 24 39 25 40 75 41 26 42 80 43
REMARK SMILES IDX 74 44 76 45 27 46 79 47 73 48 72 49 28 51 60 52 40 53 59 54
REMARK SMILES IDX 41 55 44 56 58 57 77 58 42 59 43 60 57 62 78 63 45 64 29 65
REMARK SMILES IDX 30 66 38 67 31 68 37 69 39 70 36 71 32 72 33 73 34 74 35 75
REMARK SMILES IDX 61 76 62 77 70 78 63 79 69 80 71 81 68 82 64 83 65 84 66 85
REMARK SMILES IDX 67 86 46 87 47 88 55 89 48 90 54 91 56 92 53 93 49 94 50 95
REMARK SMILES IDX 51 96 52 97
REMARK H PARENT 76 50 44 61
REMARK Flexibility Score: inf
ROOT
ATOM      1  O   UNL A   1      33.324  27.392  25.786  1.00  0.00    -0.377 OA
ENDROOT
BRANCH   1   2
ATOM      2  C   UNL A   1      32.486  26.439  26.395  1.00  0.00     0.188 C 
BRANCH   2   3
ATOM      3  C   UNL A   1      33.085  25.024  26.503  1.00  0.00     0.188 C 
BRANCH   3   4
ATOM      4  O   UNL A   1      32.315  23.918  26.084  1.00  0.00    -0.376 OA
BRANCH   4   5
ATOM      5  C   UNL A   1      31.927  22.929  27.028  1.00  0.00     0.202 C 
BRANCH   5   6
ATOM      6  C   UNL A   1      32.910  21.997  27.777  1.00  0.00     0.261 C 
BRANCH   6   7
ATOM      7  O   UNL A   1      34.064  21.499  27.076  1.00  0.00    -0.463 OA
BRANCH   7   8
ATOM      8  C   UNL A   1      33.842  20.622  26.064  1.00  0.00     0.313 C 
ATOM      9  O   UNL A   1      32.997  19.732  26.109  1.00  0.00    -0.252 OA
BRANCH   8  10
ATOM     10  C   UNL A   1      34.743  20.832  24.829  1.00  0.00     0.126 C 
ATOM     11  C   UNL A   1      36.265  20.778  24.997  1.00  0.00     0.025 C 
BRANCH  10  12
ATOM     12  C   UNL A   1      34.303  22.051  24.016  1.00  0.00    -0.034 A 
ATOM     13  C   UNL A   1      35.063  23.227  23.936  1.00  0.00     0.005 A 
ATOM     14  C   UNL A   1      33.071  22.037  23.362  1.00  0.00     0.005 A 
ATOM     15  C   UNL A   1      34.564  24.394  23.357  1.00  0.00     0.012 A 
ATOM     16  C   UNL A   1      32.585  23.188  22.730  1.00  0.00     0.012 A 
ATOM     17  C   UNL A   1      33.303  24.393  22.769  1.00  0.00     0.023 A 
BRANCH  17  18
ATOM     18  C   UNL A   1      32.803  25.679  22.182  1.00  0.00     0.202 C 
ATOM     19  O   UNL A   1      33.385  26.154  21.208  1.00  0.00    -0.288 OA
BRANCH  18  20
ATOM     20  C   UNL A   1      31.627  26.287  22.764  1.00  0.00     0.075 A 
ATOM     21  C   UNL A   1      30.558  25.694  23.405  1.00  0.00     0.024 A 
ATOM     22  S   UNL A   1      31.451  27.984  22.661  1.00  0.00    -0.140 S 
ATOM     23  C   UNL A   1      29.531  26.635  23.703  1.00  0.00     0.012 A 
ATOM     24  C   UNL A   1      29.886  27.916  23.344  1.00  0.00     0.065 A 
ENDBRANCH  18  20
ENDBRANCH  17  18
ENDBRANCH  10  12
ENDBRANCH   8  10
ENDBRANCH   7   8
ENDBRANCH   6   7
ENDBRANCH   5   6
ENDBRANCH   4   5
ENDBRANCH   3   4
ENDBRANCH   2   3
ENDBRANCH   1   2
BRANCH   1  25
ATOM     25  C   UNL A   1      33.835  28.426  26.613  1.00  0.00     0.188 C 
BRANCH  25  26
ATOM     26  C   UNL A   1      32.878  29.503  27.166  1.00  0.00     0.188 C 
BRANCH  26  27
ATOM     27  O   UNL A   1      33.289  30.846  26.932  1.00  0.00    -0.376 OA
BRANCH  27  28
ATOM     28  C   UNL A   1      34.449  31.332  27.590  1.00  0.00     0.202 C 
BRANCH  28  29
ATOM     29  C   UNL A   1      34.408  32.773  28.128  1.00  0.00     0.261 C 
BRANCH  29  30
ATOM     30  O   UNL A   1      33.577  33.006  29.275  1.00  0.00    -0.460 OA
BRANCH  30  31
ATOM     31  C   UNL A   1      33.946  33.979  30.136  1.00  0.00     0.338 C 
ATOM     32  O   UNL A   1      33.286  34.950  30.467  1.00  0.00    -0.246 OA
BRANCH  31  33
ATOM     33  C   UNL A   1      35.204  33.547  30.782  1.00  0.00     0.060 A 
ATOM     34  C   UNL A   1      35.182  32.436  31.636  1.00  0.00     0.016 A 
ATOM     35  C   UNL A   1      36.402  34.218  30.523  1.00  0.00     0.016 A 
ATOM     36  C   UNL A   1      36.356  32.009  32.259  1.00  0.00     0.010 A 
ATOM     37  C   UNL A   1      37.570  33.807  31.171  1.00  0.00     0.010 A 
ATOM     38  C   UNL A   1      37.546  32.723  32.067  1.00  0.00    -0.014 A 
BRANCH  38  39
ATOM     39  C   UNL A   1      38.694  32.485  32.974  1.00  0.00     0.031 A 
ATOM     40  C   UNL A   1      39.873  31.723  32.429  1.00  0.00     0.074 A 
ATOM     41  C   UNL A   1      38.709  32.952  34.235  1.00  0.00     0.049 A 
ATOM     42  N   UNL A   1      40.965  31.333  33.032  1.00  0.00    -0.248 NA
ATOM     43  C   UNL A   1      39.802  31.347  31.008  1.00  0.00     0.031 C 
ATOM     44  C   UNL A   1      37.656  33.757  34.852  1.00  0.00     0.029 A 
ATOM     45  N   UNL A   1      39.649  32.812  35.226  1.00  0.00    -0.354 N 
ATOM     46  C   UNL A   1      41.706  30.658  32.069  1.00  0.00     0.074 A 
ATOM     47  C   UNL A   1      40.922  30.661  30.853  1.00  0.00     0.031 C 
ATOM     48  C   UNL A   1      38.006  34.032  36.121  1.00  0.00     0.029 A 
ATOM     49  C   UNL A   1      39.284  33.388  36.421  1.00  0.00     0.049 A 
ATOM     50  H   UNL A   1      40.505  32.343  35.094  1.00  0.00     0.167 HD
ATOM     51  C   UNL A   1      42.931  30.091  32.187  1.00  0.00     0.034 A 
ATOM     52  C   UNL A   1      39.898  33.367  37.623  1.00  0.00     0.034 A 
ATOM     53  C   UNL A   1      43.693  30.087  33.412  1.00  0.00     0.049 A 
ATOM     54  C   UNL A   1      41.216  32.636  37.758  1.00  0.00     0.074 A 
ATOM     55  C   UNL A   1      44.949  29.554  33.641  1.00  0.00     0.029 A 
ATOM     56  N   UNL A   1      43.264  30.626  34.618  1.00  0.00    -0.354 N 
ATOM     57  N   UNL A   1      41.911  32.002  36.840  1.00  0.00    -0.248 NA
ATOM     58  C   UNL A   1      41.833  32.621  39.091  1.00  0.00     0.031 C 
ATOM     59  C   UNL A   1      45.240  29.692  35.001  1.00  0.00     0.029 A 
ATOM     60  C   UNL A   1      44.212  30.400  35.603  1.00  0.00     0.049 A 
ATOM     61  H   UNL A   1      42.412  31.100  34.753  1.00  0.00     0.167 HD
ATOM     62  C   UNL A   1      43.064  31.551  37.479  1.00  0.00     0.074 A 
ATOM     63  C   UNL A   1      42.976  31.995  38.855  1.00  0.00     0.031 C 
ATOM     64  C   UNL A   1      44.108  30.843  36.975  1.00  0.00     0.034 A 
BRANCH  51  65
ATOM     65  C   UNL A   1      43.486  29.374  30.980  1.00  0.00     0.023 A 
ATOM     66  C   UNL A   1      44.168  30.054  29.957  1.00  0.00     0.031 A 
ATOM     67  C   UNL A   1      43.302  27.986  30.839  1.00  0.00     0.131 A 
ATOM     68  C   UNL A   1      44.580  29.359  28.809  1.00  0.00     0.055 A 
ATOM     69  C   UNL A   1      43.791  27.287  29.734  1.00  0.00     0.041 A 
ATOM     70  F   UNL A   1      42.632  27.287  31.768  1.00  0.00    -0.206 F 
ATOM     71  C   UNL A   1      44.421  27.976  28.703  1.00  0.00     0.022 A 
BRANCH  68  72
ATOM     72  S   UNL A   1      45.191  30.313  27.391  1.00  0.00     0.124 S 
ATOM     73  O   UNL A   1      46.458  29.643  27.110  1.00  0.00    -0.237 OA
ATOM     74  O   UNL A   1      44.135  30.121  26.404  1.00  0.00    -0.237 OA
ATOM     75  O   UNL A   1      45.316  31.670  27.919  1.00  0.00    -0.744 OA
ENDBRANCH  68  72
ENDBRANCH  51  65
BRANCH  52  76
ATOM     76  C   UNL A   1      39.269  34.014  38.813  1.00  0.00     0.023 A 
ATOM     77  C   UNL A   1      39.601  35.326  39.186  1.00  0.00     0.031 A 
ATOM     78  C   UNL A   1      38.380  33.302  39.638  1.00  0.00     0.131 A 
ATOM     79  C   UNL A   1      39.094  35.866  40.380  1.00  0.00     0.055 A 
ATOM     80  C   UNL A   1      37.828  33.865  40.791  1.00  0.00     0.041 A 
ATOM     81  F   UNL A   1      38.033  32.041  39.336  1.00  0.00    -0.206 F 
ATOM     82  C   UNL A   1      38.196  35.151  41.175  1.00  0.00     0.022 A 
BRANCH  79  83
ATOM     83  S   UNL A   1      39.708  37.480  40.933  1.00  0.00     0.124 S 
ATOM     84  O   UNL A   1      39.444  37.421  42.366  1.00  0.00    -0.237 OA
ATOM     85  O   UNL A   1      41.111  37.422  40.535  1.00  0.00    -0.237 OA
ATOM     86  O   UNL A   1      38.888  38.430  40.184  1.00  0.00    -0.744 OA
ENDBRANCH  79  83
ENDBRANCH  52  76
BRANCH  64  87
ATOM     87  C   UNL A   1      45.266  30.554  37.903  1.00  0.00     0.023 A 
ATOM     88  C   UNL A   1      45.297  29.414  38.726  1.00  0.00     0.031 A 
ATOM     89  C   UNL A   1      46.359  31.439  37.963  1.00  0.00     0.131 A 
ATOM     90  C   UNL A   1      46.366  29.222  39.614  1.00  0.00     0.055 A 
ATOM     91  C   UNL A   1      47.453  31.205  38.796  1.00  0.00     0.041 A 
ATOM     92  F   UNL A   1      46.384  32.546  37.203  1.00  0.00    -0.206 F 
ATOM     93  C   UNL A   1      47.455  30.098  39.639  1.00  0.00     0.022 A 
BRANCH  90  94
ATOM     94  S   UNL A   1      46.269  27.866  40.815  1.00  0.00     0.124 S 
ATOM     95  O   UNL A   1      44.827  27.694  40.961  1.00  0.00    -0.237 OA
ATOM     96  O   UNL A   1      46.972  26.788  40.128  1.00  0.00    -0.237 OA
ATOM     97  O   UNL A   1      46.953  28.400  41.992  1.00  0.00    -0.744 OA
ENDBRANCH  90  94
ENDBRANCH  64  87
ENDBRANCH  38  39
ENDBRANCH  31  33
ENDBRANCH  30  31
ENDBRANCH  29  30
ENDBRANCH  28  29
ENDBRANCH  27  28
ENDBRANCH  26  27
ENDBRANCH  25  26
ENDBRANCH   1  25
TORSDOF 26
ENDMDL
