MODEL 1
REMARK VINA RESULT:      -7.1      0.000      0.000
REMARK SMILES O=C(OCCOCCOCCOCCOC(=O)[C@@H]([NH2+]CC1CC1)c1cccc(C2CC2)c1)c1ccc(-c2c3nc(c(-c4cc(S(=O)(=O)[O-])ccc4F)c4ccc([nH]4)c(-c4cc(S(=O)(=O)[O-])ccc4F)c4nc(c(-c5cc(S(=O)(=O)[O-])ccc5F)c5ccc2[nH]5)C=C4)C=C3)cc1
REMARK SMILES IDX 9 1 8 2 7 3 6 4 5 5 4 6 3 7 2 8 1 9 33 10 34 11 95 12 35 13
REMARK SMILES IDX 94 14 36 15 37 16 38 17 88 18 39 19 93 20 87 21 89 22 40 23
REMARK SMILES IDX 92 24 86 25 85 26 41 28 73 29 53 30 72 31 54 32 57 33 71 34
REMARK SMILES IDX 90 35 55 36 56 37 70 39 91 40 58 41 42 42 43 43 51 44 44 45
REMARK SMILES IDX 50 46 52 47 49 48 45 49 46 50 47 51 48 52 74 53 75 54 83 55
REMARK SMILES IDX 76 56 82 57 84 58 81 59 77 60 78 61 79 62 80 63 59 64 60 65
REMARK SMILES IDX 68 66 61 67 67 68 69 69 66 70 62 71 63 72 64 73 65 74 10 75
REMARK SMILES IDX 11 76 12 77 13 78 14 79 15 80 16 81 17 82 18 83 19 84 20 87
REMARK SMILES IDX 21 88 22 89 23 90 24 91 25 92 32 93 26 94 28 95 27 96 29 97
REMARK SMILES IDX 30 98 31 99
REMARK H PARENT 89 27 57 38 19 85 19 86
REMARK Flexibility Score: inf
ROOT
ATOM      1  O   UNL A   1      34.608  35.818  34.054  1.00  0.00    -0.377 OA
ENDROOT
BRANCH   1   2
ATOM      2  C   UNL A   1      35.285  34.609  34.371  1.00  0.00     0.188 C 
BRANCH   2   3
ATOM      3  C   UNL A   1      36.131  34.048  33.243  1.00  0.00     0.188 C 
BRANCH   3   4
ATOM      4  O   UNL A   1      37.250  33.375  33.780  1.00  0.00    -0.376 OA
BRANCH   4   5
ATOM      5  C   UNL A   1      37.414  33.165  35.164  1.00  0.00     0.202 C 
BRANCH   5   6
ATOM      6  C   UNL A   1      37.917  31.812  35.620  1.00  0.00     0.261 C 
BRANCH   6   7
ATOM      7  O   UNL A   1      39.348  31.615  35.744  1.00  0.00    -0.460 OA
BRANCH   7   8
ATOM      8  C   UNL A   1      40.232  30.663  35.376  1.00  0.00     0.338 C 
ATOM      9  O   UNL A   1      40.144  29.542  35.869  1.00  0.00    -0.246 OA
BRANCH   8  10
ATOM     10  C   UNL A   1      41.272  30.882  34.349  1.00  0.00     0.060 A 
ATOM     11  C   UNL A   1      42.632  30.863  34.615  1.00  0.00     0.016 A 
ATOM     12  C   UNL A   1      40.873  30.972  33.016  1.00  0.00     0.016 A 
ATOM     13  C   UNL A   1      43.553  31.282  33.684  1.00  0.00     0.010 A 
ATOM     14  C   UNL A   1      41.822  31.208  32.016  1.00  0.00     0.010 A 
ATOM     15  C   UNL A   1      43.154  31.467  32.371  1.00  0.00    -0.014 A 
BRANCH  15  16
ATOM     16  C   UNL A   1      44.106  32.127  31.459  1.00  0.00     0.031 A 
ATOM     17  C   UNL A   1      45.199  31.274  30.885  1.00  0.00     0.074 A 
ATOM     18  C   UNL A   1      43.878  33.380  31.024  1.00  0.00     0.049 A 
ATOM     19  N   UNL A   1      46.230  31.616  30.165  1.00  0.00    -0.248 NA
ATOM     20  C   UNL A   1      45.119  29.829  31.168  1.00  0.00     0.031 C 
ATOM     21  C   UNL A   1      42.721  34.208  31.389  1.00  0.00     0.029 A 
ATOM     22  N   UNL A   1      44.567  34.159  30.137  1.00  0.00    -0.354 N 
ATOM     23  C   UNL A   1      46.956  30.444  29.975  1.00  0.00     0.074 A 
ATOM     24  C   UNL A   1      46.256  29.386  30.661  1.00  0.00     0.031 C 
ATOM     25  C   UNL A   1      42.754  35.350  30.684  1.00  0.00     0.029 A 
ATOM     26  C   UNL A   1      43.994  35.393  29.926  1.00  0.00     0.049 A 
ATOM     27  H   UNL A   1      45.395  33.866  29.692  1.00  0.00     0.167 HD
ATOM     28  C   UNL A   1      48.114  30.287  29.294  1.00  0.00     0.034 A 
ATOM     29  C   UNL A   1      44.461  36.452  29.239  1.00  0.00     0.034 A 
ATOM     30  C   UNL A   1      48.747  31.384  28.608  1.00  0.00     0.049 A 
ATOM     31  C   UNL A   1      45.810  36.290  28.585  1.00  0.00     0.074 A 
ATOM     32  C   UNL A   1      49.958  31.414  27.945  1.00  0.00     0.029 A 
ATOM     33  N   UNL A   1      48.197  32.660  28.498  1.00  0.00    -0.354 N 
ATOM     34  N   UNL A   1      46.575  35.221  28.524  1.00  0.00    -0.248 NA
ATOM     35  C   UNL A   1      46.368  37.473  27.926  1.00  0.00     0.031 C 
ATOM     36  C   UNL A   1      50.172  32.724  27.501  1.00  0.00     0.029 A 
ATOM     37  C   UNL A   1      49.054  33.490  27.801  1.00  0.00     0.049 A 
ATOM     38  H   UNL A   1      47.324  32.929  28.864  1.00  0.00     0.167 HD
ATOM     39  C   UNL A   1      47.696  35.595  27.791  1.00  0.00     0.074 A 
ATOM     40  C   UNL A   1      47.490  36.984  27.418  1.00  0.00     0.031 C 
ATOM     41  C   UNL A   1      48.796  34.871  27.456  1.00  0.00     0.034 A 
BRANCH  28  42
ATOM     42  C   UNL A   1      48.790  28.941  29.393  1.00  0.00     0.023 A 
ATOM     43  C   UNL A   1      49.736  28.639  30.389  1.00  0.00     0.031 A 
ATOM     44  C   UNL A   1      48.575  27.985  28.384  1.00  0.00     0.131 A 
ATOM     45  C   UNL A   1      50.500  27.464  30.296  1.00  0.00     0.055 A 
ATOM     46  C   UNL A   1      49.271  26.775  28.350  1.00  0.00     0.041 A 
ATOM     47  F   UNL A   1      47.714  28.228  27.383  1.00  0.00    -0.206 F 
ATOM     48  C   UNL A   1      50.256  26.517  29.299  1.00  0.00     0.022 A 
BRANCH  45  49
ATOM     49  S   UNL A   1      51.947  27.276  31.379  1.00  0.00     0.124 S 
ATOM     50  O   UNL A   1      52.460  28.643  31.425  1.00  0.00    -0.237 OA
ATOM     51  O   UNL A   1      51.351  26.779  32.617  1.00  0.00    -0.237 OA
ATOM     52  O   UNL A   1      52.790  26.322  30.666  1.00  0.00    -0.744 OA
ENDBRANCH  45  49
ENDBRANCH  28  42
BRANCH  29  53
ATOM     53  C   UNL A   1      43.720  37.749  29.212  1.00  0.00     0.023 A 
ATOM     54  C   UNL A   1      43.832  38.676  30.260  1.00  0.00     0.031 A 
ATOM     55  C   UNL A   1      42.839  38.062  28.158  1.00  0.00     0.131 A 
ATOM     56  C   UNL A   1      43.046  39.841  30.256  1.00  0.00     0.055 A 
ATOM     57  C   UNL A   1      42.108  39.252  28.126  1.00  0.00     0.041 A 
ATOM     58  F   UNL A   1      42.676  37.214  27.130  1.00  0.00    -0.206 F 
ATOM     59  C   UNL A   1      42.198  40.144  29.188  1.00  0.00     0.022 A 
BRANCH  56  60
ATOM     60  S   UNL A   1      43.064  40.913  31.720  1.00  0.00     0.124 S 
ATOM     61  O   UNL A   1      43.468  39.976  32.766  1.00  0.00    -0.237 OA
ATOM     62  O   UNL A   1      44.055  41.918  31.345  1.00  0.00    -0.237 OA
ATOM     63  O   UNL A   1      41.692  41.394  31.809  1.00  0.00    -0.744 OA
ENDBRANCH  56  60
ENDBRANCH  29  53
BRANCH  41  64
ATOM     64  C   UNL A   1      49.812  35.566  26.590  1.00  0.00     0.023 A 
ATOM     65  C   UNL A   1      50.924  36.223  27.139  1.00  0.00     0.031 A 
ATOM     66  C   UNL A   1      49.647  35.580  25.194  1.00  0.00     0.131 A 
ATOM     67  C   UNL A   1      51.792  36.932  26.298  1.00  0.00     0.055 A 
ATOM     68  C   UNL A   1      50.558  36.220  24.357  1.00  0.00     0.041 A 
ATOM     69  F   UNL A   1      48.597  34.968  24.623  1.00  0.00    -0.206 F 
ATOM     70  C   UNL A   1      51.629  36.916  24.911  1.00  0.00     0.022 A 
BRANCH  67  71
ATOM     71  S   UNL A   1      53.060  37.980  27.057  1.00  0.00     0.124 S 
ATOM     72  O   UNL A   1      54.215  37.722  26.203  1.00  0.00    -0.237 OA
ATOM     73  O   UNL A   1      52.472  39.311  26.949  1.00  0.00    -0.237 OA
ATOM     74  O   UNL A   1      53.166  37.458  28.418  1.00  0.00    -0.744 OA
ENDBRANCH  67  71
ENDBRANCH  41  64
ENDBRANCH  15  16
ENDBRANCH   8  10
ENDBRANCH   7   8
ENDBRANCH   6   7
ENDBRANCH   5   6
ENDBRANCH   4   5
ENDBRANCH   3   4
ENDBRANCH   2   3
ENDBRANCH   1   2
BRANCH   1  75
ATOM     75  C   UNL A   1      34.337  36.143  32.677  1.00  0.00     0.188 C 
BRANCH  75  76
ATOM     76  C   UNL A   1      33.671  37.481  32.311  1.00  0.00     0.188 C 
BRANCH  76  77
ATOM     77  O   UNL A   1      33.203  37.524  30.981  1.00  0.00    -0.376 OA
BRANCH  77  78
ATOM     78  C   UNL A   1      32.523  36.375  30.502  1.00  0.00     0.202 C 
BRANCH  78  79
ATOM     79  C   UNL A   1      33.031  35.569  29.279  1.00  0.00     0.261 C 
BRANCH  79  80
ATOM     80  O   UNL A   1      33.428  34.196  29.462  1.00  0.00    -0.459 OA
BRANCH  80  81
ATOM     81  C   UNL A   1      34.716  33.884  29.126  1.00  0.00     0.369 C 
ATOM     82  O   UNL A   1      35.374  34.532  28.313  1.00  0.00    -0.245 OA
BRANCH  81  83
ATOM     83  C   UNL A   1      35.273  32.587  29.800  1.00  0.00     0.324 C 
BRANCH  83  84
ATOM     84  N   UNL A   1      34.604  31.380  29.333  1.00  0.00    -0.330 N 
ATOM     85  H   UNL A   1      33.697  31.372  29.797  1.00  0.00     0.347 HD
ATOM     86  H   UNL A   1      35.315  30.679  29.543  1.00  0.00     0.347 HD
BRANCH  84  87
ATOM     87  C   UNL A   1      34.335  31.079  27.953  1.00  0.00     0.264 C 
BRANCH  87  88
ATOM     88  C   UNL A   1      34.454  29.618  27.669  1.00  0.00     0.044 C 
ATOM     89  C   UNL A   1      33.260  28.852  27.155  1.00  0.00     0.010 C 
ATOM     90  C   UNL A   1      34.433  29.113  26.252  1.00  0.00     0.010 C 
ENDBRANCH  87  88
ENDBRANCH  84  87
ENDBRANCH  83  84
BRANCH  83  91
ATOM     91  C   UNL A   1      36.780  32.555  29.681  1.00  0.00     0.021 A 
ATOM     92  C   UNL A   1      37.509  33.740  29.802  1.00  0.00     0.010 A 
ATOM     93  C   UNL A   1      37.479  31.355  29.500  1.00  0.00     0.014 A 
ATOM     94  C   UNL A   1      38.897  33.711  29.755  1.00  0.00     0.001 A 
ATOM     95  C   UNL A   1      38.874  31.271  29.559  1.00  0.00    -0.044 A 
ATOM     96  C   UNL A   1      39.567  32.487  29.655  1.00  0.00     0.004 A 
BRANCH  95  97
ATOM     97  C   UNL A   1      39.594  29.936  29.582  1.00  0.00     0.019 C 
ATOM     98  C   UNL A   1      39.611  29.054  28.347  1.00  0.00     0.009 C 
ATOM     99  C   UNL A   1      40.874  29.721  28.812  1.00  0.00     0.009 C 
ENDBRANCH  95  97
ENDBRANCH  83  91
ENDBRANCH  81  83
ENDBRANCH  80  81
ENDBRANCH  79  80
ENDBRANCH  78  79
ENDBRANCH  77  78
ENDBRANCH  76  77
ENDBRANCH  75  76
ENDBRANCH   1  75
TORSDOF 28
ENDMDL
MODEL 2
REMARK VINA RESULT:      -6.7      5.698     12.023
REMARK SMILES O=C(OCCOCCOCCOCCOC(=O)[C@@H]([NH2+]CC1CC1)c1cccc(C2CC2)c1)c1ccc(-c2c3nc(c(-c4cc(S(=O)(=O)[O-])ccc4F)c4ccc([nH]4)c(-c4cc(S(=O)(=O)[O-])ccc4F)c4nc(c(-c5cc(S(=O)(=O)[O-])ccc5F)c5ccc2[nH]5)C=C4)C=C3)cc1
REMARK SMILES IDX 9 1 8 2 7 3 6 4 5 5 4 6 3 7 2 8 1 9 33 10 34 11 95 12 35 13
REMARK SMILES IDX 94 14 36 15 37 16 38 17 88 18 39 19 93 20 87 21 89 22 40 23
REMARK SMILES IDX 92 24 86 25 85 26 41 28 73 29 53 30 72 31 54 32 57 33 71 34
REMARK SMILES IDX 90 35 55 36 56 37 70 39 91 40 58 41 42 42 43 43 51 44 44 45
REMARK SMILES IDX 50 46 52 47 49 48 45 49 46 50 47 51 48 52 74 53 75 54 83 55
REMARK SMILES IDX 76 56 82 57 84 58 81 59 77 60 78 61 79 62 80 63 59 64 60 65
REMARK SMILES IDX 68 66 61 67 67 68 69 69 66 70 62 71 63 72 64 73 65 74 10 75
REMARK SMILES IDX 11 76 12 77 13 78 14 79 15 80 16 81 17 82 18 83 19 84 20 87
REMARK SMILES IDX 21 88 22 89 23 90 24 91 25 92 32 93 26 94 28 95 27 96 29 97
REMARK SMILES IDX 30 98 31 99
REMARK H PARENT 89 27 57 38 19 85 19 86
REMARK Flexibility Score: inf
ROOT
ATOM      1  O   UNL A   1      45.277  42.709  25.975  1.00  0.00    -0.377 OA
ENDROOT
BRANCH   1   2
ATOM      2  C   UNL A   1      45.186  42.353  27.348  1.00  0.00     0.188 C 
BRANCH   2   3
ATOM      3  C   UNL A   1      45.393  43.508  28.311  1.00  0.00     0.188 C 
BRANCH   3   4
ATOM      4  O   UNL A   1      44.828  43.187  29.564  1.00  0.00    -0.376 OA
BRANCH   4   5
ATOM      5  C   UNL A   1      43.887  44.019  30.205  1.00  0.00     0.202 C 
BRANCH   5   6
ATOM      6  C   UNL A   1      43.090  43.435  31.351  1.00  0.00     0.261 C 
BRANCH   6   7
ATOM      7  O   UNL A   1      42.833  42.008  31.355  1.00  0.00    -0.460 OA
BRANCH   7   8
ATOM      8  C   UNL A   1      42.298  41.115  30.494  1.00  0.00     0.338 C 
ATOM      9  O   UNL A   1      41.265  41.406  29.898  1.00  0.00    -0.246 OA
BRANCH   8  10
ATOM     10  C   UNL A   1      42.932  39.819  30.179  1.00  0.00     0.060 A 
ATOM     11  C   UNL A   1      42.854  39.205  28.940  1.00  0.00     0.016 A 
ATOM     12  C   UNL A   1      43.774  39.248  31.134  1.00  0.00     0.016 A 
ATOM     13  C   UNL A   1      43.272  37.909  28.751  1.00  0.00     0.010 A 
ATOM     14  C   UNL A   1      44.373  38.008  30.887  1.00  0.00     0.010 A 
ATOM     15  C   UNL A   1      44.032  37.292  29.731  1.00  0.00    -0.014 A 
BRANCH  15  16
ATOM     16  C   UNL A   1      44.268  35.843  29.594  1.00  0.00     0.031 A 
ATOM     17  C   UNL A   1      45.588  35.420  29.019  1.00  0.00     0.074 A 
ATOM     18  C   UNL A   1      43.413  34.958  30.141  1.00  0.00     0.049 A 
ATOM     19  N   UNL A   1      46.005  34.234  28.677  1.00  0.00    -0.248 NA
ATOM     20  C   UNL A   1      46.576  36.491  28.792  1.00  0.00     0.031 C 
ATOM     21  C   UNL A   1      42.200  35.302  30.893  1.00  0.00     0.029 A 
ATOM     22  N   UNL A   1      43.458  33.593  30.205  1.00  0.00    -0.354 N 
ATOM     23  C   UNL A   1      47.270  34.429  28.129  1.00  0.00     0.074 A 
ATOM     24  C   UNL A   1      47.548  35.843  28.174  1.00  0.00     0.031 C 
ATOM     25  C   UNL A   1      41.654  34.182  31.390  1.00  0.00     0.029 A 
ATOM     26  C   UNL A   1      42.397  33.038  30.884  1.00  0.00     0.049 A 
ATOM     27  H   UNL A   1      44.180  33.058  29.803  1.00  0.00     0.167 HD
ATOM     28  C   UNL A   1      48.107  33.494  27.624  1.00  0.00     0.034 A 
ATOM     29  C   UNL A   1      42.045  31.747  31.023  1.00  0.00     0.034 A 
ATOM     30  C   UNL A   1      47.777  32.092  27.635  1.00  0.00     0.049 A 
ATOM     31  C   UNL A   1      42.932  30.730  30.350  1.00  0.00     0.074 A 
ATOM     32  C   UNL A   1      48.472  31.029  27.092  1.00  0.00     0.029 A 
ATOM     33  N   UNL A   1      46.638  31.561  28.237  1.00  0.00    -0.354 N 
ATOM     34  N   UNL A   1      44.062  30.920  29.702  1.00  0.00    -0.248 NA
ATOM     35  C   UNL A   1      42.496  29.333  30.411  1.00  0.00     0.031 C 
ATOM     36  C   UNL A   1      47.716  29.870  27.302  1.00  0.00     0.029 A 
ATOM     37  C   UNL A   1      46.597  30.191  28.058  1.00  0.00     0.049 A 
ATOM     38  H   UNL A   1      45.960  32.087  28.721  1.00  0.00     0.167 HD
ATOM     39  C   UNL A   1      44.488  29.660  29.300  1.00  0.00     0.074 A 
ATOM     40  C   UNL A   1      43.500  28.720  29.801  1.00  0.00     0.031 C 
ATOM     41  C   UNL A   1      45.585  29.301  28.583  1.00  0.00     0.034 A 
BRANCH  28  42
ATOM     42  C   UNL A   1      49.348  33.993  26.924  1.00  0.00     0.023 A 
ATOM     43  C   UNL A   1      50.605  34.039  27.553  1.00  0.00     0.031 A 
ATOM     44  C   UNL A   1      49.237  34.557  25.640  1.00  0.00     0.131 A 
ATOM     45  C   UNL A   1      51.669  34.724  26.941  1.00  0.00     0.055 A 
ATOM     46  C   UNL A   1      50.324  35.154  24.998  1.00  0.00     0.041 A 
ATOM     47  F   UNL A   1      48.056  34.580  25.003  1.00  0.00    -0.206 F 
ATOM     48  C   UNL A   1      51.545  35.259  25.657  1.00  0.00     0.022 A 
BRANCH  45  49
ATOM     49  S   UNL A   1      53.158  35.077  27.922  1.00  0.00     0.124 S 
ATOM     50  O   UNL A   1      52.584  35.686  29.119  1.00  0.00    -0.237 OA
ATOM     51  O   UNL A   1      53.740  33.749  28.100  1.00  0.00    -0.237 OA
ATOM     52  O   UNL A   1      53.923  35.984  27.073  1.00  0.00    -0.744 OA
ENDBRANCH  45  49
ENDBRANCH  28  42
BRANCH  29  53
ATOM     53  C   UNL A   1      40.786  31.356  31.726  1.00  0.00     0.023 A 
ATOM     54  C   UNL A   1      39.600  31.111  31.018  1.00  0.00     0.031 A 
ATOM     55  C   UNL A   1      40.733  31.272  33.131  1.00  0.00     0.131 A 
ATOM     56  C   UNL A   1      38.407  30.843  31.712  1.00  0.00     0.055 A 
ATOM     57  C   UNL A   1      39.560  30.943  33.815  1.00  0.00     0.041 A 
ATOM     58  F   UNL A   1      41.829  31.507  33.871  1.00  0.00    -0.206 F 
ATOM     59  C   UNL A   1      38.383  30.741  33.104  1.00  0.00     0.022 A 
BRANCH  56  60
ATOM     60  S   UNL A   1      36.857  30.734  30.776  1.00  0.00     0.124 S 
ATOM     61  O   UNL A   1      37.341  30.766  29.398  1.00  0.00    -0.237 OA
ATOM     62  O   UNL A   1      36.317  29.458  31.235  1.00  0.00    -0.237 OA
ATOM     63  O   UNL A   1      36.115  31.914  31.204  1.00  0.00    -0.744 OA
ENDBRANCH  56  60
ENDBRANCH  29  53
BRANCH  41  64
ATOM     64  C   UNL A   1      45.789  27.825  28.371  1.00  0.00     0.023 A 
ATOM     65  C   UNL A   1      45.274  27.163  27.247  1.00  0.00     0.031 A 
ATOM     66  C   UNL A   1      46.499  27.075  29.324  1.00  0.00     0.131 A 
ATOM     67  C   UNL A   1      45.412  25.773  27.140  1.00  0.00     0.055 A 
ATOM     68  C   UNL A   1      46.702  25.705  29.172  1.00  0.00     0.041 A 
ATOM     69  F   UNL A   1      47.008  27.664  30.419  1.00  0.00    -0.206 F 
ATOM     70  C   UNL A   1      46.141  25.044  28.083  1.00  0.00     0.022 A 
BRANCH  67  71
ATOM     71  S   UNL A   1      44.516  24.917  25.818  1.00  0.00     0.124 S 
ATOM     72  O   UNL A   1      43.174  25.477  25.951  1.00  0.00    -0.237 OA
ATOM     73  O   UNL A   1      45.258  25.317  24.628  1.00  0.00    -0.237 OA
ATOM     74  O   UNL A   1      44.638  23.507  26.181  1.00  0.00    -0.744 OA
ENDBRANCH  67  71
ENDBRANCH  41  64
ENDBRANCH  15  16
ENDBRANCH   8  10
ENDBRANCH   7   8
ENDBRANCH   6   7
ENDBRANCH   5   6
ENDBRANCH   4   5
ENDBRANCH   3   4
ENDBRANCH   2   3
ENDBRANCH   1   2
BRANCH   1  75
ATOM     75  C   UNL A   1      46.505  42.474  25.258  1.00  0.00     0.188 C 
BRANCH  75  76
ATOM     76  C   UNL A   1      46.601  41.329  24.235  1.00  0.00     0.188 C 
BRANCH  76  77
ATOM     77  O   UNL A   1      46.208  41.710  22.935  1.00  0.00    -0.376 OA
BRANCH  77  78
ATOM     78  C   UNL A   1      47.063  41.329  21.869  1.00  0.00     0.202 C 
BRANCH  78  79
ATOM     79  C   UNL A   1      47.690  42.369  20.905  1.00  0.00     0.261 C 
BRANCH  79  80
ATOM     80  O   UNL A   1      46.913  42.847  19.790  1.00  0.00    -0.459 OA
BRANCH  80  81
ATOM     81  C   UNL A   1      47.167  44.124  19.373  1.00  0.00     0.369 C 
ATOM     82  O   UNL A   1      48.258  44.482  18.931  1.00  0.00    -0.245 OA
BRANCH  81  83
ATOM     83  C   UNL A   1      45.983  45.126  19.569  1.00  0.00     0.324 C 
BRANCH  83  84
ATOM     84  N   UNL A   1      45.033  45.096  18.464  1.00  0.00    -0.330 N 
ATOM     85  H   UNL A   1      44.374  44.351  18.690  1.00  0.00     0.347 HD
ATOM     86  H   UNL A   1      45.670  45.019  17.672  1.00  0.00     0.347 HD
BRANCH  84  87
ATOM     87  C   UNL A   1      44.228  46.212  18.051  1.00  0.00     0.264 C 
BRANCH  87  88
ATOM     88  C   UNL A   1      42.799  45.824  17.854  1.00  0.00     0.044 C 
ATOM     89  C   UNL A   1      42.102  46.152  16.557  1.00  0.00     0.010 C 
ATOM     90  C   UNL A   1      42.434  44.725  16.893  1.00  0.00     0.010 C 
ENDBRANCH  87  88
ENDBRANCH  84  87
ENDBRANCH  83  84
BRANCH  83  91
ATOM     91  C   UNL A   1      45.363  44.927  20.933  1.00  0.00     0.021 A 
ATOM     92  C   UNL A   1      45.906  45.581  22.042  1.00  0.00     0.010 A 
ATOM     93  C   UNL A   1      44.218  44.140  21.115  1.00  0.00     0.014 A 
ATOM     94  C   UNL A   1      45.307  45.452  23.289  1.00  0.00     0.001 A 
ATOM     95  C   UNL A   1      43.524  44.077  22.328  1.00  0.00    -0.044 A 
ATOM     96  C   UNL A   1      44.119  44.725  23.421  1.00  0.00     0.004 A 
BRANCH  95  97
ATOM     97  C   UNL A   1      42.172  43.399  22.439  1.00  0.00     0.019 C 
ATOM     98  C   UNL A   1      41.308  43.206  21.206  1.00  0.00     0.009 C 
ATOM     99  C   UNL A   1      41.936  42.019  21.877  1.00  0.00     0.009 C 
ENDBRANCH  95  97
ENDBRANCH  83  91
ENDBRANCH  81  83
ENDBRANCH  80  81
ENDBRANCH  79  80
ENDBRANCH  78  79
ENDBRANCH  77  78
ENDBRANCH  76  77
ENDBRANCH  75  76
ENDBRANCH   1  75
TORSDOF 28
ENDMDL
MODEL 3
REMARK VINA RESULT:      -6.7      4.932     12.404
REMARK SMILES O=C(OCCOCCOCCOCCOC(=O)[C@@H]([NH2+]CC1CC1)c1cccc(C2CC2)c1)c1ccc(-c2c3nc(c(-c4cc(S(=O)(=O)[O-])ccc4F)c4ccc([nH]4)c(-c4cc(S(=O)(=O)[O-])ccc4F)c4nc(c(-c5cc(S(=O)(=O)[O-])ccc5F)c5ccc2[nH]5)C=C4)C=C3)cc1
REMARK SMILES IDX 9 1 8 2 7 3 6 4 5 5 4 6 3 7 2 8 1 9 33 10 34 11 95 12 35 13
REMARK SMILES IDX 94 14 36 15 37 16 38 17 88 18 39 19 93 20 87 21 89 22 40 23
REMARK SMILES IDX 92 24 86 25 85 26 41 28 73 29 53 30 72 31 54 32 57 33 71 34
REMARK SMILES IDX 90 35 55 36 56 37 70 39 91 40 58 41 42 42 43 43 51 44 44 45
REMARK SMILES IDX 50 46 52 47 49 48 45 49 46 50 47 51 48 52 74 53 75 54 83 55
REMARK SMILES IDX 76 56 82 57 84 58 81 59 77 60 78 61 79 62 80 63 59 64 60 65
REMARK SMILES IDX 68 66 61 67 67 68 69 69 66 70 62 71 63 72 64 73 65 74 10 75
REMARK SMILES IDX 11 76 12 77 13 78 14 79 15 80 16 81 17 82 18 83 19 84 20 87
REMARK SMILES IDX 21 88 22 89 23 90 24 91 25 92 32 93 26 94 28 95 27 96 29 97
REMARK SMILES IDX 30 98 31 99
REMARK H PARENT 89 27 57 38 19 85 19 86
REMARK Flexibility Score: inf
ROOT
ATOM      1  O   UNL A   1      47.841  32.578  37.079  1.00  0.00    -0.377 OA
ENDROOT
BRANCH   1   2
ATOM      2  C   UNL A   1      49.014  31.789  37.227  1.00  0.00     0.188 C 
BRANCH   2   3
ATOM      3  C   UNL A   1      48.773  30.408  37.810  1.00  0.00     0.188 C 
BRANCH   3   4
ATOM      4  O   UNL A   1      48.588  29.478  36.764  1.00  0.00    -0.376 OA
BRANCH   4   5
ATOM      5  C   UNL A   1      49.532  28.473  36.471  1.00  0.00     0.202 C 
BRANCH   5   6
ATOM      6  C   UNL A   1      49.366  27.702  35.178  1.00  0.00     0.261 C 
BRANCH   6   7
ATOM      7  O   UNL A   1      48.567  26.492  35.195  1.00  0.00    -0.460 OA
BRANCH   7   8
ATOM      8  C   UNL A   1      47.294  26.174  35.514  1.00  0.00     0.338 C 
ATOM      9  O   UNL A   1      47.086  25.238  36.280  1.00  0.00    -0.246 OA
BRANCH   8  10
ATOM     10  C   UNL A   1      46.127  26.944  35.036  1.00  0.00     0.060 A 
ATOM     11  C   UNL A   1      44.824  26.692  35.435  1.00  0.00     0.016 A 
ATOM     12  C   UNL A   1      46.359  28.075  34.254  1.00  0.00     0.016 A 
ATOM     13  C   UNL A   1      43.753  27.285  34.808  1.00  0.00     0.010 A 
ATOM     14  C   UNL A   1      45.281  28.816  33.757  1.00  0.00     0.010 A 
ATOM     15  C   UNL A   1      43.972  28.352  33.953  1.00  0.00    -0.014 A 
BRANCH  15  16
ATOM     16  C   UNL A   1      42.835  28.810  33.134  1.00  0.00     0.031 A 
ATOM     17  C   UNL A   1      41.948  29.863  33.732  1.00  0.00     0.074 A 
ATOM     18  C   UNL A   1      42.727  28.435  31.846  1.00  0.00     0.049 A 
ATOM     19  N   UNL A   1      40.823  30.350  33.291  1.00  0.00    -0.248 NA
ATOM     20  C   UNL A   1      42.391  30.442  35.013  1.00  0.00     0.031 C 
ATOM     21  C   UNL A   1      43.669  27.563  31.133  1.00  0.00     0.029 A 
ATOM     22  N   UNL A   1      41.817  28.781  30.887  1.00  0.00    -0.354 N 
ATOM     23  C   UNL A   1      40.391  31.236  34.275  1.00  0.00     0.074 A 
ATOM     24  C   UNL A   1      41.367  31.212  35.337  1.00  0.00     0.031 C 
ATOM     25  C   UNL A   1      43.319  27.495  29.840  1.00  0.00     0.029 A 
ATOM     26  C   UNL A   1      42.061  28.203  29.661  1.00  0.00     0.049 A 
ATOM     27  H   UNL A   1      41.059  29.386  31.056  1.00  0.00     0.167 HD
ATOM     28  C   UNL A   1      39.266  31.987  34.278  1.00  0.00     0.034 A 
ATOM     29  C   UNL A   1      41.311  28.207  28.544  1.00  0.00     0.034 A 
ATOM     30  C   UNL A   1      38.346  31.984  33.170  1.00  0.00     0.049 A 
ATOM     31  C   UNL A   1      40.004  28.955  28.611  1.00  0.00     0.074 A 
ATOM     32  C   UNL A   1      37.126  32.618  33.048  1.00  0.00     0.029 A 
ATOM     33  N   UNL A   1      38.565  31.301  31.974  1.00  0.00    -0.354 N 
ATOM     34  N   UNL A   1      39.518  29.681  29.595  1.00  0.00    -0.248 NA
ATOM     35  C   UNL A   1      39.138  28.875  27.433  1.00  0.00     0.031 C 
ATOM     36  C   UNL A   1      36.576  32.259  31.813  1.00  0.00     0.029 A 
ATOM     37  C   UNL A   1      37.492  31.478  31.121  1.00  0.00     0.049 A 
ATOM     38  H   UNL A   1      39.367  30.770  31.768  1.00  0.00     0.167 HD
ATOM     39  C   UNL A   1      38.298  30.170  29.143  1.00  0.00     0.074 A 
ATOM     40  C   UNL A   1      38.139  29.669  27.789  1.00  0.00     0.031 C 
ATOM     41  C   UNL A   1      37.387  30.954  29.777  1.00  0.00     0.034 A 
BRANCH  28  42
ATOM     42  C   UNL A   1      38.943  32.730  35.552  1.00  0.00     0.023 A 
ATOM     43  C   UNL A   1      39.340  34.061  35.774  1.00  0.00     0.031 A 
ATOM     44  C   UNL A   1      38.337  32.041  36.618  1.00  0.00     0.131 A 
ATOM     45  C   UNL A   1      39.219  34.623  37.056  1.00  0.00     0.055 A 
ATOM     46  C   UNL A   1      38.134  32.638  37.864  1.00  0.00     0.041 A 
ATOM     47  F   UNL A   1      37.971  30.757  36.483  1.00  0.00    -0.206 F 
ATOM     48  C   UNL A   1      38.595  33.930  38.095  1.00  0.00     0.022 A 
BRANCH  45  49
ATOM     49  S   UNL A   1      40.060  36.196  37.402  1.00  0.00     0.124 S 
ATOM     50  O   UNL A   1      41.394  35.739  37.784  1.00  0.00    -0.237 OA
ATOM     51  O   UNL A   1      39.970  36.890  36.118  1.00  0.00    -0.237 OA
ATOM     52  O   UNL A   1      39.272  36.779  38.482  1.00  0.00    -0.744 OA
ENDBRANCH  45  49
ENDBRANCH  28  42
BRANCH  29  53
ATOM     53  C   UNL A   1      41.714  27.427  27.335  1.00  0.00     0.023 A 
ATOM     54  C   UNL A   1      41.674  26.024  27.324  1.00  0.00     0.031 A 
ATOM     55  C   UNL A   1      42.201  28.072  26.181  1.00  0.00     0.131 A 
ATOM     56  C   UNL A   1      42.154  25.314  26.210  1.00  0.00     0.055 A 
ATOM     57  C   UNL A   1      42.617  27.365  25.050  1.00  0.00     0.041 A 
ATOM     58  F   UNL A   1      42.278  29.412  26.129  1.00  0.00    -0.206 F 
ATOM     59  C   UNL A   1      42.609  25.975  25.067  1.00  0.00     0.022 A 
BRANCH  56  60
ATOM     60  S   UNL A   1      42.277  23.507  26.311  1.00  0.00     0.124 S 
ATOM     61  O   UNL A   1      43.200  23.337  27.432  1.00  0.00    -0.237 OA
ATOM     62  O   UNL A   1      40.891  23.125  26.561  1.00  0.00    -0.237 OA
ATOM     63  O   UNL A   1      42.803  23.126  25.007  1.00  0.00    -0.744 OA
ENDBRANCH  56  60
ENDBRANCH  29  53
BRANCH  41  64
ATOM     64  C   UNL A   1      36.183  31.360  28.971  1.00  0.00     0.023 A 
ATOM     65  C   UNL A   1      35.236  30.421  28.535  1.00  0.00     0.031 A 
ATOM     66  C   UNL A   1      35.996  32.710  28.626  1.00  0.00     0.131 A 
ATOM     67  C   UNL A   1      34.181  30.835  27.711  1.00  0.00     0.055 A 
ATOM     68  C   UNL A   1      34.901  33.127  27.873  1.00  0.00     0.041 A 
ATOM     69  F   UNL A   1      36.877  33.644  29.018  1.00  0.00    -0.206 F 
ATOM     70  C   UNL A   1      33.995  32.184  27.397  1.00  0.00     0.022 A 
BRANCH  67  71
ATOM     71  S   UNL A   1      33.131  29.568  26.953  1.00  0.00     0.124 S 
ATOM     72  O   UNL A   1      33.272  28.458  27.892  1.00  0.00    -0.237 OA
ATOM     73  O   UNL A   1      31.825  30.219  26.927  1.00  0.00    -0.237 OA
ATOM     74  O   UNL A   1      33.744  29.355  25.644  1.00  0.00    -0.744 OA
ENDBRANCH  67  71
ENDBRANCH  41  64
ENDBRANCH  15  16
ENDBRANCH   8  10
ENDBRANCH   7   8
ENDBRANCH   6   7
ENDBRANCH   5   6
ENDBRANCH   4   5
ENDBRANCH   3   4
ENDBRANCH   2   3
ENDBRANCH   1   2
BRANCH   1  75
ATOM     75  C   UNL A   1      46.571  31.932  36.861  1.00  0.00     0.188 C 
BRANCH  75  76
ATOM     76  C   UNL A   1      45.376  32.733  36.314  1.00  0.00     0.188 C 
BRANCH  76  77
ATOM     77  O   UNL A   1      45.757  33.776  35.444  1.00  0.00    -0.376 OA
BRANCH  77  78
ATOM     78  C   UNL A   1      44.718  34.592  34.927  1.00  0.00     0.202 C 
BRANCH  78  79
ATOM     79  C   UNL A   1      45.007  35.814  34.018  1.00  0.00     0.261 C 
BRANCH  79  80
ATOM     80  O   UNL A   1      44.156  36.057  32.881  1.00  0.00    -0.459 OA
BRANCH  80  81
ATOM     81  C   UNL A   1      44.609  35.608  31.672  1.00  0.00     0.369 C 
ATOM     82  O   UNL A   1      45.637  36.027  31.141  1.00  0.00    -0.245 OA
BRANCH  81  83
ATOM     83  C   UNL A   1      43.680  34.564  30.970  1.00  0.00     0.324 C 
BRANCH  83  84
ATOM     84  N   UNL A   1      43.056  35.091  29.763  1.00  0.00    -0.330 N 
ATOM     85  H   UNL A   1      42.073  34.829  29.826  1.00  0.00     0.347 HD
ATOM     86  H   UNL A   1      43.667  34.696  29.048  1.00  0.00     0.347 HD
BRANCH  84  87
ATOM     87  C   UNL A   1      43.062  36.477  29.381  1.00  0.00     0.264 C 
BRANCH  87  88
ATOM     88  C   UNL A   1      42.358  36.699  28.083  1.00  0.00     0.044 C 
ATOM     89  C   UNL A   1      42.089  38.104  27.604  1.00  0.00     0.010 C 
ATOM     90  C   UNL A   1      43.103  37.249  26.897  1.00  0.00     0.010 C 
ENDBRANCH  87  88
ENDBRANCH  84  87
ENDBRANCH  83  84
BRANCH  83  91
ATOM     91  C   UNL A   1      44.426  33.264  30.772  1.00  0.00     0.021 A 
ATOM     92  C   UNL A   1      45.196  32.743  31.815  1.00  0.00     0.010 A 
ATOM     93  C   UNL A   1      44.330  32.533  29.581  1.00  0.00     0.014 A 
ATOM     94  C   UNL A   1      45.835  31.519  31.663  1.00  0.00     0.001 A 
ATOM     95  C   UNL A   1      44.865  31.249  29.432  1.00  0.00    -0.044 A 
ATOM     96  C   UNL A   1      45.652  30.775  30.493  1.00  0.00     0.004 A 
BRANCH  95  97
ATOM     97  C   UNL A   1      44.559  30.392  28.219  1.00  0.00     0.019 C 
ATOM     98  C   UNL A   1      44.794  30.934  26.820  1.00  0.00     0.009 C 
ATOM     99  C   UNL A   1      45.662  29.832  27.355  1.00  0.00     0.009 C 
ENDBRANCH  95  97
ENDBRANCH  83  91
ENDBRANCH  81  83
ENDBRANCH  80  81
ENDBRANCH  79  80
ENDBRANCH  78  79
ENDBRANCH  77  78
ENDBRANCH  76  77
ENDBRANCH  75  76
ENDBRANCH   1  75
TORSDOF 28
ENDMDL
