MODEL 1
REMARK VINA RESULT:     -11.0      0.000      0.000
REMARK SMILES CCc1cccc(C)c1Nc1ccccc1CC(=O)OCCOCCOCCOCCOC(=O)c1ccc(-c2c3nc(c(-c4cc(S(=O)(=O)[O-])ccc4F)c4ccc([nH]4)c(-c4cc(S(=O)(=O)[O-])ccc4F)c4nc(c(-c5cc(S(=O)(=O)[O-])ccc5F)c5ccc2[nH]5)C=C4)C=C3)cc1
REMARK SMILES IDX 25 1 24 2 23 3 22 4 21 5 20 6 18 7 19 8 17 9 16 10 11 11
REMARK SMILES IDX 12 12 13 13 15 14 14 15 10 16 9 18 3 19 4 20 5 21 7 22 6 23
REMARK SMILES IDX 8 24 2 25 1 26 26 27 27 28 28 29 29 30 30 31 31 32 32 33
REMARK SMILES IDX 33 34 34 35 35 36 36 37 97 38 37 39 96 40 38 41 39 42 40 43
REMARK SMILES IDX 90 44 41 45 95 46 89 47 91 48 42 49 94 50 88 51 87 52 43 54
REMARK SMILES IDX 75 55 55 56 74 57 56 58 59 59 73 60 92 61 57 62 58 63 72 65
REMARK SMILES IDX 93 66 60 67 44 68 45 69 53 70 46 71 52 72 54 73 51 74 47 75
REMARK SMILES IDX 48 76 49 77 50 78 76 79 77 80 85 81 78 82 84 83 86 84 83 85
REMARK SMILES IDX 79 86 80 87 81 88 82 89 61 90 62 91 70 92 63 93 69 94 71 95
REMARK SMILES IDX 68 96 64 97 65 98 66 99 67 100
REMARK H PARENT 10 17 91 53 59 64
REMARK Flexibility Score: inf
ROOT
ATOM      1  C   UNL A   1      41.865  23.149  27.146  1.00  0.00     0.188 C 
ENDROOT
BRANCH   1   2
ATOM      2  C   UNL A   1      39.941  23.528  27.541  1.00  0.00     0.188 C 
BRANCH   2   3
ATOM      3  O   UNL A   1      38.538  23.519  26.078  1.00  0.00    -0.376 OA
BRANCH   3   4
ATOM      4  C   UNL A   1      37.877  22.031  25.296  1.00  0.00     0.202 C 
BRANCH   4   5
ATOM      5  C   UNL A   1      36.945  22.188  23.685  1.00  0.00     0.261 C 
BRANCH   5   6
ATOM      6  O   UNL A   1      35.786  23.441  23.376  1.00  0.00    -0.463 OA
BRANCH   6   7
ATOM      7  C   UNL A   1      34.356  23.414  23.431  1.00  0.00     0.310 C 
ATOM      8  O   UNL A   1      33.710  22.865  22.538  1.00  0.00    -0.252 OA
BRANCH   7   9
ATOM      9  C   UNL A   1      33.610  24.138  24.652  1.00  0.00     0.160 C 
BRANCH   9  10
ATOM     10  C   UNL A   1      31.995  24.426  25.273  1.00  0.00    -0.013 A 
ATOM     11  C   UNL A   1      30.946  25.620  25.525  1.00  0.00     0.042 A 
ATOM     12  C   UNL A   1      29.889  25.356  26.443  1.00  0.00     0.026 A 
ATOM     13  C   UNL A   1      29.591  24.021  26.786  1.00  0.00     0.002 A 
ATOM     14  C   UNL A   1      31.558  23.128  25.666  1.00  0.00     0.006 A 
ATOM     15  C   UNL A   1      30.358  22.933  26.341  1.00  0.00     0.000 A 
BRANCH  11  16
ATOM     16  N   UNL A   1      30.063  26.543  24.277  1.00  0.00    -0.355 N 
ATOM     17  H   UNL A   1      29.131  26.690  24.554  1.00  0.00     0.167 HD
BRANCH  16  18
ATOM     18  C   UNL A   1      30.383  27.328  22.578  1.00  0.00     0.045 A 
ATOM     19  C   UNL A   1      30.281  28.757  23.569  1.00  0.00    -0.024 A 
ATOM     20  C   UNL A   1      31.588  29.347  24.274  1.00  0.00     0.006 A 
ATOM     21  C   UNL A   1      33.109  28.687  23.917  1.00  0.00     0.001 A 
ATOM     22  C   UNL A   1      32.004  26.772  21.742  1.00  0.00    -0.027 A 
ATOM     23  C   UNL A   1      33.484  27.428  22.540  1.00  0.00     0.005 A 
ATOM     24  C   UNL A   1      32.542  25.634  20.902  1.00  0.00     0.046 C 
BRANCH  19  25
ATOM     25  C   UNL A   1      29.069  29.637  23.471  1.00  0.00     0.034 C 
ATOM     26  C   UNL A   1      29.195  30.604  22.312  1.00  0.00     0.009 C 
ENDBRANCH  19  25
ENDBRANCH  16  18
ENDBRANCH  11  16
ENDBRANCH   9  10
ENDBRANCH   7   9
ENDBRANCH   6   7
ENDBRANCH   5   6
ENDBRANCH   4   5
ENDBRANCH   3   4
ENDBRANCH   2   3
ENDBRANCH   1   2
BRANCH   1  27
ATOM     27  O   UNL A   1      42.699  24.027  26.246  1.00  0.00    -0.377 OA
BRANCH  27  28
ATOM     28  C   UNL A   1      42.251  25.170  25.505  1.00  0.00     0.188 C 
BRANCH  28  29
ATOM     29  C   UNL A   1      43.270  26.255  25.032  1.00  0.00     0.188 C 
BRANCH  29  30
ATOM     30  O   UNL A   1      42.762  27.575  24.871  1.00  0.00    -0.376 OA
BRANCH  30  31
ATOM     31  C   UNL A   1      42.609  28.325  26.058  1.00  0.00     0.202 C 
BRANCH  31  32
ATOM     32  C   UNL A   1      41.131  28.591  26.348  1.00  0.00     0.261 C 
BRANCH  32  33
ATOM     33  O   UNL A   1      40.972  28.767  27.774  1.00  0.00    -0.460 OA
BRANCH  33  34
ATOM     34  C   UNL A   1      40.630  27.639  28.453  1.00  0.00     0.338 C 
ATOM     35  O   UNL A   1      39.530  27.110  28.411  1.00  0.00    -0.246 OA
BRANCH  34  36
ATOM     36  C   UNL A   1      41.733  27.205  29.368  1.00  0.00     0.060 A 
ATOM     37  C   UNL A   1      42.448  28.169  30.098  1.00  0.00     0.016 A 
ATOM     38  C   UNL A   1      42.198  25.891  29.356  1.00  0.00     0.016 A 
ATOM     39  C   UNL A   1      43.654  27.832  30.742  1.00  0.00     0.010 A 
ATOM     40  C   UNL A   1      43.428  25.579  29.936  1.00  0.00     0.010 A 
ATOM     41  C   UNL A   1      44.193  26.540  30.622  1.00  0.00    -0.014 A 
BRANCH  41  42
ATOM     42  C   UNL A   1      45.609  26.193  30.934  1.00  0.00     0.031 A 
ATOM     43  C   UNL A   1      46.759  26.391  29.956  1.00  0.00     0.074 A 
ATOM     44  C   UNL A   1      45.930  26.098  32.250  1.00  0.00     0.049 A 
ATOM     45  N   UNL A   1      48.019  26.182  30.215  1.00  0.00    -0.248 NA
ATOM     46  C   UNL A   1      46.587  26.846  28.577  1.00  0.00     0.031 C 
ATOM     47  C   UNL A   1      47.224  26.460  32.801  1.00  0.00     0.029 A 
ATOM     48  N   UNL A   1      45.204  25.817  33.397  1.00  0.00    -0.354 N 
ATOM     49  C   UNL A   1      48.789  26.844  29.277  1.00  0.00     0.074 A 
ATOM     50  C   UNL A   1      47.855  27.067  28.199  1.00  0.00     0.031 C 
ATOM     51  C   UNL A   1      47.228  26.413  34.133  1.00  0.00     0.029 A 
ATOM     52  C   UNL A   1      46.049  25.684  34.497  1.00  0.00     0.049 A 
ATOM     53  H   UNL A   1      44.225  25.724  33.429  1.00  0.00     0.167 HD
ATOM     54  C   UNL A   1      50.065  27.274  29.578  1.00  0.00     0.034 A 
ATOM     55  C   UNL A   1      46.110  24.604  35.314  1.00  0.00     0.034 A 
ATOM     56  C   UNL A   1      50.581  26.763  30.890  1.00  0.00     0.049 A 
ATOM     57  C   UNL A   1      47.468  23.928  35.108  1.00  0.00     0.074 A 
ATOM     58  C   UNL A   1      51.332  27.324  31.923  1.00  0.00     0.029 A 
ATOM     59  N   UNL A   1      50.202  25.502  31.383  1.00  0.00    -0.354 N 
ATOM     60  N   UNL A   1      48.195  24.136  34.028  1.00  0.00    -0.248 NA
ATOM     61  C   UNL A   1      48.207  23.151  36.096  1.00  0.00     0.031 C 
ATOM     62  C   UNL A   1      51.197  26.508  33.082  1.00  0.00     0.029 A 
ATOM     63  C   UNL A   1      50.542  25.342  32.718  1.00  0.00     0.049 A 
ATOM     64  H   UNL A   1      49.747  24.814  30.846  1.00  0.00     0.167 HD
ATOM     65  C   UNL A   1      49.481  23.728  34.223  1.00  0.00     0.074 A 
ATOM     66  C   UNL A   1      49.415  23.028  35.501  1.00  0.00     0.031 C 
ATOM     67  C   UNL A   1      50.518  24.039  33.378  1.00  0.00     0.034 A 
BRANCH  54  68
ATOM     68  C   UNL A   1      50.823  28.405  28.803  1.00  0.00     0.023 A 
ATOM     69  C   UNL A   1      50.149  29.600  28.430  1.00  0.00     0.031 A 
ATOM     70  C   UNL A   1      52.137  28.317  28.278  1.00  0.00     0.131 A 
ATOM     71  C   UNL A   1      50.730  30.565  27.565  1.00  0.00     0.055 A 
ATOM     72  C   UNL A   1      52.748  29.321  27.503  1.00  0.00     0.041 A 
ATOM     73  F   UNL A   1      52.897  27.228  28.416  1.00  0.00    -0.206 F 
ATOM     74  C   UNL A   1      52.040  30.445  27.126  1.00  0.00     0.022 A 
BRANCH  71  75
ATOM     75  S   UNL A   1      49.754  31.980  26.958  1.00  0.00     0.124 S 
ATOM     76  O   UNL A   1      50.492  32.359  25.758  1.00  0.00    -0.237 OA
ATOM     77  O   UNL A   1      48.434  31.398  26.750  1.00  0.00    -0.237 OA
ATOM     78  O   UNL A   1      49.833  32.940  28.059  1.00  0.00    -0.744 OA
ENDBRANCH  71  75
ENDBRANCH  54  68
BRANCH  55  79
ATOM     79  C   UNL A   1      44.753  24.193  35.766  1.00  0.00     0.023 A 
ATOM     80  C   UNL A   1      44.005  25.236  36.378  1.00  0.00     0.031 A 
ATOM     81  C   UNL A   1      44.032  23.236  35.029  1.00  0.00     0.131 A 
ATOM     82  C   UNL A   1      42.648  25.426  36.057  1.00  0.00     0.055 A 
ATOM     83  C   UNL A   1      42.675  23.429  34.719  1.00  0.00     0.041 A 
ATOM     84  F   UNL A   1      44.678  22.249  34.390  1.00  0.00    -0.206 F 
ATOM     85  C   UNL A   1      41.993  24.552  35.190  1.00  0.00     0.022 A 
BRANCH  82  86
ATOM     86  S   UNL A   1      41.807  26.972  36.546  1.00  0.00     0.124 S 
ATOM     87  O   UNL A   1      41.263  27.432  35.274  1.00  0.00    -0.237 OA
ATOM     88  O   UNL A   1      40.830  26.518  37.529  1.00  0.00    -0.237 OA
ATOM     89  O   UNL A   1      42.898  27.777  37.094  1.00  0.00    -0.744 OA
ENDBRANCH  82  86
ENDBRANCH  55  79
BRANCH  67  90
ATOM     90  C   UNL A   1      51.724  23.158  33.135  1.00  0.00     0.023 A 
ATOM     91  C   UNL A   1      53.015  23.679  33.077  1.00  0.00     0.031 A 
ATOM     92  C   UNL A   1      51.633  21.736  33.168  1.00  0.00     0.131 A 
ATOM     93  C   UNL A   1      54.131  22.831  33.034  1.00  0.00     0.055 A 
ATOM     94  C   UNL A   1      52.745  20.899  33.188  1.00  0.00     0.041 A 
ATOM     95  F   UNL A   1      50.466  21.083  33.234  1.00  0.00    -0.206 F 
ATOM     96  C   UNL A   1      54.010  21.446  33.120  1.00  0.00     0.022 A 
BRANCH  93  97
ATOM     97  S   UNL A   1      55.750  23.601  32.851  1.00  0.00     0.124 S 
ATOM     98  O   UNL A   1      55.443  25.003  33.123  1.00  0.00    -0.237 OA
ATOM     99  O   UNL A   1      56.537  22.917  33.873  1.00  0.00    -0.237 OA
ATOM    100  O   UNL A   1      56.121  23.298  31.472  1.00  0.00    -0.744 OA
ENDBRANCH  93  97
ENDBRANCH  67  90
ENDBRANCH  41  42
ENDBRANCH  34  36
ENDBRANCH  33  34
ENDBRANCH  32  33
ENDBRANCH  31  32
ENDBRANCH  30  31
ENDBRANCH  29  30
ENDBRANCH  28  29
ENDBRANCH  27  28
ENDBRANCH   1  27
TORSDOF 27
ENDMDL
MODEL 2
REMARK VINA RESULT:     -10.6      4.766      7.911
REMARK SMILES CCc1cccc(C)c1Nc1ccccc1CC(=O)OCCOCCOCCOCCOC(=O)c1ccc(-c2c3nc(c(-c4cc(S(=O)(=O)[O-])ccc4F)c4ccc([nH]4)c(-c4cc(S(=O)(=O)[O-])ccc4F)c4nc(c(-c5cc(S(=O)(=O)[O-])ccc5F)c5ccc2[nH]5)C=C4)C=C3)cc1
REMARK SMILES IDX 25 1 24 2 23 3 22 4 21 5 20 6 18 7 19 8 17 9 16 10 11 11
REMARK SMILES IDX 12 12 13 13 15 14 14 15 10 16 9 18 3 19 4 20 5 21 7 22 6 23
REMARK SMILES IDX 8 24 2 25 1 26 26 27 27 28 28 29 29 30 30 31 31 32 32 33
REMARK SMILES IDX 33 34 34 35 35 36 36 37 97 38 37 39 96 40 38 41 39 42 40 43
REMARK SMILES IDX 90 44 41 45 95 46 89 47 91 48 42 49 94 50 88 51 87 52 43 54
REMARK SMILES IDX 75 55 55 56 74 57 56 58 59 59 73 60 92 61 57 62 58 63 72 65
REMARK SMILES IDX 93 66 60 67 44 68 45 69 53 70 46 71 52 72 54 73 51 74 47 75
REMARK SMILES IDX 48 76 49 77 50 78 76 79 77 80 85 81 78 82 84 83 86 84 83 85
REMARK SMILES IDX 79 86 80 87 81 88 82 89 61 90 62 91 70 92 63 93 69 94 71 95
REMARK SMILES IDX 68 96 64 97 65 98 66 99 67 100
REMARK H PARENT 10 17 91 53 59 64
REMARK Flexibility Score: inf
ROOT
ATOM      1  C   UNL A   1      34.096  23.632  25.180  1.00  0.00     0.188 C 
ENDROOT
BRANCH   1   2
ATOM      2  C   UNL A   1      33.124  25.373  25.026  1.00  0.00     0.188 C 
BRANCH   2   3
ATOM      3  O   UNL A   1      33.367  26.847  26.396  1.00  0.00    -0.376 OA
BRANCH   3   4
ATOM      4  C   UNL A   1      33.575  28.597  25.998  1.00  0.00     0.202 C 
BRANCH   4   5
ATOM      5  C   UNL A   1      34.468  29.704  27.208  1.00  0.00     0.261 C 
BRANCH   5   6
ATOM      6  O   UNL A   1      33.706  31.032  28.022  1.00  0.00    -0.463 OA
BRANCH   6   7
ATOM      7  C   UNL A   1      32.871  32.076  27.510  1.00  0.00     0.310 C 
ATOM      8  O   UNL A   1      31.954  31.813  26.730  1.00  0.00    -0.252 OA
BRANCH   7   9
ATOM      9  C   UNL A   1      33.168  33.592  27.938  1.00  0.00     0.160 C 
BRANCH   9  10
ATOM     10  C   UNL A   1      33.564  34.547  29.355  1.00  0.00    -0.013 A 
ATOM     11  C   UNL A   1      34.266  34.416  30.796  1.00  0.00     0.042 A 
ATOM     12  C   UNL A   1      33.969  35.436  31.746  1.00  0.00     0.026 A 
ATOM     13  C   UNL A   1      33.414  36.654  31.299  1.00  0.00     0.002 A 
ATOM     14  C   UNL A   1      33.050  35.838  29.035  1.00  0.00     0.006 A 
ATOM     15  C   UNL A   1      33.042  36.873  29.963  1.00  0.00     0.000 A 
BRANCH  11  16
ATOM     16  N   UNL A   1      36.007  34.179  31.117  1.00  0.00    -0.355 N 
ATOM     17  H   UNL A   1      36.483  35.040  31.078  1.00  0.00     0.167 HD
BRANCH  16  18
ATOM     18  C   UNL A   1      37.214  32.768  31.510  1.00  0.00     0.045 A 
ATOM     19  C   UNL A   1      37.451  32.912  29.790  1.00  0.00    -0.024 A 
ATOM     20  C   UNL A   1      38.550  33.914  29.206  1.00  0.00     0.006 A 
ATOM     21  C   UNL A   1      39.611  34.710  30.263  1.00  0.00     0.001 A 
ATOM     22  C   UNL A   1      38.570  33.216  32.774  1.00  0.00    -0.027 A 
ATOM     23  C   UNL A   1      39.809  34.355  32.123  1.00  0.00     0.005 A 
ATOM     24  C   UNL A   1      38.772  33.306  34.271  1.00  0.00     0.046 C 
BRANCH  19  25
ATOM     25  C   UNL A   1      36.900  31.854  28.880  1.00  0.00     0.034 C 
ATOM     26  C   UNL A   1      37.876  30.705  28.733  1.00  0.00     0.009 C 
ENDBRANCH  19  25
ENDBRANCH  16  18
ENDBRANCH  11  16
ENDBRANCH   9  10
ENDBRANCH   7   9
ENDBRANCH   6   7
ENDBRANCH   5   6
ENDBRANCH   4   5
ENDBRANCH   3   4
ENDBRANCH   2   3
ENDBRANCH   1   2
BRANCH   1  27
ATOM     27  O   UNL A   1      34.799  22.986  24.012  1.00  0.00    -0.377 OA
BRANCH  27  28
ATOM     28  C   UNL A   1      36.169  22.564  23.960  1.00  0.00     0.188 C 
BRANCH  28  29
ATOM     29  C   UNL A   1      36.912  22.130  25.264  1.00  0.00     0.188 C 
BRANCH  29  30
ATOM     30  O   UNL A   1      38.169  21.485  25.092  1.00  0.00    -0.376 OA
BRANCH  30  31
ATOM     31  C   UNL A   1      39.129  21.730  26.099  1.00  0.00     0.202 C 
BRANCH  31  32
ATOM     32  C   UNL A   1      39.994  20.491  26.339  1.00  0.00     0.261 C 
BRANCH  32  33
ATOM     33  O   UNL A   1      40.946  20.797  27.384  1.00  0.00    -0.460 OA
BRANCH  33  34
ATOM     34  C   UNL A   1      42.201  21.085  26.944  1.00  0.00     0.338 C 
ATOM     35  O   UNL A   1      42.909  20.316  26.314  1.00  0.00    -0.246 OA
BRANCH  34  36
ATOM     36  C   UNL A   1      42.656  22.417  27.453  1.00  0.00     0.060 A 
ATOM     37  C   UNL A   1      42.733  23.508  26.572  1.00  0.00     0.016 A 
ATOM     38  C   UNL A   1      43.198  22.548  28.732  1.00  0.00     0.016 A 
ATOM     39  C   UNL A   1      43.413  24.684  26.943  1.00  0.00     0.010 A 
ATOM     40  C   UNL A   1      43.929  23.687  29.068  1.00  0.00     0.010 A 
ATOM     41  C   UNL A   1      44.072  24.769  28.181  1.00  0.00    -0.014 A 
BRANCH  41  42
ATOM     42  C   UNL A   1      45.110  25.789  28.506  1.00  0.00     0.031 A 
ATOM     43  C   UNL A   1      46.563  25.683  28.064  1.00  0.00     0.074 A 
ATOM     44  C   UNL A   1      44.656  27.027  28.834  1.00  0.00     0.049 A 
ATOM     45  N   UNL A   1      47.481  26.588  28.253  1.00  0.00    -0.248 NA
ATOM     46  C   UNL A   1      47.119  24.526  27.365  1.00  0.00     0.031 C 
ATOM     47  C   UNL A   1      45.353  28.261  28.516  1.00  0.00     0.029 A 
ATOM     48  N   UNL A   1      43.468  27.503  29.367  1.00  0.00    -0.354 N 
ATOM     49  C   UNL A   1      48.531  26.355  27.385  1.00  0.00     0.074 A 
ATOM     50  C   UNL A   1      48.332  24.975  27.008  1.00  0.00     0.031 C 
ATOM     51  C   UNL A   1      44.624  29.335  28.816  1.00  0.00     0.029 A 
ATOM     52  C   UNL A   1      43.568  28.861  29.663  1.00  0.00     0.049 A 
ATOM     53  H   UNL A   1      42.664  26.956  29.516  1.00  0.00     0.167 HD
ATOM     54  C   UNL A   1      49.342  27.384  26.954  1.00  0.00     0.034 A 
ATOM     55  C   UNL A   1      43.329  29.420  30.875  1.00  0.00     0.034 A 
ATOM     56  C   UNL A   1      49.114  28.677  27.678  1.00  0.00     0.049 A 
ATOM     57  C   UNL A   1      44.657  29.946  31.426  1.00  0.00     0.074 A 
ATOM     58  C   UNL A   1      49.068  30.015  27.286  1.00  0.00     0.029 A 
ATOM     59  N   UNL A   1      48.721  28.699  29.028  1.00  0.00    -0.354 N 
ATOM     60  N   UNL A   1      45.819  29.515  30.977  1.00  0.00    -0.248 NA
ATOM     61  C   UNL A   1      44.831  31.070  32.338  1.00  0.00     0.031 C 
ATOM     62  C   UNL A   1      48.438  30.772  28.314  1.00  0.00     0.029 A 
ATOM     63  C   UNL A   1      48.282  29.953  29.422  1.00  0.00     0.049 A 
ATOM     64  H   UNL A   1      48.751  27.916  29.624  1.00  0.00     0.167 HD
ATOM     65  C   UNL A   1      46.825  30.359  31.348  1.00  0.00     0.074 A 
ATOM     66  C   UNL A   1      46.167  31.266  32.281  1.00  0.00     0.031 C 
ATOM     67  C   UNL A   1      48.094  30.308  30.827  1.00  0.00     0.034 A 
BRANCH  54  68
ATOM     68  C   UNL A   1      50.220  27.335  25.657  1.00  0.00     0.023 A 
ATOM     69  C   UNL A   1      49.664  27.685  24.396  1.00  0.00     0.031 A 
ATOM     70  C   UNL A   1      51.539  26.824  25.565  1.00  0.00     0.131 A 
ATOM     71  C   UNL A   1      50.355  27.474  23.173  1.00  0.00     0.055 A 
ATOM     72  C   UNL A   1      52.259  26.709  24.360  1.00  0.00     0.041 A 
ATOM     73  F   UNL A   1      52.198  26.334  26.617  1.00  0.00    -0.206 F 
ATOM     74  C   UNL A   1      51.664  27.016  23.153  1.00  0.00     0.022 A 
BRANCH  71  75
ATOM     75  S   UNL A   1      49.525  27.751  21.573  1.00  0.00     0.124 S 
ATOM     76  O   UNL A   1      50.141  26.728  20.736  1.00  0.00    -0.237 OA
ATOM     77  O   UNL A   1      48.117  27.560  21.901  1.00  0.00    -0.237 OA
ATOM     78  O   UNL A   1      49.894  29.127  21.239  1.00  0.00    -0.744 OA
ENDBRANCH  71  75
ENDBRANCH  54  68
BRANCH  55  79
ATOM     79  C   UNL A   1      42.031  28.956  31.435  1.00  0.00     0.023 A 
ATOM     80  C   UNL A   1      42.152  28.228  32.651  1.00  0.00     0.031 A 
ATOM     81  C   UNL A   1      40.879  29.747  31.276  1.00  0.00     0.131 A 
ATOM     82  C   UNL A   1      41.279  28.480  33.726  1.00  0.00     0.055 A 
ATOM     83  C   UNL A   1      40.008  29.988  32.352  1.00  0.00     0.041 A 
ATOM     84  F   UNL A   1      40.721  30.494  30.173  1.00  0.00    -0.206 F 
ATOM     85  C   UNL A   1      40.236  29.396  33.596  1.00  0.00     0.022 A 
BRANCH  82  86
ATOM     86  S   UNL A   1      41.671  27.825  35.386  1.00  0.00     0.124 S 
ATOM     87  O   UNL A   1      43.124  27.940  35.417  1.00  0.00    -0.237 OA
ATOM     88  O   UNL A   1      40.942  28.724  36.274  1.00  0.00    -0.237 OA
ATOM     89  O   UNL A   1      41.146  26.461  35.331  1.00  0.00    -0.744 OA
ENDBRANCH  82  86
ENDBRANCH  55  79
BRANCH  67  90
ATOM     90  C   UNL A   1      49.349  30.691  31.581  1.00  0.00     0.023 A 
ATOM     91  C   UNL A   1      50.213  29.732  32.105  1.00  0.00     0.031 A 
ATOM     92  C   UNL A   1      49.824  32.034  31.611  1.00  0.00     0.131 A 
ATOM     93  C   UNL A   1      51.457  30.101  32.638  1.00  0.00     0.055 A 
ATOM     94  C   UNL A   1      51.085  32.389  32.085  1.00  0.00     0.041 A 
ATOM     95  F   UNL A   1      49.117  33.068  31.138  1.00  0.00    -0.206 F 
ATOM     96  C   UNL A   1      51.914  31.416  32.605  1.00  0.00     0.022 A 
BRANCH  93  97
ATOM     97  S   UNL A   1      52.455  28.801  33.387  1.00  0.00     0.124 S 
ATOM     98  O   UNL A   1      51.433  27.969  34.018  1.00  0.00    -0.237 OA
ATOM     99  O   UNL A   1      53.122  28.214  32.229  1.00  0.00    -0.237 OA
ATOM    100  O   UNL A   1      53.327  29.525  34.308  1.00  0.00    -0.744 OA
ENDBRANCH  93  97
ENDBRANCH  67  90
ENDBRANCH  41  42
ENDBRANCH  34  36
ENDBRANCH  33  34
ENDBRANCH  32  33
ENDBRANCH  31  32
ENDBRANCH  30  31
ENDBRANCH  29  30
ENDBRANCH  28  29
ENDBRANCH  27  28
ENDBRANCH   1  27
TORSDOF 27
ENDMDL
MODEL 3
REMARK VINA RESULT:     -10.5      6.020     10.468
REMARK SMILES CCc1cccc(C)c1Nc1ccccc1CC(=O)OCCOCCOCCOCCOC(=O)c1ccc(-c2c3nc(c(-c4cc(S(=O)(=O)[O-])ccc4F)c4ccc([nH]4)c(-c4cc(S(=O)(=O)[O-])ccc4F)c4nc(c(-c5cc(S(=O)(=O)[O-])ccc5F)c5ccc2[nH]5)C=C4)C=C3)cc1
REMARK SMILES IDX 25 1 24 2 23 3 22 4 21 5 20 6 18 7 19 8 17 9 16 10 11 11
REMARK SMILES IDX 12 12 13 13 15 14 14 15 10 16 9 18 3 19 4 20 5 21 7 22 6 23
REMARK SMILES IDX 8 24 2 25 1 26 26 27 27 28 28 29 29 30 30 31 31 32 32 33
REMARK SMILES IDX 33 34 34 35 35 36 36 37 97 38 37 39 96 40 38 41 39 42 40 43
REMARK SMILES IDX 90 44 41 45 95 46 89 47 91 48 42 49 94 50 88 51 87 52 43 54
REMARK SMILES IDX 75 55 55 56 74 57 56 58 59 59 73 60 92 61 57 62 58 63 72 65
REMARK SMILES IDX 93 66 60 67 44 68 45 69 53 70 46 71 52 72 54 73 51 74 47 75
REMARK SMILES IDX 48 76 49 77 50 78 76 79 77 80 85 81 78 82 84 83 86 84 83 85
REMARK SMILES IDX 79 86 80 87 81 88 82 89 61 90 62 91 70 92 63 93 69 94 71 95
REMARK SMILES IDX 68 96 64 97 65 98 66 99 67 100
REMARK H PARENT 10 17 91 53 59 64
REMARK Flexibility Score: inf
ROOT
ATOM      1  C   UNL A   1      41.820  20.327  25.882  1.00  0.00     0.188 C 
ENDROOT
BRANCH   1   2
ATOM      2  C   UNL A   1      40.238  21.020  26.890  1.00  0.00     0.188 C 
BRANCH   2   3
ATOM      3  O   UNL A   1      38.889  22.260  26.023  1.00  0.00    -0.376 OA
BRANCH   3   4
ATOM      4  C   UNL A   1      37.418  21.714  25.127  1.00  0.00     0.202 C 
BRANCH   4   5
ATOM      5  C   UNL A   1      37.009  22.504  23.485  1.00  0.00     0.261 C 
BRANCH   5   6
ATOM      6  O   UNL A   1      35.499  23.294  23.161  1.00  0.00    -0.463 OA
BRANCH   6   7
ATOM      7  C   UNL A   1      34.170  22.953  23.566  1.00  0.00     0.310 C 
ATOM      8  O   UNL A   1      33.557  22.050  22.992  1.00  0.00    -0.252 OA
BRANCH   7   9
ATOM      9  C   UNL A   1      33.478  23.784  24.749  1.00  0.00     0.160 C 
BRANCH   9  10
ATOM     10  C   UNL A   1      31.890  24.242  25.336  1.00  0.00    -0.013 A 
ATOM     11  C   UNL A   1      30.918  25.518  25.449  1.00  0.00     0.042 A 
ATOM     12  C   UNL A   1      29.854  25.428  26.393  1.00  0.00     0.026 A 
ATOM     13  C   UNL A   1      29.478  24.163  26.888  1.00  0.00     0.002 A 
ATOM     14  C   UNL A   1      31.377  23.027  25.876  1.00  0.00     0.006 A 
ATOM     15  C   UNL A   1      30.173  22.985  26.571  1.00  0.00     0.000 A 
BRANCH  11  16
ATOM     16  N   UNL A   1      30.082  26.344  24.104  1.00  0.00    -0.355 N 
ATOM     17  H   UNL A   1      29.125  26.447  24.306  1.00  0.00     0.167 HD
BRANCH  16  18
ATOM     18  C   UNL A   1      30.486  27.085  22.403  1.00  0.00     0.045 A 
ATOM     19  C   UNL A   1      30.196  28.540  23.318  1.00  0.00    -0.024 A 
ATOM     20  C   UNL A   1      31.392  29.255  24.099  1.00  0.00     0.006 A 
ATOM     21  C   UNL A   1      32.982  28.699  23.897  1.00  0.00     0.001 A 
ATOM     22  C   UNL A   1      32.208  26.624  21.727  1.00  0.00    -0.027 A 
ATOM     23  C   UNL A   1      33.563  27.421  22.612  1.00  0.00     0.005 A 
ATOM     24  C   UNL A   1      32.896  25.498  20.985  1.00  0.00     0.046 C 
BRANCH  19  25
ATOM     25  C   UNL A   1      28.936  29.319  23.082  1.00  0.00     0.034 C 
ATOM     26  C   UNL A   1      29.189  30.490  22.155  1.00  0.00     0.009 C 
ENDBRANCH  19  25
ENDBRANCH  16  18
ENDBRANCH  11  16
ENDBRANCH   9  10
ENDBRANCH   7   9
ENDBRANCH   6   7
ENDBRANCH   5   6
ENDBRANCH   4   5
ENDBRANCH   3   4
ENDBRANCH   2   3
ENDBRANCH   1   2
BRANCH   1  27
ATOM     27  O   UNL A   1      43.084  21.132  25.698  1.00  0.00    -0.377 OA
BRANCH  27  28
ATOM     28  C   UNL A   1      43.239  22.545  25.892  1.00  0.00     0.188 C 
BRANCH  28  29
ATOM     29  C   UNL A   1      44.663  23.176  26.000  1.00  0.00     0.188 C 
BRANCH  29  30
ATOM     30  O   UNL A   1      44.808  24.502  25.504  1.00  0.00    -0.376 OA
BRANCH  30  31
ATOM     31  C   UNL A   1      44.972  25.510  26.480  1.00  0.00     0.202 C 
BRANCH  31  32
ATOM     32  C   UNL A   1      46.066  26.496  26.067  1.00  0.00     0.261 C 
BRANCH  32  33
ATOM     33  O   UNL A   1      45.985  27.653  26.929  1.00  0.00    -0.460 OA
BRANCH  33  34
ATOM     34  C   UNL A   1      44.771  28.268  26.944  1.00  0.00     0.338 C 
ATOM     35  O   UNL A   1      44.164  28.629  25.949  1.00  0.00    -0.246 OA
BRANCH  34  36
ATOM     36  C   UNL A   1      44.339  28.571  28.346  1.00  0.00     0.060 A 
ATOM     37  C   UNL A   1      43.125  28.051  28.824  1.00  0.00     0.016 A 
ATOM     38  C   UNL A   1      45.012  29.520  29.113  1.00  0.00     0.016 A 
ATOM     39  C   UNL A   1      42.559  28.536  30.020  1.00  0.00     0.010 A 
ATOM     40  C   UNL A   1      44.413  30.046  30.257  1.00  0.00     0.010 A 
ATOM     41  C   UNL A   1      43.170  29.586  30.726  1.00  0.00    -0.014 A 
BRANCH  41  42
ATOM     42  C   UNL A   1      42.480  30.408  31.761  1.00  0.00     0.031 A 
ATOM     43  C   UNL A   1      41.442  31.473  31.436  1.00  0.00     0.074 A 
ATOM     44  C   UNL A   1      42.471  29.905  33.022  1.00  0.00     0.049 A 
ATOM     45  N   UNL A   1      40.756  32.154  32.309  1.00  0.00    -0.248 NA
ATOM     46  C   UNL A   1      41.084  31.874  30.077  1.00  0.00     0.031 C 
ATOM     47  C   UNL A   1      41.381  30.089  33.965  1.00  0.00     0.029 A 
ATOM     48  N   UNL A   1      43.295  29.030  33.713  1.00  0.00    -0.354 N 
ATOM     49  C   UNL A   1      39.649  32.702  31.687  1.00  0.00     0.074 A 
ATOM     50  C   UNL A   1      40.013  32.653  30.291  1.00  0.00     0.031 C 
ATOM     51  C   UNL A   1      41.556  29.372  35.074  1.00  0.00     0.029 A 
ATOM     52  C   UNL A   1      42.930  28.961  35.056  1.00  0.00     0.049 A 
ATOM     53  H   UNL A   1      44.038  28.526  33.309  1.00  0.00     0.167 HD
ATOM     54  C   UNL A   1      38.496  32.975  32.394  1.00  0.00     0.034 A 
ATOM     55  C   UNL A   1      43.753  29.200  36.107  1.00  0.00     0.034 A 
ATOM     56  C   UNL A   1      38.651  32.838  33.879  1.00  0.00     0.049 A 
ATOM     57  C   UNL A   1      43.283  30.483  36.797  1.00  0.00     0.074 A 
ATOM     58  C   UNL A   1      37.844  32.328  34.896  1.00  0.00     0.029 A 
ATOM     59  N   UNL A   1      39.871  33.124  34.516  1.00  0.00    -0.354 N 
ATOM     60  N   UNL A   1      42.517  31.365  36.186  1.00  0.00    -0.248 NA
ATOM     61  C   UNL A   1      43.441  30.814  38.208  1.00  0.00     0.031 C 
ATOM     62  C   UNL A   1      38.649  32.103  36.049  1.00  0.00     0.029 A 
ATOM     63  C   UNL A   1      39.898  32.661  35.822  1.00  0.00     0.049 A 
ATOM     64  H   UNL A   1      40.620  33.597  34.086  1.00  0.00     0.167 HD
ATOM     65  C   UNL A   1      41.949  32.219  37.084  1.00  0.00     0.074 A 
ATOM     66  C   UNL A   1      42.636  31.893  38.329  1.00  0.00     0.031 C 
ATOM     67  C   UNL A   1      40.922  33.077  36.777  1.00  0.00     0.034 A 
BRANCH  54  68
ATOM     68  C   UNL A   1      37.079  33.137  31.747  1.00  0.00     0.023 A 
ATOM     69  C   UNL A   1      36.235  34.220  32.118  1.00  0.00     0.031 A 
ATOM     70  C   UNL A   1      36.445  32.203  30.889  1.00  0.00     0.131 A 
ATOM     71  C   UNL A   1      34.878  34.304  31.710  1.00  0.00     0.055 A 
ATOM     72  C   UNL A   1      35.130  32.341  30.405  1.00  0.00     0.041 A 
ATOM     73  F   UNL A   1      37.023  31.059  30.515  1.00  0.00    -0.206 F 
ATOM     74  C   UNL A   1      34.331  33.384  30.828  1.00  0.00     0.022 A 
BRANCH  71  75
ATOM     75  S   UNL A   1      33.784  35.604  32.372  1.00  0.00     0.124 S 
ATOM     76  O   UNL A   1      33.646  36.492  31.224  1.00  0.00    -0.237 OA
ATOM     77  O   UNL A   1      32.593  34.858  32.760  1.00  0.00    -0.237 OA
ATOM     78  O   UNL A   1      34.553  36.153  33.489  1.00  0.00    -0.744 OA
ENDBRANCH  71  75
ENDBRANCH  54  68
BRANCH  55  79
ATOM     79  C   UNL A   1      45.029  28.446  35.973  1.00  0.00     0.023 A 
ATOM     80  C   UNL A   1      44.876  27.033  36.020  1.00  0.00     0.031 A 
ATOM     81  C   UNL A   1      46.055  28.951  35.154  1.00  0.00     0.131 A 
ATOM     82  C   UNL A   1      45.562  26.208  35.108  1.00  0.00     0.055 A 
ATOM     83  C   UNL A   1      46.741  28.120  34.252  1.00  0.00     0.041 A 
ATOM     84  F   UNL A   1      46.229  30.276  35.030  1.00  0.00    -0.206 F 
ATOM     85  C   UNL A   1      46.459  26.755  34.190  1.00  0.00     0.022 A 
BRANCH  82  86
ATOM     86  S   UNL A   1      45.078  24.457  34.927  1.00  0.00     0.124 S 
ATOM     87  O   UNL A   1      45.186  23.973  36.299  1.00  0.00    -0.237 OA
ATOM     88  O   UNL A   1      43.725  24.543  34.388  1.00  0.00    -0.237 OA
ATOM     89  O   UNL A   1      46.077  23.937  33.994  1.00  0.00    -0.744 OA
ENDBRANCH  82  86
ENDBRANCH  55  79
BRANCH  67  90
ATOM     90  C   UNL A   1      40.701  34.422  37.433  1.00  0.00     0.023 A 
ATOM     91  C   UNL A   1      40.037  34.545  38.653  1.00  0.00     0.031 A 
ATOM     92  C   UNL A   1      41.339  35.603  36.955  1.00  0.00     0.131 A 
ATOM     93  C   UNL A   1      40.002  35.773  39.330  1.00  0.00     0.055 A 
ATOM     94  C   UNL A   1      41.353  36.804  37.661  1.00  0.00     0.041 A 
ATOM     95  F   UNL A   1      42.024  35.647  35.806  1.00  0.00    -0.206 F 
ATOM     96  C   UNL A   1      40.679  36.895  38.862  1.00  0.00     0.022 A 
BRANCH  93  97
ATOM     97  S   UNL A   1      39.028  35.854  40.845  1.00  0.00     0.124 S 
ATOM     98  O   UNL A   1      38.463  37.198  40.762  1.00  0.00    -0.237 OA
ATOM     99  O   UNL A   1      38.081  34.758  40.666  1.00  0.00    -0.237 OA
ATOM    100  O   UNL A   1      40.018  35.657  41.900  1.00  0.00    -0.744 OA
ENDBRANCH  93  97
ENDBRANCH  67  90
ENDBRANCH  41  42
ENDBRANCH  34  36
ENDBRANCH  33  34
ENDBRANCH  32  33
ENDBRANCH  31  32
ENDBRANCH  30  31
ENDBRANCH  29  30
ENDBRANCH  28  29
ENDBRANCH  27  28
ENDBRANCH   1  27
TORSDOF 27
ENDMDL
