MODEL 1
REMARK VINA RESULT:     -10.3      0.000      0.000
REMARK SMILES CCn1ccc([C@@H](C)NC(=O)[C@H](C)n2ccc(C(=O)OCCOCCOCCOCCOC(=O)c3ccc(-c4c5nc(c(-c6cc(S(=O)(=O)[O-])ccc6F)c6ccc([nH]6)c(-c6cc(S(=O)(=O)[O-])ccc6F)c6nc(c(-c7cc(S(=O)(=O)[O-])ccc7F)c7ccc4[nH]7)C=C6)C=C5)cc3)n2)n1
REMARK SMILES IDX 25 1 24 2 23 3 22 4 21 5 20 6 18 7 19 8 17 9 14 10 15 11
REMARK SMILES IDX 98 12 16 13 12 14 13 15 10 16 9 17 11 19 7 20 8 21 6 22 3 23
REMARK SMILES IDX 4 24 99 25 5 26 2 27 1 28 26 29 27 30 28 31 29 32 30 33
REMARK SMILES IDX 31 34 32 35 33 36 34 37 35 38 36 39 97 40 37 41 96 42 38 43
REMARK SMILES IDX 39 44 40 45 90 46 41 47 95 48 89 49 91 50 42 51 94 52 88 53
REMARK SMILES IDX 87 54 43 56 75 57 55 58 74 59 56 60 59 61 73 62 92 63 57 64
REMARK SMILES IDX 58 65 72 67 93 68 60 69 44 70 45 71 53 72 46 73 52 74 54 75
REMARK SMILES IDX 51 76 47 77 48 78 49 79 50 80 76 81 77 82 85 83 78 84 84 85
REMARK SMILES IDX 86 86 83 87 79 88 80 89 81 90 82 91 61 92 62 93 70 94 63 95
REMARK SMILES IDX 69 96 71 97 68 98 64 99 65 100 66 101 67 102
REMARK H PARENT 9 18 91 55 59 66
REMARK Flexibility Score: inf
ROOT
ATOM      1  C   UNL A   1      30.471  26.643  25.711  1.00  0.00     0.188 C 
ENDROOT
BRANCH   1   2
ATOM      2  C   UNL A   1      31.592  25.814  26.376  1.00  0.00     0.188 C 
BRANCH   2   3
ATOM      3  O   UNL A   1      31.361  24.522  26.924  1.00  0.00    -0.376 OA
BRANCH   3   4
ATOM      4  C   UNL A   1      30.653  23.506  26.235  1.00  0.00     0.202 C 
BRANCH   4   5
ATOM      5  C   UNL A   1      31.073  22.968  24.857  1.00  0.00     0.261 C 
BRANCH   5   6
ATOM      6  O   UNL A   1      30.599  23.675  23.715  1.00  0.00    -0.458 OA
BRANCH   6   7
ATOM      7  C   UNL A   1      31.487  24.507  23.110  1.00  0.00     0.358 C 
ATOM      8  O   UNL A   1      31.220  25.638  22.698  1.00  0.00    -0.244 OA
BRANCH   7   9
ATOM      9  C   UNL A   1      32.856  23.978  23.157  1.00  0.00     0.170 A 
ATOM     10  N   UNL A   1      34.873  23.663  23.788  1.00  0.00    -0.260 N 
ATOM     11  C   UNL A   1      34.767  22.975  22.611  1.00  0.00     0.110 A 
ATOM     12  N   UNL A   1      33.747  24.331  24.102  1.00  0.00    -0.165 NA
ATOM     13  C   UNL A   1      33.465  23.124  22.199  1.00  0.00     0.057 A 
BRANCH  10  14
ATOM     14  C   UNL A   1      36.011  23.632  24.707  1.00  0.00     0.193 C 
ATOM     15  C   UNL A   1      35.668  24.275  26.049  1.00  0.00     0.044 C 
BRANCH  14  16
ATOM     16  C   UNL A   1      36.558  22.215  24.878  1.00  0.00     0.245 C 
ATOM     17  N   UNL A   1      35.723  21.201  25.260  1.00  0.00    -0.346 N 
ATOM     18  H   UNL A   1      36.162  20.340  25.446  1.00  0.00     0.164 HD
ATOM     19  O   UNL A   1      37.735  21.924  24.647  1.00  0.00    -0.273 OA
BRANCH  17  20
ATOM     20  C   UNL A   1      34.274  21.211  25.428  1.00  0.00     0.130 C 
ATOM     21  C   UNL A   1      33.869  21.213  26.900  1.00  0.00     0.038 C 
BRANCH  20  22
ATOM     22  C   UNL A   1      33.736  20.011  24.698  1.00  0.00     0.084 A 
ATOM     23  N   UNL A   1      33.608  18.010  24.012  1.00  0.00    -0.273 N 
ATOM     24  C   UNL A   1      32.472  18.601  23.544  1.00  0.00     0.109 A 
ATOM     25  N   UNL A   1      34.406  18.849  24.700  1.00  0.00    -0.176 NA
ATOM     26  C   UNL A   1      32.519  19.904  23.976  1.00  0.00     0.047 A 
BRANCH  23  27
ATOM     27  C   UNL A   1      34.010  16.631  23.821  1.00  0.00     0.141 C 
ATOM     28  C   UNL A   1      34.006  15.844  25.118  1.00  0.00     0.029 C 
ENDBRANCH  23  27
ENDBRANCH  20  22
ENDBRANCH  17  20
ENDBRANCH  14  16
ENDBRANCH  10  14
ENDBRANCH   7   9
ENDBRANCH   6   7
ENDBRANCH   5   6
ENDBRANCH   4   5
ENDBRANCH   3   4
ENDBRANCH   2   3
ENDBRANCH   1   2
BRANCH   1  29
ATOM     29  O   UNL A   1      30.847  27.974  25.412  1.00  0.00    -0.377 OA
BRANCH  29  30
ATOM     30  C   UNL A   1      32.163  28.363  25.801  1.00  0.00     0.188 C 
BRANCH  30  31
ATOM     31  C   UNL A   1      32.343  29.312  27.016  1.00  0.00     0.188 C 
BRANCH  31  32
ATOM     32  O   UNL A   1      33.674  29.405  27.511  1.00  0.00    -0.376 OA
BRANCH  32  33
ATOM     33  C   UNL A   1      34.470  30.555  27.280  1.00  0.00     0.202 C 
BRANCH  33  34
ATOM     34  C   UNL A   1      35.330  31.016  28.451  1.00  0.00     0.261 C 
BRANCH  34  35
ATOM     35  O   UNL A   1      35.932  29.944  29.147  1.00  0.00    -0.460 OA
BRANCH  35  36
ATOM     36  C   UNL A   1      37.218  30.135  29.478  1.00  0.00     0.338 C 
ATOM     37  O   UNL A   1      37.689  31.090  30.095  1.00  0.00    -0.246 OA
BRANCH  36  38
ATOM     38  C   UNL A   1      38.003  29.063  28.878  1.00  0.00     0.060 A 
ATOM     39  C   UNL A   1      38.487  28.101  29.762  1.00  0.00     0.016 A 
ATOM     40  C   UNL A   1      38.573  29.297  27.614  1.00  0.00     0.016 A 
ATOM     41  C   UNL A   1      39.745  27.617  29.526  1.00  0.00     0.010 A 
ATOM     42  C   UNL A   1      39.843  28.845  27.402  1.00  0.00     0.010 A 
ATOM     43  C   UNL A   1      40.442  28.108  28.416  1.00  0.00    -0.014 A 
BRANCH  43  44
ATOM     44  C   UNL A   1      41.839  27.788  28.308  1.00  0.00     0.031 A 
ATOM     45  C   UNL A   1      42.048  26.481  27.669  1.00  0.00     0.074 A 
ATOM     46  C   UNL A   1      42.799  28.656  28.670  1.00  0.00     0.049 A 
ATOM     47  N   UNL A   1      42.393  25.376  28.238  1.00  0.00    -0.248 NA
ATOM     48  C   UNL A   1      41.573  26.328  26.284  1.00  0.00     0.031 C 
ATOM     49  C   UNL A   1      42.665  30.069  29.031  1.00  0.00     0.029 A 
ATOM     50  N   UNL A   1      44.140  28.464  28.679  1.00  0.00    -0.354 N 
ATOM     51  C   UNL A   1      42.433  24.448  27.209  1.00  0.00     0.074 A 
ATOM     52  C   UNL A   1      41.658  25.006  26.138  1.00  0.00     0.031 C 
ATOM     53  C   UNL A   1      43.887  30.653  28.988  1.00  0.00     0.029 A 
ATOM     54  C   UNL A   1      44.889  29.633  28.720  1.00  0.00     0.049 A 
ATOM     55  H   UNL A   1      44.550  27.569  28.659  1.00  0.00     0.167 HD
ATOM     56  C   UNL A   1      43.363  23.458  27.205  1.00  0.00     0.034 A 
ATOM     57  C   UNL A   1      46.218  29.737  28.447  1.00  0.00     0.034 A 
ATOM     58  C   UNL A   1      43.912  23.261  28.531  1.00  0.00     0.049 A 
ATOM     59  C   UNL A   1      46.793  28.371  28.602  1.00  0.00     0.074 A 
ATOM     60  C   UNL A   1      43.359  22.962  29.762  1.00  0.00     0.029 A 
ATOM     61  N   UNL A   1      45.159  23.782  28.803  1.00  0.00    -0.354 N 
ATOM     62  N   UNL A   1      46.831  27.734  29.743  1.00  0.00    -0.248 NA
ATOM     63  C   UNL A   1      46.852  27.517  27.423  1.00  0.00     0.031 C 
ATOM     64  C   UNL A   1      44.081  23.759  30.698  1.00  0.00     0.029 A 
ATOM     65  C   UNL A   1      45.086  24.442  30.007  1.00  0.00     0.049 A 
ATOM     66  H   UNL A   1      45.960  23.696  28.236  1.00  0.00     0.167 HD
ATOM     67  C   UNL A   1      46.493  26.420  29.440  1.00  0.00     0.074 A 
ATOM     68  C   UNL A   1      46.607  26.329  27.986  1.00  0.00     0.031 C 
ATOM     69  C   UNL A   1      45.873  25.614  30.353  1.00  0.00     0.034 A 
BRANCH  56  70
ATOM     70  C   UNL A   1      44.045  22.963  25.949  1.00  0.00     0.023 A 
ATOM     71  C   UNL A   1      44.050  21.575  25.741  1.00  0.00     0.031 A 
ATOM     72  C   UNL A   1      44.906  23.710  25.106  1.00  0.00     0.131 A 
ATOM     73  C   UNL A   1      44.941  20.984  24.830  1.00  0.00     0.055 A 
ATOM     74  C   UNL A   1      45.740  23.124  24.152  1.00  0.00     0.041 A 
ATOM     75  F   UNL A   1      45.071  25.033  25.206  1.00  0.00    -0.206 F 
ATOM     76  C   UNL A   1      45.787  21.749  24.033  1.00  0.00     0.022 A 
BRANCH  73  77
ATOM     77  S   UNL A   1      45.102  19.184  24.843  1.00  0.00     0.124 S 
ATOM     78  O   UNL A   1      44.886  18.862  23.437  1.00  0.00    -0.237 OA
ATOM     79  O   UNL A   1      46.461  19.012  25.343  1.00  0.00    -0.237 OA
ATOM     80  O   UNL A   1      44.042  18.758  25.752  1.00  0.00    -0.744 OA
ENDBRANCH  73  77
ENDBRANCH  56  70
BRANCH  57  81
ATOM     81  C   UNL A   1      46.878  30.836  27.682  1.00  0.00     0.023 A 
ATOM     82  C   UNL A   1      46.182  31.974  27.219  1.00  0.00     0.031 A 
ATOM     83  C   UNL A   1      48.289  30.882  27.591  1.00  0.00     0.131 A 
ATOM     84  C   UNL A   1      46.894  33.081  26.692  1.00  0.00     0.055 A 
ATOM     85  C   UNL A   1      48.984  31.973  27.063  1.00  0.00     0.041 A 
ATOM     86  F   UNL A   1      49.053  29.898  28.090  1.00  0.00    -0.206 F 
ATOM     87  C   UNL A   1      48.288  33.082  26.618  1.00  0.00     0.022 A 
BRANCH  84  88
ATOM     88  S   UNL A   1      46.010  34.585  26.162  1.00  0.00     0.124 S 
ATOM     89  O   UNL A   1      46.180  34.551  24.714  1.00  0.00    -0.237 OA
ATOM     90  O   UNL A   1      44.661  34.348  26.664  1.00  0.00    -0.237 OA
ATOM     91  O   UNL A   1      46.733  35.663  26.839  1.00  0.00    -0.744 OA
ENDBRANCH  84  88
ENDBRANCH  57  81
BRANCH  69  92
ATOM     92  C   UNL A   1      45.819  26.062  31.802  1.00  0.00     0.023 A 
ATOM     93  C   UNL A   1      44.678  26.589  32.450  1.00  0.00     0.031 A 
ATOM     94  C   UNL A   1      46.952  25.795  32.592  1.00  0.00     0.131 A 
ATOM     95  C   UNL A   1      44.706  26.828  33.841  1.00  0.00     0.055 A 
ATOM     96  C   UNL A   1      46.968  26.012  33.969  1.00  0.00     0.041 A 
ATOM     97  F   UNL A   1      48.058  25.268  32.038  1.00  0.00    -0.206 F 
ATOM     98  C   UNL A   1      45.844  26.532  34.599  1.00  0.00     0.022 A 
BRANCH  95  99
ATOM     99  S   UNL A   1      43.258  27.528  34.700  1.00  0.00     0.124 S 
ATOM    100  O   UNL A   1      42.257  26.473  34.596  1.00  0.00    -0.237 OA
ATOM    101  O   UNL A   1      43.780  27.787  36.040  1.00  0.00    -0.237 OA
ATOM    102  O   UNL A   1      42.952  28.734  33.927  1.00  0.00    -0.744 OA
ENDBRANCH  95  99
ENDBRANCH  69  92
ENDBRANCH  43  44
ENDBRANCH  36  38
ENDBRANCH  35  36
ENDBRANCH  34  35
ENDBRANCH  33  34
ENDBRANCH  32  33
ENDBRANCH  31  32
ENDBRANCH  30  31
ENDBRANCH  29  30
ENDBRANCH   1  29
TORSDOF 28
ENDMDL
MODEL 2
REMARK VINA RESULT:     -10.1      4.566     10.949
REMARK SMILES CCn1ccc([C@@H](C)NC(=O)[C@H](C)n2ccc(C(=O)OCCOCCOCCOCCOC(=O)c3ccc(-c4c5nc(c(-c6cc(S(=O)(=O)[O-])ccc6F)c6ccc([nH]6)c(-c6cc(S(=O)(=O)[O-])ccc6F)c6nc(c(-c7cc(S(=O)(=O)[O-])ccc7F)c7ccc4[nH]7)C=C6)C=C5)cc3)n2)n1
REMARK SMILES IDX 25 1 24 2 23 3 22 4 21 5 20 6 18 7 19 8 17 9 14 10 15 11
REMARK SMILES IDX 98 12 16 13 12 14 13 15 10 16 9 17 11 19 7 20 8 21 6 22 3 23
REMARK SMILES IDX 4 24 99 25 5 26 2 27 1 28 26 29 27 30 28 31 29 32 30 33
REMARK SMILES IDX 31 34 32 35 33 36 34 37 35 38 36 39 97 40 37 41 96 42 38 43
REMARK SMILES IDX 39 44 40 45 90 46 41 47 95 48 89 49 91 50 42 51 94 52 88 53
REMARK SMILES IDX 87 54 43 56 75 57 55 58 74 59 56 60 59 61 73 62 92 63 57 64
REMARK SMILES IDX 58 65 72 67 93 68 60 69 44 70 45 71 53 72 46 73 52 74 54 75
REMARK SMILES IDX 51 76 47 77 48 78 49 79 50 80 76 81 77 82 85 83 78 84 84 85
REMARK SMILES IDX 86 86 83 87 79 88 80 89 81 90 82 91 61 92 62 93 70 94 63 95
REMARK SMILES IDX 69 96 71 97 68 98 64 99 65 100 66 101 67 102
REMARK H PARENT 9 18 91 55 59 66
REMARK Flexibility Score: inf
ROOT
ATOM      1  C   UNL A   1      36.942  22.439  25.790  1.00  0.00     0.188 C 
ENDROOT
BRANCH   1   2
ATOM      2  C   UNL A   1      37.320  23.149  24.471  1.00  0.00     0.188 C 
BRANCH   2   3
ATOM      3  O   UNL A   1      36.405  23.285  23.390  1.00  0.00    -0.376 OA
BRANCH   3   4
ATOM      4  C   UNL A   1      35.048  23.653  23.568  1.00  0.00     0.202 C 
BRANCH   4   5
ATOM      5  C   UNL A   1      33.901  23.097  22.708  1.00  0.00     0.261 C 
BRANCH   5   6
ATOM      6  O   UNL A   1      32.681  23.832  22.704  1.00  0.00    -0.458 OA
BRANCH   6   7
ATOM      7  C   UNL A   1      32.650  24.946  21.926  1.00  0.00     0.358 C 
ATOM      8  O   UNL A   1      32.907  24.966  20.721  1.00  0.00    -0.244 OA
BRANCH   7   9
ATOM      9  C   UNL A   1      32.103  26.104  22.645  1.00  0.00     0.170 A 
ATOM     10  N   UNL A   1      31.745  27.522  24.202  1.00  0.00    -0.260 N 
ATOM     11  C   UNL A   1      30.831  27.833  23.234  1.00  0.00     0.110 A 
ATOM     12  N   UNL A   1      32.480  26.438  23.893  1.00  0.00    -0.165 NA
ATOM     13  C   UNL A   1      31.064  26.963  22.197  1.00  0.00     0.057 A 
BRANCH  10  14
ATOM     14  C   UNL A   1      32.021  28.301  25.410  1.00  0.00     0.193 C 
ATOM     15  C   UNL A   1      32.052  27.415  26.654  1.00  0.00     0.044 C 
BRANCH  14  16
ATOM     16  C   UNL A   1      33.299  29.127  25.267  1.00  0.00     0.245 C 
ATOM     17  N   UNL A   1      33.419  30.319  25.927  1.00  0.00    -0.346 N 
ATOM     18  H   UNL A   1      34.225  30.842  25.710  1.00  0.00     0.164 HD
ATOM     19  O   UNL A   1      34.266  28.747  24.601  1.00  0.00    -0.273 OA
BRANCH  17  20
ATOM     20  C   UNL A   1      32.527  30.927  26.908  1.00  0.00     0.130 C 
ATOM     21  C   UNL A   1      31.287  31.531  26.257  1.00  0.00     0.038 C 
BRANCH  20  22
ATOM     22  C   UNL A   1      33.329  31.958  27.656  1.00  0.00     0.084 A 
ATOM     23  N   UNL A   1      33.947  33.867  28.334  1.00  0.00    -0.273 N 
ATOM     24  C   UNL A   1      34.725  32.993  29.033  1.00  0.00     0.109 A 
ATOM     25  N   UNL A   1      33.103  33.267  27.475  1.00  0.00    -0.176 NA
ATOM     26  C   UNL A   1      34.347  31.739  28.620  1.00  0.00     0.047 A 
BRANCH  23  27
ATOM     27  C   UNL A   1      33.970  35.314  28.429  1.00  0.00     0.141 C 
ATOM     28  C   UNL A   1      32.706  35.872  29.056  1.00  0.00     0.029 C 
ENDBRANCH  23  27
ENDBRANCH  20  22
ENDBRANCH  17  20
ENDBRANCH  14  16
ENDBRANCH  10  14
ENDBRANCH   7   9
ENDBRANCH   6   7
ENDBRANCH   5   6
ENDBRANCH   4   5
ENDBRANCH   3   4
ENDBRANCH   2   3
ENDBRANCH   1   2
BRANCH   1  29
ATOM     29  O   UNL A   1      37.024  21.028  25.721  1.00  0.00    -0.377 OA
BRANCH  29  30
ATOM     30  C   UNL A   1      38.153  20.491  25.035  1.00  0.00     0.188 C 
BRANCH  30  31
ATOM     31  C   UNL A   1      39.486  20.298  25.807  1.00  0.00     0.188 C 
BRANCH  31  32
ATOM     32  O   UNL A   1      40.268  21.478  25.954  1.00  0.00    -0.376 OA
BRANCH  32  33
ATOM     33  C   UNL A   1      40.352  22.159  27.194  1.00  0.00     0.202 C 
BRANCH  33  34
ATOM     34  C   UNL A   1      41.275  23.372  27.228  1.00  0.00     0.261 C 
BRANCH  34  35
ATOM     35  O   UNL A   1      40.647  24.525  27.750  1.00  0.00    -0.460 OA
BRANCH  35  36
ATOM     36  C   UNL A   1      40.504  25.536  26.880  1.00  0.00     0.338 C 
ATOM     37  O   UNL A   1      40.981  25.611  25.748  1.00  0.00    -0.246 OA
BRANCH  36  38
ATOM     38  C   UNL A   1      39.771  26.605  27.547  1.00  0.00     0.060 A 
ATOM     39  C   UNL A   1      40.048  27.896  27.102  1.00  0.00     0.016 A 
ATOM     40  C   UNL A   1      39.222  26.334  28.812  1.00  0.00     0.016 A 
ATOM     41  C   UNL A   1      40.101  28.883  28.049  1.00  0.00     0.010 A 
ATOM     42  C   UNL A   1      39.314  27.308  29.762  1.00  0.00     0.010 A 
ATOM     43  C   UNL A   1      39.860  28.529  29.381  1.00  0.00    -0.014 A 
BRANCH  43  44
ATOM     44  C   UNL A   1      40.153  29.504  30.395  1.00  0.00     0.031 A 
ATOM     45  C   UNL A   1      39.002  30.381  30.653  1.00  0.00     0.074 A 
ATOM     46  C   UNL A   1      41.317  29.506  31.067  1.00  0.00     0.049 A 
ATOM     47  N   UNL A   1      38.851  31.607  30.281  1.00  0.00    -0.248 NA
ATOM     48  C   UNL A   1      37.774  29.746  31.159  1.00  0.00     0.031 C 
ATOM     49  C   UNL A   1      42.374  28.493  31.067  1.00  0.00     0.029 A 
ATOM     50  N   UNL A   1      41.746  30.395  31.995  1.00  0.00    -0.354 N 
ATOM     51  C   UNL A   1      37.599  31.967  30.754  1.00  0.00     0.074 A 
ATOM     52  C   UNL A   1      36.900  30.740  31.006  1.00  0.00     0.031 C 
ATOM     53  C   UNL A   1      43.193  28.711  32.124  1.00  0.00     0.029 A 
ATOM     54  C   UNL A   1      42.790  29.941  32.788  1.00  0.00     0.049 A 
ATOM     55  H   UNL A   1      41.349  31.290  32.098  1.00  0.00     0.167 HD
ATOM     56  C   UNL A   1      37.364  33.227  31.204  1.00  0.00     0.034 A 
ATOM     57  C   UNL A   1      43.204  30.499  33.959  1.00  0.00     0.034 A 
ATOM     58  C   UNL A   1      38.367  34.146  30.707  1.00  0.00     0.049 A 
ATOM     59  C   UNL A   1      42.704  31.903  33.959  1.00  0.00     0.074 A 
ATOM     60  C   UNL A   1      38.799  34.502  29.443  1.00  0.00     0.029 A 
ATOM     61  N   UNL A   1      39.373  34.538  31.564  1.00  0.00    -0.354 N 
ATOM     62  N   UNL A   1      43.105  32.808  33.105  1.00  0.00    -0.248 NA
ATOM     63  C   UNL A   1      41.402  32.165  34.560  1.00  0.00     0.031 C 
ATOM     64  C   UNL A   1      40.214  34.628  29.555  1.00  0.00     0.029 A 
ATOM     65  C   UNL A   1      40.567  34.424  30.892  1.00  0.00     0.049 A 
ATOM     66  H   UNL A   1      39.257  34.846  32.493  1.00  0.00     0.167 HD
ATOM     67  C   UNL A   1      41.959  33.507  32.746  1.00  0.00     0.074 A 
ATOM     68  C   UNL A   1      40.959  33.126  33.742  1.00  0.00     0.031 C 
ATOM     69  C   UNL A   1      41.837  34.095  31.518  1.00  0.00     0.034 A 
BRANCH  56  70
ATOM     70  C   UNL A   1      36.481  33.535  32.393  1.00  0.00     0.023 A 
ATOM     71  C   UNL A   1      35.443  34.457  32.184  1.00  0.00     0.031 A 
ATOM     72  C   UNL A   1      36.745  33.208  33.746  1.00  0.00     0.131 A 
ATOM     73  C   UNL A   1      34.805  35.082  33.267  1.00  0.00     0.055 A 
ATOM     74  C   UNL A   1      36.059  33.780  34.819  1.00  0.00     0.041 A 
ATOM     75  F   UNL A   1      37.734  32.395  34.131  1.00  0.00    -0.206 F 
ATOM     76  C   UNL A   1      35.105  34.751  34.585  1.00  0.00     0.022 A 
BRANCH  73  77
ATOM     77  S   UNL A   1      33.705  36.473  32.919  1.00  0.00     0.124 S 
ATOM     78  O   UNL A   1      33.865  37.281  34.123  1.00  0.00    -0.237 OA
ATOM     79  O   UNL A   1      34.288  37.013  31.696  1.00  0.00    -0.237 OA
ATOM     80  O   UNL A   1      32.399  35.838  32.762  1.00  0.00    -0.744 OA
ENDBRANCH  73  77
ENDBRANCH  56  70
BRANCH  57  81
ATOM     81  C   UNL A   1      43.621  29.764  35.189  1.00  0.00     0.023 A 
ATOM     82  C   UNL A   1      42.911  28.656  35.698  1.00  0.00     0.031 A 
ATOM     83  C   UNL A   1      44.889  30.016  35.764  1.00  0.00     0.131 A 
ATOM     84  C   UNL A   1      43.468  27.867  36.736  1.00  0.00     0.055 A 
ATOM     85  C   UNL A   1      45.429  29.239  36.791  1.00  0.00     0.041 A 
ATOM     86  F   UNL A   1      45.691  30.982  35.289  1.00  0.00    -0.206 F 
ATOM     87  C   UNL A   1      44.722  28.154  37.277  1.00  0.00     0.022 A 
BRANCH  84  88
ATOM     88  S   UNL A   1      42.592  26.389  37.349  1.00  0.00     0.124 S 
ATOM     89  O   UNL A   1      43.225  26.169  38.644  1.00  0.00    -0.237 OA
ATOM     90  O   UNL A   1      41.203  26.835  37.372  1.00  0.00    -0.237 OA
ATOM     91  O   UNL A   1      42.890  25.372  36.340  1.00  0.00    -0.744 OA
ENDBRANCH  84  88
ENDBRANCH  57  81
BRANCH  69  92
ATOM     92  C   UNL A   1      43.075  34.239  30.653  1.00  0.00     0.023 A 
ATOM     93  C   UNL A   1      43.560  33.260  29.754  1.00  0.00     0.031 A 
ATOM     94  C   UNL A   1      43.701  35.499  30.643  1.00  0.00     0.131 A 
ATOM     95  C   UNL A   1      44.633  33.566  28.891  1.00  0.00     0.055 A 
ATOM     96  C   UNL A   1      44.747  35.803  29.774  1.00  0.00     0.041 A 
ATOM     97  F   UNL A   1      43.269  36.479  31.455  1.00  0.00    -0.206 F 
ATOM     98  C   UNL A   1      45.219  34.837  28.895  1.00  0.00     0.022 A 
BRANCH  95  99
ATOM     99  S   UNL A   1      45.294  32.317  27.738  1.00  0.00     0.124 S 
ATOM    100  O   UNL A   1      44.098  31.775  27.104  1.00  0.00    -0.237 OA
ATOM    101  O   UNL A   1      46.170  33.111  26.881  1.00  0.00    -0.237 OA
ATOM    102  O   UNL A   1      45.995  31.378  28.616  1.00  0.00    -0.744 OA
ENDBRANCH  95  99
ENDBRANCH  69  92
ENDBRANCH  43  44
ENDBRANCH  36  38
ENDBRANCH  35  36
ENDBRANCH  34  35
ENDBRANCH  33  34
ENDBRANCH  32  33
ENDBRANCH  31  32
ENDBRANCH  30  31
ENDBRANCH  29  30
ENDBRANCH   1  29
TORSDOF 28
ENDMDL
MODEL 3
REMARK VINA RESULT:      -9.8      4.525     10.529
REMARK SMILES CCn1ccc([C@@H](C)NC(=O)[C@H](C)n2ccc(C(=O)OCCOCCOCCOCCOC(=O)c3ccc(-c4c5nc(c(-c6cc(S(=O)(=O)[O-])ccc6F)c6ccc([nH]6)c(-c6cc(S(=O)(=O)[O-])ccc6F)c6nc(c(-c7cc(S(=O)(=O)[O-])ccc7F)c7ccc4[nH]7)C=C6)C=C5)cc3)n2)n1
REMARK SMILES IDX 25 1 24 2 23 3 22 4 21 5 20 6 18 7 19 8 17 9 14 10 15 11
REMARK SMILES IDX 98 12 16 13 12 14 13 15 10 16 9 17 11 19 7 20 8 21 6 22 3 23
REMARK SMILES IDX 4 24 99 25 5 26 2 27 1 28 26 29 27 30 28 31 29 32 30 33
REMARK SMILES IDX 31 34 32 35 33 36 34 37 35 38 36 39 97 40 37 41 96 42 38 43
REMARK SMILES IDX 39 44 40 45 90 46 41 47 95 48 89 49 91 50 42 51 94 52 88 53
REMARK SMILES IDX 87 54 43 56 75 57 55 58 74 59 56 60 59 61 73 62 92 63 57 64
REMARK SMILES IDX 58 65 72 67 93 68 60 69 44 70 45 71 53 72 46 73 52 74 54 75
REMARK SMILES IDX 51 76 47 77 48 78 49 79 50 80 76 81 77 82 85 83 78 84 84 85
REMARK SMILES IDX 86 86 83 87 79 88 80 89 81 90 82 91 61 92 62 93 70 94 63 95
REMARK SMILES IDX 69 96 71 97 68 98 64 99 65 100 66 101 67 102
REMARK H PARENT 9 18 91 55 59 66
REMARK Flexibility Score: inf
ROOT
ATOM      1  C   UNL A   1      35.896  22.804  25.819  1.00  0.00     0.188 C 
ENDROOT
BRANCH   1   2
ATOM      2  C   UNL A   1      36.242  23.436  24.452  1.00  0.00     0.188 C 
BRANCH   2   3
ATOM      3  O   UNL A   1      35.363  23.366  23.336  1.00  0.00    -0.376 OA
BRANCH   3   4
ATOM      4  C   UNL A   1      34.155  24.103  23.257  1.00  0.00     0.202 C 
BRANCH   4   5
ATOM      5  C   UNL A   1      32.875  23.561  22.599  1.00  0.00     0.261 C 
BRANCH   5   6
ATOM      6  O   UNL A   1      31.748  24.431  22.565  1.00  0.00    -0.458 OA
BRANCH   6   7
ATOM      7  C   UNL A   1      31.940  25.645  21.986  1.00  0.00     0.358 C 
ATOM      8  O   UNL A   1      32.263  25.818  20.809  1.00  0.00    -0.244 OA
BRANCH   7   9
ATOM      9  C   UNL A   1      31.549  26.746  22.876  1.00  0.00     0.170 A 
ATOM     10  N   UNL A   1      31.438  27.995  24.606  1.00  0.00    -0.260 N 
ATOM     11  C   UNL A   1      30.470  28.477  23.769  1.00  0.00     0.110 A 
ATOM     12  N   UNL A   1      32.057  26.907  24.112  1.00  0.00    -0.165 NA
ATOM     13  C   UNL A   1      30.544  27.719  22.626  1.00  0.00     0.057 A 
BRANCH  10  14
ATOM     14  C   UNL A   1      31.877  28.607  25.860  1.00  0.00     0.193 C 
ATOM     15  C   UNL A   1      31.715  27.651  27.039  1.00  0.00     0.044 C 
BRANCH  14  16
ATOM     16  C   UNL A   1      33.304  29.145  25.755  1.00  0.00     0.245 C 
ATOM     17  N   UNL A   1      33.636  30.327  26.358  1.00  0.00    -0.346 N 
ATOM     18  H   UNL A   1      34.542  30.660  26.164  1.00  0.00     0.164 HD
ATOM     19  O   UNL A   1      34.203  28.534  25.170  1.00  0.00    -0.273 OA
BRANCH  17  20
ATOM     20  C   UNL A   1      32.841  31.165  27.249  1.00  0.00     0.130 C 
ATOM     21  C   UNL A   1      31.553  31.645  26.586  1.00  0.00     0.038 C 
BRANCH  20  22
ATOM     22  C   UNL A   1      33.717  32.312  27.675  1.00  0.00     0.084 A 
ATOM     23  N   UNL A   1      34.253  34.282  28.242  1.00  0.00    -0.273 N 
ATOM     24  C   UNL A   1      35.404  33.565  28.380  1.00  0.00     0.109 A 
ATOM     25  N   UNL A   1      33.215  33.550  27.795  1.00  0.00    -0.176 NA
ATOM     26  C   UNL A   1      35.091  32.277  28.023  1.00  0.00     0.047 A 
BRANCH  23  27
ATOM     27  C   UNL A   1      34.075  35.696  28.508  1.00  0.00     0.141 C 
ATOM     28  C   UNL A   1      32.974  35.959  29.517  1.00  0.00     0.029 C 
ENDBRANCH  23  27
ENDBRANCH  20  22
ENDBRANCH  17  20
ENDBRANCH  14  16
ENDBRANCH  10  14
ENDBRANCH   7   9
ENDBRANCH   6   7
ENDBRANCH   5   6
ENDBRANCH   4   5
ENDBRANCH   3   4
ENDBRANCH   2   3
ENDBRANCH   1   2
BRANCH   1  29
ATOM     29  O   UNL A   1      36.122  21.408  25.875  1.00  0.00    -0.377 OA
BRANCH  29  30
ATOM     30  C   UNL A   1      37.059  20.880  24.939  1.00  0.00     0.188 C 
BRANCH  30  31
ATOM     31  C   UNL A   1      38.528  20.654  25.385  1.00  0.00     0.188 C 
BRANCH  31  32
ATOM     32  O   UNL A   1      39.291  21.843  25.558  1.00  0.00    -0.376 OA
BRANCH  32  33
ATOM     33  C   UNL A   1      39.616  22.332  26.848  1.00  0.00     0.202 C 
BRANCH  33  34
ATOM     34  C   UNL A   1      40.754  23.343  26.910  1.00  0.00     0.261 C 
BRANCH  34  35
ATOM     35  O   UNL A   1      40.389  24.541  27.567  1.00  0.00    -0.460 OA
BRANCH  35  36
ATOM     36  C   UNL A   1      40.399  25.637  26.792  1.00  0.00     0.338 C 
ATOM     37  O   UNL A   1      40.937  25.761  25.693  1.00  0.00    -0.246 OA
BRANCH  36  38
ATOM     38  C   UNL A   1      39.753  26.716  27.530  1.00  0.00     0.060 A 
ATOM     39  C   UNL A   1      39.945  27.997  27.017  1.00  0.00     0.016 A 
ATOM     40  C   UNL A   1      39.395  26.473  28.867  1.00  0.00     0.016 A 
ATOM     41  C   UNL A   1      40.119  29.009  27.922  1.00  0.00     0.010 A 
ATOM     42  C   UNL A   1      39.608  27.474  29.769  1.00  0.00     0.010 A 
ATOM     43  C   UNL A   1      40.076  28.689  29.283  1.00  0.00    -0.014 A 
BRANCH  43  44
ATOM     44  C   UNL A   1      40.497  29.695  30.220  1.00  0.00     0.031 A 
ATOM     45  C   UNL A   1      39.395  30.601  30.574  1.00  0.00     0.074 A 
ATOM     46  C   UNL A   1      41.730  29.700  30.754  1.00  0.00     0.049 A 
ATOM     47  N   UNL A   1      39.220  31.815  30.177  1.00  0.00    -0.248 NA
ATOM     48  C   UNL A   1      38.225  30.006  31.241  1.00  0.00     0.031 C 
ATOM     49  C   UNL A   1      42.767  28.668  30.671  1.00  0.00     0.029 A 
ATOM     50  N   UNL A   1      42.275  30.614  31.593  1.00  0.00    -0.354 N 
ATOM     51  C   UNL A   1      38.035  32.214  30.776  1.00  0.00     0.074 A 
ATOM     52  C   UNL A   1      37.353  31.009  31.152  1.00  0.00     0.031 C 
ATOM     53  C   UNL A   1      43.705  28.910  31.618  1.00  0.00     0.029 A 
ATOM     54  C   UNL A   1      43.398  30.169  32.278  1.00  0.00     0.049 A 
ATOM     55  H   UNL A   1      41.905  31.519  31.706  1.00  0.00     0.167 HD
ATOM     56  C   UNL A   1      37.871  33.493  31.203  1.00  0.00     0.034 A 
ATOM     57  C   UNL A   1      43.951  30.762  33.371  1.00  0.00     0.034 A 
ATOM     58  C   UNL A   1      38.822  34.376  30.560  1.00  0.00     0.049 A 
ATOM     59  C   UNL A   1      43.474  32.174  33.376  1.00  0.00     0.074 A 
ATOM     60  C   UNL A   1      39.111  34.678  29.242  1.00  0.00     0.029 A 
ATOM     61  N   UNL A   1      39.925  34.780  31.281  1.00  0.00    -0.354 N 
ATOM     62  N   UNL A   1      43.786  33.040  32.448  1.00  0.00    -0.248 NA
ATOM     63  C   UNL A   1      42.253  32.479  34.112  1.00  0.00     0.031 C 
ATOM     64  C   UNL A   1      40.532  34.784  29.187  1.00  0.00     0.029 A 
ATOM     65  C   UNL A   1      41.033  34.621  30.481  1.00  0.00     0.049 A 
ATOM     66  H   UNL A   1      39.921  35.123  32.205  1.00  0.00     0.167 HD
ATOM     67  C   UNL A   1      42.616  33.746  32.197  1.00  0.00     0.074 A 
ATOM     68  C   UNL A   1      41.732  33.418  33.314  1.00  0.00     0.031 C 
ATOM     69  C   UNL A   1      42.362  34.292  30.970  1.00  0.00     0.034 A 
BRANCH  56  70
ATOM     70  C   UNL A   1      37.135  33.859  32.472  1.00  0.00     0.023 A 
ATOM     71  C   UNL A   1      37.758  33.513  33.682  1.00  0.00     0.031 A 
ATOM     72  C   UNL A   1      35.781  34.262  32.576  1.00  0.00     0.131 A 
ATOM     73  C   UNL A   1      37.029  33.470  34.882  1.00  0.00     0.055 A 
ATOM     74  C   UNL A   1      35.079  34.285  33.783  1.00  0.00     0.041 A 
ATOM     75  F   UNL A   1      35.018  34.569  31.521  1.00  0.00    -0.206 F 
ATOM     76  C   UNL A   1      35.694  33.854  34.942  1.00  0.00     0.022 A 
BRANCH  73  77
ATOM     77  S   UNL A   1      37.816  32.724  36.328  1.00  0.00     0.124 S 
ATOM     78  O   UNL A   1      36.948  33.188  37.405  1.00  0.00    -0.237 OA
ATOM     79  O   UNL A   1      37.741  31.304  36.006  1.00  0.00    -0.237 OA
ATOM     80  O   UNL A   1      39.158  33.299  36.315  1.00  0.00    -0.744 OA
ENDBRANCH  73  77
ENDBRANCH  56  70
BRANCH  57  81
ATOM     81  C   UNL A   1      44.497  30.064  34.572  1.00  0.00     0.023 A 
ATOM     82  C   UNL A   1      45.832  30.215  35.006  1.00  0.00     0.031 A 
ATOM     83  C   UNL A   1      43.619  29.395  35.458  1.00  0.00     0.131 A 
ATOM     84  C   UNL A   1      46.235  29.704  36.266  1.00  0.00     0.055 A 
ATOM     85  C   UNL A   1      44.025  28.888  36.695  1.00  0.00     0.041 A 
ATOM     86  F   UNL A   1      42.309  29.283  35.190  1.00  0.00    -0.206 F 
ATOM     87  C   UNL A   1      45.335  29.048  37.108  1.00  0.00     0.022 A 
BRANCH  84  88
ATOM     88  S   UNL A   1      47.936  29.961  36.869  1.00  0.00     0.124 S 
ATOM     89  O   UNL A   1      47.714  30.434  38.231  1.00  0.00    -0.237 OA
ATOM     90  O   UNL A   1      48.522  28.632  36.731  1.00  0.00    -0.237 OA
ATOM     91  O   UNL A   1      48.476  30.965  35.952  1.00  0.00    -0.744 OA
ENDBRANCH  84  88
ENDBRANCH  57  81
BRANCH  69  92
ATOM     92  C   UNL A   1      43.494  34.382  29.964  1.00  0.00     0.023 A 
ATOM     93  C   UNL A   1      43.830  33.382  29.022  1.00  0.00     0.031 A 
ATOM     94  C   UNL A   1      44.164  35.616  29.871  1.00  0.00     0.131 A 
ATOM     95  C   UNL A   1      44.805  33.642  28.037  1.00  0.00     0.055 A 
ATOM     96  C   UNL A   1      45.112  35.875  28.882  1.00  0.00     0.041 A 
ATOM     97  F   UNL A   1      43.870  36.615  30.720  1.00  0.00    -0.206 F 
ATOM     98  C   UNL A   1      45.438  34.888  27.961  1.00  0.00     0.022 A 
BRANCH  95  99
ATOM     99  S   UNL A   1      45.275  32.363  26.823  1.00  0.00     0.124 S 
ATOM    100  O   UNL A   1      46.054  33.101  25.837  1.00  0.00    -0.237 OA
ATOM    101  O   UNL A   1      46.017  31.408  27.643  1.00  0.00    -0.237 OA
ATOM    102  O   UNL A   1      43.986  31.868  26.333  1.00  0.00    -0.744 OA
ENDBRANCH  95  99
ENDBRANCH  69  92
ENDBRANCH  43  44
ENDBRANCH  36  38
ENDBRANCH  35  36
ENDBRANCH  34  35
ENDBRANCH  33  34
ENDBRANCH  32  33
ENDBRANCH  31  32
ENDBRANCH  30  31
ENDBRANCH  29  30
ENDBRANCH   1  29
TORSDOF 28
ENDMDL
