MODEL 1
REMARK VINA RESULT:      -6.8      0.000      0.000
REMARK SMILES CCCCCCNC(=O)Oc1cccc(-c2ccc([C@@H](C)C(=O)OCCOCCOCCOCCOC(=O)c3ccc(-c4c5nc(c(-c6cc(S(=O)(=O)[O-])ccc6F)c6ccc([nH]6)c(-c6cc(S(=O)(=O)[O-])ccc6F)c6nc(c(-c7cc(S(=O)(=O)[O-])ccc7F)c7ccc4[nH]7)C=C6)C=C5)cc3)cc2Cl)c1
REMARK SMILES IDX 27 1 26 2 25 3 24 4 22 5 23 6 20 7 21 8 19 9 16 10 17 11
REMARK SMILES IDX 103 12 18 13 102 14 104 15 15 16 11 17 12 18 105 19 13 20
REMARK SMILES IDX 14 21 10 22 8 23 7 24 9 26 6 27 5 28 4 29 3 30 2 31 1 32
REMARK SMILES IDX 28 33 29 34 30 35 31 36 32 37 33 38 34 39 35 40 36 41 37 42
REMARK SMILES IDX 38 43 39 44 40 45 101 46 41 47 100 48 42 49 43 50 44 51
REMARK SMILES IDX 94 52 45 53 99 54 93 55 95 56 46 57 98 58 92 59 91 60 47 62
REMARK SMILES IDX 79 63 59 64 78 65 60 66 63 67 77 68 96 69 61 70 62 71 76 73
REMARK SMILES IDX 97 74 64 75 48 76 49 77 57 78 50 79 56 80 58 81 55 82 51 83
REMARK SMILES IDX 52 84 53 85 54 86 80 87 81 88 89 89 82 90 88 91 90 92 87 93
REMARK SMILES IDX 83 94 84 95 85 96 86 97 65 98 66 99 74 100 67 101 73 102
REMARK SMILES IDX 75 103 72 104 68 105 69 106 70 107 71 108
REMARK H PARENT 7 25 95 61 63 72
REMARK Flexibility Score: inf
ROOT
ATOM      1  O   UNL A   1      48.591  30.746  26.577  1.00  0.00    -0.376 OA
ENDROOT
BRANCH   1   2
ATOM      2  C   UNL A   1      47.967  29.495  26.832  1.00  0.00     0.202 C 
BRANCH   2   3
ATOM      3  C   UNL A   1      48.168  28.771  28.177  1.00  0.00     0.261 C 
BRANCH   3   4
ATOM      4  O   UNL A   1      46.979  28.326  28.864  1.00  0.00    -0.463 OA
BRANCH   4   5
ATOM      5  C   UNL A   1      46.146  29.293  29.310  1.00  0.00     0.313 C 
ATOM      6  O   UNL A   1      46.438  30.076  30.214  1.00  0.00    -0.252 OA
BRANCH   5   7
ATOM      7  C   UNL A   1      44.773  29.357  28.645  1.00  0.00     0.126 C 
ATOM      8  C   UNL A   1      43.927  30.397  29.369  1.00  0.00     0.025 C 
BRANCH   7   9
ATOM      9  C   UNL A   1      43.965  28.093  28.344  1.00  0.00    -0.033 A 
ATOM     10  C   UNL A   1      42.485  25.727  27.619  1.00  0.00     0.000 A 
ATOM     11  C   UNL A   1      42.668  26.117  28.963  1.00  0.00     0.010 A 
ATOM     12  C   UNL A   1      43.055  26.558  26.641  1.00  0.00     0.049 A 
ATOM     13  C   UNL A   1      43.388  27.277  29.321  1.00  0.00     0.005 A 
ATOM     14  C   UNL A   1      43.770  27.717  26.997  1.00  0.00     0.025 A 
ATOM     15  Cl  UNL A   1      42.897  26.240  24.943  1.00  0.00    -0.084 Cl
BRANCH  10  16
ATOM     16  C   UNL A   1      41.680  24.523  27.295  1.00  0.00    -0.013 A 
ATOM     17  C   UNL A   1      41.434  22.293  26.337  1.00  0.00     0.133 A 
ATOM     18  C   UNL A   1      40.067  22.299  26.597  1.00  0.00     0.047 A 
ATOM     19  C   UNL A   1      42.239  23.388  26.677  1.00  0.00     0.056 A 
ATOM     20  C   UNL A   1      39.500  23.404  27.226  1.00  0.00     0.004 A 
ATOM     21  C   UNL A   1      40.298  24.502  27.568  1.00  0.00     0.009 A 
BRANCH  17  22
ATOM     22  O   UNL A   1      41.936  21.205  25.598  1.00  0.00    -0.410 OA
BRANCH  22  23
ATOM     23  C   UNL A   1      42.608  20.216  26.298  1.00  0.00     0.412 C 
ATOM     24  N   UNL A   1      43.929  20.096  25.954  1.00  0.00    -0.321 N 
ATOM     25  H   UNL A   1      44.456  19.445  26.471  1.00  0.00     0.167 HD
ATOM     26  O   UNL A   1      42.122  19.486  27.154  1.00  0.00    -0.224 OA
BRANCH  24  27
ATOM     27  C   UNL A   1      44.640  20.817  24.916  1.00  0.00     0.119 C 
BRANCH  27  28
ATOM     28  C   UNL A   1      45.688  21.774  25.485  1.00  0.00     0.021 C 
BRANCH  28  29
ATOM     29  C   UNL A   1      45.434  23.262  25.207  1.00  0.00     0.002 C 
BRANCH  29  30
ATOM     30  C   UNL A   1      46.643  24.189  25.386  1.00  0.00    -0.000 C 
BRANCH  30  31
ATOM     31  C   UNL A   1      46.849  24.741  26.799  1.00  0.00    -0.003 C 
ATOM     32  C   UNL A   1      45.813  24.248  27.799  1.00  0.00     0.004 C 
ENDBRANCH  30  31
ENDBRANCH  29  30
ENDBRANCH  28  29
ENDBRANCH  27  28
ENDBRANCH  24  27
ENDBRANCH  22  23
ENDBRANCH  17  22
ENDBRANCH  10  16
ENDBRANCH   7   9
ENDBRANCH   5   7
ENDBRANCH   4   5
ENDBRANCH   3   4
ENDBRANCH   2   3
ENDBRANCH   1   2
BRANCH   1  33
ATOM     33  C   UNL A   1      48.375  31.857  27.436  1.00  0.00     0.188 C 
BRANCH  33  34
ATOM     34  C   UNL A   1      47.931  33.222  26.890  1.00  0.00     0.188 C 
BRANCH  34  35
ATOM     35  O   UNL A   1      46.683  33.225  26.232  1.00  0.00    -0.377 OA
BRANCH  35  36
ATOM     36  C   UNL A   1      46.156  34.492  25.869  1.00  0.00     0.188 C 
BRANCH  36  37
ATOM     37  C   UNL A   1      45.471  35.310  26.979  1.00  0.00     0.188 C 
BRANCH  37  38
ATOM     38  O   UNL A   1      44.068  35.086  27.086  1.00  0.00    -0.376 OA
BRANCH  38  39
ATOM     39  C   UNL A   1      43.384  35.659  28.194  1.00  0.00     0.202 C 
BRANCH  39  40
ATOM     40  C   UNL A   1      44.197  35.959  29.463  1.00  0.00     0.261 C 
BRANCH  40  41
ATOM     41  O   UNL A   1      44.563  37.327  29.676  1.00  0.00    -0.460 OA
BRANCH  41  42
ATOM     42  C   UNL A   1      45.436  37.617  30.666  1.00  0.00     0.338 C 
ATOM     43  O   UNL A   1      46.458  38.260  30.571  1.00  0.00    -0.246 OA
BRANCH  42  44
ATOM     44  C   UNL A   1      44.795  37.212  31.943  1.00  0.00     0.060 A 
ATOM     45  C   UNL A   1      45.326  36.127  32.654  1.00  0.00     0.016 A 
ATOM     46  C   UNL A   1      43.694  37.909  32.443  1.00  0.00     0.016 A 
ATOM     47  C   UNL A   1      44.738  35.719  33.855  1.00  0.00     0.010 A 
ATOM     48  C   UNL A   1      43.089  37.481  33.631  1.00  0.00     0.010 A 
ATOM     49  C   UNL A   1      43.592  36.367  34.330  1.00  0.00    -0.014 A 
BRANCH  49  50
ATOM     50  C   UNL A   1      42.800  35.766  35.436  1.00  0.00     0.031 A 
ATOM     51  C   UNL A   1      41.742  34.755  35.082  1.00  0.00     0.074 A 
ATOM     52  C   UNL A   1      43.013  36.094  36.723  1.00  0.00     0.049 A 
ATOM     53  N   UNL A   1      40.858  34.170  35.847  1.00  0.00    -0.248 NA
ATOM     54  C   UNL A   1      41.676  34.355  33.668  1.00  0.00     0.031 C 
ATOM     55  C   UNL A   1      44.052  37.003  37.202  1.00  0.00     0.029 A 
ATOM     56  N   UNL A   1      42.355  35.706  37.866  1.00  0.00    -0.354 N 
ATOM     57  C   UNL A   1      40.123  33.339  35.006  1.00  0.00     0.074 A 
ATOM     58  C   UNL A   1      40.647  33.523  33.671  1.00  0.00     0.031 C 
ATOM     59  C   UNL A   1      43.949  37.117  38.538  1.00  0.00     0.029 A 
ATOM     60  C   UNL A   1      42.807  36.331  39.005  1.00  0.00     0.049 A 
ATOM     61  H   UNL A   1      41.628  35.041  37.867  1.00  0.00     0.167 HD
ATOM     62  C   UNL A   1      39.105  32.501  35.322  1.00  0.00     0.034 A 
ATOM     63  C   UNL A   1      42.328  36.304  40.267  1.00  0.00     0.034 A 
ATOM     64  C   UNL A   1      38.581  32.343  36.656  1.00  0.00     0.049 A 
ATOM     65  C   UNL A   1      41.112  35.457  40.574  1.00  0.00     0.074 A 
ATOM     66  C   UNL A   1      37.560  31.514  37.088  1.00  0.00     0.029 A 
ATOM     67  N   UNL A   1      39.023  33.042  37.772  1.00  0.00    -0.354 N 
ATOM     68  N   UNL A   1      40.422  34.676  39.773  1.00  0.00    -0.248 NA
ATOM     69  C   UNL A   1      40.608  35.489  41.955  1.00  0.00     0.031 C 
ATOM     70  C   UNL A   1      37.327  31.776  38.441  1.00  0.00     0.029 A 
ATOM     71  C   UNL A   1      38.264  32.698  38.880  1.00  0.00     0.049 A 
ATOM     72  H   UNL A   1      39.766  33.688  37.777  1.00  0.00     0.167 HD
ATOM     73  C   UNL A   1      39.426  34.102  40.563  1.00  0.00     0.074 A 
ATOM     74  C   UNL A   1      39.611  34.617  41.903  1.00  0.00     0.031 C 
ATOM     75  C   UNL A   1      38.452  33.224  40.213  1.00  0.00     0.034 A 
BRANCH  62  76
ATOM     76  C   UNL A   1      38.454  31.743  34.191  1.00  0.00     0.023 A 
ATOM     77  C   UNL A   1      38.824  30.426  33.867  1.00  0.00     0.031 A 
ATOM     78  C   UNL A   1      37.464  32.359  33.404  1.00  0.00     0.131 A 
ATOM     79  C   UNL A   1      38.261  29.795  32.747  1.00  0.00     0.055 A 
ATOM     80  C   UNL A   1      36.847  31.696  32.343  1.00  0.00     0.041 A 
ATOM     81  F   UNL A   1      37.087  33.624  33.648  1.00  0.00    -0.206 F 
ATOM     82  C   UNL A   1      37.255  30.411  32.000  1.00  0.00     0.022 A 
BRANCH  79  83
ATOM     83  S   UNL A   1      38.968  28.220  32.193  1.00  0.00     0.124 S 
ATOM     84  O   UNL A   1      38.236  27.261  33.017  1.00  0.00    -0.237 OA
ATOM     85  O   UNL A   1      38.649  28.214  30.770  1.00  0.00    -0.237 OA
ATOM     86  O   UNL A   1      40.388  28.349  32.515  1.00  0.00    -0.744 OA
ENDBRANCH  79  83
ENDBRANCH  62  76
BRANCH  63  87
ATOM     87  C   UNL A   1      42.946  37.146  41.334  1.00  0.00     0.023 A 
ATOM     88  C   UNL A   1      43.959  36.641  42.166  1.00  0.00     0.031 A 
ATOM     89  C   UNL A   1      42.481  38.450  41.585  1.00  0.00     0.131 A 
ATOM     90  C   UNL A   1      44.440  37.416  43.235  1.00  0.00     0.055 A 
ATOM     91  C   UNL A   1      43.005  39.240  42.611  1.00  0.00     0.041 A 
ATOM     92  F   UNL A   1      41.506  38.981  40.830  1.00  0.00    -0.206 F 
ATOM     93  C   UNL A   1      43.981  38.717  43.453  1.00  0.00     0.022 A 
BRANCH  90  94
ATOM     94  S   UNL A   1      45.601  36.658  44.405  1.00  0.00     0.124 S 
ATOM     95  O   UNL A   1      44.900  36.831  45.672  1.00  0.00    -0.237 OA
ATOM     96  O   UNL A   1      45.690  35.292  43.901  1.00  0.00    -0.237 OA
ATOM     97  O   UNL A   1      46.813  37.458  44.248  1.00  0.00    -0.744 OA
ENDBRANCH  90  94
ENDBRANCH  63  87
BRANCH  75  98
ATOM     98  C   UNL A   1      37.536  32.724  41.306  1.00  0.00     0.023 A 
ATOM     99  C   UNL A   1      36.271  33.292  41.537  1.00  0.00     0.031 A 
ATOM    100  C   UNL A   1      37.931  31.644  42.116  1.00  0.00     0.131 A 
ATOM    101  C   UNL A   1      35.466  32.807  42.579  1.00  0.00     0.055 A 
ATOM    102  C   UNL A   1      37.099  31.124  43.109  1.00  0.00     0.041 A 
ATOM    103  F   UNL A   1      39.129  31.063  41.944  1.00  0.00    -0.206 F 
ATOM    104  C   UNL A   1      35.862  31.713  43.352  1.00  0.00     0.022 A 
BRANCH 101 105
ATOM    105  S   UNL A   1      33.919  33.672  42.964  1.00  0.00     0.124 S 
ATOM    106  O   UNL A   1      33.023  32.565  43.283  1.00  0.00    -0.237 OA
ATOM    107  O   UNL A   1      34.306  34.522  44.086  1.00  0.00    -0.237 OA
ATOM    108  O   UNL A   1      33.606  34.386  41.728  1.00  0.00    -0.744 OA
ENDBRANCH 101 105
ENDBRANCH  75  98
ENDBRANCH  49  50
ENDBRANCH  42  44
ENDBRANCH  41  42
ENDBRANCH  40  41
ENDBRANCH  39  40
ENDBRANCH  38  39
ENDBRANCH  37  38
ENDBRANCH  36  37
ENDBRANCH  35  36
ENDBRANCH  34  35
ENDBRANCH  33  34
ENDBRANCH   1  33
TORSDOF 32
ENDMDL
MODEL 2
REMARK VINA RESULT:      -6.1      6.849     13.670
REMARK SMILES CCCCCCNC(=O)Oc1cccc(-c2ccc([C@@H](C)C(=O)OCCOCCOCCOCCOC(=O)c3ccc(-c4c5nc(c(-c6cc(S(=O)(=O)[O-])ccc6F)c6ccc([nH]6)c(-c6cc(S(=O)(=O)[O-])ccc6F)c6nc(c(-c7cc(S(=O)(=O)[O-])ccc7F)c7ccc4[nH]7)C=C6)C=C5)cc3)cc2Cl)c1
REMARK SMILES IDX 27 1 26 2 25 3 24 4 22 5 23 6 20 7 21 8 19 9 16 10 17 11
REMARK SMILES IDX 103 12 18 13 102 14 104 15 15 16 11 17 12 18 105 19 13 20
REMARK SMILES IDX 14 21 10 22 8 23 7 24 9 26 6 27 5 28 4 29 3 30 2 31 1 32
REMARK SMILES IDX 28 33 29 34 30 35 31 36 32 37 33 38 34 39 35 40 36 41 37 42
REMARK SMILES IDX 38 43 39 44 40 45 101 46 41 47 100 48 42 49 43 50 44 51
REMARK SMILES IDX 94 52 45 53 99 54 93 55 95 56 46 57 98 58 92 59 91 60 47 62
REMARK SMILES IDX 79 63 59 64 78 65 60 66 63 67 77 68 96 69 61 70 62 71 76 73
REMARK SMILES IDX 97 74 64 75 48 76 49 77 57 78 50 79 56 80 58 81 55 82 51 83
REMARK SMILES IDX 52 84 53 85 54 86 80 87 81 88 89 89 82 90 88 91 90 92 87 93
REMARK SMILES IDX 83 94 84 95 85 96 86 97 65 98 66 99 74 100 67 101 73 102
REMARK SMILES IDX 75 103 72 104 68 105 69 106 70 107 71 108
REMARK H PARENT 7 25 95 61 63 72
REMARK Flexibility Score: inf
ROOT
ATOM      1  O   UNL A   1      42.751  35.410  39.058  1.00  0.00    -0.376 OA
ENDROOT
BRANCH   1   2
ATOM      2  C   UNL A   1      41.828  36.291  38.430  1.00  0.00     0.202 C 
BRANCH   2   3
ATOM      3  C   UNL A   1      40.333  35.932  38.336  1.00  0.00     0.261 C 
BRANCH   3   4
ATOM      4  O   UNL A   1      39.756  35.237  39.462  1.00  0.00    -0.463 OA
BRANCH   4   5
ATOM      5  C   UNL A   1      39.423  33.942  39.260  1.00  0.00     0.313 C 
ATOM      6  O   UNL A   1      40.163  32.999  39.541  1.00  0.00    -0.252 OA
BRANCH   5   7
ATOM      7  C   UNL A   1      38.059  33.691  38.621  1.00  0.00     0.126 C 
ATOM      8  C   UNL A   1      37.132  33.086  39.668  1.00  0.00     0.025 C 
BRANCH   7   9
ATOM      9  C   UNL A   1      37.920  32.976  37.275  1.00  0.00    -0.033 A 
ATOM     10  C   UNL A   1      37.615  31.771  34.673  1.00  0.00     0.000 A 
ATOM     11  C   UNL A   1      38.162  31.068  35.767  1.00  0.00     0.010 A 
ATOM     12  C   UNL A   1      37.214  33.096  34.915  1.00  0.00     0.049 A 
ATOM     13  C   UNL A   1      38.308  31.653  37.044  1.00  0.00     0.005 A 
ATOM     14  C   UNL A   1      37.357  33.679  36.188  1.00  0.00     0.025 A 
ATOM     15  Cl  UNL A   1      36.495  34.089  33.688  1.00  0.00    -0.084 Cl
BRANCH  10  16
ATOM     16  C   UNL A   1      37.439  31.095  33.364  1.00  0.00    -0.013 A 
ATOM     17  C   UNL A   1      36.521  30.982  31.107  1.00  0.00     0.133 A 
ATOM     18  C   UNL A   1      37.042  29.704  30.926  1.00  0.00     0.047 A 
ATOM     19  C   UNL A   1      36.711  31.677  32.308  1.00  0.00     0.056 A 
ATOM     20  C   UNL A   1      37.782  29.122  31.951  1.00  0.00     0.004 A 
ATOM     21  C   UNL A   1      37.975  29.809  33.155  1.00  0.00     0.009 A 
BRANCH  17  22
ATOM     22  O   UNL A   1      35.686  31.478  30.088  1.00  0.00    -0.410 OA
BRANCH  22  23
ATOM     23  C   UNL A   1      36.243  31.639  28.829  1.00  0.00     0.412 C 
ATOM     24  N   UNL A   1      35.641  30.884  27.858  1.00  0.00    -0.321 N 
ATOM     25  H   UNL A   1      35.968  31.014  26.939  1.00  0.00     0.167 HD
ATOM     26  O   UNL A   1      37.184  32.372  28.550  1.00  0.00    -0.224 OA
BRANCH  24  27
ATOM     27  C   UNL A   1      34.577  29.913  28.028  1.00  0.00     0.119 C 
BRANCH  27  28
ATOM     28  C   UNL A   1      34.226  29.199  26.723  1.00  0.00     0.021 C 
BRANCH  28  29
ATOM     29  C   UNL A   1      32.773  28.716  26.612  1.00  0.00     0.002 C 
BRANCH  29  30
ATOM     30  C   UNL A   1      32.585  27.279  26.108  1.00  0.00    -0.000 C 
BRANCH  30  31
ATOM     31  C   UNL A   1      31.149  26.886  25.752  1.00  0.00    -0.003 C 
ATOM     32  C   UNL A   1      30.758  27.248  24.326  1.00  0.00     0.004 C 
ENDBRANCH  30  31
ENDBRANCH  29  30
ENDBRANCH  28  29
ENDBRANCH  27  28
ENDBRANCH  24  27
ENDBRANCH  22  23
ENDBRANCH  17  22
ENDBRANCH  10  16
ENDBRANCH   7   9
ENDBRANCH   5   7
ENDBRANCH   4   5
ENDBRANCH   3   4
ENDBRANCH   2   3
ENDBRANCH   1   2
BRANCH   1  33
ATOM     33  C   UNL A   1      43.568  35.855  40.132  1.00  0.00     0.188 C 
BRANCH  33  34
ATOM     34  C   UNL A   1      43.711  35.038  41.424  1.00  0.00     0.188 C 
BRANCH  34  35
ATOM     35  O   UNL A   1      42.959  35.514  42.519  1.00  0.00    -0.377 OA
BRANCH  35  36
ATOM     36  C   UNL A   1      41.556  35.304  42.468  1.00  0.00     0.188 C 
BRANCH  36  37
ATOM     37  C   UNL A   1      40.955  34.334  43.502  1.00  0.00     0.188 C 
BRANCH  37  38
ATOM     38  O   UNL A   1      41.519  33.026  43.470  1.00  0.00    -0.376 OA
BRANCH  38  39
ATOM     39  C   UNL A   1      42.351  32.632  44.554  1.00  0.00     0.202 C 
BRANCH  39  40
ATOM     40  C   UNL A   1      43.760  32.112  44.225  1.00  0.00     0.261 C 
BRANCH  40  41
ATOM     41  O   UNL A   1      43.994  30.718  44.460  1.00  0.00    -0.460 OA
BRANCH  41  42
ATOM     42  C   UNL A   1      45.266  30.262  44.432  1.00  0.00     0.338 C 
ATOM     43  O   UNL A   1      46.066  30.282  45.341  1.00  0.00    -0.246 OA
BRANCH  42  44
ATOM     44  C   UNL A   1      45.431  29.512  43.161  1.00  0.00     0.060 A 
ATOM     45  C   UNL A   1      46.429  29.911  42.263  1.00  0.00     0.016 A 
ATOM     46  C   UNL A   1      44.621  28.412  42.870  1.00  0.00     0.016 A 
ATOM     47  C   UNL A   1      46.602  29.227  41.056  1.00  0.00     0.010 A 
ATOM     48  C   UNL A   1      44.776  27.747  41.648  1.00  0.00     0.010 A 
ATOM     49  C   UNL A   1      45.750  28.167  40.722  1.00  0.00    -0.014 A 
BRANCH  49  50
ATOM     50  C   UNL A   1      45.737  27.629  39.336  1.00  0.00     0.031 A 
ATOM     51  C   UNL A   1      45.137  28.482  38.251  1.00  0.00     0.074 A 
ATOM     52  C   UNL A   1      46.251  26.422  39.037  1.00  0.00     0.049 A 
ATOM     53  N   UNL A   1      44.916  28.198  36.993  1.00  0.00    -0.248 NA
ATOM     54  C   UNL A   1      44.730  29.839  38.644  1.00  0.00     0.031 C 
ATOM     55  C   UNL A   1      46.922  25.532  39.982  1.00  0.00     0.029 A 
ATOM     56  N   UNL A   1      46.276  25.730  37.849  1.00  0.00    -0.354 N 
ATOM     57  C   UNL A   1      44.334  29.339  36.447  1.00  0.00     0.074 A 
ATOM     58  C   UNL A   1      44.211  30.302  37.519  1.00  0.00     0.031 C 
ATOM     59  C   UNL A   1      47.276  24.404  39.340  1.00  0.00     0.029 A 
ATOM     60  C   UNL A   1      46.813  24.468  37.954  1.00  0.00     0.049 A 
ATOM     61  H   UNL A   1      45.940  26.104  37.003  1.00  0.00     0.167 HD
ATOM     62  C   UNL A   1      43.941  29.560  35.168  1.00  0.00     0.034 A 
ATOM     63  C   UNL A   1      46.884  23.468  37.050  1.00  0.00     0.034 A 
ATOM     64  C   UNL A   1      44.054  28.582  34.115  1.00  0.00     0.049 A 
ATOM     65  C   UNL A   1      46.325  23.693  35.661  1.00  0.00     0.074 A 
ATOM     66  C   UNL A   1      43.697  28.705  32.783  1.00  0.00     0.029 A 
ATOM     67  N   UNL A   1      44.544  27.292  34.276  1.00  0.00    -0.354 N 
ATOM     68  N   UNL A   1      45.775  24.773  35.154  1.00  0.00    -0.248 NA
ATOM     69  C   UNL A   1      46.394  22.562  34.724  1.00  0.00     0.031 C 
ATOM     70  C   UNL A   1      43.888  27.467  32.162  1.00  0.00     0.029 A 
ATOM     71  C   UNL A   1      44.454  26.596  33.080  1.00  0.00     0.049 A 
ATOM     72  H   UNL A   1      44.903  26.924  35.116  1.00  0.00     0.167 HD
ATOM     73  C   UNL A   1      45.466  24.458  33.831  1.00  0.00     0.074 A 
ATOM     74  C   UNL A   1      45.898  23.094  33.615  1.00  0.00     0.031 C 
ATOM     75  C   UNL A   1      44.882  25.231  32.878  1.00  0.00     0.034 A 
BRANCH  62  76
ATOM     76  C   UNL A   1      43.294  30.888  34.860  1.00  0.00     0.023 A 
ATOM     77  C   UNL A   1      44.023  31.964  34.324  1.00  0.00     0.031 A 
ATOM     78  C   UNL A   1      41.930  31.090  35.134  1.00  0.00     0.131 A 
ATOM     79  C   UNL A   1      43.403  33.210  34.145  1.00  0.00     0.055 A 
ATOM     80  C   UNL A   1      41.298  32.307  34.875  1.00  0.00     0.041 A 
ATOM     81  F   UNL A   1      41.188  30.109  35.671  1.00  0.00    -0.206 F 
ATOM     82  C   UNL A   1      42.038  33.381  34.391  1.00  0.00     0.022 A 
BRANCH  79  83
ATOM     83  S   UNL A   1      44.436  34.641  33.729  1.00  0.00     0.124 S 
ATOM     84  O   UNL A   1      45.346  34.691  34.871  1.00  0.00    -0.237 OA
ATOM     85  O   UNL A   1      45.028  34.244  32.457  1.00  0.00    -0.237 OA
ATOM     86  O   UNL A   1      43.480  35.745  33.656  1.00  0.00    -0.744 OA
ENDBRANCH  79  83
ENDBRANCH  62  76
BRANCH  63  87
ATOM     87  C   UNL A   1      47.446  22.137  37.428  1.00  0.00     0.023 A 
ATOM     88  C   UNL A   1      46.617  21.102  37.892  1.00  0.00     0.031 A 
ATOM     89  C   UNL A   1      48.833  21.904  37.401  1.00  0.00     0.131 A 
ATOM     90  C   UNL A   1      47.185  19.902  38.351  1.00  0.00     0.055 A 
ATOM     91  C   UNL A   1      49.389  20.687  37.801  1.00  0.00     0.041 A 
ATOM     92  F   UNL A   1      49.675  22.862  36.979  1.00  0.00    -0.206 F 
ATOM     93  C   UNL A   1      48.563  19.681  38.294  1.00  0.00     0.022 A 
BRANCH  90  94
ATOM     94  S   UNL A   1      46.104  18.668  39.126  1.00  0.00     0.124 S 
ATOM     95  O   UNL A   1      45.407  19.470  40.124  1.00  0.00    -0.237 OA
ATOM     96  O   UNL A   1      45.304  18.215  37.993  1.00  0.00    -0.237 OA
ATOM     97  O   UNL A   1      47.040  17.681  39.659  1.00  0.00    -0.744 OA
ENDBRANCH  90  94
ENDBRANCH  63  87
BRANCH  75  98
ATOM     98  C   UNL A   1      44.719  24.635  31.498  1.00  0.00     0.023 A 
ATOM     99  C   UNL A   1      45.408  25.141  30.383  1.00  0.00     0.031 A 
ATOM    100  C   UNL A   1      43.874  23.527  31.306  1.00  0.00     0.131 A 
ATOM    101  C   UNL A   1      45.207  24.567  29.118  1.00  0.00     0.055 A 
ATOM    102  C   UNL A   1      43.728  22.921  30.057  1.00  0.00     0.041 A 
ATOM    103  F   UNL A   1      43.187  23.003  32.334  1.00  0.00    -0.206 F 
ATOM    104  C   UNL A   1      44.388  23.447  28.952  1.00  0.00     0.022 A 
BRANCH 101 105
ATOM    105  S   UNL A   1      45.972  25.349  27.671  1.00  0.00     0.124 S 
ATOM    106  O   UNL A   1      44.951  25.156  26.646  1.00  0.00    -0.237 OA
ATOM    107  O   UNL A   1      46.169  26.722  28.124  1.00  0.00    -0.237 OA
ATOM    108  O   UNL A   1      47.200  24.581  27.474  1.00  0.00    -0.744 OA
ENDBRANCH 101 105
ENDBRANCH  75  98
ENDBRANCH  49  50
ENDBRANCH  42  44
ENDBRANCH  41  42
ENDBRANCH  40  41
ENDBRANCH  39  40
ENDBRANCH  38  39
ENDBRANCH  37  38
ENDBRANCH  36  37
ENDBRANCH  35  36
ENDBRANCH  34  35
ENDBRANCH  33  34
ENDBRANCH   1  33
TORSDOF 32
ENDMDL
MODEL 3
REMARK VINA RESULT:      -6.0      5.557     12.649
REMARK SMILES CCCCCCNC(=O)Oc1cccc(-c2ccc([C@@H](C)C(=O)OCCOCCOCCOCCOC(=O)c3ccc(-c4c5nc(c(-c6cc(S(=O)(=O)[O-])ccc6F)c6ccc([nH]6)c(-c6cc(S(=O)(=O)[O-])ccc6F)c6nc(c(-c7cc(S(=O)(=O)[O-])ccc7F)c7ccc4[nH]7)C=C6)C=C5)cc3)cc2Cl)c1
REMARK SMILES IDX 27 1 26 2 25 3 24 4 22 5 23 6 20 7 21 8 19 9 16 10 17 11
REMARK SMILES IDX 103 12 18 13 102 14 104 15 15 16 11 17 12 18 105 19 13 20
REMARK SMILES IDX 14 21 10 22 8 23 7 24 9 26 6 27 5 28 4 29 3 30 2 31 1 32
REMARK SMILES IDX 28 33 29 34 30 35 31 36 32 37 33 38 34 39 35 40 36 41 37 42
REMARK SMILES IDX 38 43 39 44 40 45 101 46 41 47 100 48 42 49 43 50 44 51
REMARK SMILES IDX 94 52 45 53 99 54 93 55 95 56 46 57 98 58 92 59 91 60 47 62
REMARK SMILES IDX 79 63 59 64 78 65 60 66 63 67 77 68 96 69 61 70 62 71 76 73
REMARK SMILES IDX 97 74 64 75 48 76 49 77 57 78 50 79 56 80 58 81 55 82 51 83
REMARK SMILES IDX 52 84 53 85 54 86 80 87 81 88 89 89 82 90 88 91 90 92 87 93
REMARK SMILES IDX 83 94 84 95 85 96 86 97 65 98 66 99 74 100 67 101 73 102
REMARK SMILES IDX 75 103 72 104 68 105 69 106 70 107 71 108
REMARK H PARENT 7 25 95 61 63 72
REMARK Flexibility Score: inf
ROOT
ATOM      1  O   UNL A   1      37.568  33.930  34.860  1.00  0.00    -0.376 OA
ENDROOT
BRANCH   1   2
ATOM      2  C   UNL A   1      36.762  34.535  33.857  1.00  0.00     0.202 C 
BRANCH   2   3
ATOM      3  C   UNL A   1      36.325  33.742  32.611  1.00  0.00     0.261 C 
BRANCH   3   4
ATOM      4  O   UNL A   1      37.149  32.619  32.229  1.00  0.00    -0.463 OA
BRANCH   4   5
ATOM      5  C   UNL A   1      37.015  32.184  30.956  1.00  0.00     0.313 C 
ATOM      6  O   UNL A   1      35.928  32.068  30.389  1.00  0.00    -0.252 OA
BRANCH   5   7
ATOM      7  C   UNL A   1      38.307  31.800  30.238  1.00  0.00     0.126 C 
ATOM      8  C   UNL A   1      38.878  30.550  30.895  1.00  0.00     0.025 C 
BRANCH   7   9
ATOM      9  C   UNL A   1      39.402  32.827  29.948  1.00  0.00    -0.033 A 
ATOM     10  C   UNL A   1      41.578  34.650  29.439  1.00  0.00     0.000 A 
ATOM     11  C   UNL A   1      40.240  34.973  29.131  1.00  0.00     0.010 A 
ATOM     12  C   UNL A   1      41.803  33.390  30.019  1.00  0.00     0.049 A 
ATOM     13  C   UNL A   1      39.171  34.084  29.382  1.00  0.00     0.005 A 
ATOM     14  C   UNL A   1      40.738  32.506  30.274  1.00  0.00     0.025 A 
ATOM     15  Cl  UNL A   1      43.383  32.850  30.487  1.00  0.00    -0.084 Cl
BRANCH  10  16
ATOM     16  C   UNL A   1      42.659  35.638  29.197  1.00  0.00    -0.013 A 
ATOM     17  C   UNL A   1      43.632  37.862  29.435  1.00  0.00     0.133 A 
ATOM     18  C   UNL A   1      44.697  37.518  28.607  1.00  0.00     0.047 A 
ATOM     19  C   UNL A   1      42.620  36.941  29.731  1.00  0.00     0.056 A 
ATOM     20  C   UNL A   1      44.762  36.228  28.086  1.00  0.00     0.004 A 
ATOM     21  C   UNL A   1      43.754  35.302  28.378  1.00  0.00     0.009 A 
BRANCH  17  22
ATOM     22  O   UNL A   1      43.552  39.208  29.839  1.00  0.00    -0.410 OA
BRANCH  22  23
ATOM     23  C   UNL A   1      42.847  40.078  29.022  1.00  0.00     0.412 C 
ATOM     24  N   UNL A   1      42.164  41.047  29.706  1.00  0.00    -0.321 N 
ATOM     25  H   UNL A   1      41.699  41.722  29.160  1.00  0.00     0.167 HD
ATOM     26  O   UNL A   1      42.803  40.034  27.798  1.00  0.00    -0.224 OA
BRANCH  24  27
ATOM     27  C   UNL A   1      42.045  41.195  31.144  1.00  0.00     0.119 C 
BRANCH  27  28
ATOM     28  C   UNL A   1      43.036  42.213  31.709  1.00  0.00     0.021 C 
BRANCH  28  29
ATOM     29  C   UNL A   1      42.404  43.394  32.459  1.00  0.00     0.002 C 
BRANCH  29  30
ATOM     30  C   UNL A   1      42.966  43.673  33.858  1.00  0.00    -0.000 C 
BRANCH  30  31
ATOM     31  C   UNL A   1      44.315  43.020  34.171  1.00  0.00    -0.003 C 
ATOM     32  C   UNL A   1      44.195  41.754  35.007  1.00  0.00     0.004 C 
ENDBRANCH  30  31
ENDBRANCH  29  30
ENDBRANCH  28  29
ENDBRANCH  27  28
ENDBRANCH  24  27
ENDBRANCH  22  23
ENDBRANCH  17  22
ENDBRANCH  10  16
ENDBRANCH   7   9
ENDBRANCH   5   7
ENDBRANCH   4   5
ENDBRANCH   3   4
ENDBRANCH   2   3
ENDBRANCH   1   2
BRANCH   1  33
ATOM     33  C   UNL A   1      37.055  33.694  36.164  1.00  0.00     0.188 C 
BRANCH  33  34
ATOM     34  C   UNL A   1      37.591  32.554  37.043  1.00  0.00     0.188 C 
BRANCH  34  35
ATOM     35  O   UNL A   1      38.040  32.945  38.322  1.00  0.00    -0.377 OA
BRANCH  35  36
ATOM     36  C   UNL A   1      37.755  32.063  39.396  1.00  0.00     0.188 C 
BRANCH  36  37
ATOM     37  C   UNL A   1      37.536  32.695  40.783  1.00  0.00     0.188 C 
BRANCH  37  38
ATOM     38  O   UNL A   1      38.735  32.895  41.528  1.00  0.00    -0.376 OA
BRANCH  38  39
ATOM     39  C   UNL A   1      38.880  34.116  42.242  1.00  0.00     0.202 C 
BRANCH  39  40
ATOM     40  C   UNL A   1      38.358  35.401  41.581  1.00  0.00     0.261 C 
BRANCH  40  41
ATOM     41  O   UNL A   1      39.160  36.576  41.752  1.00  0.00    -0.460 OA
BRANCH  41  42
ATOM     42  C   UNL A   1      39.238  37.461  40.733  1.00  0.00     0.338 C 
ATOM     43  O   UNL A   1      38.889  38.620  40.747  1.00  0.00    -0.246 OA
BRANCH  42  44
ATOM     44  C   UNL A   1      40.051  36.824  39.667  1.00  0.00     0.060 A 
ATOM     45  C   UNL A   1      41.346  36.385  39.973  1.00  0.00     0.016 A 
ATOM     46  C   UNL A   1      39.533  36.644  38.383  1.00  0.00     0.016 A 
ATOM     47  C   UNL A   1      42.137  35.788  38.987  1.00  0.00     0.010 A 
ATOM     48  C   UNL A   1      40.337  36.072  37.389  1.00  0.00     0.010 A 
ATOM     49  C   UNL A   1      41.654  35.666  37.679  1.00  0.00    -0.014 A 
BRANCH  49  50
ATOM     50  C   UNL A   1      42.579  35.304  36.572  1.00  0.00     0.031 A 
ATOM     51  C   UNL A   1      42.616  33.870  36.120  1.00  0.00     0.074 A 
ATOM     52  C   UNL A   1      43.362  36.220  35.972  1.00  0.00     0.049 A 
ATOM     53  N   UNL A   1      43.403  33.288  35.253  1.00  0.00    -0.248 NA
ATOM     54  C   UNL A   1      41.627  32.971  36.735  1.00  0.00     0.031 C 
ATOM     55  C   UNL A   1      43.368  37.651  36.269  1.00  0.00     0.029 A 
ATOM     56  N   UNL A   1      44.316  36.076  34.993  1.00  0.00    -0.354 N 
ATOM     57  C   UNL A   1      43.012  31.953  35.225  1.00  0.00     0.074 A 
ATOM     58  C   UNL A   1      41.940  31.809  36.185  1.00  0.00     0.031 C 
ATOM     59  C   UNL A   1      44.295  38.250  35.500  1.00  0.00     0.029 A 
ATOM     60  C   UNL A   1      44.983  37.242  34.695  1.00  0.00     0.049 A 
ATOM     61  H   UNL A   1      44.502  35.219  34.546  1.00  0.00     0.167 HD
ATOM     62  C   UNL A   1      43.504  30.941  34.467  1.00  0.00     0.034 A 
ATOM     63  C   UNL A   1      46.051  37.460  33.897  1.00  0.00     0.034 A 
ATOM     64  C   UNL A   1      44.587  31.097  33.528  1.00  0.00     0.049 A 
ATOM     65  C   UNL A   1      46.664  36.293  33.155  1.00  0.00     0.074 A 
ATOM     66  C   UNL A   1      45.154  30.142  32.702  1.00  0.00     0.029 A 
ATOM     67  N   UNL A   1      45.280  32.279  33.302  1.00  0.00    -0.354 N 
ATOM     68  N   UNL A   1      46.290  35.033  33.136  1.00  0.00    -0.248 NA
ATOM     69  C   UNL A   1      47.846  36.576  32.328  1.00  0.00     0.031 C 
ATOM     70  C   UNL A   1      46.243  30.723  32.046  1.00  0.00     0.029 A 
ATOM     71  C   UNL A   1      46.299  32.066  32.386  1.00  0.00     0.049 A 
ATOM     72  H   UNL A   1      45.078  33.143  33.729  1.00  0.00     0.167 HD
ATOM     73  C   UNL A   1      47.171  34.386  32.271  1.00  0.00     0.074 A 
ATOM     74  C   UNL A   1      48.088  35.392  31.780  1.00  0.00     0.031 C 
ATOM     75  C   UNL A   1      47.214  33.077  31.909  1.00  0.00     0.034 A 
BRANCH  62  76
ATOM     76  C   UNL A   1      42.914  29.568  34.676  1.00  0.00     0.023 A 
ATOM     77  C   UNL A   1      43.409  28.687  35.653  1.00  0.00     0.031 A 
ATOM     78  C   UNL A   1      41.856  29.121  33.863  1.00  0.00     0.131 A 
ATOM     79  C   UNL A   1      42.895  27.384  35.746  1.00  0.00     0.055 A 
ATOM     80  C   UNL A   1      41.292  27.854  34.017  1.00  0.00     0.041 A 
ATOM     81  F   UNL A   1      41.360  29.908  32.896  1.00  0.00    -0.206 F 
ATOM     82  C   UNL A   1      41.821  26.972  34.954  1.00  0.00     0.022 A 
BRANCH  79  83
ATOM     83  S   UNL A   1      43.746  26.190  36.813  1.00  0.00     0.124 S 
ATOM     84  O   UNL A   1      43.159  26.487  38.117  1.00  0.00    -0.237 OA
ATOM     85  O   UNL A   1      43.371  24.912  36.219  1.00  0.00    -0.237 OA
ATOM     86  O   UNL A   1      45.156  26.552  36.676  1.00  0.00    -0.744 OA
ENDBRANCH  79  83
ENDBRANCH  62  76
BRANCH  63  87
ATOM     87  C   UNL A   1      46.661  38.820  33.798  1.00  0.00     0.023 A 
ATOM     88  C   UNL A   1      46.465  39.625  32.664  1.00  0.00     0.031 A 
ATOM     89  C   UNL A   1      47.511  39.306  34.808  1.00  0.00     0.131 A 
ATOM     90  C   UNL A   1      47.145  40.848  32.546  1.00  0.00     0.055 A 
ATOM     91  C   UNL A   1      48.137  40.550  34.714  1.00  0.00     0.041 A 
ATOM     92  F   UNL A   1      47.745  38.574  35.909  1.00  0.00    -0.206 F 
ATOM     93  C   UNL A   1      47.967  41.324  33.570  1.00  0.00     0.022 A 
BRANCH  90  94
ATOM     94  S   UNL A   1      47.024  41.765  30.985  1.00  0.00     0.124 S 
ATOM     95  O   UNL A   1      48.425  41.877  30.598  1.00  0.00    -0.237 OA
ATOM     96  O   UNL A   1      46.202  40.873  30.175  1.00  0.00    -0.237 OA
ATOM     97  O   UNL A   1      46.382  43.018  31.375  1.00  0.00    -0.744 OA
ENDBRANCH  90  94
ENDBRANCH  63  87
BRANCH  75  98
ATOM     98  C   UNL A   1      48.258  32.665  30.897  1.00  0.00     0.023 A 
ATOM     99  C   UNL A   1      48.003  32.677  29.515  1.00  0.00     0.031 A 
ATOM    100  C   UNL A   1      49.540  32.276  31.328  1.00  0.00     0.131 A 
ATOM    101  C   UNL A   1      48.999  32.265  28.616  1.00  0.00     0.055 A 
ATOM    102  C   UNL A   1      50.546  31.928  30.425  1.00  0.00     0.041 A 
ATOM    103  F   UNL A   1      49.841  32.242  32.636  1.00  0.00    -0.206 F 
ATOM    104  C   UNL A   1      50.275  31.911  29.061  1.00  0.00     0.022 A 
BRANCH 101 105
ATOM    105  S   UNL A   1      48.583  32.123  26.856  1.00  0.00     0.124 S 
ATOM    106  O   UNL A   1      48.470  30.678  26.687  1.00  0.00    -0.237 OA
ATOM    107  O   UNL A   1      47.336  32.875  26.766  1.00  0.00    -0.237 OA
ATOM    108  O   UNL A   1      49.725  32.738  26.183  1.00  0.00    -0.744 OA
ENDBRANCH 101 105
ENDBRANCH  75  98
ENDBRANCH  49  50
ENDBRANCH  42  44
ENDBRANCH  41  42
ENDBRANCH  40  41
ENDBRANCH  39  40
ENDBRANCH  38  39
ENDBRANCH  37  38
ENDBRANCH  36  37
ENDBRANCH  35  36
ENDBRANCH  34  35
ENDBRANCH  33  34
ENDBRANCH   1  33
TORSDOF 32
ENDMDL
