MODEL 1
REMARK VINA RESULT:     -10.2      0.000      0.000
REMARK SMILES O=Cc1c(OCc2ccc(C(=O)OCCOCCOCCOCCOC(=O)c3ccc(-c4c5nc(c(-c6cc(S(=O)(=O)[O-])ccc6F)c6ccc([nH]6)c(-c6cc(S(=O)(=O)[O-])ccc6F)c6nc(c(-c7cc(S(=O)(=O)[O-])ccc7F)c7ccc4[nH]7)C=C6)C=C5)cc3)cc2)ccc2ccccc12
REMARK SMILES IDX 18 1 17 2 16 3 15 4 14 5 13 6 11 7 12 8 10 9 7 10 8 11 92 12
REMARK SMILES IDX 9 13 91 14 6 15 5 16 4 17 3 18 100 19 93 20 95 21 99 22
REMARK SMILES IDX 94 23 96 24 98 25 97 26 2 27 1 28 19 29 20 30 21 31 22 32
REMARK SMILES IDX 23 33 24 34 25 35 26 36 27 37 28 38 29 39 90 40 30 41 89 42
REMARK SMILES IDX 31 43 32 44 33 45 83 46 34 47 88 48 82 49 84 50 35 51 87 52
REMARK SMILES IDX 81 53 80 54 36 56 68 57 48 58 67 59 49 60 52 61 66 62 85 63
REMARK SMILES IDX 50 64 51 65 65 67 86 68 53 69 37 70 38 71 46 72 39 73 45 74
REMARK SMILES IDX 47 75 44 76 40 77 41 78 42 79 43 80 69 81 70 82 78 83 71 84
REMARK SMILES IDX 77 85 79 86 76 87 72 88 73 89 74 90 75 91 54 92 55 93 63 94
REMARK SMILES IDX 56 95 62 96 64 97 61 98 57 99 58 100 59 101 60 102
REMARK H PARENT 84 55 52 66
REMARK Flexibility Score: inf
ROOT
ATOM      1  C   UNL A   1      33.917  31.131  27.597  1.00  0.00     0.188 C 
ENDROOT
BRANCH   1   2
ATOM      2  C   UNL A   1      33.731  29.676  27.118  1.00  0.00     0.188 C 
BRANCH   2   3
ATOM      3  O   UNL A   1      33.086  29.564  25.862  1.00  0.00    -0.376 OA
BRANCH   3   4
ATOM      4  C   UNL A   1      31.775  30.074  25.706  1.00  0.00     0.202 C 
BRANCH   4   5
ATOM      5  C   UNL A   1      31.038  29.910  24.365  1.00  0.00     0.261 C 
BRANCH   5   6
ATOM      6  O   UNL A   1      30.267  28.716  24.209  1.00  0.00    -0.460 OA
BRANCH   6   7
ATOM      7  C   UNL A   1      30.570  27.927  23.160  1.00  0.00     0.338 C 
ATOM      8  O   UNL A   1      30.272  28.106  21.992  1.00  0.00    -0.246 OA
BRANCH   7   9
ATOM      9  C   UNL A   1      31.541  26.912  23.621  1.00  0.00     0.060 A 
ATOM     10  C   UNL A   1      33.350  25.054  24.665  1.00  0.00    -0.011 A 
ATOM     11  C   UNL A   1      32.040  25.119  25.159  1.00  0.00     0.008 A 
ATOM     12  C   UNL A   1      33.683  25.808  23.527  1.00  0.00     0.008 A 
ATOM     13  C   UNL A   1      31.163  26.088  24.686  1.00  0.00     0.016 A 
ATOM     14  C   UNL A   1      32.774  26.725  22.992  1.00  0.00     0.016 A 
BRANCH  10  15
ATOM     15  C   UNL A   1      34.443  24.292  25.399  1.00  0.00     0.265 C 
BRANCH  15  16
ATOM     16  O   UNL A   1      34.060  23.037  25.982  1.00  0.00    -0.488 OA
BRANCH  16  17
ATOM     17  C   UNL A   1      34.400  21.844  25.392  1.00  0.00     0.130 A 
ATOM     18  C   UNL A   1      33.343  21.053  24.905  1.00  0.00     0.064 A 
ATOM     19  C   UNL A   1      33.541  19.702  24.495  1.00  0.00    -0.004 A 
ATOM     20  C   UNL A   1      35.690  21.315  25.375  1.00  0.00     0.048 A 
ATOM     21  C   UNL A   1      34.847  19.166  24.595  1.00  0.00    -0.017 A 
ATOM     22  C   UNL A   1      32.524  18.849  23.995  1.00  0.00     0.009 A 
ATOM     23  C   UNL A   1      35.903  19.983  25.015  1.00  0.00     0.012 A 
ATOM     24  C   UNL A   1      35.086  17.821  24.267  1.00  0.00     0.009 A 
ATOM     25  C   UNL A   1      32.781  17.518  23.654  1.00  0.00     0.001 A 
ATOM     26  C   UNL A   1      34.060  17.001  23.805  1.00  0.00     0.001 A 
BRANCH  18  27
ATOM     27  C   UNL A   1      31.973  21.615  24.889  1.00  0.00     0.264 C 
ATOM     28  O   UNL A   1      31.138  21.375  25.752  1.00  0.00    -0.298 OA
ENDBRANCH  18  27
ENDBRANCH  16  17
ENDBRANCH  15  16
ENDBRANCH  10  15
ENDBRANCH   7   9
ENDBRANCH   6   7
ENDBRANCH   5   6
ENDBRANCH   4   5
ENDBRANCH   3   4
ENDBRANCH   2   3
ENDBRANCH   1   2
BRANCH   1  29
ATOM     29  O   UNL A   1      35.231  31.660  27.630  1.00  0.00    -0.377 OA
BRANCH  29  30
ATOM     30  C   UNL A   1      35.644  32.465  28.733  1.00  0.00     0.188 C 
BRANCH  30  31
ATOM     31  C   UNL A   1      34.656  33.363  29.519  1.00  0.00     0.188 C 
BRANCH  31  32
ATOM     32  O   UNL A   1      34.353  34.606  28.903  1.00  0.00    -0.376 OA
BRANCH  32  33
ATOM     33  C   UNL A   1      33.019  35.071  29.004  1.00  0.00     0.202 C 
BRANCH  33  34
ATOM     34  C   UNL A   1      32.754  36.140  30.071  1.00  0.00     0.261 C 
BRANCH  34  35
ATOM     35  O   UNL A   1      32.137  35.681  31.283  1.00  0.00    -0.460 OA
BRANCH  35  36
ATOM     36  C   UNL A   1      32.697  36.067  32.451  1.00  0.00     0.338 C 
ATOM     37  O   UNL A   1      32.234  36.857  33.258  1.00  0.00    -0.246 OA
BRANCH  36  38
ATOM     38  C   UNL A   1      33.881  35.211  32.677  1.00  0.00     0.060 A 
ATOM     39  C   UNL A   1      33.705  33.899  33.135  1.00  0.00     0.016 A 
ATOM     40  C   UNL A   1      35.160  35.700  32.399  1.00  0.00     0.016 A 
ATOM     41  C   UNL A   1      34.814  33.075  33.331  1.00  0.00     0.010 A 
ATOM     42  C   UNL A   1      36.269  34.880  32.617  1.00  0.00     0.010 A 
ATOM     43  C   UNL A   1      36.106  33.572  33.106  1.00  0.00    -0.014 A 
BRANCH  43  44
ATOM     44  C   UNL A   1      37.293  32.793  33.536  1.00  0.00     0.031 A 
ATOM     45  C   UNL A   1      37.933  33.134  34.853  1.00  0.00     0.074 A 
ATOM     46  C   UNL A   1      37.794  31.804  32.776  1.00  0.00     0.049 A 
ATOM     47  N   UNL A   1      39.018  32.656  35.402  1.00  0.00    -0.248 NA
ATOM     48  C   UNL A   1      37.253  34.164  35.653  1.00  0.00     0.031 C 
ATOM     49  C   UNL A   1      37.231  31.348  31.506  1.00  0.00     0.029 A 
ATOM     50  N   UNL A   1      38.900  31.011  32.959  1.00  0.00    -0.354 N 
ATOM     51  C   UNL A   1      39.157  33.330  36.611  1.00  0.00     0.074 A 
ATOM     52  C   UNL A   1      38.066  34.279  36.690  1.00  0.00     0.031 C 
ATOM     53  C   UNL A   1      38.002  30.359  31.020  1.00  0.00     0.029 A 
ATOM     54  C   UNL A   1      39.137  30.146  31.916  1.00  0.00     0.049 A 
ATOM     55  H   UNL A   1      39.469  31.058  33.760  1.00  0.00     0.167 HD
ATOM     56  C   UNL A   1      40.104  33.166  37.568  1.00  0.00     0.034 A 
ATOM     57  C   UNL A   1      40.170  29.306  31.698  1.00  0.00     0.034 A 
ATOM     58  C   UNL A   1      41.198  32.230  37.459  1.00  0.00     0.049 A 
ATOM     59  C   UNL A   1      41.279  29.225  32.721  1.00  0.00     0.074 A 
ATOM     60  C   UNL A   1      42.202  31.968  38.374  1.00  0.00     0.029 A 
ATOM     61  N   UNL A   1      41.446  31.419  36.358  1.00  0.00    -0.354 N 
ATOM     62  N   UNL A   1      41.397  29.855  33.867  1.00  0.00    -0.248 NA
ATOM     63  C   UNL A   1      42.395  28.319  32.417  1.00  0.00     0.031 C 
ATOM     64  C   UNL A   1      43.103  31.070  37.792  1.00  0.00     0.029 A 
ATOM     65  C   UNL A   1      42.614  30.697  36.550  1.00  0.00     0.049 A 
ATOM     66  H   UNL A   1      40.875  31.366  35.558  1.00  0.00     0.167 HD
ATOM     67  C   UNL A   1      42.587  29.400  34.432  1.00  0.00     0.074 A 
ATOM     68  C   UNL A   1      43.139  28.431  33.508  1.00  0.00     0.031 C 
ATOM     69  C   UNL A   1      43.170  29.749  35.610  1.00  0.00     0.034 A 
BRANCH  56  70
ATOM     70  C   UNL A   1      40.025  34.067  38.778  1.00  0.00     0.023 A 
ATOM     71  C   UNL A   1      39.280  33.715  39.918  1.00  0.00     0.031 A 
ATOM     72  C   UNL A   1      40.660  35.322  38.771  1.00  0.00     0.131 A 
ATOM     73  C   UNL A   1      39.117  34.639  40.961  1.00  0.00     0.055 A 
ATOM     74  C   UNL A   1      40.570  36.200  39.853  1.00  0.00     0.041 A 
ATOM     75  F   UNL A   1      41.364  35.727  37.702  1.00  0.00    -0.206 F 
ATOM     76  C   UNL A   1      39.779  35.869  40.949  1.00  0.00     0.022 A 
BRANCH  73  77
ATOM     77  S   UNL A   1      37.888  34.283  42.247  1.00  0.00     0.124 S 
ATOM     78  O   UNL A   1      37.794  35.571  42.930  1.00  0.00    -0.237 OA
ATOM     79  O   UNL A   1      36.722  33.885  41.467  1.00  0.00    -0.237 OA
ATOM     80  O   UNL A   1      38.510  33.216  43.029  1.00  0.00    -0.744 OA
ENDBRANCH  73  77
ENDBRANCH  56  70
BRANCH  57  81
ATOM     81  C   UNL A   1      40.237  28.504  30.441  1.00  0.00     0.023 A 
ATOM     82  C   UNL A   1      41.110  28.856  29.400  1.00  0.00     0.031 A 
ATOM     83  C   UNL A   1      39.391  27.396  30.245  1.00  0.00     0.131 A 
ATOM     84  C   UNL A   1      41.095  28.131  28.198  1.00  0.00     0.055 A 
ATOM     85  C   UNL A   1      39.419  26.644  29.069  1.00  0.00     0.041 A 
ATOM     86  F   UNL A   1      38.530  27.020  31.204  1.00  0.00    -0.206 F 
ATOM     87  C   UNL A   1      40.268  27.017  28.033  1.00  0.00     0.022 A 
BRANCH  84  88
ATOM     88  S   UNL A   1      42.123  28.710  26.820  1.00  0.00     0.124 S 
ATOM     89  O   UNL A   1      42.684  29.939  27.365  1.00  0.00    -0.237 OA
ATOM     90  O   UNL A   1      43.053  27.599  26.648  1.00  0.00    -0.237 OA
ATOM     91  O   UNL A   1      41.163  28.889  25.732  1.00  0.00    -0.744 OA
ENDBRANCH  84  88
ENDBRANCH  57  81
BRANCH  69  92
ATOM     92  C   UNL A   1      44.461  29.053  35.974  1.00  0.00     0.023 A 
ATOM     93  C   UNL A   1      44.475  27.758  36.523  1.00  0.00     0.031 A 
ATOM     94  C   UNL A   1      45.696  29.698  35.776  1.00  0.00     0.131 A 
ATOM     95  C   UNL A   1      45.693  27.174  36.906  1.00  0.00     0.055 A 
ATOM     96  C   UNL A   1      46.908  29.083  36.094  1.00  0.00     0.041 A 
ATOM     97  F   UNL A   1      45.746  30.937  35.261  1.00  0.00    -0.206 F 
ATOM     98  C   UNL A   1      46.910  27.818  36.676  1.00  0.00     0.022 A 
BRANCH  95  99
ATOM     99  S   UNL A   1      45.657  25.599  37.805  1.00  0.00     0.124 S 
ATOM    100  O   UNL A   1      46.263  25.965  39.081  1.00  0.00    -0.237 OA
ATOM    101  O   UNL A   1      44.231  25.291  37.842  1.00  0.00    -0.237 OA
ATOM    102  O   UNL A   1      46.461  24.708  36.970  1.00  0.00    -0.744 OA
ENDBRANCH  95  99
ENDBRANCH  69  92
ENDBRANCH  43  44
ENDBRANCH  36  38
ENDBRANCH  35  36
ENDBRANCH  34  35
ENDBRANCH  33  34
ENDBRANCH  32  33
ENDBRANCH  31  32
ENDBRANCH  30  31
ENDBRANCH  29  30
ENDBRANCH   1  29
TORSDOF 27
ENDMDL
MODEL 2
REMARK VINA RESULT:      -9.7      6.585     10.101
REMARK SMILES O=Cc1c(OCc2ccc(C(=O)OCCOCCOCCOCCOC(=O)c3ccc(-c4c5nc(c(-c6cc(S(=O)(=O)[O-])ccc6F)c6ccc([nH]6)c(-c6cc(S(=O)(=O)[O-])ccc6F)c6nc(c(-c7cc(S(=O)(=O)[O-])ccc7F)c7ccc4[nH]7)C=C6)C=C5)cc3)cc2)ccc2ccccc12
REMARK SMILES IDX 18 1 17 2 16 3 15 4 14 5 13 6 11 7 12 8 10 9 7 10 8 11 92 12
REMARK SMILES IDX 9 13 91 14 6 15 5 16 4 17 3 18 100 19 93 20 95 21 99 22
REMARK SMILES IDX 94 23 96 24 98 25 97 26 2 27 1 28 19 29 20 30 21 31 22 32
REMARK SMILES IDX 23 33 24 34 25 35 26 36 27 37 28 38 29 39 90 40 30 41 89 42
REMARK SMILES IDX 31 43 32 44 33 45 83 46 34 47 88 48 82 49 84 50 35 51 87 52
REMARK SMILES IDX 81 53 80 54 36 56 68 57 48 58 67 59 49 60 52 61 66 62 85 63
REMARK SMILES IDX 50 64 51 65 65 67 86 68 53 69 37 70 38 71 46 72 39 73 45 74
REMARK SMILES IDX 47 75 44 76 40 77 41 78 42 79 43 80 69 81 70 82 78 83 71 84
REMARK SMILES IDX 77 85 79 86 76 87 72 88 73 89 74 90 75 91 54 92 55 93 63 94
REMARK SMILES IDX 56 95 62 96 64 97 61 98 57 99 58 100 59 101 60 102
REMARK H PARENT 84 55 52 66
REMARK Flexibility Score: inf
ROOT
ATOM      1  C   UNL A   1      33.370  35.516  28.998  1.00  0.00     0.188 C 
ENDROOT
BRANCH   1   2
ATOM      2  C   UNL A   1      33.253  34.269  28.098  1.00  0.00     0.188 C 
BRANCH   2   3
ATOM      3  O   UNL A   1      34.497  33.781  27.629  1.00  0.00    -0.376 OA
BRANCH   3   4
ATOM      4  C   UNL A   1      34.984  32.541  28.109  1.00  0.00     0.202 C 
BRANCH   4   5
ATOM      5  C   UNL A   1      34.060  31.311  28.143  1.00  0.00     0.261 C 
BRANCH   5   6
ATOM      6  O   UNL A   1      33.571  30.852  26.880  1.00  0.00    -0.460 OA
BRANCH   6   7
ATOM      7  C   UNL A   1      32.234  30.807  26.724  1.00  0.00     0.338 C 
ATOM      8  O   UNL A   1      31.457  31.746  26.738  1.00  0.00    -0.246 OA
BRANCH   7   9
ATOM      9  C   UNL A   1      31.873  29.441  26.289  1.00  0.00     0.060 A 
ATOM     10  C   UNL A   1      31.044  26.931  25.380  1.00  0.00    -0.011 A 
ATOM     11  C   UNL A   1      31.241  27.982  24.472  1.00  0.00     0.008 A 
ATOM     12  C   UNL A   1      31.437  27.108  26.717  1.00  0.00     0.008 A 
ATOM     13  C   UNL A   1      31.588  29.246  24.934  1.00  0.00     0.016 A 
ATOM     14  C   UNL A   1      31.869  28.358  27.170  1.00  0.00     0.016 A 
BRANCH  10  15
ATOM     15  C   UNL A   1      30.305  25.662  24.983  1.00  0.00     0.265 C 
BRANCH  15  16
ATOM     16  O   UNL A   1      30.927  24.422  25.356  1.00  0.00    -0.488 OA
BRANCH  16  17
ATOM     17  C   UNL A   1      32.057  23.972  24.717  1.00  0.00     0.130 A 
ATOM     18  C   UNL A   1      32.828  23.009  25.396  1.00  0.00     0.064 A 
ATOM     19  C   UNL A   1      34.134  22.646  24.955  1.00  0.00    -0.004 A 
ATOM     20  C   UNL A   1      32.552  24.505  23.528  1.00  0.00     0.048 A 
ATOM     21  C   UNL A   1      34.646  23.289  23.804  1.00  0.00    -0.017 A 
ATOM     22  C   UNL A   1      34.965  21.686  25.587  1.00  0.00     0.009 A 
ATOM     23  C   UNL A   1      33.843  24.193  23.098  1.00  0.00     0.012 A 
ATOM     24  C   UNL A   1      35.952  23.018  23.363  1.00  0.00     0.009 A 
ATOM     25  C   UNL A   1      36.256  21.412  25.126  1.00  0.00     0.001 A 
ATOM     26  C   UNL A   1      36.754  22.089  24.023  1.00  0.00     0.001 A 
BRANCH  18  27
ATOM     27  C   UNL A   1      32.299  22.414  26.644  1.00  0.00     0.264 C 
ATOM     28  O   UNL A   1      32.521  22.876  27.756  1.00  0.00    -0.298 OA
ENDBRANCH  18  27
ENDBRANCH  16  17
ENDBRANCH  15  16
ENDBRANCH  10  15
ENDBRANCH   7   9
ENDBRANCH   6   7
ENDBRANCH   5   6
ENDBRANCH   4   5
ENDBRANCH   3   4
ENDBRANCH   2   3
ENDBRANCH   1   2
BRANCH   1  29
ATOM     29  O   UNL A   1      32.562  35.577  30.161  1.00  0.00    -0.377 OA
BRANCH  29  30
ATOM     30  C   UNL A   1      33.062  36.206  31.340  1.00  0.00     0.188 C 
BRANCH  30  31
ATOM     31  C   UNL A   1      33.299  35.426  32.657  1.00  0.00     0.188 C 
BRANCH  31  32
ATOM     32  O   UNL A   1      33.614  34.051  32.493  1.00  0.00    -0.376 OA
BRANCH  32  33
ATOM     33  C   UNL A   1      34.977  33.716  32.302  1.00  0.00     0.202 C 
BRANCH  33  34
ATOM     34  C   UNL A   1      35.405  32.322  32.777  1.00  0.00     0.261 C 
BRANCH  34  35
ATOM     35  O   UNL A   1      35.981  31.465  31.780  1.00  0.00    -0.460 OA
BRANCH  35  36
ATOM     36  C   UNL A   1      36.858  30.526  32.199  1.00  0.00     0.338 C 
ATOM     37  O   UNL A   1      36.598  29.505  32.813  1.00  0.00    -0.246 OA
BRANCH  36  38
ATOM     38  C   UNL A   1      38.172  30.855  31.607  1.00  0.00     0.060 A 
ATOM     39  C   UNL A   1      39.198  31.336  32.431  1.00  0.00     0.016 A 
ATOM     40  C   UNL A   1      38.396  30.650  30.243  1.00  0.00     0.016 A 
ATOM     41  C   UNL A   1      40.450  31.628  31.887  1.00  0.00     0.010 A 
ATOM     42  C   UNL A   1      39.643  30.965  29.697  1.00  0.00     0.010 A 
ATOM     43  C   UNL A   1      40.669  31.477  30.510  1.00  0.00    -0.014 A 
BRANCH  43  44
ATOM     44  C   UNL A   1      41.906  32.007  29.887  1.00  0.00     0.031 A 
ATOM     45  C   UNL A   1      43.035  31.052  29.613  1.00  0.00     0.074 A 
ATOM     46  C   UNL A   1      42.028  33.308  29.571  1.00  0.00     0.049 A 
ATOM     47  N   UNL A   1      44.235  31.289  29.155  1.00  0.00    -0.248 NA
ATOM     48  C   UNL A   1      42.766  29.636  29.905  1.00  0.00     0.031 C 
ATOM     49  C   UNL A   1      40.987  34.320  29.743  1.00  0.00     0.029 A 
ATOM     50  N   UNL A   1      43.091  34.004  29.050  1.00  0.00    -0.354 N 
ATOM     51  C   UNL A   1      44.872  30.053  29.108  1.00  0.00     0.074 A 
ATOM     52  C   UNL A   1      43.933  29.079  29.625  1.00  0.00     0.031 C 
ATOM     53  C   UNL A   1      41.467  35.509  29.339  1.00  0.00     0.029 A 
ATOM     54  C   UNL A   1      42.862  35.354  28.930  1.00  0.00     0.049 A 
ATOM     55  H   UNL A   1      43.938  33.575  28.787  1.00  0.00     0.167 HD
ATOM     56  C   UNL A   1      46.120  29.759  28.668  1.00  0.00     0.034 A 
ATOM     57  C   UNL A   1      43.693  36.351  28.563  1.00  0.00     0.034 A 
ATOM     58  C   UNL A   1      47.049  30.749  28.178  1.00  0.00     0.049 A 
ATOM     59  C   UNL A   1      45.119  36.018  28.191  1.00  0.00     0.074 A 
ATOM     60  C   UNL A   1      48.331  30.561  27.691  1.00  0.00     0.029 A 
ATOM     61  N   UNL A   1      46.807  32.117  28.135  1.00  0.00    -0.354 N 
ATOM     62  N   UNL A   1      45.709  34.846  28.136  1.00  0.00    -0.248 NA
ATOM     63  C   UNL A   1      45.990  37.146  27.832  1.00  0.00     0.031 C 
ATOM     64  C   UNL A   1      48.893  31.818  27.440  1.00  0.00     0.029 A 
ATOM     65  C   UNL A   1      47.932  32.787  27.680  1.00  0.00     0.049 A 
ATOM     66  H   UNL A   1      45.959  32.547  28.392  1.00  0.00     0.167 HD
ATOM     67  C   UNL A   1      47.013  35.095  27.711  1.00  0.00     0.074 A 
ATOM     68  C   UNL A   1      47.116  36.525  27.508  1.00  0.00     0.031 C 
ATOM     69  C   UNL A   1      48.033  34.219  27.504  1.00  0.00     0.034 A 
BRANCH  56  70
ATOM     70  C   UNL A   1      46.564  28.318  28.763  1.00  0.00     0.023 A 
ATOM     71  C   UNL A   1      46.329  27.399  27.724  1.00  0.00     0.031 A 
ATOM     72  C   UNL A   1      47.183  27.841  29.932  1.00  0.00     0.131 A 
ATOM     73  C   UNL A   1      46.629  26.042  27.909  1.00  0.00     0.055 A 
ATOM     74  C   UNL A   1      47.563  26.505  30.073  1.00  0.00     0.041 A 
ATOM     75  F   UNL A   1      47.410  28.662  30.970  1.00  0.00    -0.206 F 
ATOM     76  C   UNL A   1      47.270  25.592  29.065  1.00  0.00     0.022 A 
BRANCH  73  77
ATOM     77  S   UNL A   1      46.010  24.846  26.693  1.00  0.00     0.124 S 
ATOM     78  O   UNL A   1      45.128  24.019  27.513  1.00  0.00    -0.237 OA
ATOM     79  O   UNL A   1      45.354  25.704  25.713  1.00  0.00    -0.237 OA
ATOM     80  O   UNL A   1      47.221  24.175  26.224  1.00  0.00    -0.744 OA
ENDBRANCH  73  77
ENDBRANCH  56  70
BRANCH  57  81
ATOM     81  C   UNL A   1      43.222  37.767  28.572  1.00  0.00     0.023 A 
ATOM     82  C   UNL A   1      43.414  38.589  29.694  1.00  0.00     0.031 A 
ATOM     83  C   UNL A   1      42.531  38.306  27.471  1.00  0.00     0.131 A 
ATOM     84  C   UNL A   1      42.890  39.892  29.703  1.00  0.00     0.055 A 
ATOM     85  C   UNL A   1      42.062  39.620  27.464  1.00  0.00     0.041 A 
ATOM     86  F   UNL A   1      42.313  37.561  26.375  1.00  0.00    -0.206 F 
ATOM     87  C   UNL A   1      42.232  40.419  28.591  1.00  0.00     0.022 A 
BRANCH  84  88
ATOM     88  S   UNL A   1      43.020  40.870  31.227  1.00  0.00     0.124 S 
ATOM     89  O   UNL A   1      41.657  41.366  31.376  1.00  0.00    -0.237 OA
ATOM     90  O   UNL A   1      43.449  39.867  32.196  1.00  0.00    -0.237 OA
ATOM     91  O   UNL A   1      44.021  41.882  30.897  1.00  0.00    -0.744 OA
ENDBRANCH  84  88
ENDBRANCH  57  81
BRANCH  69  92
ATOM     92  C   UNL A   1      49.340  34.789  27.005  1.00  0.00     0.023 A 
ATOM     93  C   UNL A   1      50.401  35.085  27.880  1.00  0.00     0.031 A 
ATOM     94  C   UNL A   1      49.527  35.045  25.634  1.00  0.00     0.131 A 
ATOM     95  C   UNL A   1      51.575  35.672  27.383  1.00  0.00     0.055 A 
ATOM     96  C   UNL A   1      50.724  35.564  25.137  1.00  0.00     0.041 A 
ATOM     97  F   UNL A   1      48.549  34.788  24.751  1.00  0.00    -0.206 F 
ATOM     98  C   UNL A   1      51.752  35.894  26.015  1.00  0.00     0.022 A 
BRANCH  95  99
ATOM     99  S   UNL A   1      52.832  36.238  28.563  1.00  0.00     0.124 S 
ATOM    100  O   UNL A   1      53.412  34.978  29.015  1.00  0.00    -0.237 OA
ATOM    101  O   UNL A   1      53.691  37.072  27.729  1.00  0.00    -0.237 OA
ATOM    102  O   UNL A   1      52.057  36.960  29.570  1.00  0.00    -0.744 OA
ENDBRANCH  95  99
ENDBRANCH  69  92
ENDBRANCH  43  44
ENDBRANCH  36  38
ENDBRANCH  35  36
ENDBRANCH  34  35
ENDBRANCH  33  34
ENDBRANCH  32  33
ENDBRANCH  31  32
ENDBRANCH  30  31
ENDBRANCH  29  30
ENDBRANCH   1  29
TORSDOF 27
ENDMDL
MODEL 3
REMARK VINA RESULT:      -9.7      6.227     10.132
REMARK SMILES O=Cc1c(OCc2ccc(C(=O)OCCOCCOCCOCCOC(=O)c3ccc(-c4c5nc(c(-c6cc(S(=O)(=O)[O-])ccc6F)c6ccc([nH]6)c(-c6cc(S(=O)(=O)[O-])ccc6F)c6nc(c(-c7cc(S(=O)(=O)[O-])ccc7F)c7ccc4[nH]7)C=C6)C=C5)cc3)cc2)ccc2ccccc12
REMARK SMILES IDX 18 1 17 2 16 3 15 4 14 5 13 6 11 7 12 8 10 9 7 10 8 11 92 12
REMARK SMILES IDX 9 13 91 14 6 15 5 16 4 17 3 18 100 19 93 20 95 21 99 22
REMARK SMILES IDX 94 23 96 24 98 25 97 26 2 27 1 28 19 29 20 30 21 31 22 32
REMARK SMILES IDX 23 33 24 34 25 35 26 36 27 37 28 38 29 39 90 40 30 41 89 42
REMARK SMILES IDX 31 43 32 44 33 45 83 46 34 47 88 48 82 49 84 50 35 51 87 52
REMARK SMILES IDX 81 53 80 54 36 56 68 57 48 58 67 59 49 60 52 61 66 62 85 63
REMARK SMILES IDX 50 64 51 65 65 67 86 68 53 69 37 70 38 71 46 72 39 73 45 74
REMARK SMILES IDX 47 75 44 76 40 77 41 78 42 79 43 80 69 81 70 82 78 83 71 84
REMARK SMILES IDX 77 85 79 86 76 87 72 88 73 89 74 90 75 91 54 92 55 93 63 94
REMARK SMILES IDX 56 95 62 96 64 97 61 98 57 99 58 100 59 101 60 102
REMARK H PARENT 84 55 52 66
REMARK Flexibility Score: inf
ROOT
ATOM      1  C   UNL A   1      33.626  35.449  28.820  1.00  0.00     0.188 C 
ENDROOT
BRANCH   1   2
ATOM      2  C   UNL A   1      33.605  34.129  28.022  1.00  0.00     0.188 C 
BRANCH   2   3
ATOM      3  O   UNL A   1      34.890  33.661  27.653  1.00  0.00    -0.376 OA
BRANCH   3   4
ATOM      4  C   UNL A   1      35.212  32.295  27.839  1.00  0.00     0.202 C 
BRANCH   4   5
ATOM      5  C   UNL A   1      34.097  31.268  28.101  1.00  0.00     0.261 C 
BRANCH   5   6
ATOM      6  O   UNL A   1      33.608  30.559  26.959  1.00  0.00    -0.460 OA
BRANCH   6   7
ATOM      7  C   UNL A   1      32.290  30.655  26.700  1.00  0.00     0.338 C 
ATOM      8  O   UNL A   1      31.603  31.662  26.729  1.00  0.00    -0.246 OA
BRANCH   7   9
ATOM      9  C   UNL A   1      31.843  29.364  26.135  1.00  0.00     0.060 A 
ATOM     10  C   UNL A   1      30.859  27.015  24.983  1.00  0.00    -0.011 A 
ATOM     11  C   UNL A   1      31.168  28.121  24.178  1.00  0.00     0.008 A 
ATOM     12  C   UNL A   1      31.216  27.044  26.342  1.00  0.00     0.008 A 
ATOM     13  C   UNL A   1      31.593  29.310  24.760  1.00  0.00     0.016 A 
ATOM     14  C   UNL A   1      31.725  28.213  26.916  1.00  0.00     0.016 A 
BRANCH  10  15
ATOM     15  C   UNL A   1      30.041  25.847  24.454  1.00  0.00     0.265 C 
BRANCH  15  16
ATOM     16  O   UNL A   1      30.493  24.535  24.825  1.00  0.00    -0.488 OA
BRANCH  16  17
ATOM     17  C   UNL A   1      31.678  24.029  24.351  1.00  0.00     0.130 A 
ATOM     18  C   UNL A   1      32.460  23.288  25.257  1.00  0.00     0.064 A 
ATOM     19  C   UNL A   1      33.806  22.921  24.964  1.00  0.00    -0.004 A 
ATOM     20  C   UNL A   1      32.211  24.321  23.096  1.00  0.00     0.048 A 
ATOM     21  C   UNL A   1      34.347  23.329  23.723  1.00  0.00    -0.017 A 
ATOM     22  C   UNL A   1      34.649  22.176  25.828  1.00  0.00     0.009 A 
ATOM     23  C   UNL A   1      33.539  24.005  22.801  1.00  0.00     0.012 A 
ATOM     24  C   UNL A   1      35.688  23.052  23.410  1.00  0.00     0.009 A 
ATOM     25  C   UNL A   1      35.976  21.890  25.495  1.00  0.00     0.001 A 
ATOM     26  C   UNL A   1      36.499  22.342  24.292  1.00  0.00     0.001 A 
BRANCH  18  27
ATOM     27  C   UNL A   1      31.893  22.946  26.582  1.00  0.00     0.264 C 
ATOM     28  O   UNL A   1      31.806  23.749  27.503  1.00  0.00    -0.298 OA
ENDBRANCH  18  27
ENDBRANCH  16  17
ENDBRANCH  15  16
ENDBRANCH  10  15
ENDBRANCH   7   9
ENDBRANCH   6   7
ENDBRANCH   5   6
ENDBRANCH   4   5
ENDBRANCH   3   4
ENDBRANCH   2   3
ENDBRANCH   1   2
BRANCH   1  29
ATOM     29  O   UNL A   1      32.605  35.667  29.777  1.00  0.00    -0.377 OA
BRANCH  29  30
ATOM     30  C   UNL A   1      32.900  36.372  30.982  1.00  0.00     0.188 C 
BRANCH  30  31
ATOM     31  C   UNL A   1      33.247  35.643  32.304  1.00  0.00     0.188 C 
BRANCH  31  32
ATOM     32  O   UNL A   1      33.434  34.240  32.186  1.00  0.00    -0.376 OA
BRANCH  32  33
ATOM     33  C   UNL A   1      34.702  33.791  31.741  1.00  0.00     0.202 C 
BRANCH  33  34
ATOM     34  C   UNL A   1      35.139  32.405  32.233  1.00  0.00     0.261 C 
BRANCH  34  35
ATOM     35  O   UNL A   1      35.939  31.637  31.322  1.00  0.00    -0.460 OA
BRANCH  35  36
ATOM     36  C   UNL A   1      36.725  30.671  31.846  1.00  0.00     0.338 C 
ATOM     37  O   UNL A   1      36.362  29.705  32.496  1.00  0.00    -0.246 OA
BRANCH  36  38
ATOM     38  C   UNL A   1      38.092  30.883  31.325  1.00  0.00     0.060 A 
ATOM     39  C   UNL A   1      39.179  30.854  32.209  1.00  0.00     0.016 A 
ATOM     40  C   UNL A   1      38.297  31.074  29.956  1.00  0.00     0.016 A 
ATOM     41  C   UNL A   1      40.476  31.031  31.724  1.00  0.00     0.010 A 
ATOM     42  C   UNL A   1      39.594  31.274  29.478  1.00  0.00     0.010 A 
ATOM     43  C   UNL A   1      40.688  31.276  30.361  1.00  0.00    -0.014 A 
BRANCH  43  44
ATOM     44  C   UNL A   1      42.024  31.701  29.876  1.00  0.00     0.031 A 
ATOM     45  C   UNL A   1      43.019  30.639  29.498  1.00  0.00     0.074 A 
ATOM     46  C   UNL A   1      42.350  33.001  29.774  1.00  0.00     0.049 A 
ATOM     47  N   UNL A   1      44.267  30.758  29.128  1.00  0.00    -0.248 NA
ATOM     48  C   UNL A   1      42.533  29.252  29.553  1.00  0.00     0.031 C 
ATOM     49  C   UNL A   1      41.456  34.121  30.062  1.00  0.00     0.029 A 
ATOM     50  N   UNL A   1      43.531  33.599  29.409  1.00  0.00    -0.354 N 
ATOM     51  C   UNL A   1      44.721  29.461  28.912  1.00  0.00     0.074 A 
ATOM     52  C   UNL A   1      43.623  28.574  29.233  1.00  0.00     0.031 C 
ATOM     53  C   UNL A   1      42.124  35.271  29.870  1.00  0.00     0.029 A 
ATOM     54  C   UNL A   1      43.505  34.971  29.494  1.00  0.00     0.049 A 
ATOM     55  H   UNL A   1      44.322  33.092  29.114  1.00  0.00     0.167 HD
ATOM     56  C   UNL A   1      45.939  29.052  28.479  1.00  0.00     0.034 A 
ATOM     57  C   UNL A   1      44.491  35.875  29.320  1.00  0.00     0.034 A 
ATOM     58  C   UNL A   1      47.028  29.953  28.186  1.00  0.00     0.049 A 
ATOM     59  C   UNL A   1      45.875  35.390  28.955  1.00  0.00     0.074 A 
ATOM     60  C   UNL A   1      48.297  29.649  27.724  1.00  0.00     0.029 A 
ATOM     61  N   UNL A   1      46.987  31.332  28.350  1.00  0.00    -0.354 N 
ATOM     62  N   UNL A   1      46.293  34.164  28.738  1.00  0.00    -0.248 NA
ATOM     63  C   UNL A   1      46.918  36.414  28.811  1.00  0.00     0.031 C 
ATOM     64  C   UNL A   1      49.047  30.830  27.695  1.00  0.00     0.029 A 
ATOM     65  C   UNL A   1      48.222  31.886  28.048  1.00  0.00     0.049 A 
ATOM     66  H   UNL A   1      46.196  31.842  28.639  1.00  0.00     0.167 HD
ATOM     67  C   UNL A   1      47.643  34.274  28.408  1.00  0.00     0.074 A 
ATOM     68  C   UNL A   1      47.961  35.687  28.436  1.00  0.00     0.031 C 
ATOM     69  C   UNL A   1      48.537  33.296  28.104  1.00  0.00     0.034 A 
BRANCH  56  70
ATOM     70  C   UNL A   1      46.165  27.563  28.363  1.00  0.00     0.023 A 
ATOM     71  C   UNL A   1      45.859  26.855  27.186  1.00  0.00     0.031 A 
ATOM     72  C   UNL A   1      46.644  26.829  29.463  1.00  0.00     0.131 A 
ATOM     73  C   UNL A   1      45.951  25.456  27.167  1.00  0.00     0.055 A 
ATOM     74  C   UNL A   1      46.820  25.446  29.407  1.00  0.00     0.041 A 
ATOM     75  F   UNL A   1      46.928  27.443  30.622  1.00  0.00    -0.206 F 
ATOM     76  C   UNL A   1      46.455  24.747  28.260  1.00  0.00     0.022 A 
BRANCH  73  77
ATOM     77  S   UNL A   1      45.235  24.562  25.760  1.00  0.00     0.124 S 
ATOM     78  O   UNL A   1      45.939  25.171  24.633  1.00  0.00    -0.237 OA
ATOM     79  O   UNL A   1      45.581  23.177  26.056  1.00  0.00    -0.237 OA
ATOM     80  O   UNL A   1      43.811  24.881  25.839  1.00  0.00    -0.744 OA
ENDBRANCH  73  77
ENDBRANCH  56  70
BRANCH  57  81
ATOM     81  C   UNL A   1      44.228  37.328  29.534  1.00  0.00     0.023 A 
ATOM     82  C   UNL A   1      43.885  38.170  28.465  1.00  0.00     0.031 A 
ATOM     83  C   UNL A   1      44.362  37.907  30.810  1.00  0.00     0.131 A 
ATOM     84  C   UNL A   1      43.721  39.547  28.683  1.00  0.00     0.055 A 
ATOM     85  C   UNL A   1      44.144  39.267  31.032  1.00  0.00     0.041 A 
ATOM     86  F   UNL A   1      44.697  37.149  31.868  1.00  0.00    -0.206 F 
ATOM     87  C   UNL A   1      43.831  40.098  29.961  1.00  0.00     0.022 A 
BRANCH  84  88
ATOM     88  S   UNL A   1      43.433  40.626  27.253  1.00  0.00     0.124 S 
ATOM     89  O   UNL A   1      44.081  41.860  27.677  1.00  0.00    -0.237 OA
ATOM     90  O   UNL A   1      44.092  39.890  26.179  1.00  0.00    -0.237 OA
ATOM     91  O   UNL A   1      41.975  40.685  27.160  1.00  0.00    -0.744 OA
ENDBRANCH  84  88
ENDBRANCH  57  81
BRANCH  69  92
ATOM     92  C   UNL A   1      49.941  33.730  27.751  1.00  0.00     0.023 A 
ATOM     93  C   UNL A   1      50.312  34.035  26.429  1.00  0.00     0.031 A 
ATOM     94  C   UNL A   1      50.925  33.835  28.752  1.00  0.00     0.131 A 
ATOM     95  C   UNL A   1      51.643  34.373  26.136  1.00  0.00     0.055 A 
ATOM     96  C   UNL A   1      52.230  34.239  28.463  1.00  0.00     0.041 A 
ATOM     97  F   UNL A   1      50.633  33.551  30.031  1.00  0.00    -0.206 F 
ATOM     98  C   UNL A   1      52.599  34.497  27.146  1.00  0.00     0.022 A 
BRANCH  95  99
ATOM     99  S   UNL A   1      52.133  34.549  24.398  1.00  0.00     0.124 S 
ATOM    100  O   UNL A   1      51.424  35.762  24.005  1.00  0.00    -0.237 OA
ATOM    101  O   UNL A   1      53.585  34.661  24.492  1.00  0.00    -0.237 OA
ATOM    102  O   UNL A   1      51.646  33.318  23.778  1.00  0.00    -0.744 OA
ENDBRANCH  95  99
ENDBRANCH  69  92
ENDBRANCH  43  44
ENDBRANCH  36  38
ENDBRANCH  35  36
ENDBRANCH  34  35
ENDBRANCH  33  34
ENDBRANCH  32  33
ENDBRANCH  31  32
ENDBRANCH  30  31
ENDBRANCH  29  30
ENDBRANCH   1  29
TORSDOF 27
ENDMDL
