MODEL 1
REMARK VINA RESULT:     -10.6      0.000      0.000
REMARK SMILES C[C@@H]1CCC[C@H](Oc2ccc(F)cc2C(=O)OCCOCCOCCOCCOC(=O)c2ccc(-c3c4nc(c(-c5cc(S(=O)(=O)[O-])ccc5F)c5ccc([nH]5)c(-c5cc(S(=O)(=O)[O-])ccc5F)c5nc(c(-c6cc(S(=O)(=O)[O-])ccc6F)c6ccc3[nH]6)C=C5)C=C4)cc2)C1
REMARK SMILES IDX 24 1 23 2 22 3 21 4 20 5 19 6 18 7 17 8 15 9 16 10 14 11
REMARK SMILES IDX 8 12 9 13 10 14 13 15 11 16 12 17 7 18 6 19 1 20 2 21 3 22
REMARK SMILES IDX 95 23 4 24 5 25 25 26 26 27 27 28 28 29 29 30 30 31 31 32
REMARK SMILES IDX 32 33 33 34 94 35 34 36 93 37 35 38 36 39 37 40 87 41 38 42
REMARK SMILES IDX 92 43 86 44 88 45 39 46 91 47 85 48 84 49 40 51 72 52 52 53
REMARK SMILES IDX 71 54 53 55 56 56 70 57 89 58 54 59 55 60 69 62 90 63 57 64
REMARK SMILES IDX 41 65 42 66 50 67 43 68 49 69 51 70 48 71 44 72 45 73 46 74
REMARK SMILES IDX 47 75 73 76 74 77 82 78 75 79 81 80 83 81 80 82 76 83 77 84
REMARK SMILES IDX 78 85 79 86 58 87 59 88 67 89 60 90 66 91 68 92 65 93 61 94
REMARK SMILES IDX 62 95 63 96 64 97
REMARK H PARENT 88 50 56 61
REMARK Flexibility Score: inf
ROOT
ATOM      1  C   UNL A   1      33.523  27.362  23.485  1.00  0.00     0.188 C 
ENDROOT
BRANCH   1   2
ATOM      2  O   UNL A   1      32.586  27.723  22.487  1.00  0.00    -0.377 OA
BRANCH   2   3
ATOM      3  C   UNL A   1      31.476  26.870  22.304  1.00  0.00     0.188 C 
BRANCH   3   4
ATOM      4  C   UNL A   1      30.206  27.272  23.070  1.00  0.00     0.188 C 
BRANCH   4   5
ATOM      5  O   UNL A   1      29.652  26.465  24.104  1.00  0.00    -0.376 OA
BRANCH   5   6
ATOM      6  C   UNL A   1      30.478  25.889  25.102  1.00  0.00     0.202 C 
BRANCH   6   7
ATOM      7  C   UNL A   1      31.195  24.550  24.835  1.00  0.00     0.261 C 
BRANCH   7   8
ATOM      8  O   UNL A   1      30.706  23.391  25.538  1.00  0.00    -0.460 OA
BRANCH   8   9
ATOM      9  C   UNL A   1      31.581  22.839  26.403  1.00  0.00     0.342 C 
ATOM     10  O   UNL A   1      31.578  23.000  27.618  1.00  0.00    -0.246 OA
BRANCH   9  11
ATOM     11  C   UNL A   1      32.494  21.836  25.797  1.00  0.00     0.104 A 
ATOM     12  C   UNL A   1      33.855  21.645  26.094  1.00  0.00     0.134 A 
ATOM     13  C   UNL A   1      34.420  20.407  25.770  1.00  0.00     0.050 A 
ATOM     14  C   UNL A   1      33.767  19.503  24.931  1.00  0.00     0.043 A 
ATOM     15  C   UNL A   1      31.842  20.932  24.932  1.00  0.00     0.058 A 
ATOM     16  C   UNL A   1      32.500  19.806  24.470  1.00  0.00     0.124 A 
ATOM     17  F   UNL A   1      31.889  18.978  23.616  1.00  0.00    -0.207 F 
BRANCH  12  18
ATOM     18  O   UNL A   1      34.594  22.571  26.763  1.00  0.00    -0.490 OA
BRANCH  18  19
ATOM     19  C   UNL A   1      35.647  23.313  26.078  1.00  0.00     0.173 C 
ATOM     20  C   UNL A   1      34.241  22.976  23.014  1.00  0.00     0.008 C 
ATOM     21  C   UNL A   1      35.340  23.903  23.530  1.00  0.00    -0.011 C 
ATOM     22  C   UNL A   1      36.729  23.320  23.260  1.00  0.00     0.003 C 
ATOM     23  C   UNL A   1      35.183  24.318  25.007  1.00  0.00     0.048 C 
ATOM     24  C   UNL A   1      37.078  22.184  24.213  1.00  0.00     0.004 C 
ATOM     25  C   UNL A   1      36.950  22.582  25.689  1.00  0.00     0.045 C 
ENDBRANCH  18  19
ENDBRANCH  12  18
ENDBRANCH   9  11
ENDBRANCH   8   9
ENDBRANCH   7   8
ENDBRANCH   6   7
ENDBRANCH   5   6
ENDBRANCH   4   5
ENDBRANCH   3   4
ENDBRANCH   2   3
ENDBRANCH   1   2
BRANCH   1  26
ATOM     26  C   UNL A   1      33.471  28.181  24.782  1.00  0.00     0.188 C 
BRANCH  26  27
ATOM     27  O   UNL A   1      32.894  29.470  24.587  1.00  0.00    -0.376 OA
BRANCH  27  28
ATOM     28  C   UNL A   1      31.699  29.766  25.296  1.00  0.00     0.202 C 
BRANCH  28  29
ATOM     29  C   UNL A   1      31.789  30.801  26.430  1.00  0.00     0.261 C 
BRANCH  29  30
ATOM     30  O   UNL A   1      32.919  30.721  27.313  1.00  0.00    -0.460 OA
BRANCH  30  31
ATOM     31  C   UNL A   1      33.626  31.846  27.564  1.00  0.00     0.338 C 
ATOM     32  O   UNL A   1      33.212  32.984  27.558  1.00  0.00    -0.246 OA
BRANCH  31  33
ATOM     33  C   UNL A   1      34.967  31.423  28.032  1.00  0.00     0.060 A 
ATOM     34  C   UNL A   1      35.185  30.084  28.388  1.00  0.00     0.016 A 
ATOM     35  C   UNL A   1      36.007  32.351  28.108  1.00  0.00     0.016 A 
ATOM     36  C   UNL A   1      36.441  29.676  28.849  1.00  0.00     0.010 A 
ATOM     37  C   UNL A   1      37.252  31.948  28.595  1.00  0.00     0.010 A 
ATOM     38  C   UNL A   1      37.467  30.618  28.997  1.00  0.00    -0.014 A 
BRANCH  38  39
ATOM     39  C   UNL A   1      38.693  30.296  29.768  1.00  0.00     0.031 A 
ATOM     40  C   UNL A   1      39.655  29.305  29.172  1.00  0.00     0.074 A 
ATOM     41  C   UNL A   1      38.937  30.835  30.976  1.00  0.00     0.049 A 
ATOM     42  N   UNL A   1      40.679  28.705  29.719  1.00  0.00    -0.248 NA
ATOM     43  C   UNL A   1      39.416  28.930  27.768  1.00  0.00     0.031 C 
ATOM     44  C   UNL A   1      38.126  31.862  31.626  1.00  0.00     0.029 A 
ATOM     45  N   UNL A   1      39.936  30.571  31.879  1.00  0.00    -0.354 N 
ATOM     46  C   UNL A   1      41.197  27.872  28.735  1.00  0.00     0.074 A 
ATOM     47  C   UNL A   1      40.361  28.026  27.564  1.00  0.00     0.031 C 
ATOM     48  C   UNL A   1      38.652  32.129  32.835  1.00  0.00     0.029 A 
ATOM     49  C   UNL A   1      39.802  31.254  33.065  1.00  0.00     0.049 A 
ATOM     50  H   UNL A   1      40.679  29.951  31.696  1.00  0.00     0.167 HD
ATOM     51  C   UNL A   1      42.272  27.052  28.804  1.00  0.00     0.034 A 
ATOM     52  C   UNL A   1      40.500  31.154  34.214  1.00  0.00     0.034 A 
ATOM     53  C   UNL A   1      43.093  26.905  29.978  1.00  0.00     0.049 A 
ATOM     54  C   UNL A   1      41.633  30.158  34.305  1.00  0.00     0.074 A 
ATOM     55  C   UNL A   1      44.202  26.098  30.154  1.00  0.00     0.029 A 
ATOM     56  N   UNL A   1      42.892  27.575  31.177  1.00  0.00    -0.354 N 
ATOM     57  N   UNL A   1      42.084  29.333  33.388  1.00  0.00    -0.248 NA
ATOM     58  C   UNL A   1      42.343  30.077  35.589  1.00  0.00     0.031 C 
ATOM     59  C   UNL A   1      44.631  26.228  31.479  1.00  0.00     0.029 A 
ATOM     60  C   UNL A   1      43.840  27.178  32.107  1.00  0.00     0.049 A 
ATOM     61  H   UNL A   1      42.182  28.237  31.342  1.00  0.00     0.167 HD
ATOM     62  C   UNL A   1      43.146  28.652  33.978  1.00  0.00     0.074 A 
ATOM     63  C   UNL A   1      43.274  29.171  35.326  1.00  0.00     0.031 C 
ATOM     64  C   UNL A   1      43.946  27.689  33.453  1.00  0.00     0.034 A 
BRANCH  51  65
ATOM     65  C   UNL A   1      42.593  26.216  27.593  1.00  0.00     0.023 A 
ATOM     66  C   UNL A   1      42.146  24.890  27.471  1.00  0.00     0.031 A 
ATOM     67  C   UNL A   1      43.344  26.764  26.537  1.00  0.00     0.131 A 
ATOM     68  C   UNL A   1      42.482  24.144  26.332  1.00  0.00     0.055 A 
ATOM     69  C   UNL A   1      43.620  26.037  25.379  1.00  0.00     0.041 A 
ATOM     70  F   UNL A   1      43.817  28.018  26.615  1.00  0.00    -0.206 F 
ATOM     71  C   UNL A   1      43.193  24.717  25.273  1.00  0.00     0.022 A 
BRANCH  68  72
ATOM     72  S   UNL A   1      42.040  22.387  26.280  1.00  0.00     0.124 S 
ATOM     73  O   UNL A   1      40.580  22.449  26.308  1.00  0.00    -0.237 OA
ATOM     74  O   UNL A   1      42.636  21.947  25.022  1.00  0.00    -0.237 OA
ATOM     75  O   UNL A   1      42.658  21.841  27.486  1.00  0.00    -0.744 OA
ENDBRANCH  68  72
ENDBRANCH  51  65
BRANCH  52  76
ATOM     76  C   UNL A   1      40.126  31.986  35.393  1.00  0.00     0.023 A 
ATOM     77  C   UNL A   1      39.134  31.562  36.290  1.00  0.00     0.031 A 
ATOM     78  C   UNL A   1      40.745  33.227  35.629  1.00  0.00     0.131 A 
ATOM     79  C   UNL A   1      38.776  32.381  37.373  1.00  0.00     0.055 A 
ATOM     80  C   UNL A   1      40.415  34.018  36.731  1.00  0.00     0.041 A 
ATOM     81  F   UNL A   1      41.699  33.678  34.799  1.00  0.00    -0.206 F 
ATOM     82  C   UNL A   1      39.419  33.598  37.608  1.00  0.00     0.022 A 
BRANCH  79  83
ATOM     83  S   UNL A   1      37.430  31.842  38.464  1.00  0.00     0.124 S 
ATOM     84  O   UNL A   1      37.149  30.506  37.950  1.00  0.00    -0.237 OA
ATOM     85  O   UNL A   1      38.059  31.905  39.779  1.00  0.00    -0.237 OA
ATOM     86  O   UNL A   1      36.385  32.836  38.229  1.00  0.00    -0.744 OA
ENDBRANCH  79  83
ENDBRANCH  52  76
BRANCH  64  87
ATOM     87  C   UNL A   1      45.055  27.152  34.325  1.00  0.00     0.023 A 
ATOM     88  C   UNL A   1      44.864  26.037  35.156  1.00  0.00     0.031 A 
ATOM     89  C   UNL A   1      46.326  27.754  34.305  1.00  0.00     0.131 A 
ATOM     90  C   UNL A   1      45.915  25.586  35.970  1.00  0.00     0.055 A 
ATOM     91  C   UNL A   1      47.384  27.265  35.072  1.00  0.00     0.041 A 
ATOM     92  F   UNL A   1      46.565  28.823  33.527  1.00  0.00    -0.206 F 
ATOM     93  C   UNL A   1      47.178  26.181  35.919  1.00  0.00     0.022 A 
BRANCH  90  94
ATOM     94  S   UNL A   1      45.585  24.253  37.155  1.00  0.00     0.124 S 
ATOM     95  O   UNL A   1      44.570  24.856  38.013  1.00  0.00    -0.237 OA
ATOM     96  O   UNL A   1      45.127  23.170  36.291  1.00  0.00    -0.237 OA
ATOM     97  O   UNL A   1      46.882  24.031  37.792  1.00  0.00    -0.744 OA
ENDBRANCH  90  94
ENDBRANCH  64  87
ENDBRANCH  38  39
ENDBRANCH  31  33
ENDBRANCH  30  31
ENDBRANCH  29  30
ENDBRANCH  28  29
ENDBRANCH  27  28
ENDBRANCH  26  27
ENDBRANCH   1  26
TORSDOF 25
ENDMDL
MODEL 2
REMARK VINA RESULT:     -10.2      1.677      7.546
REMARK SMILES C[C@@H]1CCC[C@H](Oc2ccc(F)cc2C(=O)OCCOCCOCCOCCOC(=O)c2ccc(-c3c4nc(c(-c5cc(S(=O)(=O)[O-])ccc5F)c5ccc([nH]5)c(-c5cc(S(=O)(=O)[O-])ccc5F)c5nc(c(-c6cc(S(=O)(=O)[O-])ccc6F)c6ccc3[nH]6)C=C5)C=C4)cc2)C1
REMARK SMILES IDX 24 1 23 2 22 3 21 4 20 5 19 6 18 7 17 8 15 9 16 10 14 11
REMARK SMILES IDX 8 12 9 13 10 14 13 15 11 16 12 17 7 18 6 19 1 20 2 21 3 22
REMARK SMILES IDX 95 23 4 24 5 25 25 26 26 27 27 28 28 29 29 30 30 31 31 32
REMARK SMILES IDX 32 33 33 34 94 35 34 36 93 37 35 38 36 39 37 40 87 41 38 42
REMARK SMILES IDX 92 43 86 44 88 45 39 46 91 47 85 48 84 49 40 51 72 52 52 53
REMARK SMILES IDX 71 54 53 55 56 56 70 57 89 58 54 59 55 60 69 62 90 63 57 64
REMARK SMILES IDX 41 65 42 66 50 67 43 68 49 69 51 70 48 71 44 72 45 73 46 74
REMARK SMILES IDX 47 75 73 76 74 77 82 78 75 79 81 80 83 81 80 82 76 83 77 84
REMARK SMILES IDX 78 85 79 86 58 87 59 88 67 89 60 90 66 91 68 92 65 93 61 94
REMARK SMILES IDX 62 95 63 96 64 97
REMARK H PARENT 88 50 56 61
REMARK Flexibility Score: inf
ROOT
ATOM      1  C   UNL A   1      33.298  28.723  27.036  1.00  0.00     0.188 C 
ENDROOT
BRANCH   1   2
ATOM      2  O   UNL A   1      34.001  28.802  25.811  1.00  0.00    -0.377 OA
BRANCH   2   3
ATOM      3  C   UNL A   1      33.778  27.773  24.870  1.00  0.00     0.188 C 
BRANCH   3   4
ATOM      4  C   UNL A   1      32.370  27.738  24.256  1.00  0.00     0.188 C 
BRANCH   4   5
ATOM      5  O   UNL A   1      31.256  27.168  24.935  1.00  0.00    -0.376 OA
BRANCH   5   6
ATOM      6  C   UNL A   1      30.243  26.476  24.224  1.00  0.00     0.202 C 
BRANCH   6   7
ATOM      7  C   UNL A   1      30.244  24.934  24.180  1.00  0.00     0.261 C 
BRANCH   7   8
ATOM      8  O   UNL A   1      30.707  24.313  22.964  1.00  0.00    -0.460 OA
BRANCH   8   9
ATOM      9  C   UNL A   1      32.020  24.006  22.946  1.00  0.00     0.342 C 
ATOM     10  O   UNL A   1      32.927  24.776  22.652  1.00  0.00    -0.246 OA
BRANCH   9  11
ATOM     11  C   UNL A   1      32.344  22.664  23.495  1.00  0.00     0.104 A 
ATOM     12  C   UNL A   1      32.663  22.351  24.829  1.00  0.00     0.134 A 
ATOM     13  C   UNL A   1      32.501  21.024  25.237  1.00  0.00     0.050 A 
ATOM     14  C   UNL A   1      32.319  19.992  24.315  1.00  0.00     0.043 A 
ATOM     15  C   UNL A   1      32.180  21.620  22.560  1.00  0.00     0.058 A 
ATOM     16  C   UNL A   1      32.219  20.299  22.972  1.00  0.00     0.124 A 
ATOM     17  F   UNL A   1      32.106  19.316  22.072  1.00  0.00    -0.207 F 
BRANCH  12  18
ATOM     18  O   UNL A   1      33.018  23.300  25.736  1.00  0.00    -0.490 OA
BRANCH  18  19
ATOM     19  C   UNL A   1      34.385  23.365  26.243  1.00  0.00     0.173 C 
ATOM     20  C   UNL A   1      35.802  23.087  23.177  1.00  0.00     0.008 C 
ATOM     21  C   UNL A   1      36.374  23.526  24.524  1.00  0.00    -0.011 C 
ATOM     22  C   UNL A   1      37.051  22.359  25.246  1.00  0.00     0.003 C 
ATOM     23  C   UNL A   1      35.364  24.244  25.442  1.00  0.00     0.048 C 
ATOM     24  C   UNL A   1      36.046  21.392  25.857  1.00  0.00     0.004 C 
ATOM     25  C   UNL A   1      35.045  22.082  26.792  1.00  0.00     0.045 C 
ENDBRANCH  18  19
ENDBRANCH  12  18
ENDBRANCH   9  11
ENDBRANCH   8   9
ENDBRANCH   7   8
ENDBRANCH   6   7
ENDBRANCH   5   6
ENDBRANCH   4   5
ENDBRANCH   3   4
ENDBRANCH   2   3
ENDBRANCH   1   2
BRANCH   1  26
ATOM     26  C   UNL A   1      32.144  29.721  27.213  1.00  0.00     0.188 C 
BRANCH  26  27
ATOM     27  O   UNL A   1      32.306  30.885  26.407  1.00  0.00    -0.376 OA
BRANCH  27  28
ATOM     28  C   UNL A   1      31.346  31.922  26.553  1.00  0.00     0.202 C 
BRANCH  28  29
ATOM     29  C   UNL A   1      31.871  33.329  26.888  1.00  0.00     0.261 C 
BRANCH  29  30
ATOM     30  O   UNL A   1      32.701  33.467  28.053  1.00  0.00    -0.460 OA
BRANCH  30  31
ATOM     31  C   UNL A   1      33.859  34.158  27.944  1.00  0.00     0.338 C 
ATOM     32  O   UNL A   1      33.984  35.338  27.705  1.00  0.00    -0.246 OA
BRANCH  31  33
ATOM     33  C   UNL A   1      34.951  33.244  28.354  1.00  0.00     0.060 A 
ATOM     34  C   UNL A   1      34.646  31.932  28.742  1.00  0.00     0.016 A 
ATOM     35  C   UNL A   1      36.276  33.687  28.345  1.00  0.00     0.016 A 
ATOM     36  C   UNL A   1      35.667  31.066  29.149  1.00  0.00     0.010 A 
ATOM     37  C   UNL A   1      37.289  32.831  28.778  1.00  0.00     0.010 A 
ATOM     38  C   UNL A   1      36.987  31.527  29.213  1.00  0.00    -0.014 A 
BRANCH  38  39
ATOM     39  C   UNL A   1      38.033  30.756  29.928  1.00  0.00     0.031 A 
ATOM     40  C   UNL A   1      38.308  31.112  31.364  1.00  0.00     0.074 A 
ATOM     41  C   UNL A   1      38.746  29.791  29.321  1.00  0.00     0.049 A 
ATOM     42  N   UNL A   1      39.290  30.740  32.141  1.00  0.00    -0.248 NA
ATOM     43  C   UNL A   1      37.345  32.026  32.003  1.00  0.00     0.031 C 
ATOM     44  C   UNL A   1      38.525  29.300  27.963  1.00  0.00     0.029 A 
ATOM     45  N   UNL A   1      39.820  29.064  29.772  1.00  0.00    -0.354 N 
ATOM     46  C   UNL A   1      39.075  31.385  33.353  1.00  0.00     0.074 A 
ATOM     47  C   UNL A   1      37.882  32.189  33.202  1.00  0.00     0.031 C 
ATOM     48  C   UNL A   1      39.449  28.363  27.684  1.00  0.00     0.029 A 
ATOM     49  C   UNL A   1      40.359  28.228  28.822  1.00  0.00     0.049 A 
ATOM     50  H   UNL A   1      40.172  29.136  30.690  1.00  0.00     0.167 HD
ATOM     51  C   UNL A   1      39.809  31.312  34.488  1.00  0.00     0.034 A 
ATOM     52  C   UNL A   1      41.477  27.475  28.856  1.00  0.00     0.034 A 
ATOM     53  C   UNL A   1      40.998  30.511  34.624  1.00  0.00     0.049 A 
ATOM     54  C   UNL A   1      42.338  27.487  30.097  1.00  0.00     0.074 A 
ATOM     55  C   UNL A   1      41.817  30.371  35.730  1.00  0.00     0.029 A 
ATOM     56  N   UNL A   1      41.540  29.718  33.622  1.00  0.00    -0.354 N 
ATOM     57  N   UNL A   1      42.159  28.142  31.221  1.00  0.00    -0.248 NA
ATOM     58  C   UNL A   1      43.556  26.665  30.067  1.00  0.00     0.031 C 
ATOM     59  C   UNL A   1      42.891  29.549  35.376  1.00  0.00     0.029 A 
ATOM     60  C   UNL A   1      42.700  29.110  34.074  1.00  0.00     0.049 A 
ATOM     61  H   UNL A   1      41.157  29.604  32.722  1.00  0.00     0.167 HD
ATOM     62  C   UNL A   1      43.229  27.791  32.040  1.00  0.00     0.074 A 
ATOM     63  C   UNL A   1      44.043  26.859  31.284  1.00  0.00     0.031 C 
ATOM     64  C   UNL A   1      43.512  28.197  33.305  1.00  0.00     0.034 A 
BRANCH  51  65
ATOM     65  C   UNL A   1      39.374  32.157  35.657  1.00  0.00     0.023 A 
ATOM     66  C   UNL A   1      39.794  33.489  35.802  1.00  0.00     0.031 A 
ATOM     67  C   UNL A   1      38.511  31.622  36.631  1.00  0.00     0.131 A 
ATOM     68  C   UNL A   1      39.375  34.234  36.915  1.00  0.00     0.055 A 
ATOM     69  C   UNL A   1      38.049  32.388  37.702  1.00  0.00     0.041 A 
ATOM     70  F   UNL A   1      38.102  30.346  36.553  1.00  0.00    -0.206 F 
ATOM     71  C   UNL A   1      38.485  33.700  37.852  1.00  0.00     0.022 A 
BRANCH  68  72
ATOM     72  S   UNL A   1      40.069  35.890  37.166  1.00  0.00     0.124 S 
ATOM     73  O   UNL A   1      39.721  36.548  35.910  1.00  0.00    -0.237 OA
ATOM     74  O   UNL A   1      39.357  36.356  38.351  1.00  0.00    -0.237 OA
ATOM     75  O   UNL A   1      41.496  35.638  37.357  1.00  0.00    -0.744 OA
ENDBRANCH  68  72
ENDBRANCH  51  65
BRANCH  52  76
ATOM     76  C   UNL A   1      41.877  26.676  27.663  1.00  0.00     0.023 A 
ATOM     77  C   UNL A   1      41.622  25.298  27.599  1.00  0.00     0.031 A 
ATOM     78  C   UNL A   1      42.536  27.278  26.576  1.00  0.00     0.131 A 
ATOM     79  C   UNL A   1      42.039  24.561  26.479  1.00  0.00     0.055 A 
ATOM     80  C   UNL A   1      42.912  26.549  25.446  1.00  0.00     0.041 A 
ATOM     81  F   UNL A   1      42.805  28.593  26.589  1.00  0.00    -0.206 F 
ATOM     82  C   UNL A   1      42.670  25.180  25.396  1.00  0.00     0.022 A 
BRANCH  79  83
ATOM     83  S   UNL A   1      41.771  22.767  26.466  1.00  0.00     0.124 S 
ATOM     84  O   UNL A   1      42.533  22.362  25.290  1.00  0.00    -0.237 OA
ATOM     85  O   UNL A   1      42.322  22.367  27.757  1.00  0.00    -0.237 OA
ATOM     86  O   UNL A   1      40.321  22.641  26.346  1.00  0.00    -0.744 OA
ENDBRANCH  79  83
ENDBRANCH  52  76
BRANCH  64  87
ATOM     87  C   UNL A   1      44.736  27.614  33.967  1.00  0.00     0.023 A 
ATOM     88  C   UNL A   1      44.677  26.418  34.702  1.00  0.00     0.031 A 
ATOM     89  C   UNL A   1      45.983  28.253  33.841  1.00  0.00     0.131 A 
ATOM     90  C   UNL A   1      45.835  25.924  35.324  1.00  0.00     0.055 A 
ATOM     91  C   UNL A   1      47.142  27.725  34.411  1.00  0.00     0.041 A 
ATOM     92  F   UNL A   1      46.097  29.397  33.147  1.00  0.00    -0.206 F 
ATOM     93  C   UNL A   1      47.069  26.559  35.167  1.00  0.00     0.022 A 
BRANCH  90  94
ATOM     94  S   UNL A   1      45.689  24.475  36.404  1.00  0.00     0.124 S 
ATOM     95  O   UNL A   1      44.299  24.562  36.840  1.00  0.00    -0.237 OA
ATOM     96  O   UNL A   1      46.005  23.374  35.499  1.00  0.00    -0.237 OA
ATOM     97  O   UNL A   1      46.682  24.722  37.447  1.00  0.00    -0.744 OA
ENDBRANCH  90  94
ENDBRANCH  64  87
ENDBRANCH  38  39
ENDBRANCH  31  33
ENDBRANCH  30  31
ENDBRANCH  29  30
ENDBRANCH  28  29
ENDBRANCH  27  28
ENDBRANCH  26  27
ENDBRANCH   1  26
TORSDOF 25
ENDMDL
MODEL 3
REMARK VINA RESULT:      -9.9      1.471      7.670
REMARK SMILES C[C@@H]1CCC[C@H](Oc2ccc(F)cc2C(=O)OCCOCCOCCOCCOC(=O)c2ccc(-c3c4nc(c(-c5cc(S(=O)(=O)[O-])ccc5F)c5ccc([nH]5)c(-c5cc(S(=O)(=O)[O-])ccc5F)c5nc(c(-c6cc(S(=O)(=O)[O-])ccc6F)c6ccc3[nH]6)C=C5)C=C4)cc2)C1
REMARK SMILES IDX 24 1 23 2 22 3 21 4 20 5 19 6 18 7 17 8 15 9 16 10 14 11
REMARK SMILES IDX 8 12 9 13 10 14 13 15 11 16 12 17 7 18 6 19 1 20 2 21 3 22
REMARK SMILES IDX 95 23 4 24 5 25 25 26 26 27 27 28 28 29 29 30 30 31 31 32
REMARK SMILES IDX 32 33 33 34 94 35 34 36 93 37 35 38 36 39 37 40 87 41 38 42
REMARK SMILES IDX 92 43 86 44 88 45 39 46 91 47 85 48 84 49 40 51 72 52 52 53
REMARK SMILES IDX 71 54 53 55 56 56 70 57 89 58 54 59 55 60 69 62 90 63 57 64
REMARK SMILES IDX 41 65 42 66 50 67 43 68 49 69 51 70 48 71 44 72 45 73 46 74
REMARK SMILES IDX 47 75 73 76 74 77 82 78 75 79 81 80 83 81 80 82 76 83 77 84
REMARK SMILES IDX 78 85 79 86 58 87 59 88 67 89 60 90 66 91 68 92 65 93 61 94
REMARK SMILES IDX 62 95 63 96 64 97
REMARK H PARENT 88 50 56 61
REMARK Flexibility Score: inf
ROOT
ATOM      1  C   UNL A   1      33.543  28.308  26.465  1.00  0.00     0.188 C 
ENDROOT
BRANCH   1   2
ATOM      2  O   UNL A   1      34.129  28.699  25.237  1.00  0.00    -0.377 OA
BRANCH   2   3
ATOM      3  C   UNL A   1      33.748  27.982  24.082  1.00  0.00     0.188 C 
BRANCH   3   4
ATOM      4  C   UNL A   1      32.245  28.000  23.764  1.00  0.00     0.188 C 
BRANCH   4   5
ATOM      5  O   UNL A   1      31.526  26.823  23.412  1.00  0.00    -0.376 OA
BRANCH   5   6
ATOM      6  C   UNL A   1      32.145  25.547  23.456  1.00  0.00     0.202 C 
BRANCH   6   7
ATOM      7  C   UNL A   1      31.766  24.542  24.562  1.00  0.00     0.261 C 
BRANCH   7   8
ATOM      8  O   UNL A   1      32.307  23.210  24.453  1.00  0.00    -0.460 OA
BRANCH   8   9
ATOM      9  C   UNL A   1      32.898  22.742  25.571  1.00  0.00     0.342 C 
ATOM     10  O   UNL A   1      32.319  22.421  26.601  1.00  0.00    -0.246 OA
BRANCH   9  11
ATOM     11  C   UNL A   1      34.349  22.459  25.425  1.00  0.00     0.104 A 
ATOM     12  C   UNL A   1      34.935  21.386  24.730  1.00  0.00     0.134 A 
ATOM     13  C   UNL A   1      36.268  21.525  24.333  1.00  0.00     0.050 A 
ATOM     14  C   UNL A   1      37.082  22.538  24.841  1.00  0.00     0.043 A 
ATOM     15  C   UNL A   1      35.176  23.472  25.957  1.00  0.00     0.058 A 
ATOM     16  C   UNL A   1      36.536  23.472  25.701  1.00  0.00     0.124 A 
ATOM     17  F   UNL A   1      37.318  24.411  26.245  1.00  0.00    -0.207 F 
BRANCH  12  18
ATOM     18  O   UNL A   1      34.228  20.286  24.355  1.00  0.00    -0.490 OA
BRANCH  18  19
ATOM     19  C   UNL A   1      34.224  19.089  25.190  1.00  0.00     0.173 C 
ATOM     20  C   UNL A   1      34.000  16.955  22.568  1.00  0.00     0.008 C 
ATOM     21  C   UNL A   1      34.371  16.728  24.033  1.00  0.00    -0.011 C 
ATOM     22  C   UNL A   1      33.155  16.287  24.850  1.00  0.00     0.003 C 
ATOM     23  C   UNL A   1      35.094  17.916  24.698  1.00  0.00     0.048 C 
ATOM     24  C   UNL A   1      32.205  17.439  25.148  1.00  0.00     0.004 C 
ATOM     25  C   UNL A   1      32.899  18.624  25.831  1.00  0.00     0.045 C 
ENDBRANCH  18  19
ENDBRANCH  12  18
ENDBRANCH   9  11
ENDBRANCH   8   9
ENDBRANCH   7   8
ENDBRANCH   6   7
ENDBRANCH   5   6
ENDBRANCH   4   5
ENDBRANCH   3   4
ENDBRANCH   2   3
ENDBRANCH   1   2
BRANCH   1  26
ATOM     26  C   UNL A   1      32.515  29.282  27.058  1.00  0.00     0.188 C 
BRANCH  26  27
ATOM     27  O   UNL A   1      32.531  30.550  26.407  1.00  0.00    -0.376 OA
BRANCH  27  28
ATOM     28  C   UNL A   1      31.627  31.540  26.878  1.00  0.00     0.202 C 
BRANCH  28  29
ATOM     29  C   UNL A   1      32.118  32.997  26.887  1.00  0.00     0.261 C 
BRANCH  29  30
ATOM     30  O   UNL A   1      32.710  33.490  28.099  1.00  0.00    -0.460 OA
BRANCH  30  31
ATOM     31  C   UNL A   1      33.868  34.186  28.019  1.00  0.00     0.338 C 
ATOM     32  O   UNL A   1      33.993  35.372  27.811  1.00  0.00    -0.246 OA
BRANCH  31  33
ATOM     33  C   UNL A   1      34.958  33.265  28.416  1.00  0.00     0.060 A 
ATOM     34  C   UNL A   1      34.656  31.936  28.746  1.00  0.00     0.016 A 
ATOM     35  C   UNL A   1      36.279  33.717  28.451  1.00  0.00     0.016 A 
ATOM     36  C   UNL A   1      35.674  31.062  29.140  1.00  0.00     0.010 A 
ATOM     37  C   UNL A   1      37.290  32.851  28.871  1.00  0.00     0.010 A 
ATOM     38  C   UNL A   1      36.989  31.529  29.248  1.00  0.00    -0.014 A 
BRANCH  38  39
ATOM     39  C   UNL A   1      38.026  30.737  29.954  1.00  0.00     0.031 A 
ATOM     40  C   UNL A   1      38.287  31.056  31.401  1.00  0.00     0.074 A 
ATOM     41  C   UNL A   1      38.743  29.787  29.330  1.00  0.00     0.049 A 
ATOM     42  N   UNL A   1      39.261  30.663  32.179  1.00  0.00    -0.248 NA
ATOM     43  C   UNL A   1      37.320  31.956  32.054  1.00  0.00     0.031 C 
ATOM     44  C   UNL A   1      38.535  29.331  27.958  1.00  0.00     0.029 A 
ATOM     45  N   UNL A   1      39.811  29.046  29.774  1.00  0.00    -0.354 N 
ATOM     46  C   UNL A   1      39.035  31.277  33.405  1.00  0.00     0.074 A 
ATOM     47  C   UNL A   1      37.844  32.087  33.262  1.00  0.00     0.031 C 
ATOM     48  C   UNL A   1      39.460  28.399  27.666  1.00  0.00     0.029 A 
ATOM     49  C   UNL A   1      40.357  28.233  28.809  1.00  0.00     0.049 A 
ATOM     50  H   UNL A   1      40.154  29.093  30.697  1.00  0.00     0.167 HD
ATOM     51  C   UNL A   1      39.756  31.174  34.545  1.00  0.00     0.034 A 
ATOM     52  C   UNL A   1      41.473  27.476  28.835  1.00  0.00     0.034 A 
ATOM     53  C   UNL A   1      40.942  30.367  34.672  1.00  0.00     0.049 A 
ATOM     54  C   UNL A   1      42.322  27.455  30.084  1.00  0.00     0.074 A 
ATOM     55  C   UNL A   1      41.750  30.197  35.782  1.00  0.00     0.029 A 
ATOM     56  N   UNL A   1      41.493  29.599  33.656  1.00  0.00    -0.354 N 
ATOM     57  N   UNL A   1      42.134  28.082  31.223  1.00  0.00    -0.248 NA
ATOM     58  C   UNL A   1      43.538  26.632  30.046  1.00  0.00     0.031 C 
ATOM     59  C   UNL A   1      42.826  29.382  35.419  1.00  0.00     0.029 A 
ATOM     60  C   UNL A   1      42.647  28.976  34.105  1.00  0.00     0.049 A 
ATOM     61  H   UNL A   1      41.119  29.508  32.750  1.00  0.00     0.167 HD
ATOM     62  C   UNL A   1      43.194  27.707  32.044  1.00  0.00     0.074 A 
ATOM     63  C   UNL A   1      44.013  26.794  31.273  1.00  0.00     0.031 C 
ATOM     64  C   UNL A   1      43.465  28.081  33.321  1.00  0.00     0.034 A 
BRANCH  51  65
ATOM     65  C   UNL A   1      39.312  31.990  35.731  1.00  0.00     0.023 A 
ATOM     66  C   UNL A   1      38.528  31.437  36.756  1.00  0.00     0.031 A 
ATOM     67  C   UNL A   1      39.695  33.339  35.841  1.00  0.00     0.131 A 
ATOM     68  C   UNL A   1      38.125  32.239  37.834  1.00  0.00     0.055 A 
ATOM     69  C   UNL A   1      39.343  34.114  36.947  1.00  0.00     0.041 A 
ATOM     70  F   UNL A   1      40.422  33.924  34.876  1.00  0.00    -0.206 F 
ATOM     71  C   UNL A   1      38.549  33.566  37.950  1.00  0.00     0.022 A 
BRANCH  68  72
ATOM     72  S   UNL A   1      36.973  31.547  39.052  1.00  0.00     0.124 S 
ATOM     73  O   UNL A   1      36.755  30.203  38.520  1.00  0.00    -0.237 OA
ATOM     74  O   UNL A   1      37.738  31.627  40.292  1.00  0.00    -0.237 OA
ATOM     75  O   UNL A   1      35.817  32.437  38.975  1.00  0.00    -0.744 OA
ENDBRANCH  68  72
ENDBRANCH  51  65
BRANCH  52  76
ATOM     76  C   UNL A   1      41.884  26.707  27.626  1.00  0.00     0.023 A 
ATOM     77  C   UNL A   1      41.664  25.324  27.542  1.00  0.00     0.031 A 
ATOM     78  C   UNL A   1      42.518  27.342  26.544  1.00  0.00     0.131 A 
ATOM     79  C   UNL A   1      42.091  24.616  26.407  1.00  0.00     0.055 A 
ATOM     80  C   UNL A   1      42.904  26.641  25.400  1.00  0.00     0.041 A 
ATOM     81  F   UNL A   1      42.753  28.664  26.576  1.00  0.00    -0.206 F 
ATOM     82  C   UNL A   1      42.696  25.268  25.330  1.00  0.00     0.022 A 
BRANCH  79  83
ATOM     83  S   UNL A   1      41.869  22.816  26.368  1.00  0.00     0.124 S 
ATOM     84  O   UNL A   1      42.472  22.471  25.086  1.00  0.00    -0.237 OA
ATOM     85  O   UNL A   1      42.602  22.392  27.558  1.00  0.00    -0.237 OA
ATOM     86  O   UNL A   1      40.419  22.651  26.442  1.00  0.00    -0.744 OA
ENDBRANCH  79  83
ENDBRANCH  52  76
BRANCH  64  87
ATOM     87  C   UNL A   1      44.681  27.478  33.980  1.00  0.00     0.023 A 
ATOM     88  C   UNL A   1      44.600  26.297  34.736  1.00  0.00     0.031 A 
ATOM     89  C   UNL A   1      45.942  28.084  33.832  1.00  0.00     0.131 A 
ATOM     90  C   UNL A   1      45.751  25.784  35.354  1.00  0.00     0.055 A 
ATOM     91  C   UNL A   1      47.093  27.537  34.399  1.00  0.00     0.041 A 
ATOM     92  F   UNL A   1      46.077  29.214  33.118  1.00  0.00    -0.206 F 
ATOM     93  C   UNL A   1      47.000  26.385  35.175  1.00  0.00     0.022 A 
BRANCH  90  94
ATOM     94  S   UNL A   1      45.581  24.356  36.459  1.00  0.00     0.124 S 
ATOM     95  O   UNL A   1      46.825  24.413  37.220  1.00  0.00    -0.237 OA
ATOM     96  O   UNL A   1      44.365  24.677  37.201  1.00  0.00    -0.237 OA
ATOM     97  O   UNL A   1      45.465  23.224  35.543  1.00  0.00    -0.744 OA
ENDBRANCH  90  94
ENDBRANCH  64  87
ENDBRANCH  38  39
ENDBRANCH  31  33
ENDBRANCH  30  31
ENDBRANCH  29  30
ENDBRANCH  28  29
ENDBRANCH  27  28
ENDBRANCH  26  27
ENDBRANCH   1  26
TORSDOF 25
ENDMDL
