MODEL 1
REMARK VINA RESULT:     -10.5      0.000      0.000
REMARK SMILES Cc1nc(C)c(C(=O)N2CCC([C@H](C)C(=O)OCCOCCOCCOCCOC(=O)c3ccc(-c4c5nc(c(-c6cc(S(=O)(=O)[O-])ccc6F)c6ccc([nH]6)c(-c6cc(S(=O)(=O)[O-])ccc6F)c6nc(c(-c7cc(S(=O)(=O)[O-])ccc7F)c7ccc4[nH]7)C=C6)C=C5)cc3)CC2)s1
REMARK SMILES IDX 24 1 23 2 22 3 21 4 20 5 19 6 18 7 17 8 15 9 16 10 13 11
REMARK SMILES IDX 14 12 12 13 7 14 8 15 9 16 10 17 96 18 11 19 95 20 6 21 1 22
REMARK SMILES IDX 2 23 3 24 97 25 4 26 5 27 25 28 26 29 27 30 28 31 29 32
REMARK SMILES IDX 30 33 31 34 32 35 33 36 94 37 34 38 93 39 35 40 36 41 37 42
REMARK SMILES IDX 87 43 38 44 92 45 86 46 88 47 39 48 91 49 85 50 84 51 40 53
REMARK SMILES IDX 72 54 52 55 71 56 53 57 56 58 70 59 89 60 54 61 55 62 69 64
REMARK SMILES IDX 90 65 57 66 41 67 42 68 50 69 43 70 49 71 51 72 48 73 44 74
REMARK SMILES IDX 45 75 46 76 47 77 73 78 74 79 82 80 75 81 81 82 83 83 80 84
REMARK SMILES IDX 76 85 77 86 78 87 79 88 58 89 59 90 67 91 60 92 66 93 68 94
REMARK SMILES IDX 65 95 61 96 62 97 63 98 64 99
REMARK H PARENT 88 52 56 63
REMARK Flexibility Score: inf
ROOT
ATOM      1  C   UNL A   1      33.299  34.045  28.225  1.00  0.00     0.188 C 
ENDROOT
BRANCH   1   2
ATOM      2  O   UNL A   1      34.368  33.202  27.878  1.00  0.00    -0.377 OA
BRANCH   2   3
ATOM      3  C   UNL A   1      34.118  31.824  27.978  1.00  0.00     0.188 C 
BRANCH   3   4
ATOM      4  C   UNL A   1      35.181  30.769  27.667  1.00  0.00     0.188 C 
BRANCH   4   5
ATOM      5  O   UNL A   1      34.966  29.383  27.867  1.00  0.00    -0.376 OA
BRANCH   5   6
ATOM      6  C   UNL A   1      34.114  28.569  27.084  1.00  0.00     0.202 C 
BRANCH   6   7
ATOM      7  C   UNL A   1      32.587  28.606  27.203  1.00  0.00     0.261 C 
BRANCH   7   8
ATOM      8  O   UNL A   1      31.884  29.437  26.266  1.00  0.00    -0.463 OA
BRANCH   8   9
ATOM      9  C   UNL A   1      31.985  29.084  24.956  1.00  0.00     0.309 C 
ATOM     10  O   UNL A   1      32.953  29.328  24.246  1.00  0.00    -0.252 OA
BRANCH   9  11
ATOM     11  C   UNL A   1      30.709  28.440  24.408  1.00  0.00     0.099 C 
ATOM     12  C   UNL A   1      29.952  29.253  23.355  1.00  0.00     0.020 C 
BRANCH  11  13
ATOM     13  C   UNL A   1      30.909  26.946  24.046  1.00  0.00     0.006 C 
ATOM     14  C   UNL A   1      33.282  23.659  22.881  1.00  0.00     0.265 C 
ATOM     15  O   UNL A   1      33.967  23.938  21.898  1.00  0.00    -0.268 OA
ATOM     16  N   UNL A   1      32.260  24.509  23.296  1.00  0.00    -0.338 N 
ATOM     17  C   UNL A   1      31.511  25.232  22.291  1.00  0.00     0.120 C 
ATOM     18  C   UNL A   1      31.849  24.689  24.685  1.00  0.00     0.120 C 
ATOM     19  C   UNL A   1      31.419  26.709  22.611  1.00  0.00     0.026 C 
ATOM     20  C   UNL A   1      31.801  26.167  25.034  1.00  0.00     0.026 C 
BRANCH  14  21
ATOM     21  C   UNL A   1      33.426  22.407  23.594  1.00  0.00     0.115 A 
ATOM     22  C   UNL A   1      32.676  18.779  24.717  1.00  0.00     0.079 C 
ATOM     23  C   UNL A   1      33.182  20.139  24.408  1.00  0.00     0.091 A 
ATOM     24  N   UNL A   1      34.265  20.678  24.919  1.00  0.00    -0.246 NA
ATOM     25  S   UNL A   1      32.348  21.103  23.277  1.00  0.00    -0.113 S 
ATOM     26  C   UNL A   1      34.441  21.970  24.427  1.00  0.00     0.061 A 
ATOM     27  C   UNL A   1      35.665  22.715  24.833  1.00  0.00     0.068 C 
ENDBRANCH  14  21
ENDBRANCH  11  13
ENDBRANCH   9  11
ENDBRANCH   8   9
ENDBRANCH   7   8
ENDBRANCH   6   7
ENDBRANCH   5   6
ENDBRANCH   4   5
ENDBRANCH   3   4
ENDBRANCH   2   3
ENDBRANCH   1   2
BRANCH   1  28
ATOM     28  C   UNL A   1      33.690  35.017  29.338  1.00  0.00     0.188 C 
BRANCH  28  29
ATOM     29  O   UNL A   1      32.869  35.191  30.495  1.00  0.00    -0.376 OA
BRANCH  29  30
ATOM     30  C   UNL A   1      33.416  35.268  31.801  1.00  0.00     0.202 C 
BRANCH  30  31
ATOM     31  C   UNL A   1      34.829  34.698  32.040  1.00  0.00     0.261 C 
BRANCH  31  32
ATOM     32  O   UNL A   1      34.974  33.273  32.036  1.00  0.00    -0.460 OA
BRANCH  32  33
ATOM     33  C   UNL A   1      35.863  32.766  32.922  1.00  0.00     0.338 C 
ATOM     34  O   UNL A   1      35.833  32.871  34.136  1.00  0.00    -0.246 OA
BRANCH  33  35
ATOM     35  C   UNL A   1      36.828  31.921  32.181  1.00  0.00     0.060 A 
ATOM     36  C   UNL A   1      37.703  31.100  32.905  1.00  0.00     0.016 A 
ATOM     37  C   UNL A   1      36.871  31.938  30.784  1.00  0.00     0.016 A 
ATOM     38  C   UNL A   1      38.639  30.312  32.238  1.00  0.00     0.010 A 
ATOM     39  C   UNL A   1      37.836  31.177  30.116  1.00  0.00     0.010 A 
ATOM     40  C   UNL A   1      38.746  30.389  30.844  1.00  0.00    -0.014 A 
BRANCH  40  41
ATOM     41  C   UNL A   1      39.961  29.853  30.184  1.00  0.00     0.031 A 
ATOM     42  C   UNL A   1      41.158  30.759  30.084  1.00  0.00     0.074 A 
ATOM     43  C   UNL A   1      40.016  28.595  29.719  1.00  0.00     0.049 A 
ATOM     44  N   UNL A   1      42.315  30.555  29.510  1.00  0.00    -0.248 NA
ATOM     45  C   UNL A   1      41.020  32.081  30.715  1.00  0.00     0.031 C 
ATOM     46  C   UNL A   1      38.936  27.614  29.807  1.00  0.00     0.029 A 
ATOM     47  N   UNL A   1      41.024  27.931  29.065  1.00  0.00    -0.354 N 
ATOM     48  C   UNL A   1      43.042  31.724  29.706  1.00  0.00     0.074 A 
ATOM     49  C   UNL A   1      42.177  32.646  30.411  1.00  0.00     0.031 C 
ATOM     50  C   UNL A   1      39.332  26.479  29.204  1.00  0.00     0.029 A 
ATOM     51  C   UNL A   1      40.675  26.667  28.655  1.00  0.00     0.049 A 
ATOM     52  H   UNL A   1      41.912  28.324  28.905  1.00  0.00     0.167 HD
ATOM     53  C   UNL A   1      44.318  31.998  29.343  1.00  0.00     0.034 A 
ATOM     54  C   UNL A   1      41.348  25.781  27.892  1.00  0.00     0.034 A 
ATOM     55  C   UNL A   1      45.154  31.074  28.616  1.00  0.00     0.049 A 
ATOM     56  C   UNL A   1      42.734  26.140  27.407  1.00  0.00     0.074 A 
ATOM     57  C   UNL A   1      46.460  31.239  28.194  1.00  0.00     0.029 A 
ATOM     58  N   UNL A   1      44.753  29.815  28.182  1.00  0.00    -0.354 N 
ATOM     59  N   UNL A   1      43.422  27.242  27.606  1.00  0.00    -0.248 NA
ATOM     60  C   UNL A   1      43.437  25.132  26.603  1.00  0.00     0.031 C 
ATOM     61  C   UNL A   1      46.820  30.119  27.436  1.00  0.00     0.029 A 
ATOM     62  C   UNL A   1      45.773  29.210  27.463  1.00  0.00     0.049 A 
ATOM     63  H   UNL A   1      43.872  29.412  28.359  1.00  0.00     0.167 HD
ATOM     64  C   UNL A   1      44.649  27.047  26.975  1.00  0.00     0.074 A 
ATOM     65  C   UNL A   1      44.610  25.716  26.403  1.00  0.00     0.031 C 
ATOM     66  C   UNL A   1      45.713  27.887  26.883  1.00  0.00     0.034 A 
BRANCH  53  67
ATOM     67  C   UNL A   1      44.845  33.376  29.672  1.00  0.00     0.023 A 
ATOM     68  C   UNL A   1      44.687  34.460  28.789  1.00  0.00     0.031 A 
ATOM     69  C   UNL A   1      45.580  33.593  30.851  1.00  0.00     0.131 A 
ATOM     70  C   UNL A   1      45.334  35.677  29.051  1.00  0.00     0.055 A 
ATOM     71  C   UNL A   1      46.140  34.836  31.152  1.00  0.00     0.041 A 
ATOM     72  F   UNL A   1      45.789  32.593  31.721  1.00  0.00    -0.206 F 
ATOM     73  C   UNL A   1      46.038  35.881  30.240  1.00  0.00     0.022 A 
BRANCH  70  74
ATOM     74  S   UNL A   1      45.399  36.923  27.733  1.00  0.00     0.124 S 
ATOM     75  O   UNL A   1      45.407  38.165  28.502  1.00  0.00    -0.237 OA
ATOM     76  O   UNL A   1      46.639  36.588  27.045  1.00  0.00    -0.237 OA
ATOM     77  O   UNL A   1      44.176  36.680  26.971  1.00  0.00    -0.744 OA
ENDBRANCH  70  74
ENDBRANCH  53  67
BRANCH  54  78
ATOM     78  C   UNL A   1      40.704  24.497  27.489  1.00  0.00     0.023 A 
ATOM     79  C   UNL A   1      41.366  23.267  27.623  1.00  0.00     0.031 A 
ATOM     80  C   UNL A   1      39.414  24.493  26.926  1.00  0.00     0.131 A 
ATOM     81  C   UNL A   1      40.751  22.089  27.166  1.00  0.00     0.055 A 
ATOM     82  C   UNL A   1      38.786  23.313  26.524  1.00  0.00     0.041 A 
ATOM     83  F   UNL A   1      38.737  25.642  26.772  1.00  0.00    -0.206 F 
ATOM     84  C   UNL A   1      39.460  22.102  26.633  1.00  0.00     0.022 A 
BRANCH  81  85
ATOM     85  S   UNL A   1      41.695  20.540  27.213  1.00  0.00     0.124 S 
ATOM     86  O   UNL A   1      42.046  20.363  25.809  1.00  0.00    -0.237 OA
ATOM     87  O   UNL A   1      42.793  20.882  28.112  1.00  0.00    -0.237 OA
ATOM     88  O   UNL A   1      40.737  19.573  27.745  1.00  0.00    -0.744 OA
ENDBRANCH  81  85
ENDBRANCH  54  78
BRANCH  66  89
ATOM     89  C   UNL A   1      46.944  27.369  26.174  1.00  0.00     0.023 A 
ATOM     90  C   UNL A   1      48.009  26.769  26.871  1.00  0.00     0.031 A 
ATOM     91  C   UNL A   1      47.051  27.479  24.775  1.00  0.00     0.131 A 
ATOM     92  C   UNL A   1      49.154  26.353  26.174  1.00  0.00     0.055 A 
ATOM     93  C   UNL A   1      48.163  27.002  24.081  1.00  0.00     0.041 A 
ATOM     94  F   UNL A   1      46.068  28.046  24.057  1.00  0.00    -0.206 F 
ATOM     95  C   UNL A   1      49.229  26.447  24.782  1.00  0.00     0.022 A 
BRANCH  92  96
ATOM     96  S   UNL A   1      50.591  25.779  27.120  1.00  0.00     0.124 S 
ATOM     97  O   UNL A   1      51.659  25.864  26.130  1.00  0.00    -0.237 OA
ATOM     98  O   UNL A   1      50.653  26.747  28.211  1.00  0.00    -0.237 OA
ATOM     99  O   UNL A   1      50.221  24.422  27.517  1.00  0.00    -0.744 OA
ENDBRANCH  92  96
ENDBRANCH  66  89
ENDBRANCH  40  41
ENDBRANCH  33  35
ENDBRANCH  32  33
ENDBRANCH  31  32
ENDBRANCH  30  31
ENDBRANCH  29  30
ENDBRANCH  28  29
ENDBRANCH   1  28
TORSDOF 25
ENDMDL
MODEL 2
REMARK VINA RESULT:     -10.3      1.982      7.736
REMARK SMILES Cc1nc(C)c(C(=O)N2CCC([C@H](C)C(=O)OCCOCCOCCOCCOC(=O)c3ccc(-c4c5nc(c(-c6cc(S(=O)(=O)[O-])ccc6F)c6ccc([nH]6)c(-c6cc(S(=O)(=O)[O-])ccc6F)c6nc(c(-c7cc(S(=O)(=O)[O-])ccc7F)c7ccc4[nH]7)C=C6)C=C5)cc3)CC2)s1
REMARK SMILES IDX 24 1 23 2 22 3 21 4 20 5 19 6 18 7 17 8 15 9 16 10 13 11
REMARK SMILES IDX 14 12 12 13 7 14 8 15 9 16 10 17 96 18 11 19 95 20 6 21 1 22
REMARK SMILES IDX 2 23 3 24 97 25 4 26 5 27 25 28 26 29 27 30 28 31 29 32
REMARK SMILES IDX 30 33 31 34 32 35 33 36 94 37 34 38 93 39 35 40 36 41 37 42
REMARK SMILES IDX 87 43 38 44 92 45 86 46 88 47 39 48 91 49 85 50 84 51 40 53
REMARK SMILES IDX 72 54 52 55 71 56 53 57 56 58 70 59 89 60 54 61 55 62 69 64
REMARK SMILES IDX 90 65 57 66 41 67 42 68 50 69 43 70 49 71 51 72 48 73 44 74
REMARK SMILES IDX 45 75 46 76 47 77 73 78 74 79 82 80 75 81 81 82 83 83 80 84
REMARK SMILES IDX 76 85 77 86 78 87 79 88 58 89 59 90 67 91 60 92 66 93 68 94
REMARK SMILES IDX 65 95 61 96 62 97 63 98 64 99
REMARK H PARENT 88 52 56 63
REMARK Flexibility Score: inf
ROOT
ATOM      1  C   UNL A   1      34.595  32.189  28.726  1.00  0.00     0.188 C 
ENDROOT
BRANCH   1   2
ATOM      2  O   UNL A   1      33.723  32.351  27.636  1.00  0.00    -0.377 OA
BRANCH   2   3
ATOM      3  C   UNL A   1      33.055  31.192  27.209  1.00  0.00     0.188 C 
BRANCH   3   4
ATOM      4  C   UNL A   1      33.593  29.786  27.480  1.00  0.00     0.188 C 
BRANCH   4   5
ATOM      5  O   UNL A   1      33.213  28.659  26.709  1.00  0.00    -0.376 OA
BRANCH   5   6
ATOM      6  C   UNL A   1      32.220  28.659  25.701  1.00  0.00     0.202 C 
BRANCH   6   7
ATOM      7  C   UNL A   1      32.465  29.207  24.291  1.00  0.00     0.261 C 
BRANCH   7   8
ATOM      8  O   UNL A   1      31.604  28.721  23.249  1.00  0.00    -0.463 OA
BRANCH   8   9
ATOM      9  C   UNL A   1      31.708  27.398  22.950  1.00  0.00     0.309 C 
ATOM     10  O   UNL A   1      30.870  26.555  23.244  1.00  0.00    -0.252 OA
BRANCH   9  11
ATOM     11  C   UNL A   1      33.044  27.033  22.298  1.00  0.00     0.099 C 
ATOM     12  C   UNL A   1      34.027  28.191  22.102  1.00  0.00     0.020 C 
BRANCH  11  13
ATOM     13  C   UNL A   1      33.671  25.754  22.910  1.00  0.00     0.006 C 
ATOM     14  C   UNL A   1      33.679  22.503  25.597  1.00  0.00     0.265 C 
ATOM     15  O   UNL A   1      33.453  22.882  26.745  1.00  0.00    -0.268 OA
ATOM     16  N   UNL A   1      33.951  23.424  24.589  1.00  0.00    -0.338 N 
ATOM     17  C   UNL A   1      34.686  24.623  24.927  1.00  0.00     0.120 C 
ATOM     18  C   UNL A   1      33.588  23.244  23.186  1.00  0.00     0.120 C 
ATOM     19  C   UNL A   1      33.999  25.870  24.412  1.00  0.00     0.026 C 
ATOM     20  C   UNL A   1      32.853  24.469  22.670  1.00  0.00     0.026 C 
BRANCH  14  21
ATOM     21  C   UNL A   1      33.775  21.101  25.249  1.00  0.00     0.115 A 
ATOM     22  C   UNL A   1      32.640  17.528  24.282  1.00  0.00     0.079 C 
ATOM     23  C   UNL A   1      33.306  18.818  24.594  1.00  0.00     0.091 A 
ATOM     24  N   UNL A   1      34.605  19.007  24.635  1.00  0.00    -0.246 NA
ATOM     25  S   UNL A   1      32.354  20.200  24.888  1.00  0.00    -0.113 S 
ATOM     26  C   UNL A   1      34.891  20.329  24.972  1.00  0.00     0.061 A 
ATOM     27  C   UNL A   1      36.317  20.756  24.990  1.00  0.00     0.068 C 
ENDBRANCH  14  21
ENDBRANCH  11  13
ENDBRANCH   9  11
ENDBRANCH   8   9
ENDBRANCH   7   8
ENDBRANCH   6   7
ENDBRANCH   5   6
ENDBRANCH   4   5
ENDBRANCH   3   4
ENDBRANCH   2   3
ENDBRANCH   1   2
BRANCH   1  28
ATOM     28  C   UNL A   1      35.417  33.453  28.977  1.00  0.00     0.188 C 
BRANCH  28  29
ATOM     29  O   UNL A   1      35.458  34.069  30.266  1.00  0.00    -0.376 OA
BRANCH  29  30
ATOM     30  C   UNL A   1      34.417  33.896  31.214  1.00  0.00     0.202 C 
BRANCH  30  31
ATOM     31  C   UNL A   1      34.750  33.210  32.555  1.00  0.00     0.261 C 
BRANCH  31  32
ATOM     32  O   UNL A   1      35.320  31.898  32.500  1.00  0.00    -0.460 OA
BRANCH  32  33
ATOM     33  C   UNL A   1      36.477  31.726  33.182  1.00  0.00     0.338 C 
ATOM     34  O   UNL A   1      36.677  31.961  34.362  1.00  0.00    -0.246 OA
BRANCH  33  35
ATOM     35  C   UNL A   1      37.450  31.059  32.287  1.00  0.00     0.060 A 
ATOM     36  C   UNL A   1      38.602  30.489  32.846  1.00  0.00     0.016 A 
ATOM     37  C   UNL A   1      37.231  30.995  30.909  1.00  0.00     0.016 A 
ATOM     38  C   UNL A   1      39.549  29.876  32.028  1.00  0.00     0.010 A 
ATOM     39  C   UNL A   1      38.199  30.413  30.084  1.00  0.00     0.010 A 
ATOM     40  C   UNL A   1      39.378  29.884  30.639  1.00  0.00    -0.014 A 
BRANCH  40  41
ATOM     41  C   UNL A   1      40.538  29.576  29.768  1.00  0.00     0.031 A 
ATOM     42  C   UNL A   1      40.564  28.235  29.087  1.00  0.00     0.074 A 
ATOM     43  C   UNL A   1      41.522  30.467  29.559  1.00  0.00     0.049 A 
ATOM     44  N   UNL A   1      41.482  27.702  28.325  1.00  0.00    -0.248 NA
ATOM     45  C   UNL A   1      39.388  27.378  29.308  1.00  0.00     0.031 C 
ATOM     46  C   UNL A   1      41.576  31.813  30.126  1.00  0.00     0.029 A 
ATOM     47  N   UNL A   1      42.674  30.363  28.821  1.00  0.00    -0.354 N 
ATOM     48  C   UNL A   1      40.998  26.445  27.979  1.00  0.00     0.074 A 
ATOM     49  C   UNL A   1      39.728  26.281  28.652  1.00  0.00     0.031 C 
ATOM     50  C   UNL A   1      42.719  32.402  29.733  1.00  0.00     0.029 A 
ATOM     51  C   UNL A   1      43.492  31.462  28.922  1.00  0.00     0.049 A 
ATOM     52  H   UNL A   1      42.892  29.576  28.271  1.00  0.00     0.167 HD
ATOM     53  C   UNL A   1      41.558  25.518  27.163  1.00  0.00     0.034 A 
ATOM     54  C   UNL A   1      44.738  31.667  28.446  1.00  0.00     0.034 A 
ATOM     55  C   UNL A   1      42.839  25.691  26.524  1.00  0.00     0.049 A 
ATOM     56  C   UNL A   1      45.393  30.583  27.621  1.00  0.00     0.074 A 
ATOM     57  C   UNL A   1      43.506  24.825  25.677  1.00  0.00     0.029 A 
ATOM     58  N   UNL A   1      43.660  26.802  26.681  1.00  0.00    -0.354 N 
ATOM     59  N   UNL A   1      44.925  29.402  27.286  1.00  0.00    -0.248 NA
ATOM     60  C   UNL A   1      46.737  30.865  27.103  1.00  0.00     0.031 C 
ATOM     61  C   UNL A   1      44.761  25.373  25.390  1.00  0.00     0.029 A 
ATOM     62  C   UNL A   1      44.843  26.626  25.979  1.00  0.00     0.049 A 
ATOM     63  H   UNL A   1      43.434  27.599  27.213  1.00  0.00     0.167 HD
ATOM     64  C   UNL A   1      45.909  28.812  26.494  1.00  0.00     0.074 A 
ATOM     65  C   UNL A   1      46.987  29.775  26.391  1.00  0.00     0.031 C 
ATOM     66  C   UNL A   1      45.918  27.590  25.900  1.00  0.00     0.034 A 
BRANCH  53  67
ATOM     67  C   UNL A   1      40.807  24.218  26.985  1.00  0.00     0.023 A 
ATOM     68  C   UNL A   1      41.457  22.972  27.054  1.00  0.00     0.031 A 
ATOM     69  C   UNL A   1      39.438  24.226  26.668  1.00  0.00     0.131 A 
ATOM     70  C   UNL A   1      40.763  21.800  26.717  1.00  0.00     0.055 A 
ATOM     71  C   UNL A   1      38.730  23.047  26.428  1.00  0.00     0.041 A 
ATOM     72  F   UNL A   1      38.767  25.383  26.560  1.00  0.00    -0.206 F 
ATOM     73  C   UNL A   1      39.397  21.826  26.430  1.00  0.00     0.022 A 
BRANCH  70  74
ATOM     74  S   UNL A   1      41.713  20.272  26.476  1.00  0.00     0.124 S 
ATOM     75  O   UNL A   1      42.809  20.738  25.631  1.00  0.00    -0.237 OA
ATOM     76  O   UNL A   1      42.067  19.903  27.841  1.00  0.00    -0.237 OA
ATOM     77  O   UNL A   1      40.763  19.380  25.814  1.00  0.00    -0.744 OA
ENDBRANCH  70  74
ENDBRANCH  53  67
BRANCH  54  78
ATOM     78  C   UNL A   1      45.472  32.921  28.785  1.00  0.00     0.023 A 
ATOM     79  C   UNL A   1      45.488  34.023  27.915  1.00  0.00     0.031 A 
ATOM     80  C   UNL A   1      46.204  33.017  29.983  1.00  0.00     0.131 A 
ATOM     81  C   UNL A   1      46.249  35.158  28.240  1.00  0.00     0.055 A 
ATOM     82  C   UNL A   1      46.915  34.169  30.326  1.00  0.00     0.041 A 
ATOM     83  F   UNL A   1      46.227  31.992  30.849  1.00  0.00    -0.206 F 
ATOM     84  C   UNL A   1      46.949  35.245  29.446  1.00  0.00     0.022 A 
BRANCH  81  85
ATOM     85  S   UNL A   1      46.371  36.501  27.026  1.00  0.00     0.124 S 
ATOM     86  O   UNL A   1      44.985  36.947  26.934  1.00  0.00    -0.237 OA
ATOM     87  O   UNL A   1      47.299  37.418  27.681  1.00  0.00    -0.237 OA
ATOM     88  O   UNL A   1      46.894  35.837  25.834  1.00  0.00    -0.744 OA
ENDBRANCH  81  85
ENDBRANCH  54  78
BRANCH  66  89
ATOM     89  C   UNL A   1      47.116  27.245  25.044  1.00  0.00     0.023 A 
ATOM     90  C   UNL A   1      47.232  27.683  23.713  1.00  0.00     0.031 A 
ATOM     91  C   UNL A   1      48.159  26.462  25.573  1.00  0.00     0.131 A 
ATOM     92  C   UNL A   1      48.337  27.292  22.942  1.00  0.00     0.055 A 
ATOM     93  C   UNL A   1      49.288  26.134  24.823  1.00  0.00     0.041 A 
ATOM     94  F   UNL A   1      48.102  26.011  26.837  1.00  0.00    -0.206 F 
ATOM     95  C   UNL A   1      49.376  26.537  23.494  1.00  0.00     0.022 A 
BRANCH  92  96
ATOM     96  S   UNL A   1      48.355  27.696  21.173  1.00  0.00     0.124 S 
ATOM     97  O   UNL A   1      47.004  28.206  20.966  1.00  0.00    -0.237 OA
ATOM     98  O   UNL A   1      49.428  28.681  21.089  1.00  0.00    -0.237 OA
ATOM     99  O   UNL A   1      48.639  26.414  20.531  1.00  0.00    -0.744 OA
ENDBRANCH  92  96
ENDBRANCH  66  89
ENDBRANCH  40  41
ENDBRANCH  33  35
ENDBRANCH  32  33
ENDBRANCH  31  32
ENDBRANCH  30  31
ENDBRANCH  29  30
ENDBRANCH  28  29
ENDBRANCH   1  28
TORSDOF 25
ENDMDL
MODEL 3
REMARK VINA RESULT:      -9.8      2.122      2.857
REMARK SMILES Cc1nc(C)c(C(=O)N2CCC([C@H](C)C(=O)OCCOCCOCCOCCOC(=O)c3ccc(-c4c5nc(c(-c6cc(S(=O)(=O)[O-])ccc6F)c6ccc([nH]6)c(-c6cc(S(=O)(=O)[O-])ccc6F)c6nc(c(-c7cc(S(=O)(=O)[O-])ccc7F)c7ccc4[nH]7)C=C6)C=C5)cc3)CC2)s1
REMARK SMILES IDX 24 1 23 2 22 3 21 4 20 5 19 6 18 7 17 8 15 9 16 10 13 11
REMARK SMILES IDX 14 12 12 13 7 14 8 15 9 16 10 17 96 18 11 19 95 20 6 21 1 22
REMARK SMILES IDX 2 23 3 24 97 25 4 26 5 27 25 28 26 29 27 30 28 31 29 32
REMARK SMILES IDX 30 33 31 34 32 35 33 36 94 37 34 38 93 39 35 40 36 41 37 42
REMARK SMILES IDX 87 43 38 44 92 45 86 46 88 47 39 48 91 49 85 50 84 51 40 53
REMARK SMILES IDX 72 54 52 55 71 56 53 57 56 58 70 59 89 60 54 61 55 62 69 64
REMARK SMILES IDX 90 65 57 66 41 67 42 68 50 69 43 70 49 71 51 72 48 73 44 74
REMARK SMILES IDX 45 75 46 76 47 77 73 78 74 79 82 80 75 81 81 82 83 83 80 84
REMARK SMILES IDX 76 85 77 86 78 87 79 88 58 89 59 90 67 91 60 92 66 93 68 94
REMARK SMILES IDX 65 95 61 96 62 97 63 98 64 99
REMARK H PARENT 88 52 56 63
REMARK Flexibility Score: inf
ROOT
ATOM      1  C   UNL A   1      33.204  34.310  28.061  1.00  0.00     0.188 C 
ENDROOT
BRANCH   1   2
ATOM      2  O   UNL A   1      34.363  33.526  27.935  1.00  0.00    -0.377 OA
BRANCH   2   3
ATOM      3  C   UNL A   1      34.211  32.159  28.219  1.00  0.00     0.188 C 
BRANCH   3   4
ATOM      4  C   UNL A   1      35.162  31.094  27.670  1.00  0.00     0.188 C 
BRANCH   4   5
ATOM      5  O   UNL A   1      34.988  29.709  27.920  1.00  0.00    -0.376 OA
BRANCH   5   6
ATOM      6  C   UNL A   1      34.212  28.831  27.129  1.00  0.00     0.202 C 
BRANCH   6   7
ATOM      7  C   UNL A   1      32.684  28.752  27.226  1.00  0.00     0.261 C 
BRANCH   7   8
ATOM      8  O   UNL A   1      31.934  29.523  26.276  1.00  0.00    -0.463 OA
BRANCH   8   9
ATOM      9  C   UNL A   1      32.060  29.158  24.971  1.00  0.00     0.309 C 
ATOM     10  O   UNL A   1      33.041  29.397  24.277  1.00  0.00    -0.252 OA
BRANCH   9  11
ATOM     11  C   UNL A   1      30.795  28.506  24.405  1.00  0.00     0.099 C 
ATOM     12  C   UNL A   1      30.130  29.245  23.242  1.00  0.00     0.020 C 
BRANCH  11  13
ATOM     13  C   UNL A   1      30.963  26.981  24.188  1.00  0.00     0.006 C 
ATOM     14  C   UNL A   1      33.261  23.548  23.339  1.00  0.00     0.265 C 
ATOM     15  O   UNL A   1      33.946  23.716  22.331  1.00  0.00    -0.268 OA
ATOM     16  N   UNL A   1      32.259  24.455  23.673  1.00  0.00    -0.338 N 
ATOM     17  C   UNL A   1      31.520  25.093  22.605  1.00  0.00     0.120 C 
ATOM     18  C   UNL A   1      31.860  24.777  25.040  1.00  0.00     0.120 C 
ATOM     19  C   UNL A   1      31.461  26.596  22.782  1.00  0.00     0.026 C 
ATOM     20  C   UNL A   1      31.844  26.282  25.244  1.00  0.00     0.026 C 
BRANCH  14  21
ATOM     21  C   UNL A   1      33.382  22.367  24.168  1.00  0.00     0.115 A 
ATOM     22  C   UNL A   1      32.774  18.761  25.437  1.00  0.00     0.079 C 
ATOM     23  C   UNL A   1      33.201  20.145  25.112  1.00  0.00     0.091 A 
ATOM     24  N   UNL A   1      34.112  20.829  25.766  1.00  0.00    -0.246 NA
ATOM     25  S   UNL A   1      32.511  20.937  23.771  1.00  0.00    -0.113 S 
ATOM     26  C   UNL A   1      34.257  22.097  25.207  1.00  0.00     0.061 A 
ATOM     27  C   UNL A   1      35.307  22.994  25.765  1.00  0.00     0.068 C 
ENDBRANCH  14  21
ENDBRANCH  11  13
ENDBRANCH   9  11
ENDBRANCH   8   9
ENDBRANCH   7   8
ENDBRANCH   6   7
ENDBRANCH   5   6
ENDBRANCH   4   5
ENDBRANCH   3   4
ENDBRANCH   2   3
ENDBRANCH   1   2
BRANCH   1  28
ATOM     28  C   UNL A   1      33.414  35.466  29.038  1.00  0.00     0.188 C 
BRANCH  28  29
ATOM     29  O   UNL A   1      32.347  35.950  29.858  1.00  0.00    -0.376 OA
BRANCH  29  30
ATOM     30  C   UNL A   1      32.496  36.130  31.256  1.00  0.00     0.202 C 
BRANCH  30  31
ATOM     31  C   UNL A   1      33.691  35.457  31.962  1.00  0.00     0.261 C 
BRANCH  31  32
ATOM     32  O   UNL A   1      33.848  34.044  31.788  1.00  0.00    -0.460 OA
BRANCH  32  33
ATOM     33  C   UNL A   1      34.512  33.397  32.773  1.00  0.00     0.338 C 
ATOM     34  O   UNL A   1      34.126  33.197  33.913  1.00  0.00    -0.246 OA
BRANCH  33  35
ATOM     35  C   UNL A   1      35.755  32.829  32.202  1.00  0.00     0.060 A 
ATOM     36  C   UNL A   1      36.502  31.926  32.970  1.00  0.00     0.016 A 
ATOM     37  C   UNL A   1      36.182  33.183  30.919  1.00  0.00     0.016 A 
ATOM     38  C   UNL A   1      37.688  31.393  32.471  1.00  0.00     0.010 A 
ATOM     39  C   UNL A   1      37.392  32.679  30.433  1.00  0.00     0.010 A 
ATOM     40  C   UNL A   1      38.167  31.810  31.223  1.00  0.00    -0.014 A 
BRANCH  40  41
ATOM     41  C   UNL A   1      39.581  31.540  30.866  1.00  0.00     0.031 A 
ATOM     42  C   UNL A   1      40.604  32.581  31.231  1.00  0.00     0.074 A 
ATOM     43  C   UNL A   1      39.953  30.396  30.268  1.00  0.00     0.049 A 
ATOM     44  N   UNL A   1      41.887  32.614  30.985  1.00  0.00    -0.248 NA
ATOM     45  C   UNL A   1      40.099  33.748  31.972  1.00  0.00     0.031 C 
ATOM     46  C   UNL A   1      39.057  29.298  29.914  1.00  0.00     0.029 A 
ATOM     47  N   UNL A   1      41.189  29.977  29.842  1.00  0.00    -0.354 N 
ATOM     48  C   UNL A   1      42.343  33.807  31.535  1.00  0.00     0.074 A 
ATOM     49  C   UNL A   1      41.190  34.486  32.086  1.00  0.00     0.031 C 
ATOM     50  C   UNL A   1      39.770  28.338  29.299  1.00  0.00     0.029 A 
ATOM     51  C   UNL A   1      41.163  28.772  29.182  1.00  0.00     0.049 A 
ATOM     52  H   UNL A   1      42.014  30.491  29.994  1.00  0.00     0.167 HD
ATOM     53  C   UNL A   1      43.610  34.285  31.588  1.00  0.00     0.034 A 
ATOM     54  C   UNL A   1      42.143  28.116  28.528  1.00  0.00     0.034 A 
ATOM     55  C   UNL A   1      44.742  33.603  31.007  1.00  0.00     0.049 A 
ATOM     56  C   UNL A   1      43.532  28.710  28.506  1.00  0.00     0.074 A 
ATOM     57  C   UNL A   1      46.070  33.987  30.998  1.00  0.00     0.029 A 
ATOM     58  N   UNL A   1      44.672  32.401  30.311  1.00  0.00    -0.354 N 
ATOM     59  N   UNL A   1      43.961  29.832  29.040  1.00  0.00    -0.248 NA
ATOM     60  C   UNL A   1      44.570  27.945  27.805  1.00  0.00     0.031 C 
ATOM     61  C   UNL A   1      46.787  33.065  30.228  1.00  0.00     0.029 A 
ATOM     62  C   UNL A   1      45.926  32.051  29.835  1.00  0.00     0.049 A 
ATOM     63  H   UNL A   1      43.850  31.875  30.176  1.00  0.00     0.167 HD
ATOM     64  C   UNL A   1      45.325  29.892  28.760  1.00  0.00     0.074 A 
ATOM     65  C   UNL A   1      45.647  28.685  28.025  1.00  0.00     0.031 C 
ATOM     66  C   UNL A   1      46.230  30.851  29.087  1.00  0.00     0.034 A 
BRANCH  53  67
ATOM     67  C   UNL A   1      43.809  35.635  32.236  1.00  0.00     0.023 A 
ATOM     68  C   UNL A   1      43.821  36.824  31.483  1.00  0.00     0.031 A 
ATOM     69  C   UNL A   1      44.062  35.731  33.615  1.00  0.00     0.131 A 
ATOM     70  C   UNL A   1      44.174  38.036  32.094  1.00  0.00     0.055 A 
ATOM     71  C   UNL A   1      44.319  36.956  34.235  1.00  0.00     0.041 A 
ATOM     72  F   UNL A   1      44.091  34.631  34.384  1.00  0.00    -0.206 F 
ATOM     73  C   UNL A   1      44.398  38.115  33.470  1.00  0.00     0.022 A 
BRANCH  70  74
ATOM     74  S   UNL A   1      44.521  39.469  31.035  1.00  0.00     0.124 S 
ATOM     75  O   UNL A   1      43.273  39.590  30.285  1.00  0.00    -0.237 OA
ATOM     76  O   UNL A   1      44.789  40.522  32.007  1.00  0.00    -0.237 OA
ATOM     77  O   UNL A   1      45.673  39.040  30.245  1.00  0.00    -0.744 OA
ENDBRANCH  70  74
ENDBRANCH  53  67
BRANCH  54  78
ATOM     78  C   UNL A   1      41.837  26.856  27.789  1.00  0.00     0.023 A 
ATOM     79  C   UNL A   1      42.109  25.594  28.340  1.00  0.00     0.031 A 
ATOM     80  C   UNL A   1      41.294  26.905  26.491  1.00  0.00     0.131 A 
ATOM     81  C   UNL A   1      41.870  24.435  27.583  1.00  0.00     0.055 A 
ATOM     82  C   UNL A   1      41.010  25.747  25.764  1.00  0.00     0.041 A 
ATOM     83  F   UNL A   1      41.019  28.085  25.914  1.00  0.00    -0.206 F 
ATOM     84  C   UNL A   1      41.308  24.502  26.306  1.00  0.00     0.022 A 
BRANCH  81  85
ATOM     85  S   UNL A   1      42.375  22.831  28.265  1.00  0.00     0.124 S 
ATOM     86  O   UNL A   1      41.140  22.062  28.163  1.00  0.00    -0.237 OA
ATOM     87  O   UNL A   1      43.451  22.442  27.359  1.00  0.00    -0.237 OA
ATOM     88  O   UNL A   1      42.798  23.157  29.625  1.00  0.00    -0.744 OA
ENDBRANCH  81  85
ENDBRANCH  54  78
BRANCH  66  89
ATOM     89  C   UNL A   1      47.669  30.610  28.691  1.00  0.00     0.023 A 
ATOM     90  C   UNL A   1      48.549  29.866  29.497  1.00  0.00     0.031 A 
ATOM     91  C   UNL A   1      48.166  31.135  27.483  1.00  0.00     0.131 A 
ATOM     92  C   UNL A   1      49.890  29.715  29.112  1.00  0.00     0.055 A 
ATOM     93  C   UNL A   1      49.482  30.924  27.074  1.00  0.00     0.041 A 
ATOM     94  F   UNL A   1      47.373  31.857  26.674  1.00  0.00    -0.206 F 
ATOM     95  C   UNL A   1      50.358  30.221  27.896  1.00  0.00     0.022 A 
BRANCH  92  96
ATOM     96  S   UNL A   1      51.048  28.933  30.270  1.00  0.00     0.124 S 
ATOM     97  O   UNL A   1      50.222  27.885  30.862  1.00  0.00    -0.237 OA
ATOM     98  O   UNL A   1      52.116  28.480  29.386  1.00  0.00    -0.237 OA
ATOM     99  O   UNL A   1      51.413  30.020  31.177  1.00  0.00    -0.744 OA
ENDBRANCH  92  96
ENDBRANCH  66  89
ENDBRANCH  40  41
ENDBRANCH  33  35
ENDBRANCH  32  33
ENDBRANCH  31  32
ENDBRANCH  30  31
ENDBRANCH  29  30
ENDBRANCH  28  29
ENDBRANCH   1  28
TORSDOF 25
ENDMDL
