MODEL 1
REMARK VINA RESULT:      -7.9      0.000      0.000
REMARK SMILES C[C@@H]1[C@@H](C(=O)OCCOCCOCCOCCOC(=O)c2ccc(-c3c4nc(c(-c5cc(S(=O)(=O)[O-])ccc5F)c5ccc([nH]5)c(-c5cc(S(=O)(=O)[O-])ccc5F)c5nc(c(-c6cc(S(=O)(=O)[O-])ccc6F)c6ccc3[nH]6)C=C5)C=C4)cc2)CCN1C(=O)CCCC1CCCCC1
REMARK SMILES IDX 11 1 10 2 9 3 8 4 7 5 6 6 4 7 5 8 3 9 1 10 2 11 86 12 84 13
REMARK SMILES IDX 85 14 87 15 88 16 89 17 90 18 91 19 92 20 93 21 97 22 94 23
REMARK SMILES IDX 96 24 95 25 12 26 13 27 14 28 15 29 16 30 17 31 18 32 19 33
REMARK SMILES IDX 20 34 21 35 22 36 83 37 23 38 82 39 24 40 25 41 26 42 76 43
REMARK SMILES IDX 27 44 81 45 75 46 77 47 28 48 80 49 74 50 73 51 29 53 61 54
REMARK SMILES IDX 41 55 60 56 42 57 45 58 59 59 78 60 43 61 44 62 58 64 79 65
REMARK SMILES IDX 46 66 30 67 31 68 39 69 32 70 38 71 40 72 37 73 33 74 34 75
REMARK SMILES IDX 35 76 36 77 62 78 63 79 71 80 64 81 70 82 72 83 69 84 65 85
REMARK SMILES IDX 66 86 67 87 68 88 47 89 48 90 56 91 49 92 55 93 57 94 54 95
REMARK SMILES IDX 50 96 51 97 52 98 53 99
REMARK H PARENT 77 52 45 63
REMARK Flexibility Score: inf
ROOT
ATOM      1  C   UNL A   1      32.593  36.454  31.382  1.00  0.00     0.188 C 
ENDROOT
BRANCH   1   2
ATOM      2  C   UNL A   1      32.903  36.196  29.903  1.00  0.00     0.188 C 
BRANCH   2   3
ATOM      3  O   UNL A   1      32.519  34.996  29.265  1.00  0.00    -0.376 OA
BRANCH   3   4
ATOM      4  C   UNL A   1      33.272  34.346  28.252  1.00  0.00     0.202 C 
BRANCH   4   5
ATOM      5  C   UNL A   1      33.620  32.849  28.152  1.00  0.00     0.261 C 
BRANCH   5   6
ATOM      6  O   UNL A   1      34.545  32.305  29.084  1.00  0.00    -0.463 OA
BRANCH   6   7
ATOM      7  C   UNL A   1      35.801  32.787  28.954  1.00  0.00     0.311 C 
ATOM      8  O   UNL A   1      36.316  33.083  27.884  1.00  0.00    -0.252 OA
BRANCH   7   9
ATOM      9  C   UNL A   1      36.445  32.963  30.321  1.00  0.00     0.123 C 
ATOM     10  C   UNL A   1      38.713  33.103  31.459  1.00  0.00     0.032 C 
ATOM     11  C   UNL A   1      37.930  32.601  30.245  1.00  0.00     0.096 C 
ATOM     12  N   UNL A   1      37.881  31.151  30.174  1.00  0.00    -0.339 N 
ATOM     13  C   UNL A   1      35.901  31.915  31.280  1.00  0.00     0.039 C 
ATOM     14  C   UNL A   1      36.699  30.665  30.894  1.00  0.00     0.121 C 
BRANCH  12  15
ATOM     15  C   UNL A   1      38.428  30.373  29.162  1.00  0.00     0.222 C 
ATOM     16  O   UNL A   1      37.851  30.269  28.072  1.00  0.00    -0.275 OA
BRANCH  15  17
ATOM     17  C   UNL A   1      39.659  29.493  29.426  1.00  0.00     0.100 C 
BRANCH  17  18
ATOM     18  C   UNL A   1      40.811  29.307  28.418  1.00  0.00     0.010 C 
BRANCH  18  19
ATOM     19  C   UNL A   1      40.658  28.617  27.044  1.00  0.00     0.004 C 
BRANCH  19  20
ATOM     20  C   UNL A   1      40.402  27.090  26.871  1.00  0.00    -0.011 C 
ATOM     21  C   UNL A   1      41.714  26.373  26.459  1.00  0.00     0.003 C 
ATOM     22  C   UNL A   1      39.741  26.404  28.060  1.00  0.00     0.003 C 
ATOM     23  C   UNL A   1      41.638  24.847  26.438  1.00  0.00     0.000 C 
ATOM     24  C   UNL A   1      39.610  24.897  27.911  1.00  0.00     0.000 C 
ATOM     25  C   UNL A   1      40.972  24.262  27.677  1.00  0.00     0.000 C 
ENDBRANCH  19  20
ENDBRANCH  18  19
ENDBRANCH  17  18
ENDBRANCH  15  17
ENDBRANCH  12  15
ENDBRANCH   7   9
ENDBRANCH   6   7
ENDBRANCH   5   6
ENDBRANCH   4   5
ENDBRANCH   3   4
ENDBRANCH   2   3
ENDBRANCH   1   2
BRANCH   1  26
ATOM     26  O   UNL A   1      32.505  35.274  32.145  1.00  0.00    -0.377 OA
BRANCH  26  27
ATOM     27  C   UNL A   1      33.725  34.718  32.624  1.00  0.00     0.188 C 
BRANCH  27  28
ATOM     28  C   UNL A   1      34.793  35.615  33.295  1.00  0.00     0.188 C 
BRANCH  28  29
ATOM     29  O   UNL A   1      35.987  34.940  33.675  1.00  0.00    -0.376 OA
BRANCH  29  30
ATOM     30  C   UNL A   1      35.919  34.033  34.762  1.00  0.00     0.202 C 
BRANCH  30  31
ATOM     31  C   UNL A   1      36.972  32.913  34.776  1.00  0.00     0.261 C 
BRANCH  31  32
ATOM     32  O   UNL A   1      37.607  32.664  36.039  1.00  0.00    -0.460 OA
BRANCH  32  33
ATOM     33  C   UNL A   1      38.153  31.442  36.225  1.00  0.00     0.338 C 
ATOM     34  O   UNL A   1      37.779  30.592  37.019  1.00  0.00    -0.246 OA
BRANCH  33  35
ATOM     35  C   UNL A   1      39.153  31.221  35.158  1.00  0.00     0.060 A 
ATOM     36  C   UNL A   1      38.832  30.370  34.092  1.00  0.00     0.016 A 
ATOM     37  C   UNL A   1      40.392  31.862  35.200  1.00  0.00     0.016 A 
ATOM     38  C   UNL A   1      39.767  30.128  33.084  1.00  0.00     0.010 A 
ATOM     39  C   UNL A   1      41.336  31.601  34.201  1.00  0.00     0.010 A 
ATOM     40  C   UNL A   1      41.041  30.706  33.158  1.00  0.00    -0.014 A 
BRANCH  40  41
ATOM     41  C   UNL A   1      42.129  30.209  32.277  1.00  0.00     0.031 A 
ATOM     42  C   UNL A   1      42.759  28.882  32.609  1.00  0.00     0.074 A 
ATOM     43  C   UNL A   1      42.535  30.898  31.195  1.00  0.00     0.049 A 
ATOM     44  N   UNL A   1      43.761  28.268  32.037  1.00  0.00    -0.248 NA
ATOM     45  C   UNL A   1      42.175  28.155  33.747  1.00  0.00     0.031 C 
ATOM     46  C   UNL A   1      41.965  32.164  30.738  1.00  0.00     0.029 A 
ATOM     47  N   UNL A   1      43.531  30.630  30.288  1.00  0.00    -0.354 N 
ATOM     48  C   UNL A   1      43.936  27.086  32.750  1.00  0.00     0.074 A 
ATOM     49  C   UNL A   1      42.960  27.091  33.819  1.00  0.00     0.031 C 
ATOM     50  C   UNL A   1      42.629  32.568  29.640  1.00  0.00     0.029 A 
ATOM     51  C   UNL A   1      43.698  31.614  29.342  1.00  0.00     0.049 A 
ATOM     52  H   UNL A   1      44.074  29.809  30.313  1.00  0.00     0.167 HD
ATOM     53  C   UNL A   1      44.820  26.084  32.526  1.00  0.00     0.034 A 
ATOM     54  C   UNL A   1      44.626  31.743  28.370  1.00  0.00     0.034 A 
ATOM     55  C   UNL A   1      45.796  26.100  31.465  1.00  0.00     0.049 A 
ATOM     56  C   UNL A   1      45.673  30.664  28.206  1.00  0.00     0.074 A 
ATOM     57  C   UNL A   1      46.735  25.134  31.144  1.00  0.00     0.029 A 
ATOM     58  N   UNL A   1      45.972  27.139  30.560  1.00  0.00    -0.354 N 
ATOM     59  N   UNL A   1      45.826  29.548  28.883  1.00  0.00    -0.248 NA
ATOM     60  C   UNL A   1      46.667  30.858  27.141  1.00  0.00     0.031 C 
ATOM     61  C   UNL A   1      47.531  25.626  30.105  1.00  0.00     0.029 A 
ATOM     62  C   UNL A   1      47.029  26.855  29.708  1.00  0.00     0.049 A 
ATOM     63  H   UNL A   1      45.426  27.957  30.528  1.00  0.00     0.167 HD
ATOM     64  C   UNL A   1      46.909  28.893  28.298  1.00  0.00     0.074 A 
ATOM     65  C   UNL A   1      47.361  29.731  27.208  1.00  0.00     0.031 C 
ATOM     66  C   UNL A   1      47.475  27.702  28.627  1.00  0.00     0.034 A 
BRANCH  53  67
ATOM     67  C   UNL A   1      44.807  24.919  33.488  1.00  0.00     0.023 A 
ATOM     68  C   UNL A   1      45.354  25.015  34.779  1.00  0.00     0.031 A 
ATOM     69  C   UNL A   1      44.265  23.682  33.094  1.00  0.00     0.131 A 
ATOM     70  C   UNL A   1      45.411  23.880  35.602  1.00  0.00     0.055 A 
ATOM     71  C   UNL A   1      44.246  22.581  33.951  1.00  0.00     0.041 A 
ATOM     72  F   UNL A   1      43.754  23.520  31.864  1.00  0.00    -0.206 F 
ATOM     73  C   UNL A   1      44.835  22.671  35.208  1.00  0.00     0.022 A 
BRANCH  70  74
ATOM     74  S   UNL A   1      46.385  23.966  37.131  1.00  0.00     0.124 S 
ATOM     75  O   UNL A   1      47.227  22.777  37.009  1.00  0.00    -0.237 OA
ATOM     76  O   UNL A   1      47.065  25.248  36.999  1.00  0.00    -0.237 OA
ATOM     77  O   UNL A   1      45.375  23.898  38.185  1.00  0.00    -0.744 OA
ENDBRANCH  70  74
ENDBRANCH  53  67
BRANCH  54  78
ATOM     78  C   UNL A   1      44.651  32.956  27.498  1.00  0.00     0.023 A 
ATOM     79  C   UNL A   1      45.224  34.159  27.941  1.00  0.00     0.031 A 
ATOM     80  C   UNL A   1      44.037  32.948  26.232  1.00  0.00     0.131 A 
ATOM     81  C   UNL A   1      45.123  35.316  27.151  1.00  0.00     0.055 A 
ATOM     82  C   UNL A   1      43.996  34.085  25.423  1.00  0.00     0.041 A 
ATOM     83  F   UNL A   1      43.465  31.829  25.760  1.00  0.00    -0.206 F 
ATOM     84  C   UNL A   1      44.528  35.283  25.888  1.00  0.00     0.022 A 
BRANCH  81  85
ATOM     85  S   UNL A   1      45.688  36.894  27.845  1.00  0.00     0.124 S 
ATOM     86  O   UNL A   1      45.281  37.836  26.809  1.00  0.00    -0.237 OA
ATOM     87  O   UNL A   1      44.944  36.956  29.099  1.00  0.00    -0.237 OA
ATOM     88  O   UNL A   1      47.131  36.704  27.987  1.00  0.00    -0.744 OA
ENDBRANCH  81  85
ENDBRANCH  54  78
BRANCH  66  89
ATOM     89  C   UNL A   1      48.610  27.208  27.759  1.00  0.00     0.023 A 
ATOM     90  C   UNL A   1      49.956  27.482  28.061  1.00  0.00     0.031 A 
ATOM     91  C   UNL A   1      48.336  26.450  26.604  1.00  0.00     0.131 A 
ATOM     92  C   UNL A   1      50.970  27.054  27.190  1.00  0.00     0.055 A 
ATOM     93  C   UNL A   1      49.353  25.966  25.780  1.00  0.00     0.041 A 
ATOM     94  F   UNL A   1      47.070  26.160  26.263  1.00  0.00    -0.206 F 
ATOM     95  C   UNL A   1      50.678  26.280  26.063  1.00  0.00     0.022 A 
BRANCH  92  96
ATOM     96  S   UNL A   1      52.670  27.612  27.489  1.00  0.00     0.124 S 
ATOM     97  O   UNL A   1      52.952  27.033  28.799  1.00  0.00    -0.237 OA
ATOM     98  O   UNL A   1      53.393  27.029  26.364  1.00  0.00    -0.237 OA
ATOM     99  O   UNL A   1      52.562  29.070  27.467  1.00  0.00    -0.744 OA
ENDBRANCH  92  96
ENDBRANCH  66  89
ENDBRANCH  40  41
ENDBRANCH  33  35
ENDBRANCH  32  33
ENDBRANCH  31  32
ENDBRANCH  30  31
ENDBRANCH  29  30
ENDBRANCH  28  29
ENDBRANCH  27  28
ENDBRANCH  26  27
ENDBRANCH   1  26
TORSDOF 28
ENDMDL
MODEL 2
REMARK VINA RESULT:      -7.7      5.541     10.997
REMARK SMILES C[C@@H]1[C@@H](C(=O)OCCOCCOCCOCCOC(=O)c2ccc(-c3c4nc(c(-c5cc(S(=O)(=O)[O-])ccc5F)c5ccc([nH]5)c(-c5cc(S(=O)(=O)[O-])ccc5F)c5nc(c(-c6cc(S(=O)(=O)[O-])ccc6F)c6ccc3[nH]6)C=C5)C=C4)cc2)CCN1C(=O)CCCC1CCCCC1
REMARK SMILES IDX 11 1 10 2 9 3 8 4 7 5 6 6 4 7 5 8 3 9 1 10 2 11 86 12 84 13
REMARK SMILES IDX 85 14 87 15 88 16 89 17 90 18 91 19 92 20 93 21 97 22 94 23
REMARK SMILES IDX 96 24 95 25 12 26 13 27 14 28 15 29 16 30 17 31 18 32 19 33
REMARK SMILES IDX 20 34 21 35 22 36 83 37 23 38 82 39 24 40 25 41 26 42 76 43
REMARK SMILES IDX 27 44 81 45 75 46 77 47 28 48 80 49 74 50 73 51 29 53 61 54
REMARK SMILES IDX 41 55 60 56 42 57 45 58 59 59 78 60 43 61 44 62 58 64 79 65
REMARK SMILES IDX 46 66 30 67 31 68 39 69 32 70 38 71 40 72 37 73 33 74 34 75
REMARK SMILES IDX 35 76 36 77 62 78 63 79 71 80 64 81 70 82 72 83 69 84 65 85
REMARK SMILES IDX 66 86 67 87 68 88 47 89 48 90 56 91 49 92 55 93 57 94 54 95
REMARK SMILES IDX 50 96 51 97 52 98 53 99
REMARK H PARENT 77 52 45 63
REMARK Flexibility Score: inf
ROOT
ATOM      1  C   UNL A   1      40.109  21.660  26.595  1.00  0.00     0.188 C 
ENDROOT
BRANCH   1   2
ATOM      2  C   UNL A   1      38.833  21.262  25.844  1.00  0.00     0.188 C 
BRANCH   2   3
ATOM      3  O   UNL A   1      38.081  22.207  25.112  1.00  0.00    -0.376 OA
BRANCH   3   4
ATOM      4  C   UNL A   1      36.677  22.381  25.226  1.00  0.00     0.202 C 
BRANCH   4   5
ATOM      5  C   UNL A   1      35.691  22.823  24.128  1.00  0.00     0.261 C 
BRANCH   5   6
ATOM      6  O   UNL A   1      35.169  24.145  24.178  1.00  0.00    -0.463 OA
BRANCH   6   7
ATOM      7  C   UNL A   1      34.615  24.470  25.368  1.00  0.00     0.311 C 
ATOM      8  O   UNL A   1      34.609  23.735  26.346  1.00  0.00    -0.252 OA
BRANCH   7   9
ATOM      9  C   UNL A   1      34.070  25.889  25.328  1.00  0.00     0.123 C 
ATOM     10  C   UNL A   1      32.505  27.465  26.564  1.00  0.00     0.032 C 
ATOM     11  C   UNL A   1      32.867  26.009  26.267  1.00  0.00     0.096 C 
ATOM     12  N   UNL A   1      31.833  25.319  25.517  1.00  0.00    -0.339 N 
ATOM     13  C   UNL A   1      33.450  26.159  23.966  1.00  0.00     0.039 C 
ATOM     14  C   UNL A   1      32.085  25.473  24.080  1.00  0.00     0.121 C 
BRANCH  12  15
ATOM     15  C   UNL A   1      31.101  24.228  25.966  1.00  0.00     0.222 C 
ATOM     16  O   UNL A   1      30.730  24.165  27.144  1.00  0.00    -0.275 OA
BRANCH  15  17
ATOM     17  C   UNL A   1      30.887  23.002  25.064  1.00  0.00     0.100 C 
BRANCH  17  18
ATOM     18  C   UNL A   1      32.034  22.113  24.542  1.00  0.00     0.010 C 
BRANCH  18  19
ATOM     19  C   UNL A   1      32.212  20.623  24.911  1.00  0.00     0.004 C 
BRANCH  19  20
ATOM     20  C   UNL A   1      33.039  19.616  24.059  1.00  0.00    -0.011 C 
ATOM     21  C   UNL A   1      34.230  19.068  24.888  1.00  0.00     0.003 C 
ATOM     22  C   UNL A   1      32.235  18.487  23.426  1.00  0.00     0.003 C 
ATOM     23  C   UNL A   1      35.010  17.932  24.227  1.00  0.00     0.000 C 
ATOM     24  C   UNL A   1      33.082  17.455  22.698  1.00  0.00     0.000 C 
ATOM     25  C   UNL A   1      34.113  16.851  23.638  1.00  0.00     0.000 C 
ENDBRANCH  19  20
ENDBRANCH  18  19
ENDBRANCH  17  18
ENDBRANCH  15  17
ENDBRANCH  12  15
ENDBRANCH   7   9
ENDBRANCH   6   7
ENDBRANCH   5   6
ENDBRANCH   4   5
ENDBRANCH   3   4
ENDBRANCH   2   3
ENDBRANCH   1   2
BRANCH   1  26
ATOM     26  O   UNL A   1      40.514  20.704  27.547  1.00  0.00    -0.377 OA
BRANCH  26  27
ATOM     27  C   UNL A   1      41.691  19.956  27.256  1.00  0.00     0.188 C 
BRANCH  27  28
ATOM     28  C   UNL A   1      41.839  19.208  25.909  1.00  0.00     0.188 C 
BRANCH  28  29
ATOM     29  O   UNL A   1      42.781  18.142  25.919  1.00  0.00    -0.376 OA
BRANCH  29  30
ATOM     30  C   UNL A   1      44.156  18.469  25.805  1.00  0.00     0.202 C 
BRANCH  30  31
ATOM     31  C   UNL A   1      44.503  19.602  24.827  1.00  0.00     0.261 C 
BRANCH  31  32
ATOM     32  O   UNL A   1      44.648  20.908  25.404  1.00  0.00    -0.460 OA
BRANCH  32  33
ATOM     33  C   UNL A   1      44.563  21.967  24.568  1.00  0.00     0.338 C 
ATOM     34  O   UNL A   1      44.449  21.925  23.353  1.00  0.00    -0.246 OA
BRANCH  33  35
ATOM     35  C   UNL A   1      44.419  23.187  25.389  1.00  0.00     0.060 A 
ATOM     36  C   UNL A   1      44.075  24.393  24.762  1.00  0.00     0.016 A 
ATOM     37  C   UNL A   1      44.604  23.140  26.773  1.00  0.00     0.016 A 
ATOM     38  C   UNL A   1      43.954  25.563  25.513  1.00  0.00     0.010 A 
ATOM     39  C   UNL A   1      44.504  24.319  27.520  1.00  0.00     0.010 A 
ATOM     40  C   UNL A   1      44.214  25.541  26.890  1.00  0.00    -0.014 A 
BRANCH  40  41
ATOM     41  C   UNL A   1      44.397  26.818  27.626  1.00  0.00     0.031 A 
ATOM     42  C   UNL A   1      43.180  27.467  28.231  1.00  0.00     0.074 A 
ATOM     43  C   UNL A   1      45.610  27.380  27.779  1.00  0.00     0.049 A 
ATOM     44  N   UNL A   1      43.069  28.608  28.859  1.00  0.00    -0.248 NA
ATOM     45  C   UNL A   1      41.917  26.724  28.101  1.00  0.00     0.031 C 
ATOM     46  C   UNL A   1      46.868  26.820  27.290  1.00  0.00     0.029 A 
ATOM     47  N   UNL A   1      45.978  28.555  28.387  1.00  0.00    -0.354 N 
ATOM     48  C   UNL A   1      41.723  28.724  29.194  1.00  0.00     0.074 A 
ATOM     49  C   UNL A   1      41.055  27.556  28.661  1.00  0.00     0.031 C 
ATOM     50  C   UNL A   1      47.870  27.658  27.610  1.00  0.00     0.029 A 
ATOM     51  C   UNL A   1      47.321  28.834  28.285  1.00  0.00     0.049 A 
ATOM     52  H   UNL A   1      45.340  29.143  28.852  1.00  0.00     0.167 HD
ATOM     53  C   UNL A   1      41.105  29.709  29.890  1.00  0.00     0.034 A 
ATOM     54  C   UNL A   1      48.018  29.926  28.666  1.00  0.00     0.034 A 
ATOM     55  C   UNL A   1      41.783  30.874  30.401  1.00  0.00     0.049 A 
ATOM     56  C   UNL A   1      47.288  31.063  29.346  1.00  0.00     0.074 A 
ATOM     57  C   UNL A   1      41.254  31.929  31.126  1.00  0.00     0.029 A 
ATOM     58  N   UNL A   1      43.134  31.150  30.230  1.00  0.00    -0.354 N 
ATOM     59  N   UNL A   1      46.016  31.162  29.660  1.00  0.00    -0.248 NA
ATOM     60  C   UNL A   1      48.091  32.233  29.729  1.00  0.00     0.031 C 
ATOM     61  C   UNL A   1      42.262  32.878  31.317  1.00  0.00     0.029 A 
ATOM     62  C   UNL A   1      43.446  32.374  30.801  1.00  0.00     0.049 A 
ATOM     63  H   UNL A   1      43.775  30.561  29.772  1.00  0.00     0.167 HD
ATOM     64  C   UNL A   1      45.879  32.387  30.311  1.00  0.00     0.074 A 
ATOM     65  C   UNL A   1      47.197  32.983  30.356  1.00  0.00     0.031 C 
ATOM     66  C   UNL A   1      44.764  32.963  30.833  1.00  0.00     0.034 A 
BRANCH  53  67
ATOM     67  C   UNL A   1      39.611  29.592  30.081  1.00  0.00     0.023 A 
ATOM     68  C   UNL A   1      38.701  30.312  29.287  1.00  0.00     0.031 A 
ATOM     69  C   UNL A   1      39.089  28.767  31.094  1.00  0.00     0.131 A 
ATOM     70  C   UNL A   1      37.328  30.249  29.565  1.00  0.00     0.055 A 
ATOM     71  C   UNL A   1      37.716  28.643  31.308  1.00  0.00     0.041 A 
ATOM     72  F   UNL A   1      39.909  28.077  31.904  1.00  0.00    -0.206 F 
ATOM     73  C   UNL A   1      36.826  29.398  30.551  1.00  0.00     0.022 A 
BRANCH  70  74
ATOM     74  S   UNL A   1      36.219  31.413  28.722  1.00  0.00     0.124 S 
ATOM     75  O   UNL A   1      37.111  32.546  28.480  1.00  0.00    -0.237 OA
ATOM     76  O   UNL A   1      35.808  30.660  27.544  1.00  0.00    -0.237 OA
ATOM     77  O   UNL A   1      35.167  31.659  29.707  1.00  0.00    -0.744 OA
ENDBRANCH  70  74
ENDBRANCH  53  67
BRANCH  54  78
ATOM     78  C   UNL A   1      49.480  30.034  28.378  1.00  0.00     0.023 A 
ATOM     79  C   UNL A   1      49.949  30.683  27.224  1.00  0.00     0.031 A 
ATOM     80  C   UNL A   1      50.429  29.425  29.219  1.00  0.00     0.131 A 
ATOM     81  C   UNL A   1      51.319  30.661  26.915  1.00  0.00     0.055 A 
ATOM     82  C   UNL A   1      51.797  29.461  28.941  1.00  0.00     0.041 A 
ATOM     83  F   UNL A   1      50.038  28.782  30.332  1.00  0.00    -0.206 F 
ATOM     84  C   UNL A   1      52.247  30.070  27.774  1.00  0.00     0.022 A 
BRANCH  81  85
ATOM     85  S   UNL A   1      51.859  31.327  25.317  1.00  0.00     0.124 S 
ATOM     86  O   UNL A   1      53.232  31.723  25.610  1.00  0.00    -0.237 OA
ATOM     87  O   UNL A   1      51.696  30.173  24.438  1.00  0.00    -0.237 OA
ATOM     88  O   UNL A   1      50.928  32.428  25.076  1.00  0.00    -0.744 OA
ENDBRANCH  81  85
ENDBRANCH  54  78
BRANCH  66  89
ATOM     89  C   UNL A   1      44.936  34.284  31.550  1.00  0.00     0.023 A 
ATOM     90  C   UNL A   1      44.870  35.515  30.873  1.00  0.00     0.031 A 
ATOM     91  C   UNL A   1      45.172  34.307  32.937  1.00  0.00     0.131 A 
ATOM     92  C   UNL A   1      45.097  36.710  31.573  1.00  0.00     0.055 A 
ATOM     93  C   UNL A   1      45.326  35.503  33.640  1.00  0.00     0.041 A 
ATOM     94  F   UNL A   1      45.248  33.164  33.637  1.00  0.00    -0.206 F 
ATOM     95  C   UNL A   1      45.304  36.713  32.955  1.00  0.00     0.022 A 
BRANCH  92  96
ATOM     96  S   UNL A   1      45.226  38.258  30.635  1.00  0.00     0.124 S 
ATOM     97  O   UNL A   1      43.907  38.348  30.016  1.00  0.00    -0.237 OA
ATOM     98  O   UNL A   1      45.507  39.235  31.682  1.00  0.00    -0.237 OA
ATOM     99  O   UNL A   1      46.329  38.008  29.708  1.00  0.00    -0.744 OA
ENDBRANCH  92  96
ENDBRANCH  66  89
ENDBRANCH  40  41
ENDBRANCH  33  35
ENDBRANCH  32  33
ENDBRANCH  31  32
ENDBRANCH  30  31
ENDBRANCH  29  30
ENDBRANCH  28  29
ENDBRANCH  27  28
ENDBRANCH  26  27
ENDBRANCH   1  26
TORSDOF 28
ENDMDL
MODEL 3
REMARK VINA RESULT:      -7.7      5.838     11.793
REMARK SMILES C[C@@H]1[C@@H](C(=O)OCCOCCOCCOCCOC(=O)c2ccc(-c3c4nc(c(-c5cc(S(=O)(=O)[O-])ccc5F)c5ccc([nH]5)c(-c5cc(S(=O)(=O)[O-])ccc5F)c5nc(c(-c6cc(S(=O)(=O)[O-])ccc6F)c6ccc3[nH]6)C=C5)C=C4)cc2)CCN1C(=O)CCCC1CCCCC1
REMARK SMILES IDX 11 1 10 2 9 3 8 4 7 5 6 6 4 7 5 8 3 9 1 10 2 11 86 12 84 13
REMARK SMILES IDX 85 14 87 15 88 16 89 17 90 18 91 19 92 20 93 21 97 22 94 23
REMARK SMILES IDX 96 24 95 25 12 26 13 27 14 28 15 29 16 30 17 31 18 32 19 33
REMARK SMILES IDX 20 34 21 35 22 36 83 37 23 38 82 39 24 40 25 41 26 42 76 43
REMARK SMILES IDX 27 44 81 45 75 46 77 47 28 48 80 49 74 50 73 51 29 53 61 54
REMARK SMILES IDX 41 55 60 56 42 57 45 58 59 59 78 60 43 61 44 62 58 64 79 65
REMARK SMILES IDX 46 66 30 67 31 68 39 69 32 70 38 71 40 72 37 73 33 74 34 75
REMARK SMILES IDX 35 76 36 77 62 78 63 79 71 80 64 81 70 82 72 83 69 84 65 85
REMARK SMILES IDX 66 86 67 87 68 88 47 89 48 90 56 91 49 92 55 93 57 94 54 95
REMARK SMILES IDX 50 96 51 97 52 98 53 99
REMARK H PARENT 77 52 45 63
REMARK Flexibility Score: inf
ROOT
ATOM      1  C   UNL A   1      40.252  21.426  26.641  1.00  0.00     0.188 C 
ENDROOT
BRANCH   1   2
ATOM      2  C   UNL A   1      39.001  21.075  25.829  1.00  0.00     0.188 C 
BRANCH   2   3
ATOM      3  O   UNL A   1      38.188  22.076  25.254  1.00  0.00    -0.376 OA
BRANCH   3   4
ATOM      4  C   UNL A   1      36.911  22.458  25.745  1.00  0.00     0.202 C 
BRANCH   4   5
ATOM      5  C   UNL A   1      35.806  23.225  24.996  1.00  0.00     0.261 C 
BRANCH   5   6
ATOM      6  O   UNL A   1      35.311  24.430  25.568  1.00  0.00    -0.463 OA
BRANCH   6   7
ATOM      7  C   UNL A   1      34.057  24.327  26.063  1.00  0.00     0.311 C 
ATOM      8  O   UNL A   1      33.628  23.341  26.646  1.00  0.00    -0.252 OA
BRANCH   7   9
ATOM      9  C   UNL A   1      33.294  25.624  25.847  1.00  0.00     0.123 C 
ATOM     10  C   UNL A   1      30.939  26.533  25.554  1.00  0.00     0.032 C 
ATOM     11  C   UNL A   1      31.855  25.316  25.426  1.00  0.00     0.096 C 
ATOM     12  N   UNL A   1      32.031  24.894  24.047  1.00  0.00    -0.339 N 
ATOM     13  C   UNL A   1      33.846  26.344  24.626  1.00  0.00     0.039 C 
ATOM     14  C   UNL A   1      33.190  25.584  23.468  1.00  0.00     0.121 C 
BRANCH  12  15
ATOM     15  C   UNL A   1      31.635  23.672  23.520  1.00  0.00     0.222 C 
ATOM     16  O   UNL A   1      30.444  23.460  23.259  1.00  0.00    -0.275 OA
BRANCH  15  17
ATOM     17  C   UNL A   1      32.627  22.505  23.410  1.00  0.00     0.100 C 
BRANCH  17  18
ATOM     18  C   UNL A   1      32.517  21.207  24.236  1.00  0.00     0.010 C 
BRANCH  18  19
ATOM     19  C   UNL A   1      32.857  19.801  23.690  1.00  0.00     0.004 C 
BRANCH  19  20
ATOM     20  C   UNL A   1      33.396  18.640  24.576  1.00  0.00    -0.011 C 
ATOM     21  C   UNL A   1      32.215  17.809  25.142  1.00  0.00     0.003 C 
ATOM     22  C   UNL A   1      34.438  17.747  23.912  1.00  0.00     0.003 C 
ATOM     23  C   UNL A   1      32.618  16.530  25.876  1.00  0.00     0.000 C 
ATOM     24  C   UNL A   1      34.859  16.554  24.756  1.00  0.00     0.000 C 
ATOM     25  C   UNL A   1      33.653  15.705  25.122  1.00  0.00     0.000 C 
ENDBRANCH  19  20
ENDBRANCH  18  19
ENDBRANCH  17  18
ENDBRANCH  15  17
ENDBRANCH  12  15
ENDBRANCH   7   9
ENDBRANCH   6   7
ENDBRANCH   5   6
ENDBRANCH   4   5
ENDBRANCH   3   4
ENDBRANCH   2   3
ENDBRANCH   1   2
BRANCH   1  26
ATOM     26  O   UNL A   1      40.627  20.416  27.549  1.00  0.00    -0.377 OA
BRANCH  26  27
ATOM     27  C   UNL A   1      41.862  19.750  27.305  1.00  0.00     0.188 C 
BRANCH  27  28
ATOM     28  C   UNL A   1      42.161  19.122  25.922  1.00  0.00     0.188 C 
BRANCH  28  29
ATOM     29  O   UNL A   1      43.298  18.267  25.889  1.00  0.00    -0.376 OA
BRANCH  29  30
ATOM     30  C   UNL A   1      44.544  18.832  25.517  1.00  0.00     0.202 C 
BRANCH  30  31
ATOM     31  C   UNL A   1      44.481  20.113  24.672  1.00  0.00     0.261 C 
BRANCH  31  32
ATOM     32  O   UNL A   1      44.605  21.348  25.393  1.00  0.00    -0.460 OA
BRANCH  32  33
ATOM     33  C   UNL A   1      44.101  22.458  24.809  1.00  0.00     0.338 C 
ATOM     34  O   UNL A   1      43.733  22.565  23.649  1.00  0.00    -0.246 OA
BRANCH  33  35
ATOM     35  C   UNL A   1      43.872  23.466  25.866  1.00  0.00     0.060 A 
ATOM     36  C   UNL A   1      44.070  24.821  25.568  1.00  0.00     0.016 A 
ATOM     37  C   UNL A   1      43.447  23.079  27.138  1.00  0.00     0.016 A 
ATOM     38  C   UNL A   1      43.882  25.790  26.555  1.00  0.00     0.010 A 
ATOM     39  C   UNL A   1      43.280  24.049  28.132  1.00  0.00     0.010 A 
ATOM     40  C   UNL A   1      43.531  25.404  27.855  1.00  0.00    -0.014 A 
BRANCH  40  41
ATOM     41  C   UNL A   1      43.639  26.382  28.969  1.00  0.00     0.031 A 
ATOM     42  C   UNL A   1      42.439  27.237  29.278  1.00  0.00     0.074 A 
ATOM     43  C   UNL A   1      44.759  26.496  29.705  1.00  0.00     0.049 A 
ATOM     44  N   UNL A   1      42.305  28.201  30.151  1.00  0.00    -0.248 NA
ATOM     45  C   UNL A   1      41.228  26.965  28.489  1.00  0.00     0.031 C 
ATOM     46  C   UNL A   1      45.965  25.687  29.539  1.00  0.00     0.029 A 
ATOM     47  N   UNL A   1      45.065  27.348  30.738  1.00  0.00    -0.354 N 
ATOM     48  C   UNL A   1      40.998  28.658  30.010  1.00  0.00     0.074 A 
ATOM     49  C   UNL A   1      40.397  27.890  28.941  1.00  0.00     0.031 C 
ATOM     50  C   UNL A   1      46.885  26.089  30.435  1.00  0.00     0.029 A 
ATOM     51  C   UNL A   1      46.351  27.212  31.206  1.00  0.00     0.049 A 
ATOM     52  H   UNL A   1      44.423  27.996  31.108  1.00  0.00     0.167 HD
ATOM     53  C   UNL A   1      40.356  29.621  30.716  1.00  0.00     0.034 A 
ATOM     54  C   UNL A   1      47.027  27.931  32.127  1.00  0.00     0.034 A 
ATOM     55  C   UNL A   1      40.974  30.388  31.769  1.00  0.00     0.049 A 
ATOM     56  C   UNL A   1      46.324  29.074  32.827  1.00  0.00     0.074 A 
ATOM     57  C   UNL A   1      40.413  31.382  32.553  1.00  0.00     0.029 A 
ATOM     58  N   UNL A   1      42.296  30.260  32.178  1.00  0.00    -0.354 N 
ATOM     59  N   UNL A   1      45.086  29.495  32.689  1.00  0.00    -0.248 NA
ATOM     60  C   UNL A   1      47.107  29.833  33.812  1.00  0.00     0.031 C 
ATOM     61  C   UNL A   1      41.415  31.911  33.372  1.00  0.00     0.029 A 
ATOM     62  C   UNL A   1      42.577  31.182  33.174  1.00  0.00     0.049 A 
ATOM     63  H   UNL A   1      42.938  29.608  31.814  1.00  0.00     0.167 HD
ATOM     64  C   UNL A   1      44.937  30.541  33.599  1.00  0.00     0.074 A 
ATOM     65  C   UNL A   1      46.203  30.677  34.286  1.00  0.00     0.031 C 
ATOM     66  C   UNL A   1      43.848  31.314  33.849  1.00  0.00     0.034 A 
BRANCH  53  67
ATOM     67  C   UNL A   1      38.931  29.936  30.324  1.00  0.00     0.023 A 
ATOM     68  C   UNL A   1      38.586  31.135  29.677  1.00  0.00     0.031 A 
ATOM     69  C   UNL A   1      37.897  29.032  30.629  1.00  0.00     0.131 A 
ATOM     70  C   UNL A   1      37.239  31.430  29.422  1.00  0.00     0.055 A 
ATOM     71  C   UNL A   1      36.569  29.294  30.293  1.00  0.00     0.041 A 
ATOM     72  F   UNL A   1      38.161  27.883  31.271  1.00  0.00    -0.206 F 
ATOM     73  C   UNL A   1      36.230  30.506  29.699  1.00  0.00     0.022 A 
BRANCH  70  74
ATOM     74  S   UNL A   1      36.808  33.103  28.865  1.00  0.00     0.124 S 
ATOM     75  O   UNL A   1      38.128  33.682  28.625  1.00  0.00    -0.237 OA
ATOM     76  O   UNL A   1      35.999  32.841  27.681  1.00  0.00    -0.237 OA
ATOM     77  O   UNL A   1      36.087  33.668  30.004  1.00  0.00    -0.744 OA
ENDBRANCH  70  74
ENDBRANCH  53  67
BRANCH  54  78
ATOM     78  C   UNL A   1      48.462  27.638  32.419  1.00  0.00     0.023 A 
ATOM     79  C   UNL A   1      48.829  26.732  33.427  1.00  0.00     0.031 A 
ATOM     80  C   UNL A   1      49.491  28.316  31.741  1.00  0.00     0.131 A 
ATOM     81  C   UNL A   1      50.183  26.569  33.764  1.00  0.00     0.055 A 
ATOM     82  C   UNL A   1      50.839  28.104  32.036  1.00  0.00     0.041 A 
ATOM     83  F   UNL A   1      49.199  29.202  30.774  1.00  0.00    -0.206 F 
ATOM     84  C   UNL A   1      51.191  27.236  33.065  1.00  0.00     0.022 A 
BRANCH  81  85
ATOM     85  S   UNL A   1      50.603  25.550  35.206  1.00  0.00     0.124 S 
ATOM     86  O   UNL A   1      50.209  24.221  34.753  1.00  0.00    -0.237 OA
ATOM     87  O   UNL A   1      52.036  25.787  35.336  1.00  0.00    -0.237 OA
ATOM     88  O   UNL A   1      49.779  26.117  36.272  1.00  0.00    -0.744 OA
ENDBRANCH  81  85
ENDBRANCH  54  78
BRANCH  66  89
ATOM     89  C   UNL A   1      43.963  32.340  34.954  1.00  0.00     0.023 A 
ATOM     90  C   UNL A   1      43.623  32.045  36.286  1.00  0.00     0.031 A 
ATOM     91  C   UNL A   1      44.420  33.640  34.663  1.00  0.00     0.131 A 
ATOM     92  C   UNL A   1      43.688  33.050  37.263  1.00  0.00     0.055 A 
ATOM     93  C   UNL A   1      44.550  34.614  35.653  1.00  0.00     0.041 A 
ATOM     94  F   UNL A   1      44.756  33.981  33.409  1.00  0.00    -0.206 F 
ATOM     95  C   UNL A   1      44.170  34.327  36.960  1.00  0.00     0.022 A 
BRANCH  92  96
ATOM     96  S   UNL A   1      43.034  32.700  38.919  1.00  0.00     0.124 S 
ATOM     97  O   UNL A   1      42.092  31.618  38.650  1.00  0.00    -0.237 OA
ATOM     98  O   UNL A   1      44.236  32.330  39.658  1.00  0.00    -0.237 OA
ATOM     99  O   UNL A   1      42.424  33.966  39.323  1.00  0.00    -0.744 OA
ENDBRANCH  92  96
ENDBRANCH  66  89
ENDBRANCH  40  41
ENDBRANCH  33  35
ENDBRANCH  32  33
ENDBRANCH  31  32
ENDBRANCH  30  31
ENDBRANCH  29  30
ENDBRANCH  28  29
ENDBRANCH  27  28
ENDBRANCH  26  27
ENDBRANCH   1  26
TORSDOF 28
ENDMDL
