MODEL 1
REMARK VINA RESULT:      -8.1      0.000      0.000
REMARK SMILES O=C(OCCOCCOCCOCCOC(=O)c1ccc(-c2c3nc(c(-c4cc(S(=O)(=O)[O-])ccc4F)c4ccc([nH]4)c(-c4cc(S(=O)(=O)[O-])ccc4F)c4nc(c(-c5cc(S(=O)(=O)[O-])ccc5F)c5ccc2[nH]5)C=C4)C=C3)cc1)C1=Cc2cc(S(F)(F)(F)(F)F)ccc2O[C@@H]1C(F)(F)F
REMARK SMILES IDX 10 1 9 2 8 3 7 4 6 5 5 6 4 7 3 8 2 9 1 10 81 11 82 12 96 13
REMARK SMILES IDX 83 14 95 15 84 16 94 17 85 18 93 19 92 20 97 21 98 22 99 23
REMARK SMILES IDX 100 24 86 25 87 26 88 27 89 28 90 29 91 30 11 31 12 32 13 33
REMARK SMILES IDX 14 34 15 35 16 36 17 37 18 38 19 39 80 40 20 41 79 42 21 43
REMARK SMILES IDX 22 44 23 45 73 46 24 47 78 48 72 49 74 50 25 51 77 52 71 53
REMARK SMILES IDX 70 54 26 56 58 57 38 58 57 59 39 60 42 61 56 62 75 63 40 64
REMARK SMILES IDX 41 65 55 67 76 68 43 69 27 70 28 71 36 72 29 73 35 74 37 75
REMARK SMILES IDX 34 76 30 77 31 78 32 79 33 80 59 81 60 82 68 83 61 84 67 85
REMARK SMILES IDX 69 86 66 87 62 88 63 89 64 90 65 91 44 92 45 93 53 94 46 95
REMARK SMILES IDX 52 96 54 97 51 98 47 99 48 100 49 101 50 102
REMARK H PARENT 74 55 42 66
REMARK Flexibility Score: inf
ROOT
ATOM      1  C   UNL A   1      41.093  34.523  37.505  1.00  0.00     0.188 C 
ENDROOT
BRANCH   1   2
ATOM      2  O   UNL A   1      42.368  35.137  37.386  1.00  0.00    -0.377 OA
BRANCH   2   3
ATOM      3  C   UNL A   1      43.360  34.136  37.213  1.00  0.00     0.188 C 
BRANCH   3   4
ATOM      4  C   UNL A   1      42.906  33.153  36.146  1.00  0.00     0.188 C 
BRANCH   4   5
ATOM      5  O   UNL A   1      43.580  33.433  34.928  1.00  0.00    -0.376 OA
BRANCH   5   6
ATOM      6  C   UNL A   1      43.729  32.233  34.183  1.00  0.00     0.202 C 
BRANCH   6   7
ATOM      7  C   UNL A   1      43.657  32.546  32.698  1.00  0.00     0.261 C 
BRANCH   7   8
ATOM      8  O   UNL A   1      42.588  33.450  32.456  1.00  0.00    -0.460 OA
BRANCH   8   9
ATOM      9  C   UNL A   1      41.536  33.087  31.574  1.00  0.00     0.338 C 
ATOM     10  O   UNL A   1      40.868  32.027  31.785  1.00  0.00    -0.246 OA
BRANCH   9  11
ATOM     11  C   UNL A   1      41.210  33.965  30.377  1.00  0.00     0.087 C 
ATOM     12  C   UNL A   1      40.036  34.653  30.338  1.00  0.00     0.027 C 
ATOM     13  C   UNL A   1      42.194  34.076  29.225  1.00  0.00     0.316 C 
ATOM     14  C   UNL A   1      39.052  34.543  31.491  1.00  0.00     0.019 A 
ATOM     15  O   UNL A   1      40.871  34.619  33.018  1.00  0.00    -0.475 OA
ATOM     16  C   UNL A   1      37.708  34.382  31.196  1.00  0.00     0.036 A 
ATOM     17  C   UNL A   1      39.477  34.616  32.746  1.00  0.00     0.128 A 
ATOM     18  C   UNL A   1      36.849  34.600  32.299  1.00  0.00     0.107 A 
ATOM     19  C   UNL A   1      38.581  34.689  33.785  1.00  0.00     0.048 A 
ATOM     20  C   UNL A   1      37.236  34.597  33.561  1.00  0.00     0.028 A 
BRANCH  13  21
ATOM     21  C   UNL A   1      42.623  35.525  29.062  1.00  0.00     0.430 C 
ATOM     22  F   UNL A   1      43.623  35.597  28.189  1.00  0.00    -0.167 F 
ATOM     23  F   UNL A   1      41.596  36.244  28.620  1.00  0.00    -0.167 F 
ATOM     24  F   UNL A   1      43.026  36.002  30.237  1.00  0.00    -0.167 F 
ENDBRANCH  13  21
BRANCH  18  25
ATOM     25  S   UNL A   1      35.098  34.904  31.955  1.00  0.00     0.310 S 
ATOM     26  F   UNL A   1      34.638  33.950  33.135  1.00  0.00    -0.094 F 
ATOM     27  F   UNL A   1      35.091  33.637  31.019  1.00  0.00    -0.094 F 
ATOM     28  F   UNL A   1      33.594  35.165  31.661  1.00  0.00    -0.094 F 
ATOM     29  F   UNL A   1      35.089  36.085  33.004  1.00  0.00    -0.094 F 
ATOM     30  F   UNL A   1      36.595  34.585  32.350  1.00  0.00    -0.094 F 
ENDBRANCH  18  25
ENDBRANCH   9  11
ENDBRANCH   8   9
ENDBRANCH   7   8
ENDBRANCH   6   7
ENDBRANCH   5   6
ENDBRANCH   4   5
ENDBRANCH   3   4
ENDBRANCH   2   3
ENDBRANCH   1   2
BRANCH   1  31
ATOM     31  C   UNL A   1      40.348  35.127  38.685  1.00  0.00     0.188 C 
BRANCH  31  32
ATOM     32  O   UNL A   1      40.955  34.702  39.896  1.00  0.00    -0.376 OA
BRANCH  32  33
ATOM     33  C   UNL A   1      40.072  33.834  40.590  1.00  0.00     0.202 C 
BRANCH  33  34
ATOM     34  C   UNL A   1      38.635  34.190  40.243  1.00  0.00     0.261 C 
BRANCH  34  35
ATOM     35  O   UNL A   1      37.812  33.043  40.394  1.00  0.00    -0.460 OA
BRANCH  35  36
ATOM     36  C   UNL A   1      36.950  32.644  39.338  1.00  0.00     0.338 C 
ATOM     37  O   UNL A   1      35.693  32.788  39.455  1.00  0.00    -0.246 OA
BRANCH  36  38
ATOM     38  C   UNL A   1      37.532  32.043  38.068  1.00  0.00     0.060 A 
ATOM     39  C   UNL A   1      37.990  32.909  37.088  1.00  0.00     0.016 A 
ATOM     40  C   UNL A   1      37.562  30.728  37.894  1.00  0.00     0.016 A 
ATOM     41  C   UNL A   1      38.195  32.295  35.830  1.00  0.00     0.010 A 
ATOM     42  C   UNL A   1      37.904  30.192  36.676  1.00  0.00     0.010 A 
ATOM     43  C   UNL A   1      38.309  30.992  35.643  1.00  0.00    -0.014 A 
BRANCH  43  44
ATOM     44  C   UNL A   1      38.860  30.414  34.351  1.00  0.00     0.031 A 
ATOM     45  C   UNL A   1      38.128  30.518  33.166  1.00  0.00     0.074 A 
ATOM     46  C   UNL A   1      40.112  29.829  34.437  1.00  0.00     0.049 A 
ATOM     47  N   UNL A   1      38.494  30.123  31.946  1.00  0.00    -0.248 NA
ATOM     48  C   UNL A   1      36.784  31.108  33.078  1.00  0.00     0.031 C 
ATOM     49  C   UNL A   1      40.860  29.729  35.626  1.00  0.00     0.029 A 
ATOM     50  N   UNL A   1      40.847  29.252  33.427  1.00  0.00    -0.354 N 
ATOM     51  C   UNL A   1      37.536  30.407  31.062  1.00  0.00     0.074 A 
ATOM     52  C   UNL A   1      36.419  31.039  31.778  1.00  0.00     0.031 C 
ATOM     53  C   UNL A   1      42.024  29.089  35.339  1.00  0.00     0.029 A 
ATOM     54  C   UNL A   1      42.024  28.781  33.966  1.00  0.00     0.049 A 
ATOM     55  H   UNL A   1      40.579  29.187  32.481  1.00  0.00     0.167 HD
ATOM     56  C   UNL A   1      37.549  30.167  29.687  1.00  0.00     0.034 A 
ATOM     57  C   UNL A   1      43.050  28.116  33.313  1.00  0.00     0.034 A 
ATOM     58  C   UNL A   1      38.594  29.540  29.028  1.00  0.00     0.049 A 
ATOM     59  C   UNL A   1      43.039  27.823  31.947  1.00  0.00     0.074 A 
ATOM     60  C   UNL A   1      38.628  29.297  27.641  1.00  0.00     0.029 A 
ATOM     61  N   UNL A   1      39.761  29.047  29.570  1.00  0.00    -0.354 N 
ATOM     62  N   UNL A   1      42.098  28.142  31.057  1.00  0.00    -0.248 NA
ATOM     63  C   UNL A   1      44.105  27.091  31.251  1.00  0.00     0.031 C 
ATOM     64  C   UNL A   1      39.792  28.657  27.353  1.00  0.00     0.029 A 
ATOM     65  C   UNL A   1      40.506  28.491  28.556  1.00  0.00     0.049 A 
ATOM     66  H   UNL A   1      40.017  29.086  30.520  1.00  0.00     0.167 HD
ATOM     67  C   UNL A   1      42.447  27.710  29.844  1.00  0.00     0.074 A 
ATOM     68  C   UNL A   1      43.739  27.021  29.952  1.00  0.00     0.031 C 
ATOM     69  C   UNL A   1      41.740  27.866  28.650  1.00  0.00     0.034 A 
BRANCH  56  70
ATOM     70  C   UNL A   1      36.350  30.616  28.868  1.00  0.00     0.023 A 
ATOM     71  C   UNL A   1      35.378  29.681  28.558  1.00  0.00     0.031 A 
ATOM     72  C   UNL A   1      36.214  31.891  28.525  1.00  0.00     0.131 A 
ATOM     73  C   UNL A   1      34.420  30.138  27.623  1.00  0.00     0.055 A 
ATOM     74  C   UNL A   1      35.177  32.292  27.718  1.00  0.00     0.041 A 
ATOM     75  F   UNL A   1      37.090  32.790  28.965  1.00  0.00    -0.206 F 
ATOM     76  C   UNL A   1      34.211  31.407  27.324  1.00  0.00     0.022 A 
BRANCH  73  77
ATOM     77  S   UNL A   1      33.412  28.897  26.775  1.00  0.00     0.124 S 
ATOM     78  O   UNL A   1      32.985  29.433  25.407  1.00  0.00    -0.237 OA
ATOM     79  O   UNL A   1      34.229  27.617  26.588  1.00  0.00    -0.237 OA
ATOM     80  O   UNL A   1      32.022  28.553  27.711  1.00  0.00    -0.744 OA
ENDBRANCH  73  77
ENDBRANCH  56  70
BRANCH  57  81
ATOM     81  C   UNL A   1      44.256  27.681  34.129  1.00  0.00     0.023 A 
ATOM     82  C   UNL A   1      44.194  26.504  34.857  1.00  0.00     0.031 A 
ATOM     83  C   UNL A   1      45.319  28.473  34.192  1.00  0.00     0.131 A 
ATOM     84  C   UNL A   1      45.191  26.393  35.854  1.00  0.00     0.055 A 
ATOM     85  C   UNL A   1      46.323  28.228  35.097  1.00  0.00     0.041 A 
ATOM     86  F   UNL A   1      45.414  29.515  33.369  1.00  0.00    -0.206 F 
ATOM     87  C   UNL A   1      46.297  27.115  35.891  1.00  0.00     0.022 A 
BRANCH  84  88
ATOM     88  S   UNL A   1      44.936  25.177  37.170  1.00  0.00     0.124 S 
ATOM     89  O   UNL A   1      45.749  25.581  38.402  1.00  0.00    -0.237 OA
ATOM     90  O   UNL A   1      43.451  25.123  37.534  1.00  0.00    -0.237 OA
ATOM     91  O   UNL A   1      45.447  23.637  36.630  1.00  0.00    -0.744 OA
ENDBRANCH  84  88
ENDBRANCH  57  81
BRANCH  69  92
ATOM     92  C   UNL A   1      42.362  27.317  27.376  1.00  0.00     0.023 A 
ATOM     93  C   UNL A   1      42.128  25.989  27.064  1.00  0.00     0.031 A 
ATOM     94  C   UNL A   1      43.140  28.077  26.614  1.00  0.00     0.131 A 
ATOM     95  C   UNL A   1      42.999  25.469  26.077  1.00  0.00     0.055 A 
ATOM     96  C   UNL A   1      43.859  27.527  25.580  1.00  0.00     0.041 A 
ATOM     97  F   UNL A   1      43.225  29.382  26.853  1.00  0.00    -0.206 F 
ATOM     98  C   UNL A   1      43.722  26.206  25.254  1.00  0.00     0.022 A 
BRANCH  95  99
ATOM     99  S   UNL A   1      43.132  23.670  25.934  1.00  0.00     0.124 S 
ATOM    100  O   UNL A   1      43.559  23.301  24.512  1.00  0.00    -0.237 OA
ATOM    101  O   UNL A   1      44.176  23.155  26.929  1.00  0.00    -0.237 OA
ATOM    102  O   UNL A   1      41.616  22.956  26.278  1.00  0.00    -0.744 OA
ENDBRANCH  95  99
ENDBRANCH  69  92
ENDBRANCH  43  44
ENDBRANCH  36  38
ENDBRANCH  35  36
ENDBRANCH  34  35
ENDBRANCH  33  34
ENDBRANCH  32  33
ENDBRANCH  31  32
ENDBRANCH   1  31
TORSDOF 25
ENDMDL
MODEL 2
REMARK VINA RESULT:      -7.6      6.067     11.105
REMARK SMILES O=C(OCCOCCOCCOCCOC(=O)c1ccc(-c2c3nc(c(-c4cc(S(=O)(=O)[O-])ccc4F)c4ccc([nH]4)c(-c4cc(S(=O)(=O)[O-])ccc4F)c4nc(c(-c5cc(S(=O)(=O)[O-])ccc5F)c5ccc2[nH]5)C=C4)C=C3)cc1)C1=Cc2cc(S(F)(F)(F)(F)F)ccc2O[C@@H]1C(F)(F)F
REMARK SMILES IDX 10 1 9 2 8 3 7 4 6 5 5 6 4 7 3 8 2 9 1 10 81 11 82 12 96 13
REMARK SMILES IDX 83 14 95 15 84 16 94 17 85 18 93 19 92 20 97 21 98 22 99 23
REMARK SMILES IDX 100 24 86 25 87 26 88 27 89 28 90 29 91 30 11 31 12 32 13 33
REMARK SMILES IDX 14 34 15 35 16 36 17 37 18 38 19 39 80 40 20 41 79 42 21 43
REMARK SMILES IDX 22 44 23 45 73 46 24 47 78 48 72 49 74 50 25 51 77 52 71 53
REMARK SMILES IDX 70 54 26 56 58 57 38 58 57 59 39 60 42 61 56 62 75 63 40 64
REMARK SMILES IDX 41 65 55 67 76 68 43 69 27 70 28 71 36 72 29 73 35 74 37 75
REMARK SMILES IDX 34 76 30 77 31 78 32 79 33 80 59 81 60 82 68 83 61 84 67 85
REMARK SMILES IDX 69 86 66 87 62 88 63 89 64 90 65 91 44 92 45 93 53 94 46 95
REMARK SMILES IDX 52 96 54 97 51 98 47 99 48 100 49 101 50 102
REMARK H PARENT 74 55 42 66
REMARK Flexibility Score: inf
ROOT
ATOM      1  C   UNL A   1      34.694  32.956  30.469  1.00  0.00     0.188 C 
ENDROOT
BRANCH   1   2
ATOM      2  O   UNL A   1      35.045  33.090  29.099  1.00  0.00    -0.377 OA
BRANCH   2   3
ATOM      3  C   UNL A   1      34.455  32.035  28.355  1.00  0.00     0.188 C 
BRANCH   3   4
ATOM      4  C   UNL A   1      35.548  31.140  27.792  1.00  0.00     0.188 C 
BRANCH   4   5
ATOM      5  O   UNL A   1      35.266  29.787  28.117  1.00  0.00    -0.376 OA
BRANCH   5   6
ATOM      6  C   UNL A   1      34.982  29.064  26.928  1.00  0.00     0.202 C 
BRANCH   6   7
ATOM      7  C   UNL A   1      33.482  29.055  26.687  1.00  0.00     0.261 C 
BRANCH   7   8
ATOM      8  O   UNL A   1      32.956  27.778  27.018  1.00  0.00    -0.460 OA
BRANCH   8   9
ATOM      9  C   UNL A   1      31.780  27.306  26.378  1.00  0.00     0.338 C 
ATOM     10  O   UNL A   1      30.763  26.988  27.070  1.00  0.00    -0.246 OA
BRANCH   9  11
ATOM     11  C   UNL A   1      31.738  27.181  24.863  1.00  0.00     0.087 C 
ATOM     12  C   UNL A   1      32.361  26.138  24.249  1.00  0.00     0.027 C 
ATOM     13  C   UNL A   1      31.000  28.220  24.036  1.00  0.00     0.316 C 
ATOM     14  C   UNL A   1      33.099  25.099  25.077  1.00  0.00     0.019 A 
ATOM     15  O   UNL A   1      31.342  25.163  26.676  1.00  0.00    -0.475 OA
ATOM     16  C   UNL A   1      34.348  24.681  24.647  1.00  0.00     0.036 A 
ATOM     17  C   UNL A   1      32.546  24.599  26.175  1.00  0.00     0.128 A 
ATOM     18  C   UNL A   1      34.812  23.510  25.291  1.00  0.00     0.107 A 
ATOM     19  C   UNL A   1      33.127  23.541  26.831  1.00  0.00     0.048 A 
ATOM     20  C   UNL A   1      34.331  23.037  26.425  1.00  0.00     0.028 A 
BRANCH  13  21
ATOM     21  C   UNL A   1      29.891  27.544  23.246  1.00  0.00     0.430 C 
ATOM     22  F   UNL A   1      29.035  26.968  24.085  1.00  0.00    -0.167 F 
ATOM     23  F   UNL A   1      29.251  28.451  22.514  1.00  0.00    -0.167 F 
ATOM     24  F   UNL A   1      30.416  26.619  22.446  1.00  0.00    -0.167 F 
ENDBRANCH  13  21
BRANCH  18  25
ATOM     25  S   UNL A   1      36.161  22.595  24.502  1.00  0.00     0.310 S 
ATOM     26  F   UNL A   1      35.752  23.115  23.061  1.00  0.00    -0.094 F 
ATOM     27  F   UNL A   1      35.172  21.390  24.274  1.00  0.00    -0.094 F 
ATOM     28  F   UNL A   1      37.319  21.811  23.824  1.00  0.00    -0.094 F 
ATOM     29  F   UNL A   1      37.097  23.863  24.614  1.00  0.00    -0.094 F 
ATOM     30  F   UNL A   1      34.965  23.445  25.091  1.00  0.00    -0.094 F 
ENDBRANCH  18  25
ENDBRANCH   9  11
ENDBRANCH   8   9
ENDBRANCH   7   8
ENDBRANCH   6   7
ENDBRANCH   5   6
ENDBRANCH   4   5
ENDBRANCH   3   4
ENDBRANCH   2   3
ENDBRANCH   1   2
BRANCH   1  31
ATOM     31  C   UNL A   1      34.716  34.323  31.134  1.00  0.00     0.188 C 
BRANCH  31  32
ATOM     32  O   UNL A   1      34.871  34.164  32.537  1.00  0.00    -0.376 OA
BRANCH  32  33
ATOM     33  C   UNL A   1      34.917  32.781  32.854  1.00  0.00     0.202 C 
BRANCH  33  34
ATOM     34  C   UNL A   1      36.292  32.433  33.401  1.00  0.00     0.261 C 
BRANCH  34  35
ATOM     35  O   UNL A   1      36.466  31.023  33.385  1.00  0.00    -0.460 OA
BRANCH  35  36
ATOM     36  C   UNL A   1      37.091  30.399  32.274  1.00  0.00     0.338 C 
ATOM     37  O   UNL A   1      36.570  29.366  31.748  1.00  0.00    -0.246 OA
BRANCH  36  38
ATOM     38  C   UNL A   1      38.387  30.964  31.713  1.00  0.00     0.060 A 
ATOM     39  C   UNL A   1      38.507  31.078  30.338  1.00  0.00     0.016 A 
ATOM     40  C   UNL A   1      39.383  31.301  32.522  1.00  0.00     0.016 A 
ATOM     41  C   UNL A   1      39.834  31.287  29.894  1.00  0.00     0.010 A 
ATOM     42  C   UNL A   1      40.617  31.627  32.013  1.00  0.00     0.010 A 
ATOM     43  C   UNL A   1      40.824  31.700  30.663  1.00  0.00    -0.014 A 
BRANCH  43  44
ATOM     44  C   UNL A   1      42.125  32.229  30.081  1.00  0.00     0.031 A 
ATOM     45  C   UNL A   1      42.228  33.568  29.696  1.00  0.00     0.074 A 
ATOM     46  C   UNL A   1      43.164  31.318  29.998  1.00  0.00     0.049 A 
ATOM     47  N   UNL A   1      43.307  34.199  29.231  1.00  0.00    -0.248 NA
ATOM     48  C   UNL A   1      41.117  34.529  29.752  1.00  0.00     0.031 C 
ATOM     49  C   UNL A   1      43.069  29.969  30.391  1.00  0.00     0.029 A 
ATOM     50  N   UNL A   1      44.442  31.533  29.534  1.00  0.00    -0.354 N 
ATOM     51  C   UNL A   1      43.023  35.481  28.991  1.00  0.00     0.074 A 
ATOM     52  C   UNL A   1      41.609  35.710  29.315  1.00  0.00     0.031 C 
ATOM     53  C   UNL A   1      44.269  29.377  30.157  1.00  0.00     0.029 A 
ATOM     54  C   UNL A   1      45.134  30.345  29.615  1.00  0.00     0.049 A 
ATOM     55  H   UNL A   1      44.800  32.389  29.202  1.00  0.00     0.167 HD
ATOM     56  C   UNL A   1      43.888  36.468  28.515  1.00  0.00     0.034 A 
ATOM     57  C   UNL A   1      46.446  30.100  29.239  1.00  0.00     0.034 A 
ATOM     58  C   UNL A   1      45.212  36.232  28.180  1.00  0.00     0.049 A 
ATOM     59  C   UNL A   1      47.295  31.074  28.708  1.00  0.00     0.074 A 
ATOM     60  C   UNL A   1      46.100  37.218  27.706  1.00  0.00     0.029 A 
ATOM     61  N   UNL A   1      45.898  35.039  28.237  1.00  0.00    -0.354 N 
ATOM     62  N   UNL A   1      47.022  32.364  28.504  1.00  0.00    -0.248 NA
ATOM     63  C   UNL A   1      48.675  30.819  28.276  1.00  0.00     0.031 C 
ATOM     64  C   UNL A   1      47.301  36.625  27.471  1.00  0.00     0.029 A 
ATOM     65  C   UNL A   1      47.182  35.260  27.795  1.00  0.00     0.049 A 
ATOM     66  H   UNL A   1      45.532  34.177  28.542  1.00  0.00     0.167 HD
ATOM     67  C   UNL A   1      48.090  32.986  28.000  1.00  0.00     0.074 A 
ATOM     68  C   UNL A   1      49.167  32.000  27.839  1.00  0.00     0.031 C 
ATOM     69  C   UNL A   1      48.210  34.337  27.671  1.00  0.00     0.034 A 
BRANCH  56  70
ATOM     70  C   UNL A   1      43.347  37.879  28.354  1.00  0.00     0.023 A 
ATOM     71  C   UNL A   1      43.553  38.783  29.382  1.00  0.00     0.031 A 
ATOM     72  C   UNL A   1      42.758  38.245  27.222  1.00  0.00     0.131 A 
ATOM     73  C   UNL A   1      42.837  39.994  29.233  1.00  0.00     0.055 A 
ATOM     74  C   UNL A   1      42.197  39.493  27.098  1.00  0.00     0.041 A 
ATOM     75  F   UNL A   1      42.709  37.397  26.199  1.00  0.00    -0.206 F 
ATOM     76  C   UNL A   1      42.311  40.418  28.098  1.00  0.00     0.022 A 
BRANCH  73  77
ATOM     77  S   UNL A   1      42.625  41.034  30.699  1.00  0.00     0.124 S 
ATOM     78  O   UNL A   1      43.297  42.389  30.466  1.00  0.00    -0.237 OA
ATOM     79  O   UNL A   1      41.133  41.244  30.965  1.00  0.00    -0.237 OA
ATOM     80  O   UNL A   1      43.342  40.269  32.050  1.00  0.00    -0.744 OA
ENDBRANCH  73  77
ENDBRANCH  56  70
BRANCH  57  81
ATOM     81  C   UNL A   1      46.991  28.693  29.415  1.00  0.00     0.023 A 
ATOM     82  C   UNL A   1      46.858  27.779  28.382  1.00  0.00     0.031 A 
ATOM     83  C   UNL A   1      47.517  28.341  30.581  1.00  0.00     0.131 A 
ATOM     84  C   UNL A   1      47.045  26.434  28.779  1.00  0.00     0.055 A 
ATOM     85  C   UNL A   1      47.802  27.024  30.852  1.00  0.00     0.041 A 
ATOM     86  F   UNL A   1      47.771  29.271  31.498  1.00  0.00    -0.206 F 
ATOM     87  C   UNL A   1      47.638  26.059  29.897  1.00  0.00     0.022 A 
BRANCH  84  88
ATOM     88  S   UNL A   1      46.429  25.137  27.676  1.00  0.00     0.124 S 
ATOM     89  O   UNL A   1      45.513  24.195  28.460  1.00  0.00    -0.237 OA
ATOM     90  O   UNL A   1      45.642  25.775  26.529  1.00  0.00    -0.237 OA
ATOM     91  O   UNL A   1      47.748  24.255  27.042  1.00  0.00    -0.744 OA
ENDBRANCH  84  88
ENDBRANCH  57  81
BRANCH  69  92
ATOM     92  C   UNL A   1      49.549  34.827  27.143  1.00  0.00     0.023 A 
ATOM     93  C   UNL A   1      50.519  35.174  28.068  1.00  0.00     0.031 A 
ATOM     94  C   UNL A   1      49.762  34.960  25.839  1.00  0.00     0.131 A 
ATOM     95  C   UNL A   1      51.585  35.930  27.525  1.00  0.00     0.055 A 
ATOM     96  C   UNL A   1      50.891  35.590  25.375  1.00  0.00     0.041 A 
ATOM     97  F   UNL A   1      48.873  34.481  24.974  1.00  0.00    -0.206 F 
ATOM     98  C   UNL A   1      51.865  36.012  26.237  1.00  0.00     0.022 A 
BRANCH  95  99
ATOM     99  S   UNL A   1      52.638  36.848  28.676  1.00  0.00     0.124 S 
ATOM    100  O   UNL A   1      53.187  35.894  29.739  1.00  0.00    -0.237 OA
ATOM    101  O   UNL A   1      53.802  37.481  27.908  1.00  0.00    -0.237 OA
ATOM    102  O   UNL A   1      51.720  38.077  29.433  1.00  0.00    -0.744 OA
ENDBRANCH  95  99
ENDBRANCH  69  92
ENDBRANCH  43  44
ENDBRANCH  36  38
ENDBRANCH  35  36
ENDBRANCH  34  35
ENDBRANCH  33  34
ENDBRANCH  32  33
ENDBRANCH  31  32
ENDBRANCH   1  31
TORSDOF 25
ENDMDL
MODEL 3
REMARK VINA RESULT:      -7.5      6.255     13.156
REMARK SMILES O=C(OCCOCCOCCOCCOC(=O)c1ccc(-c2c3nc(c(-c4cc(S(=O)(=O)[O-])ccc4F)c4ccc([nH]4)c(-c4cc(S(=O)(=O)[O-])ccc4F)c4nc(c(-c5cc(S(=O)(=O)[O-])ccc5F)c5ccc2[nH]5)C=C4)C=C3)cc1)C1=Cc2cc(S(F)(F)(F)(F)F)ccc2O[C@@H]1C(F)(F)F
REMARK SMILES IDX 10 1 9 2 8 3 7 4 6 5 5 6 4 7 3 8 2 9 1 10 81 11 82 12 96 13
REMARK SMILES IDX 83 14 95 15 84 16 94 17 85 18 93 19 92 20 97 21 98 22 99 23
REMARK SMILES IDX 100 24 86 25 87 26 88 27 89 28 90 29 91 30 11 31 12 32 13 33
REMARK SMILES IDX 14 34 15 35 16 36 17 37 18 38 19 39 80 40 20 41 79 42 21 43
REMARK SMILES IDX 22 44 23 45 73 46 24 47 78 48 72 49 74 50 25 51 77 52 71 53
REMARK SMILES IDX 70 54 26 56 58 57 38 58 57 59 39 60 42 61 56 62 75 63 40 64
REMARK SMILES IDX 41 65 55 67 76 68 43 69 27 70 28 71 36 72 29 73 35 74 37 75
REMARK SMILES IDX 34 76 30 77 31 78 32 79 33 80 59 81 60 82 68 83 61 84 67 85
REMARK SMILES IDX 69 86 66 87 62 88 63 89 64 90 65 91 44 92 45 93 53 94 46 95
REMARK SMILES IDX 52 96 54 97 51 98 47 99 48 100 49 101 50 102
REMARK H PARENT 74 55 42 66
REMARK Flexibility Score: inf
ROOT
ATOM      1  C   UNL A   1      39.351  22.578  26.930  1.00  0.00     0.188 C 
ENDROOT
BRANCH   1   2
ATOM      2  O   UNL A   1      39.321  21.848  25.712  1.00  0.00    -0.377 OA
BRANCH   2   3
ATOM      3  C   UNL A   1      37.985  21.467  25.422  1.00  0.00     0.188 C 
BRANCH   3   4
ATOM      4  C   UNL A   1      37.162  22.707  25.109  1.00  0.00     0.188 C 
BRANCH   4   5
ATOM      5  O   UNL A   1      36.089  22.808  26.034  1.00  0.00    -0.376 OA
BRANCH   5   6
ATOM      6  C   UNL A   1      35.231  23.872  25.649  1.00  0.00     0.202 C 
BRANCH   6   7
ATOM      7  C   UNL A   1      33.898  23.733  26.366  1.00  0.00     0.261 C 
BRANCH   7   8
ATOM      8  O   UNL A   1      33.154  24.934  26.221  1.00  0.00    -0.460 OA
BRANCH   8   9
ATOM      9  C   UNL A   1      31.808  24.885  25.771  1.00  0.00     0.338 C 
ATOM     10  O   UNL A   1      30.870  25.290  26.528  1.00  0.00    -0.246 OA
BRANCH   9  11
ATOM     11  C   UNL A   1      31.489  24.349  24.385  1.00  0.00     0.087 C 
ATOM     12  C   UNL A   1      31.036  25.191  23.417  1.00  0.00     0.027 C 
ATOM     13  C   UNL A   1      31.674  22.871  24.081  1.00  0.00     0.316 C 
ATOM     14  C   UNL A   1      30.851  26.669  23.722  1.00  0.00     0.019 A 
ATOM     15  O   UNL A   1      32.876  26.641  24.965  1.00  0.00    -0.475 OA
ATOM     16  C   UNL A   1      29.696  27.292  23.277  1.00  0.00     0.036 A 
ATOM     17  C   UNL A   1      31.784  27.340  24.384  1.00  0.00     0.128 A 
ATOM     18  C   UNL A   1      29.753  28.705  23.329  1.00  0.00     0.107 A 
ATOM     19  C   UNL A   1      31.705  28.706  24.513  1.00  0.00     0.048 A 
ATOM     20  C   UNL A   1      30.622  29.395  24.045  1.00  0.00     0.028 A 
BRANCH  13  21
ATOM     21  C   UNL A   1      32.681  22.709  22.954  1.00  0.00     0.430 C 
ATOM     22  F   UNL A   1      33.050  23.908  22.512  1.00  0.00    -0.167 F 
ATOM     23  F   UNL A   1      33.748  22.055  23.403  1.00  0.00    -0.167 F 
ATOM     24  F   UNL A   1      32.126  22.022  21.959  1.00  0.00    -0.167 F 
ENDBRANCH  13  21
BRANCH  18  25
ATOM     25  S   UNL A   1      28.548  29.632  22.346  1.00  0.00     0.310 S 
ATOM     26  F   UNL A   1      28.748  30.939  23.221  1.00  0.00    -0.094 F 
ATOM     27  F   UNL A   1      27.427  29.203  23.366  1.00  0.00    -0.094 F 
ATOM     28  F   UNL A   1      27.514  30.429  21.502  1.00  0.00    -0.094 F 
ATOM     29  F   UNL A   1      29.707  30.166  21.415  1.00  0.00    -0.094 F 
ATOM     30  F   UNL A   1      29.627  28.920  23.255  1.00  0.00    -0.094 F 
ENDBRANCH  18  25
ENDBRANCH   9  11
ENDBRANCH   8   9
ENDBRANCH   7   8
ENDBRANCH   6   7
ENDBRANCH   5   6
ENDBRANCH   4   5
ENDBRANCH   3   4
ENDBRANCH   2   3
ENDBRANCH   1   2
BRANCH   1  31
ATOM     31  C   UNL A   1      40.452  23.624  26.868  1.00  0.00     0.188 C 
BRANCH  31  32
ATOM     32  O   UNL A   1      39.919  24.893  27.216  1.00  0.00    -0.376 OA
BRANCH  32  33
ATOM     33  C   UNL A   1      40.641  25.911  26.539  1.00  0.00     0.202 C 
BRANCH  33  34
ATOM     34  C   UNL A   1      41.780  25.286  25.749  1.00  0.00     0.261 C 
BRANCH  34  35
ATOM     35  O   UNL A   1      42.411  26.281  24.957  1.00  0.00    -0.460 OA
BRANCH  35  36
ATOM     36  C   UNL A   1      43.632  26.862  25.389  1.00  0.00     0.338 C 
ATOM     37  O   UNL A   1      44.740  26.391  24.980  1.00  0.00    -0.246 OA
BRANCH  36  38
ATOM     38  C   UNL A   1      43.616  28.047  26.342  1.00  0.00     0.060 A 
ATOM     39  C   UNL A   1      42.692  29.053  26.113  1.00  0.00     0.016 A 
ATOM     40  C   UNL A   1      44.488  28.125  27.338  1.00  0.00     0.016 A 
ATOM     41  C   UNL A   1      42.961  30.249  26.821  1.00  0.00     0.010 A 
ATOM     42  C   UNL A   1      44.604  29.277  28.077  1.00  0.00     0.010 A 
ATOM     43  C   UNL A   1      43.763  30.336  27.866  1.00  0.00    -0.014 A 
BRANCH  43  44
ATOM     44  C   UNL A   1      43.754  31.546  28.785  1.00  0.00     0.031 A 
ATOM     45  C   UNL A   1      42.838  31.622  29.837  1.00  0.00     0.074 A 
ATOM     46  C   UNL A   1      44.711  32.511  28.522  1.00  0.00     0.049 A 
ATOM     47  N   UNL A   1      42.740  32.576  30.763  1.00  0.00    -0.248 NA
ATOM     48  C   UNL A   1      41.799  30.615  30.098  1.00  0.00     0.031 C 
ATOM     49  C   UNL A   1      45.643  32.438  27.469  1.00  0.00     0.029 A 
ATOM     50  N   UNL A   1      44.937  33.686  29.203  1.00  0.00    -0.354 N 
ATOM     51  C   UNL A   1      41.754  32.292  31.616  1.00  0.00     0.074 A 
ATOM     52  C   UNL A   1      41.130  31.030  31.196  1.00  0.00     0.031 C 
ATOM     53  C   UNL A   1      46.412  33.558  27.508  1.00  0.00     0.029 A 
ATOM     54  C   UNL A   1      45.974  34.349  28.586  1.00  0.00     0.049 A 
ATOM     55  H   UNL A   1      44.442  33.998  29.996  1.00  0.00     0.167 HD
ATOM     56  C   UNL A   1      41.352  33.034  32.728  1.00  0.00     0.034 A 
ATOM     57  C   UNL A   1      46.521  35.576  28.928  1.00  0.00     0.034 A 
ATOM     58  C   UNL A   1      41.927  34.240  33.095  1.00  0.00     0.049 A 
ATOM     59  C   UNL A   1      46.079  36.347  30.006  1.00  0.00     0.074 A 
ATOM     60  C   UNL A   1      41.539  34.998  34.217  1.00  0.00     0.029 A 
ATOM     61  N   UNL A   1      42.948  34.916  32.463  1.00  0.00    -0.354 N 
ATOM     62  N   UNL A   1      45.120  36.044  30.881  1.00  0.00    -0.248 NA
ATOM     63  C   UNL A   1      46.628  37.663  30.359  1.00  0.00     0.031 C 
ATOM     64  C   UNL A   1      42.307  36.118  34.256  1.00  0.00     0.029 A 
ATOM     65  C   UNL A   1      43.189  36.079  33.158  1.00  0.00     0.049 A 
ATOM     66  H   UNL A   1      43.423  34.617  31.654  1.00  0.00     0.167 HD
ATOM     67  C   UNL A   1      44.995  37.019  31.784  1.00  0.00     0.074 A 
ATOM     68  C   UNL A   1      45.959  38.078  31.456  1.00  0.00     0.031 C 
ATOM     69  C   UNL A   1      44.119  37.066  32.869  1.00  0.00     0.034 A 
BRANCH  56  70
ATOM     70  C   UNL A   1      40.219  32.489  33.583  1.00  0.00     0.023 A 
ATOM     71  C   UNL A   1      38.945  32.992  33.384  1.00  0.00     0.031 A 
ATOM     72  C   UNL A   1      40.445  31.506  34.445  1.00  0.00     0.131 A 
ATOM     73  C   UNL A   1      38.008  32.583  34.362  1.00  0.00     0.055 A 
ATOM     74  C   UNL A   1      39.446  31.062  35.277  1.00  0.00     0.041 A 
ATOM     75  F   UNL A   1      41.649  30.944  34.505  1.00  0.00    -0.206 F 
ATOM     76  C   UNL A   1      38.175  31.557  35.177  1.00  0.00     0.022 A 
BRANCH  73  77
ATOM     77  S   UNL A   1      36.473  33.532  34.507  1.00  0.00     0.124 S 
ATOM     78  O   UNL A   1      36.139  33.739  35.986  1.00  0.00    -0.237 OA
ATOM     79  O   UNL A   1      36.648  34.892  33.829  1.00  0.00    -0.237 OA
ATOM     80  O   UNL A   1      35.200  32.677  33.750  1.00  0.00    -0.744 OA
ENDBRANCH  73  77
ENDBRANCH  56  70
BRANCH  57  81
ATOM     81  C   UNL A   1      47.663  36.113  28.083  1.00  0.00     0.023 A 
ATOM     82  C   UNL A   1      48.969  35.828  28.447  1.00  0.00     0.031 A 
ATOM     83  C   UNL A   1      47.394  36.909  27.056  1.00  0.00     0.131 A 
ATOM     84  C   UNL A   1      49.931  36.668  27.838  1.00  0.00     0.055 A 
ATOM     85  C   UNL A   1      48.400  37.596  26.419  1.00  0.00     0.041 A 
ATOM     86  F   UNL A   1      46.138  37.044  26.638  1.00  0.00    -0.206 F 
ATOM     87  C   UNL A   1      49.708  37.407  26.767  1.00  0.00     0.022 A 
BRANCH  84  88
ATOM     88  S   UNL A   1      51.581  36.734  28.579  1.00  0.00     0.124 S 
ATOM     89  O   UNL A   1      52.166  38.136  28.394  1.00  0.00    -0.237 OA
ATOM     90  O   UNL A   1      51.483  36.416  30.073  1.00  0.00    -0.237 OA
ATOM     91  O   UNL A   1      52.594  35.588  27.817  1.00  0.00    -0.744 OA
ENDBRANCH  84  88
ENDBRANCH  57  81
BRANCH  69  92
ATOM     92  C   UNL A   1      44.187  38.274  33.790  1.00  0.00     0.023 A 
ATOM     93  C   UNL A   1      43.427  39.383  33.457  1.00  0.00     0.031 A 
ATOM     94  C   UNL A   1      44.985  38.279  34.851  1.00  0.00     0.131 A 
ATOM     95  C   UNL A   1      43.798  40.560  34.148  1.00  0.00     0.055 A 
ATOM     96  C   UNL A   1      45.197  39.435  35.562  1.00  0.00     0.041 A 
ATOM     97  F   UNL A   1      45.585  37.154  35.230  1.00  0.00    -0.206 F 
ATOM     98  C   UNL A   1      44.524  40.584  35.252  1.00  0.00     0.022 A 
BRANCH  95  99
ATOM     99  S   UNL A   1      43.242  42.144  33.473  1.00  0.00     0.124 S 
ATOM    100  O   UNL A   1      43.747  43.284  34.360  1.00  0.00    -0.237 OA
ATOM    101  O   UNL A   1      43.795  42.317  32.056  1.00  0.00    -0.237 OA
ATOM    102  O   UNL A   1      41.532  42.175  33.425  1.00  0.00    -0.744 OA
ENDBRANCH  95  99
ENDBRANCH  69  92
ENDBRANCH  43  44
ENDBRANCH  36  38
ENDBRANCH  35  36
ENDBRANCH  34  35
ENDBRANCH  33  34
ENDBRANCH  32  33
ENDBRANCH  31  32
ENDBRANCH   1  31
TORSDOF 25
ENDMDL
