MODEL 1
REMARK VINA RESULT:      -7.2      0.000      0.000
REMARK SMILES CCCCCCCCNC(=O)Oc1cccc(-c2ccc([C@@H](C)C(=O)OCCOCCOCCOCCOC(=O)c3ccc(-c4c5nc(c(-c6cc(S(=O)(=O)[O-])ccc6F)c6ccc([nH]6)c(-c6cc(S(=O)(=O)[O-])ccc6F)c6nc(c(-c7cc(S(=O)(=O)[O-])ccc7F)c7ccc4[nH]7)C=C6)C=C5)cc3)cc2F)c1
REMARK SMILES IDX 28 1 27 2 26 3 24 4 25 5 22 6 23 7 21 8 18 9 19 10 105 11
REMARK SMILES IDX 20 12 104 13 106 14 17 15 13 16 14 17 107 18 15 19 16 20
REMARK SMILES IDX 12 21 10 22 9 23 11 25 8 26 7 27 6 28 5 29 4 30 3 31 2 32
REMARK SMILES IDX 1 33 29 34 30 35 31 36 32 37 33 38 34 39 35 40 36 41 37 42
REMARK SMILES IDX 38 43 39 44 40 45 41 46 42 47 103 48 43 49 102 50 44 51
REMARK SMILES IDX 45 52 46 53 96 54 47 55 101 56 95 57 97 58 48 59 100 60
REMARK SMILES IDX 94 61 93 62 49 64 81 65 61 66 80 67 62 68 65 69 79 70 98 71
REMARK SMILES IDX 63 72 64 73 78 75 99 76 66 77 50 78 51 79 59 80 52 81 58 82
REMARK SMILES IDX 60 83 57 84 53 85 54 86 55 87 56 88 82 89 83 90 91 91 84 92
REMARK SMILES IDX 90 93 92 94 89 95 85 96 86 97 87 98 88 99 67 100 68 101
REMARK SMILES IDX 76 102 69 103 75 104 77 105 74 106 70 107 71 108 72 109
REMARK SMILES IDX 73 110
REMARK H PARENT 9 24 97 63 65 74
REMARK Flexibility Score: inf
ROOT
ATOM      1  C   UNL A   1      36.041  29.954  29.039  1.00  0.00     0.202 C 
ENDROOT
BRANCH   1   2
ATOM      2  C   UNL A   1      35.946  30.700  27.695  1.00  0.00     0.261 C 
BRANCH   2   3
ATOM      3  O   UNL A   1      35.421  32.046  27.729  1.00  0.00    -0.463 OA
BRANCH   3   4
ATOM      4  C   UNL A   1      34.109  32.172  28.029  1.00  0.00     0.313 C 
ATOM      5  O   UNL A   1      33.695  32.520  29.136  1.00  0.00    -0.252 OA
BRANCH   4   6
ATOM      6  C   UNL A   1      33.129  31.822  26.909  1.00  0.00     0.126 C 
ATOM      7  C   UNL A   1      31.843  32.610  27.129  1.00  0.00     0.025 C 
BRANCH   6   8
ATOM      8  C   UNL A   1      32.827  30.370  26.535  1.00  0.00    -0.031 A 
ATOM      9  C   UNL A   1      32.192  27.627  25.952  1.00  0.00     0.018 A 
ATOM     10  C   UNL A   1      32.718  28.491  24.973  1.00  0.00     0.012 A 
ATOM     11  C   UNL A   1      31.991  28.170  27.224  1.00  0.00     0.131 A 
ATOM     12  C   UNL A   1      33.033  29.836  25.257  1.00  0.00     0.005 A 
ATOM     13  C   UNL A   1      32.311  29.502  27.519  1.00  0.00     0.044 A 
ATOM     14  F   UNL A   1      31.489  27.411  28.213  1.00  0.00    -0.206 F 
BRANCH   9  15
ATOM     15  C   UNL A   1      31.906  26.208  25.653  1.00  0.00    -0.012 A 
ATOM     16  C   UNL A   1      32.458  24.082  24.601  1.00  0.00     0.133 A 
ATOM     17  C   UNL A   1      31.291  23.500  25.090  1.00  0.00     0.047 A 
ATOM     18  C   UNL A   1      32.763  25.425  24.859  1.00  0.00     0.056 A 
ATOM     19  C   UNL A   1      30.429  24.263  25.870  1.00  0.00     0.004 A 
ATOM     20  C   UNL A   1      30.735  25.602  26.149  1.00  0.00     0.009 A 
BRANCH  16  21
ATOM     21  O   UNL A   1      33.256  23.297  23.752  1.00  0.00    -0.410 OA
BRANCH  21  22
ATOM     22  C   UNL A   1      32.754  22.046  23.433  1.00  0.00     0.412 C 
ATOM     23  N   UNL A   1      33.472  21.012  23.966  1.00  0.00    -0.321 N 
ATOM     24  H   UNL A   1      33.115  20.108  23.814  1.00  0.00     0.167 HD
ATOM     25  O   UNL A   1      31.767  21.824  22.742  1.00  0.00    -0.224 OA
BRANCH  23  26
ATOM     26  C   UNL A   1      34.699  21.098  24.730  1.00  0.00     0.119 C 
BRANCH  26  27
ATOM     27  C   UNL A   1      34.458  21.618  26.148  1.00  0.00     0.021 C 
BRANCH  27  28
ATOM     28  C   UNL A   1      35.415  22.732  26.598  1.00  0.00     0.002 C 
BRANCH  28  29
ATOM     29  C   UNL A   1      36.161  23.451  25.469  1.00  0.00     0.000 C 
BRANCH  29  30
ATOM     30  C   UNL A   1      37.392  22.713  24.931  1.00  0.00    -0.000 C 
BRANCH  30  31
ATOM     31  C   UNL A   1      38.280  22.068  26.001  1.00  0.00    -0.000 C 
BRANCH  31  32
ATOM     32  C   UNL A   1      39.643  22.735  26.210  1.00  0.00    -0.003 C 
ATOM     33  C   UNL A   1      40.325  22.320  27.505  1.00  0.00     0.004 C 
ENDBRANCH  31  32
ENDBRANCH  30  31
ENDBRANCH  29  30
ENDBRANCH  28  29
ENDBRANCH  27  28
ENDBRANCH  26  27
ENDBRANCH  23  26
ENDBRANCH  21  22
ENDBRANCH  16  21
ENDBRANCH   9  15
ENDBRANCH   6   8
ENDBRANCH   4   6
ENDBRANCH   3   4
ENDBRANCH   2   3
ENDBRANCH   1   2
BRANCH   1  34
ATOM     34  O   UNL A   1      36.603  30.597  30.174  1.00  0.00    -0.376 OA
BRANCH  34  35
ATOM     35  C   UNL A   1      35.795  30.929  31.296  1.00  0.00     0.188 C 
BRANCH  35  36
ATOM     36  C   UNL A   1      36.211  32.012  32.302  1.00  0.00     0.188 C 
BRANCH  36  37
ATOM     37  O   UNL A   1      37.590  32.307  32.338  1.00  0.00    -0.377 OA
BRANCH  37  38
ATOM     38  C   UNL A   1      38.273  31.985  33.540  1.00  0.00     0.188 C 
BRANCH  38  39
ATOM     39  C   UNL A   1      38.002  30.593  34.140  1.00  0.00     0.188 C 
BRANCH  39  40
ATOM     40  O   UNL A   1      38.834  29.559  33.616  1.00  0.00    -0.376 OA
BRANCH  40  41
ATOM     41  C   UNL A   1      38.403  28.884  32.440  1.00  0.00     0.202 C 
BRANCH  41  42
ATOM     42  C   UNL A   1      39.433  28.029  31.684  1.00  0.00     0.261 C 
BRANCH  42  43
ATOM     43  O   UNL A   1      40.455  28.746  30.984  1.00  0.00    -0.460 OA
BRANCH  43  44
ATOM     44  C   UNL A   1      40.097  29.405  29.859  1.00  0.00     0.338 C 
ATOM     45  O   UNL A   1      39.306  29.029  29.021  1.00  0.00    -0.246 OA
BRANCH  44  46
ATOM     46  C   UNL A   1      40.650  30.779  29.944  1.00  0.00     0.060 A 
ATOM     47  C   UNL A   1      42.040  30.943  29.881  1.00  0.00     0.016 A 
ATOM     48  C   UNL A   1      39.817  31.888  30.111  1.00  0.00     0.016 A 
ATOM     49  C   UNL A   1      42.604  32.205  30.059  1.00  0.00     0.010 A 
ATOM     50  C   UNL A   1      40.384  33.151  30.315  1.00  0.00     0.010 A 
ATOM     51  C   UNL A   1      41.783  33.303  30.346  1.00  0.00    -0.014 A 
BRANCH  51  52
ATOM     52  C   UNL A   1      42.396  34.515  30.951  1.00  0.00     0.031 A 
ATOM     53  C   UNL A   1      42.330  34.659  32.450  1.00  0.00     0.074 A 
ATOM     54  C   UNL A   1      43.056  35.423  30.211  1.00  0.00     0.049 A 
ATOM     55  N   UNL A   1      42.787  35.612  33.220  1.00  0.00    -0.248 NA
ATOM     56  C   UNL A   1      41.652  33.573  33.176  1.00  0.00     0.031 C 
ATOM     57  C   UNL A   1      43.239  35.362  28.763  1.00  0.00     0.029 A 
ATOM     58  N   UNL A   1      43.700  36.577  30.585  1.00  0.00    -0.354 N 
ATOM     59  C   UNL A   1      42.449  35.244  34.519  1.00  0.00     0.074 A 
ATOM     60  C   UNL A   1      41.708  34.005  34.425  1.00  0.00     0.031 C 
ATOM     61  C   UNL A   1      43.948  36.437  28.369  1.00  0.00     0.029 A 
ATOM     62  C   UNL A   1      44.237  37.278  29.530  1.00  0.00     0.049 A 
ATOM     63  H   UNL A   1      43.771  36.875  31.520  1.00  0.00     0.167 HD
ATOM     64  C   UNL A   1      42.739  35.872  35.684  1.00  0.00     0.034 A 
ATOM     65  C   UNL A   1      44.871  38.469  29.507  1.00  0.00     0.034 A 
ATOM     66  C   UNL A   1      43.464  37.117  35.760  1.00  0.00     0.049 A 
ATOM     67  C   UNL A   1      45.106  39.199  30.810  1.00  0.00     0.074 A 
ATOM     68  C   UNL A   1      43.808  37.848  36.883  1.00  0.00     0.029 A 
ATOM     69  N   UNL A   1      43.947  37.824  34.665  1.00  0.00    -0.354 N 
ATOM     70  N   UNL A   1      44.777  38.845  32.033  1.00  0.00    -0.248 NA
ATOM     71  C   UNL A   1      45.813  40.483  30.729  1.00  0.00     0.031 C 
ATOM     72  C   UNL A   1      44.424  39.033  36.465  1.00  0.00     0.029 A 
ATOM     73  C   UNL A   1      44.558  38.996  35.086  1.00  0.00     0.049 A 
ATOM     74  H   UNL A   1      43.867  37.536  33.728  1.00  0.00     0.167 HD
ATOM     75  C   UNL A   1      45.281  39.842  32.867  1.00  0.00     0.074 A 
ATOM     76  C   UNL A   1      45.944  40.802  32.008  1.00  0.00     0.031 C 
ATOM     77  C   UNL A   1      45.212  39.950  34.220  1.00  0.00     0.034 A 
BRANCH  64  78
ATOM     78  C   UNL A   1      42.209  35.249  36.956  1.00  0.00     0.023 A 
ATOM     79  C   UNL A   1      42.890  34.209  37.615  1.00  0.00     0.031 A 
ATOM     80  C   UNL A   1      40.980  35.671  37.492  1.00  0.00     0.131 A 
ATOM     81  C   UNL A   1      42.299  33.574  38.719  1.00  0.00     0.055 A 
ATOM     82  C   UNL A   1      40.441  35.096  38.644  1.00  0.00     0.041 A 
ATOM     83  F   UNL A   1      40.268  36.638  36.893  1.00  0.00    -0.206 F 
ATOM     84  C   UNL A   1      41.092  34.030  39.255  1.00  0.00     0.022 A 
BRANCH  81  85
ATOM     85  S   UNL A   1      43.044  32.041  39.342  1.00  0.00     0.124 S 
ATOM     86  O   UNL A   1      44.457  32.404  39.401  1.00  0.00    -0.237 OA
ATOM     87  O   UNL A   1      42.374  31.865  40.626  1.00  0.00    -0.237 OA
ATOM     88  O   UNL A   1      42.705  31.054  38.320  1.00  0.00    -0.744 OA
ENDBRANCH  81  85
ENDBRANCH  64  78
BRANCH  65  89
ATOM     89  C   UNL A   1      45.305  39.073  28.211  1.00  0.00     0.023 A 
ATOM     90  C   UNL A   1      44.588  40.126  27.617  1.00  0.00     0.031 A 
ATOM     91  C   UNL A   1      46.409  38.556  27.511  1.00  0.00     0.131 A 
ATOM     92  C   UNL A   1      44.949  40.589  26.343  1.00  0.00     0.055 A 
ATOM     93  C   UNL A   1      46.802  39.060  26.270  1.00  0.00     0.041 A 
ATOM     94  F   UNL A   1      47.127  37.545  28.027  1.00  0.00    -0.206 F 
ATOM     95  C   UNL A   1      46.062  40.074  25.672  1.00  0.00     0.022 A 
BRANCH  92  96
ATOM     96  S   UNL A   1      43.887  41.812  25.525  1.00  0.00     0.124 S 
ATOM     97  O   UNL A   1      44.292  41.670  24.131  1.00  0.00    -0.237 OA
ATOM     98  O   UNL A   1      42.553  41.324  25.858  1.00  0.00    -0.237 OA
ATOM     99  O   UNL A   1      44.265  43.071  26.161  1.00  0.00    -0.744 OA
ENDBRANCH  92  96
ENDBRANCH  65  89
BRANCH  77 100
ATOM    100  C   UNL A   1      45.937  41.116  34.859  1.00  0.00     0.023 A 
ATOM    101  C   UNL A   1      47.339  41.165  34.958  1.00  0.00     0.031 A 
ATOM    102  C   UNL A   1      45.203  42.185  35.406  1.00  0.00     0.131 A 
ATOM    103  C   UNL A   1      47.955  42.212  35.659  1.00  0.00     0.055 A 
ATOM    104  C   UNL A   1      45.827  43.265  36.032  1.00  0.00     0.041 A 
ATOM    105  F   UNL A   1      43.861  42.196  35.346  1.00  0.00    -0.206 F 
ATOM    106  C   UNL A   1      47.210  43.274  36.179  1.00  0.00     0.022 A 
BRANCH 103 107
ATOM    107  S   UNL A   1      49.733  42.100  36.006  1.00  0.00     0.124 S 
ATOM    108  O   UNL A   1      50.149  43.496  35.909  1.00  0.00    -0.237 OA
ATOM    109  O   UNL A   1      49.753  41.520  37.345  1.00  0.00    -0.237 OA
ATOM    110  O   UNL A   1      50.235  41.229  34.945  1.00  0.00    -0.744 OA
ENDBRANCH 103 107
ENDBRANCH  77 100
ENDBRANCH  51  52
ENDBRANCH  44  46
ENDBRANCH  43  44
ENDBRANCH  42  43
ENDBRANCH  41  42
ENDBRANCH  40  41
ENDBRANCH  39  40
ENDBRANCH  38  39
ENDBRANCH  37  38
ENDBRANCH  36  37
ENDBRANCH  35  36
ENDBRANCH  34  35
ENDBRANCH   1  34
TORSDOF 34
ENDMDL
MODEL 2
REMARK VINA RESULT:      -7.1      2.250      2.566
REMARK SMILES CCCCCCCCNC(=O)Oc1cccc(-c2ccc([C@@H](C)C(=O)OCCOCCOCCOCCOC(=O)c3ccc(-c4c5nc(c(-c6cc(S(=O)(=O)[O-])ccc6F)c6ccc([nH]6)c(-c6cc(S(=O)(=O)[O-])ccc6F)c6nc(c(-c7cc(S(=O)(=O)[O-])ccc7F)c7ccc4[nH]7)C=C6)C=C5)cc3)cc2F)c1
REMARK SMILES IDX 28 1 27 2 26 3 24 4 25 5 22 6 23 7 21 8 18 9 19 10 105 11
REMARK SMILES IDX 20 12 104 13 106 14 17 15 13 16 14 17 107 18 15 19 16 20
REMARK SMILES IDX 12 21 10 22 9 23 11 25 8 26 7 27 6 28 5 29 4 30 3 31 2 32
REMARK SMILES IDX 1 33 29 34 30 35 31 36 32 37 33 38 34 39 35 40 36 41 37 42
REMARK SMILES IDX 38 43 39 44 40 45 41 46 42 47 103 48 43 49 102 50 44 51
REMARK SMILES IDX 45 52 46 53 96 54 47 55 101 56 95 57 97 58 48 59 100 60
REMARK SMILES IDX 94 61 93 62 49 64 81 65 61 66 80 67 62 68 65 69 79 70 98 71
REMARK SMILES IDX 63 72 64 73 78 75 99 76 66 77 50 78 51 79 59 80 52 81 58 82
REMARK SMILES IDX 60 83 57 84 53 85 54 86 55 87 56 88 82 89 83 90 91 91 84 92
REMARK SMILES IDX 90 93 92 94 89 95 85 96 86 97 87 98 88 99 67 100 68 101
REMARK SMILES IDX 76 102 69 103 75 104 77 105 74 106 70 107 71 108 72 109
REMARK SMILES IDX 73 110
REMARK H PARENT 9 24 97 63 65 74
REMARK Flexibility Score: inf
ROOT
ATOM      1  C   UNL A   1      35.978  29.817  28.890  1.00  0.00     0.202 C 
ENDROOT
BRANCH   1   2
ATOM      2  C   UNL A   1      35.839  30.566  27.550  1.00  0.00     0.261 C 
BRANCH   2   3
ATOM      3  O   UNL A   1      35.318  31.912  27.605  1.00  0.00    -0.463 OA
BRANCH   3   4
ATOM      4  C   UNL A   1      34.003  32.037  27.892  1.00  0.00     0.313 C 
ATOM      5  O   UNL A   1      33.578  32.406  28.987  1.00  0.00    -0.252 OA
BRANCH   4   6
ATOM      6  C   UNL A   1      33.034  31.657  26.771  1.00  0.00     0.126 C 
ATOM      7  C   UNL A   1      31.735  32.429  26.974  1.00  0.00     0.025 C 
BRANCH   6   8
ATOM      8  C   UNL A   1      32.757  30.197  26.414  1.00  0.00    -0.031 A 
ATOM      9  C   UNL A   1      32.166  27.437  25.863  1.00  0.00     0.018 A 
ATOM     10  C   UNL A   1      32.689  28.296  24.877  1.00  0.00     0.012 A 
ATOM     11  C   UNL A   1      31.945  27.994  27.125  1.00  0.00     0.131 A 
ATOM     12  C   UNL A   1      32.983  29.648  25.146  1.00  0.00     0.005 A 
ATOM     13  C   UNL A   1      32.244  29.334  27.406  1.00  0.00     0.044 A 
ATOM     14  F   UNL A   1      31.445  27.242  28.120  1.00  0.00    -0.206 F 
BRANCH   9  15
ATOM     15  C   UNL A   1      31.903  26.010  25.581  1.00  0.00    -0.012 A 
ATOM     16  C   UNL A   1      32.553  23.846  24.672  1.00  0.00     0.133 A 
ATOM     17  C   UNL A   1      31.332  23.288  25.042  1.00  0.00     0.047 A 
ATOM     18  C   UNL A   1      32.839  25.196  24.919  1.00  0.00     0.056 A 
ATOM     19  C   UNL A   1      30.393  24.083  25.690  1.00  0.00     0.004 A 
ATOM     20  C   UNL A   1      30.677  25.428  25.958  1.00  0.00     0.009 A 
BRANCH  16  21
ATOM     21  O   UNL A   1      33.437  23.028  23.949  1.00  0.00    -0.410 OA
BRANCH  21  22
ATOM     22  C   UNL A   1      32.970  21.762  23.633  1.00  0.00     0.412 C 
ATOM     23  N   UNL A   1      33.640  20.754  24.267  1.00  0.00    -0.321 N 
ATOM     24  H   UNL A   1      33.302  19.842  24.116  1.00  0.00     0.167 HD
ATOM     25  O   UNL A   1      32.050  21.508  22.864  1.00  0.00    -0.224 OA
BRANCH  23  26
ATOM     26  C   UNL A   1      34.792  20.877  25.135  1.00  0.00     0.119 C 
BRANCH  26  27
ATOM     27  C   UNL A   1      34.447  21.569  26.455  1.00  0.00     0.021 C 
BRANCH  27  28
ATOM     28  C   UNL A   1      35.404  22.699  26.860  1.00  0.00     0.002 C 
BRANCH  28  29
ATOM     29  C   UNL A   1      36.269  23.264  25.727  1.00  0.00     0.000 C 
BRANCH  29  30
ATOM     30  C   UNL A   1      37.779  23.219  25.980  1.00  0.00    -0.000 C 
BRANCH  30  31
ATOM     31  C   UNL A   1      38.369  24.484  26.614  1.00  0.00    -0.000 C 
BRANCH  31  32
ATOM     32  C   UNL A   1      39.575  24.255  27.530  1.00  0.00    -0.003 C 
ATOM     33  C   UNL A   1      40.818  23.791  26.785  1.00  0.00     0.004 C 
ENDBRANCH  31  32
ENDBRANCH  30  31
ENDBRANCH  29  30
ENDBRANCH  28  29
ENDBRANCH  27  28
ENDBRANCH  26  27
ENDBRANCH  23  26
ENDBRANCH  21  22
ENDBRANCH  16  21
ENDBRANCH   9  15
ENDBRANCH   6   8
ENDBRANCH   4   6
ENDBRANCH   3   4
ENDBRANCH   2   3
ENDBRANCH   1   2
BRANCH   1  34
ATOM     34  O   UNL A   1      36.609  30.444  29.996  1.00  0.00    -0.376 OA
BRANCH  34  35
ATOM     35  C   UNL A   1      35.837  31.029  31.037  1.00  0.00     0.188 C 
BRANCH  35  36
ATOM     36  C   UNL A   1      36.365  32.204  31.874  1.00  0.00     0.188 C 
BRANCH  36  37
ATOM     37  O   UNL A   1      37.769  32.295  31.973  1.00  0.00    -0.377 OA
BRANCH  37  38
ATOM     38  C   UNL A   1      38.326  32.084  33.261  1.00  0.00     0.188 C 
BRANCH  38  39
ATOM     39  C   UNL A   1      37.708  30.955  34.107  1.00  0.00     0.188 C 
BRANCH  39  40
ATOM     40  O   UNL A   1      38.307  29.676  33.902  1.00  0.00    -0.376 OA
BRANCH  40  41
ATOM     41  C   UNL A   1      37.917  28.931  32.754  1.00  0.00     0.202 C 
BRANCH  41  42
ATOM     42  C   UNL A   1      38.687  27.636  32.444  1.00  0.00     0.261 C 
BRANCH  42  43
ATOM     43  O   UNL A   1      40.036  27.798  31.995  1.00  0.00    -0.460 OA
BRANCH  43  44
ATOM     44  C   UNL A   1      40.231  28.095  30.691  1.00  0.00     0.338 C 
ATOM     45  O   UNL A   1      39.740  27.528  29.739  1.00  0.00    -0.246 OA
BRANCH  44  46
ATOM     46  C   UNL A   1      40.953  29.389  30.623  1.00  0.00     0.060 A 
ATOM     47  C   UNL A   1      42.276  29.438  31.080  1.00  0.00     0.016 A 
ATOM     48  C   UNL A   1      40.331  30.544  30.145  1.00  0.00     0.016 A 
ATOM     49  C   UNL A   1      42.955  30.654  31.130  1.00  0.00     0.010 A 
ATOM     50  C   UNL A   1      41.003  31.769  30.217  1.00  0.00     0.010 A 
ATOM     51  C   UNL A   1      42.298  31.836  30.763  1.00  0.00    -0.014 A 
BRANCH  51  52
ATOM     52  C   UNL A   1      42.859  33.135  31.219  1.00  0.00     0.031 A 
ATOM     53  C   UNL A   1      42.535  33.583  32.622  1.00  0.00     0.074 A 
ATOM     54  C   UNL A   1      43.686  33.863  30.449  1.00  0.00     0.049 A 
ATOM     55  N   UNL A   1      42.898  34.666  33.259  1.00  0.00    -0.248 NA
ATOM     56  C   UNL A   1      41.682  32.679  33.411  1.00  0.00     0.031 C 
ATOM     57  C   UNL A   1      44.120  33.505  29.101  1.00  0.00     0.029 A 
ATOM     58  N   UNL A   1      44.315  35.058  30.700  1.00  0.00    -0.354 N 
ATOM     59  C   UNL A   1      42.316  34.576  34.520  1.00  0.00     0.074 A 
ATOM     60  C   UNL A   1      41.538  33.357  34.538  1.00  0.00     0.031 C 
ATOM     61  C   UNL A   1      44.944  34.465  28.640  1.00  0.00     0.029 A 
ATOM     62  C   UNL A   1      45.067  35.520  29.645  1.00  0.00     0.049 A 
ATOM     63  H   UNL A   1      44.235  35.539  31.554  1.00  0.00     0.167 HD
ATOM     64  C   UNL A   1      42.428  35.424  35.571  1.00  0.00     0.034 A 
ATOM     65  C   UNL A   1      45.757  36.671  29.504  1.00  0.00     0.034 A 
ATOM     66  C   UNL A   1      43.193  36.646  35.532  1.00  0.00     0.049 A 
ATOM     67  C   UNL A   1      45.796  37.648  30.658  1.00  0.00     0.074 A 
ATOM     68  C   UNL A   1      43.371  37.585  36.533  1.00  0.00     0.029 A 
ATOM     69  N   UNL A   1      43.900  37.107  34.428  1.00  0.00    -0.354 N 
ATOM     70  N   UNL A   1      45.237  37.556  31.844  1.00  0.00    -0.248 NA
ATOM     71  C   UNL A   1      46.574  38.877  30.457  1.00  0.00     0.031 C 
ATOM     72  C   UNL A   1      44.114  38.649  36.010  1.00  0.00     0.029 A 
ATOM     73  C   UNL A   1      44.488  38.330  34.714  1.00  0.00     0.049 A 
ATOM     74  H   UNL A   1      43.972  36.635  33.567  1.00  0.00     0.167 HD
ATOM     75  C   UNL A   1      45.638  38.694  32.544  1.00  0.00     0.074 A 
ATOM     76  C   UNL A   1      46.492  39.447  31.649  1.00  0.00     0.031 C 
ATOM     77  C   UNL A   1      45.336  39.077  33.813  1.00  0.00     0.034 A 
BRANCH  64  78
ATOM     78  C   UNL A   1      41.649  35.082  36.822  1.00  0.00     0.023 A 
ATOM     79  C   UNL A   1      42.158  34.211  37.802  1.00  0.00     0.031 A 
ATOM     80  C   UNL A   1      40.355  35.599  37.012  1.00  0.00     0.131 A 
ATOM     81  C   UNL A   1      41.350  33.821  38.881  1.00  0.00     0.055 A 
ATOM     82  C   UNL A   1      39.591  35.279  38.136  1.00  0.00     0.041 A 
ATOM     83  F   UNL A   1      39.802  36.412  36.099  1.00  0.00    -0.206 F 
ATOM     84  C   UNL A   1      40.080  34.372  39.070  1.00  0.00     0.022 A 
BRANCH  81  85
ATOM     85  S   UNL A   1      41.913  32.462  39.943  1.00  0.00     0.124 S 
ATOM     86  O   UNL A   1      40.662  32.038  40.567  1.00  0.00    -0.237 OA
ATOM     87  O   UNL A   1      42.497  31.532  38.983  1.00  0.00    -0.237 OA
ATOM     88  O   UNL A   1      42.864  33.105  40.848  1.00  0.00    -0.744 OA
ENDBRANCH  81  85
ENDBRANCH  64  78
BRANCH  65  89
ATOM     89  C   UNL A   1      46.446  36.991  28.218  1.00  0.00     0.023 A 
ATOM     90  C   UNL A   1      47.783  36.623  27.991  1.00  0.00     0.031 A 
ATOM     91  C   UNL A   1      45.792  37.735  27.220  1.00  0.00     0.131 A 
ATOM     92  C   UNL A   1      48.438  37.045  26.823  1.00  0.00     0.055 A 
ATOM     93  C   UNL A   1      46.429  38.101  26.032  1.00  0.00     0.041 A 
ATOM     94  F   UNL A   1      44.517  38.121  27.385  1.00  0.00    -0.206 F 
ATOM     95  C   UNL A   1      47.765  37.768  25.835  1.00  0.00     0.022 A 
BRANCH  92  96
ATOM     96  S   UNL A   1      50.215  36.719  26.653  1.00  0.00     0.124 S 
ATOM     97  O   UNL A   1      50.759  38.072  26.605  1.00  0.00    -0.237 OA
ATOM     98  O   UNL A   1      50.499  35.955  27.863  1.00  0.00    -0.237 OA
ATOM     99  O   UNL A   1      50.305  35.964  25.406  1.00  0.00    -0.744 OA
ENDBRANCH  92  96
ENDBRANCH  65  89
BRANCH  77 100
ATOM    100  C   UNL A   1      45.997  40.336  34.331  1.00  0.00     0.023 A 
ATOM    101  C   UNL A   1      45.376  41.596  34.255  1.00  0.00     0.031 A 
ATOM    102  C   UNL A   1      47.290  40.274  34.885  1.00  0.00     0.131 A 
ATOM    103  C   UNL A   1      46.078  42.746  34.645  1.00  0.00     0.055 A 
ATOM    104  C   UNL A   1      47.951  41.413  35.346  1.00  0.00     0.041 A 
ATOM    105  F   UNL A   1      47.937  39.101  34.983  1.00  0.00    -0.206 F 
ATOM    106  C   UNL A   1      47.353  42.662  35.209  1.00  0.00     0.022 A 
BRANCH 103 107
ATOM    107  S   UNL A   1      45.359  44.371  34.277  1.00  0.00     0.124 S 
ATOM    108  O   UNL A   1      46.118  45.247  35.164  1.00  0.00    -0.237 OA
ATOM    109  O   UNL A   1      45.631  44.516  32.851  1.00  0.00    -0.237 OA
ATOM    110  O   UNL A   1      43.949  44.209  34.626  1.00  0.00    -0.744 OA
ENDBRANCH 103 107
ENDBRANCH  77 100
ENDBRANCH  51  52
ENDBRANCH  44  46
ENDBRANCH  43  44
ENDBRANCH  42  43
ENDBRANCH  41  42
ENDBRANCH  40  41
ENDBRANCH  39  40
ENDBRANCH  38  39
ENDBRANCH  37  38
ENDBRANCH  36  37
ENDBRANCH  35  36
ENDBRANCH  34  35
ENDBRANCH   1  34
TORSDOF 34
ENDMDL
MODEL 3
REMARK VINA RESULT:      -6.6      3.605      5.418
REMARK SMILES CCCCCCCCNC(=O)Oc1cccc(-c2ccc([C@@H](C)C(=O)OCCOCCOCCOCCOC(=O)c3ccc(-c4c5nc(c(-c6cc(S(=O)(=O)[O-])ccc6F)c6ccc([nH]6)c(-c6cc(S(=O)(=O)[O-])ccc6F)c6nc(c(-c7cc(S(=O)(=O)[O-])ccc7F)c7ccc4[nH]7)C=C6)C=C5)cc3)cc2F)c1
REMARK SMILES IDX 28 1 27 2 26 3 24 4 25 5 22 6 23 7 21 8 18 9 19 10 105 11
REMARK SMILES IDX 20 12 104 13 106 14 17 15 13 16 14 17 107 18 15 19 16 20
REMARK SMILES IDX 12 21 10 22 9 23 11 25 8 26 7 27 6 28 5 29 4 30 3 31 2 32
REMARK SMILES IDX 1 33 29 34 30 35 31 36 32 37 33 38 34 39 35 40 36 41 37 42
REMARK SMILES IDX 38 43 39 44 40 45 41 46 42 47 103 48 43 49 102 50 44 51
REMARK SMILES IDX 45 52 46 53 96 54 47 55 101 56 95 57 97 58 48 59 100 60
REMARK SMILES IDX 94 61 93 62 49 64 81 65 61 66 80 67 62 68 65 69 79 70 98 71
REMARK SMILES IDX 63 72 64 73 78 75 99 76 66 77 50 78 51 79 59 80 52 81 58 82
REMARK SMILES IDX 60 83 57 84 53 85 54 86 55 87 56 88 82 89 83 90 91 91 84 92
REMARK SMILES IDX 90 93 92 94 89 95 85 96 86 97 87 98 88 99 67 100 68 101
REMARK SMILES IDX 76 102 69 103 75 104 77 105 74 106 70 107 71 108 72 109
REMARK SMILES IDX 73 110
REMARK H PARENT 9 24 97 63 65 74
REMARK Flexibility Score: inf
ROOT
ATOM      1  C   UNL A   1      36.103  29.788  28.863  1.00  0.00     0.202 C 
ENDROOT
BRANCH   1   2
ATOM      2  C   UNL A   1      35.947  30.673  27.611  1.00  0.00     0.261 C 
BRANCH   2   3
ATOM      3  O   UNL A   1      35.513  32.034  27.823  1.00  0.00    -0.463 OA
BRANCH   3   4
ATOM      4  C   UNL A   1      34.202  32.211  28.101  1.00  0.00     0.313 C 
ATOM      5  O   UNL A   1      33.785  32.592  29.195  1.00  0.00    -0.252 OA
BRANCH   4   6
ATOM      6  C   UNL A   1      33.226  31.875  26.973  1.00  0.00     0.126 C 
ATOM      7  C   UNL A   1      31.962  32.706  27.165  1.00  0.00     0.025 C 
BRANCH   6   8
ATOM      8  C   UNL A   1      32.885  30.429  26.614  1.00  0.00    -0.031 A 
ATOM      9  C   UNL A   1      32.175  27.698  26.059  1.00  0.00     0.018 A 
ATOM     10  C   UNL A   1      32.729  28.536  25.072  1.00  0.00     0.012 A 
ATOM     11  C   UNL A   1      31.985  28.261  27.324  1.00  0.00     0.131 A 
ATOM     12  C   UNL A   1      33.081  29.875  25.343  1.00  0.00     0.005 A 
ATOM     13  C   UNL A   1      32.342  29.586  27.606  1.00  0.00     0.044 A 
ATOM     14  F   UNL A   1      31.458  27.528  28.319  1.00  0.00    -0.206 F 
BRANCH   9  15
ATOM     15  C   UNL A   1      31.851  26.284  25.775  1.00  0.00    -0.012 A 
ATOM     16  C   UNL A   1      32.423  24.083  24.903  1.00  0.00     0.133 A 
ATOM     17  C   UNL A   1      31.162  23.590  25.229  1.00  0.00     0.047 A 
ATOM     18  C   UNL A   1      32.769  25.418  25.153  1.00  0.00     0.056 A 
ATOM     19  C   UNL A   1      30.241  24.437  25.837  1.00  0.00     0.004 A 
ATOM     20  C   UNL A   1      30.584  25.768  26.108  1.00  0.00     0.009 A 
BRANCH  16  21
ATOM     21  O   UNL A   1      33.291  23.216  24.218  1.00  0.00    -0.410 OA
BRANCH  21  22
ATOM     22  C   UNL A   1      32.703  22.100  23.643  1.00  0.00     0.412 C 
ATOM     23  N   UNL A   1      33.289  20.920  24.008  1.00  0.00    -0.321 N 
ATOM     24  H   UNL A   1      32.865  20.099  23.669  1.00  0.00     0.167 HD
ATOM     25  O   UNL A   1      31.751  22.108  22.873  1.00  0.00    -0.224 OA
BRANCH  23  26
ATOM     26  C   UNL A   1      34.463  20.743  24.836  1.00  0.00     0.119 C 
BRANCH  26  27
ATOM     27  C   UNL A   1      34.254  21.282  26.253  1.00  0.00     0.021 C 
BRANCH  27  28
ATOM     28  C   UNL A   1      35.266  22.349  26.692  1.00  0.00     0.002 C 
BRANCH  28  29
ATOM     29  C   UNL A   1      36.014  23.053  25.555  1.00  0.00     0.000 C 
BRANCH  29  30
ATOM     30  C   UNL A   1      37.529  22.829  25.538  1.00  0.00    -0.000 C 
BRANCH  30  31
ATOM     31  C   UNL A   1      38.348  23.869  26.309  1.00  0.00    -0.000 C 
BRANCH  31  32
ATOM     32  C   UNL A   1      39.499  23.305  27.148  1.00  0.00    -0.003 C 
ATOM     33  C   UNL A   1      40.196  22.120  26.496  1.00  0.00     0.004 C 
ENDBRANCH  31  32
ENDBRANCH  30  31
ENDBRANCH  29  30
ENDBRANCH  28  29
ENDBRANCH  27  28
ENDBRANCH  26  27
ENDBRANCH  23  26
ENDBRANCH  21  22
ENDBRANCH  16  21
ENDBRANCH   9  15
ENDBRANCH   6   8
ENDBRANCH   4   6
ENDBRANCH   3   4
ENDBRANCH   2   3
ENDBRANCH   1   2
BRANCH   1  34
ATOM     34  O   UNL A   1      36.766  30.290  30.014  1.00  0.00    -0.376 OA
BRANCH  34  35
ATOM     35  C   UNL A   1      36.026  30.723  31.148  1.00  0.00     0.188 C 
BRANCH  35  36
ATOM     36  C   UNL A   1      36.469  31.927  31.993  1.00  0.00     0.188 C 
BRANCH  36  37
ATOM     37  O   UNL A   1      37.862  32.144  32.055  1.00  0.00    -0.377 OA
BRANCH  37  38
ATOM     38  C   UNL A   1      38.460  32.039  33.338  1.00  0.00     0.188 C 
BRANCH  38  39
ATOM     39  C   UNL A   1      38.028  30.845  34.209  1.00  0.00     0.188 C 
BRANCH  39  40
ATOM     40  O   UNL A   1      38.886  29.710  34.111  1.00  0.00    -0.376 OA
BRANCH  40  41
ATOM     41  C   UNL A   1      39.038  29.093  32.838  1.00  0.00     0.202 C 
BRANCH  41  42
ATOM     42  C   UNL A   1      40.076  27.966  32.704  1.00  0.00     0.261 C 
BRANCH  42  43
ATOM     43  O   UNL A   1      41.427  28.314  33.025  1.00  0.00    -0.460 OA
BRANCH  43  44
ATOM     44  C   UNL A   1      42.115  29.048  32.123  1.00  0.00     0.338 C 
ATOM     45  O   UNL A   1      42.265  28.794  30.948  1.00  0.00    -0.246 OA
BRANCH  44  46
ATOM     46  C   UNL A   1      42.451  30.346  32.757  1.00  0.00     0.060 A 
ATOM     47  C   UNL A   1      43.371  30.353  33.814  1.00  0.00     0.016 A 
ATOM     48  C   UNL A   1      41.851  31.536  32.339  1.00  0.00     0.016 A 
ATOM     49  C   UNL A   1      43.637  31.536  34.503  1.00  0.00     0.010 A 
ATOM     50  C   UNL A   1      42.098  32.718  33.046  1.00  0.00     0.010 A 
ATOM     51  C   UNL A   1      42.949  32.709  34.167  1.00  0.00    -0.014 A 
BRANCH  51  52
ATOM     52  C   UNL A   1      42.909  33.820  35.153  1.00  0.00     0.031 A 
ATOM     53  C   UNL A   1      41.978  33.679  36.330  1.00  0.00     0.074 A 
ATOM     54  C   UNL A   1      43.722  34.887  35.056  1.00  0.00     0.049 A 
ATOM     55  N   UNL A   1      41.757  34.498  37.326  1.00  0.00    -0.248 NA
ATOM     56  C   UNL A   1      41.186  32.439  36.384  1.00  0.00     0.031 C 
ATOM     57  C   UNL A   1      44.706  35.108  33.999  1.00  0.00     0.029 A 
ATOM     58  N   UNL A   1      43.848  35.987  35.869  1.00  0.00    -0.354 N 
ATOM     59  C   UNL A   1      40.801  33.875  38.122  1.00  0.00     0.074 A 
ATOM     60  C   UNL A   1      40.450  32.635  37.466  1.00  0.00     0.031 C 
ATOM     61  C   UNL A   1      45.334  36.276  34.227  1.00  0.00     0.029 A 
ATOM     62  C   UNL A   1      44.774  36.902  35.424  1.00  0.00     0.049 A 
ATOM     63  H   UNL A   1      43.325  36.109  36.694  1.00  0.00     0.167 HD
ATOM     64  C   UNL A   1      40.271  34.291  39.299  1.00  0.00     0.034 A 
ATOM     65  C   UNL A   1      45.112  38.111  35.918  1.00  0.00     0.034 A 
ATOM     66  C   UNL A   1      40.619  35.540  39.932  1.00  0.00     0.049 A 
ATOM     67  C   UNL A   1      44.443  38.599  37.184  1.00  0.00     0.074 A 
ATOM     68  C   UNL A   1      40.140  36.068  41.118  1.00  0.00     0.029 A 
ATOM     69  N   UNL A   1      41.523  36.465  39.423  1.00  0.00    -0.354 N 
ATOM     70  N   UNL A   1      43.536  38.005  37.926  1.00  0.00    -0.248 NA
ATOM     71  C   UNL A   1      44.859  39.915  37.685  1.00  0.00     0.031 C 
ATOM     72  C   UNL A   1      40.691  37.344  41.285  1.00  0.00     0.029 A 
ATOM     73  C   UNL A   1      41.592  37.572  40.257  1.00  0.00     0.049 A 
ATOM     74  H   UNL A   1      42.038  36.352  38.592  1.00  0.00     0.167 HD
ATOM     75  C   UNL A   1      43.310  38.857  39.007  1.00  0.00     0.074 A 
ATOM     76  C   UNL A   1      44.185  39.997  38.822  1.00  0.00     0.031 C 
ATOM     77  C   UNL A   1      42.465  38.707  40.061  1.00  0.00     0.034 A 
BRANCH  64  78
ATOM     78  C   UNL A   1      39.216  33.413  39.931  1.00  0.00     0.023 A 
ATOM     79  C   UNL A   1      39.500  32.580  41.029  1.00  0.00     0.031 A 
ATOM     80  C   UNL A   1      37.916  33.372  39.397  1.00  0.00     0.131 A 
ATOM     81  C   UNL A   1      38.526  31.687  41.502  1.00  0.00     0.055 A 
ATOM     82  C   UNL A   1      36.924  32.548  39.931  1.00  0.00     0.041 A 
ATOM     83  F   UNL A   1      37.591  34.121  38.331  1.00  0.00    -0.206 F 
ATOM     84  C   UNL A   1      37.231  31.686  40.979  1.00  0.00     0.022 A 
BRANCH  81  85
ATOM     85  S   UNL A   1      39.019  30.413  42.697  1.00  0.00     0.124 S 
ATOM     86  O   UNL A   1      40.426  30.220  42.356  1.00  0.00    -0.237 OA
ATOM     87  O   UNL A   1      38.753  31.061  43.976  1.00  0.00    -0.237 OA
ATOM     88  O   UNL A   1      38.148  29.285  42.374  1.00  0.00    -0.744 OA
ENDBRANCH  81  85
ENDBRANCH  64  78
BRANCH  65  89
ATOM     89  C   UNL A   1      46.107  38.970  35.208  1.00  0.00     0.023 A 
ATOM     90  C   UNL A   1      47.478  38.905  35.509  1.00  0.00     0.031 A 
ATOM     91  C   UNL A   1      45.688  39.922  34.262  1.00  0.00     0.131 A 
ATOM     92  C   UNL A   1      48.370  39.810  34.913  1.00  0.00     0.055 A 
ATOM     93  C   UNL A   1      46.588  40.780  33.626  1.00  0.00     0.041 A 
ATOM     94  F   UNL A   1      44.389  40.034  33.940  1.00  0.00    -0.206 F 
ATOM     95  C   UNL A   1      47.937  40.737  33.962  1.00  0.00     0.022 A 
BRANCH  92  96
ATOM     96  S   UNL A   1      50.097  39.827  35.470  1.00  0.00     0.124 S 
ATOM     97  O   UNL A   1      50.762  40.483  34.350  1.00  0.00    -0.237 OA
ATOM     98  O   UNL A   1      50.009  40.597  36.705  1.00  0.00    -0.237 OA
ATOM     99  O   UNL A   1      50.413  38.411  35.642  1.00  0.00    -0.744 OA
ENDBRANCH  92  96
ENDBRANCH  65  89
BRANCH  77 100
ATOM    100  C   UNL A   1      42.503  39.774  41.135  1.00  0.00     0.023 A 
ATOM    101  C   UNL A   1      41.649  40.891  41.113  1.00  0.00     0.031 A 
ATOM    102  C   UNL A   1      43.438  39.681  42.184  1.00  0.00     0.131 A 
ATOM    103  C   UNL A   1      41.802  41.907  42.069  1.00  0.00     0.055 A 
ATOM    104  C   UNL A   1      43.530  40.656  43.178  1.00  0.00     0.041 A 
ATOM    105  F   UNL A   1      44.282  38.640  42.258  1.00  0.00    -0.206 F 
ATOM    106  C   UNL A   1      42.723  41.788  43.113  1.00  0.00     0.022 A 
BRANCH 103 107
ATOM    107  S   UNL A   1      40.879  43.453  41.850  1.00  0.00     0.124 S 
ATOM    108  O   UNL A   1      41.008  44.072  43.166  1.00  0.00    -0.237 OA
ATOM    109  O   UNL A   1      41.610  44.102  40.766  1.00  0.00    -0.237 OA
ATOM    110  O   UNL A   1      39.532  43.003  41.507  1.00  0.00    -0.744 OA
ENDBRANCH 103 107
ENDBRANCH  77 100
ENDBRANCH  51  52
ENDBRANCH  44  46
ENDBRANCH  43  44
ENDBRANCH  42  43
ENDBRANCH  41  42
ENDBRANCH  40  41
ENDBRANCH  39  40
ENDBRANCH  38  39
ENDBRANCH  37  38
ENDBRANCH  36  37
ENDBRANCH  35  36
ENDBRANCH  34  35
ENDBRANCH   1  34
TORSDOF 34
ENDMDL
