MODEL 1
REMARK VINA RESULT:     -10.3      0.000      0.000
REMARK SMILES Nc1c(Cl)ccc2c1C=C(C(=O)OCCOCCOCCOCCOC(=O)c1ccc(-c3c4nc(c(-c5cc(S(=O)(=O)[O-])ccc5F)c5ccc([nH]5)c(-c5cc(S(=O)(=O)[O-])ccc5F)c5nc(c(-c6cc(S(=O)(=O)[O-])ccc6F)c6ccc3[nH]6)C=C5)C=C4)cc1)[C@@H](C(F)(F)F)O2
REMARK SMILES IDX 20 1 19 2 18 3 17 4 16 5 15 6 14 7 13 8 11 9 12 10 10 11
REMARK SMILES IDX 2 12 3 13 8 14 4 15 5 16 7 17 9 18 6 19 96 20 91 21 1 22
REMARK SMILES IDX 92 25 93 26 94 27 95 28 21 29 22 30 23 31 24 32 25 33 26 34
REMARK SMILES IDX 27 35 28 36 29 37 90 38 30 39 89 40 31 41 32 42 33 43 83 44
REMARK SMILES IDX 34 45 88 46 82 47 84 48 35 49 87 50 81 51 80 52 36 54 68 55
REMARK SMILES IDX 48 56 67 57 49 58 52 59 66 60 85 61 50 62 51 63 65 65 86 66
REMARK SMILES IDX 53 67 37 68 38 69 46 70 39 71 45 72 47 73 44 74 40 75 41 76
REMARK SMILES IDX 42 77 43 78 69 79 70 80 78 81 71 82 77 83 79 84 76 85 72 86
REMARK SMILES IDX 73 87 74 88 75 89 54 90 55 91 63 92 56 93 62 94 64 95 61 96
REMARK SMILES IDX 57 97 58 98 59 99 60 100
REMARK H PARENT 1 23 1 24 84 53 52 64
REMARK Flexibility Score: inf
ROOT
ATOM      1  C   UNL A   1      40.803  21.479  27.521  1.00  0.00     0.188 C 
ENDROOT
BRANCH   1   2
ATOM      2  O   UNL A   1      39.816  22.478  27.260  1.00  0.00    -0.377 OA
BRANCH   2   3
ATOM      3  C   UNL A   1      38.910  22.247  26.195  1.00  0.00     0.188 C 
BRANCH   3   4
ATOM      4  C   UNL A   1      38.040  23.478  25.878  1.00  0.00     0.188 C 
BRANCH   4   5
ATOM      5  O   UNL A   1      36.855  23.168  25.165  1.00  0.00    -0.376 OA
BRANCH   5   6
ATOM      6  C   UNL A   1      35.815  24.122  25.011  1.00  0.00     0.202 C 
BRANCH   6   7
ATOM      7  C   UNL A   1      34.637  24.304  25.988  1.00  0.00     0.261 C 
BRANCH   7   8
ATOM      8  O   UNL A   1      33.731  23.211  26.143  1.00  0.00    -0.460 OA
BRANCH   8   9
ATOM      9  C   UNL A   1      32.566  23.253  25.477  1.00  0.00     0.338 C 
ATOM     10  O   UNL A   1      31.791  24.192  25.413  1.00  0.00    -0.246 OA
BRANCH   9  11
ATOM     11  C   UNL A   1      32.483  22.022  24.658  1.00  0.00     0.088 C 
ATOM     12  C   UNL A   1      32.673  18.350  25.168  1.00  0.00     0.061 A 
ATOM     13  C   UNL A   1      32.834  17.221  24.336  1.00  0.00     0.064 A 
ATOM     14  C   UNL A   1      32.538  19.615  24.552  1.00  0.00     0.042 A 
ATOM     15  Cl  UNL A   1      33.149  15.660  25.018  1.00  0.00    -0.082 Cl
ATOM     16  C   UNL A   1      32.736  17.322  22.948  1.00  0.00     0.026 A 
ATOM     17  C   UNL A   1      32.381  19.700  23.162  1.00  0.00     0.130 A 
ATOM     18  C   UNL A   1      32.629  20.860  25.308  1.00  0.00     0.029 C 
ATOM     19  C   UNL A   1      32.472  18.557  22.365  1.00  0.00     0.049 A 
ATOM     20  O   UNL A   1      32.150  20.860  22.481  1.00  0.00    -0.475 OA
ATOM     21  C   UNL A   1      32.163  22.128  23.190  1.00  0.00     0.316 C 
BRANCH  12  22
ATOM     22  N   UNL A   1      32.772  18.218  26.561  1.00  0.00    -0.397 N 
ATOM     23  H   UNL A   1      32.502  18.962  27.147  1.00  0.00     0.156 HD
ATOM     24  H   UNL A   1      33.112  17.382  26.954  1.00  0.00     0.156 HD
ENDBRANCH  12  22
BRANCH  21  25
ATOM     25  C   UNL A   1      33.134  23.065  22.458  1.00  0.00     0.430 C 
ATOM     26  F   UNL A   1      32.861  24.363  22.721  1.00  0.00    -0.167 F 
ATOM     27  F   UNL A   1      34.419  22.844  22.816  1.00  0.00    -0.167 F 
ATOM     28  F   UNL A   1      33.057  22.898  21.115  1.00  0.00    -0.167 F 
ENDBRANCH  21  25
ENDBRANCH   9  11
ENDBRANCH   8   9
ENDBRANCH   7   8
ENDBRANCH   6   7
ENDBRANCH   5   6
ENDBRANCH   4   5
ENDBRANCH   3   4
ENDBRANCH   2   3
ENDBRANCH   1   2
BRANCH   1  29
ATOM     29  C   UNL A   1      40.802  20.123  26.775  1.00  0.00     0.188 C 
BRANCH  29  30
ATOM     30  O   UNL A   1      41.483  19.077  27.461  1.00  0.00    -0.376 OA
BRANCH  30  31
ATOM     31  C   UNL A   1      42.647  18.542  26.851  1.00  0.00     0.202 C 
BRANCH  31  32
ATOM     32  C   UNL A   1      43.007  19.118  25.476  1.00  0.00     0.261 C 
BRANCH  32  33
ATOM     33  O   UNL A   1      44.354  18.895  25.036  1.00  0.00    -0.460 OA
BRANCH  33  34
ATOM     34  C   UNL A   1      44.868  19.749  24.124  1.00  0.00     0.338 C 
ATOM     35  O   UNL A   1      45.228  19.485  22.989  1.00  0.00    -0.246 OA
BRANCH  34  36
ATOM     36  C   UNL A   1      44.738  21.107  24.684  1.00  0.00     0.060 A 
ATOM     37  C   UNL A   1      44.344  22.162  23.849  1.00  0.00     0.016 A 
ATOM     38  C   UNL A   1      44.986  21.327  26.041  1.00  0.00     0.016 A 
ATOM     39  C   UNL A   1      44.216  23.450  24.370  1.00  0.00     0.010 A 
ATOM     40  C   UNL A   1      44.893  22.623  26.552  1.00  0.00     0.010 A 
ATOM     41  C   UNL A   1      44.541  23.692  25.711  1.00  0.00    -0.014 A 
BRANCH  41  42
ATOM     42  C   UNL A   1      44.762  25.083  26.165  1.00  0.00     0.031 A 
ATOM     43  C   UNL A   1      46.166  25.617  26.110  1.00  0.00     0.074 A 
ATOM     44  C   UNL A   1      43.755  25.855  26.610  1.00  0.00     0.049 A 
ATOM     45  N   UNL A   1      46.620  26.786  26.473  1.00  0.00    -0.248 NA
ATOM     46  C   UNL A   1      47.196  24.710  25.571  1.00  0.00     0.031 C 
ATOM     47  C   UNL A   1      42.352  25.457  26.675  1.00  0.00     0.029 A 
ATOM     48  N   UNL A   1      43.769  27.136  27.103  1.00  0.00    -0.354 N 
ATOM     49  C   UNL A   1      47.983  26.757  26.203  1.00  0.00     0.074 A 
ATOM     50  C   UNL A   1      48.290  25.449  25.676  1.00  0.00     0.031 C 
ATOM     51  C   UNL A   1      41.638  26.470  27.196  1.00  0.00     0.029 A 
ATOM     52  C   UNL A   1      42.538  27.577  27.529  1.00  0.00     0.049 A 
ATOM     53  H   UNL A   1      44.583  27.688  27.147  1.00  0.00     0.167 HD
ATOM     54  C   UNL A   1      48.895  27.740  26.373  1.00  0.00     0.034 A 
ATOM     55  C   UNL A   1      42.183  28.732  28.132  1.00  0.00     0.034 A 
ATOM     56  C   UNL A   1      48.584  29.035  26.912  1.00  0.00     0.049 A 
ATOM     57  C   UNL A   1      43.232  29.792  28.374  1.00  0.00     0.074 A 
ATOM     58  C   UNL A   1      49.443  30.101  27.109  1.00  0.00     0.029 A 
ATOM     59  N   UNL A   1      47.331  29.439  27.343  1.00  0.00    -0.354 N 
ATOM     60  N   UNL A   1      44.508  29.775  28.063  1.00  0.00    -0.248 NA
ATOM     61  C   UNL A   1      42.799  31.030  29.038  1.00  0.00     0.031 C 
ATOM     62  C   UNL A   1      48.722  31.129  27.716  1.00  0.00     0.029 A 
ATOM     63  C   UNL A   1      47.398  30.733  27.828  1.00  0.00     0.049 A 
ATOM     64  H   UNL A   1      46.516  28.888  27.309  1.00  0.00     0.167 HD
ATOM     65  C   UNL A   1      45.017  31.010  28.458  1.00  0.00     0.074 A 
ATOM     66  C   UNL A   1      43.913  31.754  29.024  1.00  0.00     0.031 C 
ATOM     67  C   UNL A   1      46.286  31.482  28.358  1.00  0.00     0.034 A 
BRANCH  54  68
ATOM     68  C   UNL A   1      50.320  27.472  25.978  1.00  0.00     0.023 A 
ATOM     69  C   UNL A   1      50.706  27.592  24.632  1.00  0.00     0.031 A 
ATOM     70  C   UNL A   1      51.253  26.975  26.903  1.00  0.00     0.131 A 
ATOM     71  C   UNL A   1      51.980  27.172  24.238  1.00  0.00     0.055 A 
ATOM     72  C   UNL A   1      52.537  26.595  26.511  1.00  0.00     0.041 A 
ATOM     73  F   UNL A   1      50.930  26.857  28.201  1.00  0.00    -0.206 F 
ATOM     74  C   UNL A   1      52.900  26.679  25.170  1.00  0.00     0.022 A 
BRANCH  71  75
ATOM     75  S   UNL A   1      52.473  27.205  22.493  1.00  0.00     0.124 S 
ATOM     76  O   UNL A   1      52.854  28.605  22.313  1.00  0.00    -0.237 OA
ATOM     77  O   UNL A   1      53.575  26.250  22.473  1.00  0.00    -0.237 OA
ATOM     78  O   UNL A   1      51.266  26.798  21.781  1.00  0.00    -0.744 OA
ENDBRANCH  71  75
ENDBRANCH  54  68
BRANCH  55  79
ATOM     79  C   UNL A   1      40.760  28.948  28.515  1.00  0.00     0.023 A 
ATOM     80  C   UNL A   1      40.349  28.846  29.856  1.00  0.00     0.031 A 
ATOM     81  C   UNL A   1      39.778  29.188  27.538  1.00  0.00     0.131 A 
ATOM     82  C   UNL A   1      38.988  28.929  30.177  1.00  0.00     0.055 A 
ATOM     83  C   UNL A   1      38.429  29.330  27.870  1.00  0.00     0.041 A 
ATOM     84  F   UNL A   1      40.122  29.290  26.245  1.00  0.00    -0.206 F 
ATOM     85  C   UNL A   1      38.027  29.186  29.194  1.00  0.00     0.022 A 
BRANCH  82  86
ATOM     86  S   UNL A   1      38.412  28.619  31.868  1.00  0.00     0.124 S 
ATOM     87  O   UNL A   1      39.298  29.470  32.656  1.00  0.00    -0.237 OA
ATOM     88  O   UNL A   1      37.021  29.057  31.789  1.00  0.00    -0.237 OA
ATOM     89  O   UNL A   1      38.605  27.183  32.040  1.00  0.00    -0.744 OA
ENDBRANCH  82  86
ENDBRANCH  55  79
BRANCH  67  90
ATOM     90  C   UNL A   1      46.588  32.885  28.825  1.00  0.00     0.023 A 
ATOM     91  C   UNL A   1      46.543  33.948  27.901  1.00  0.00     0.031 A 
ATOM     92  C   UNL A   1      47.095  33.139  30.109  1.00  0.00     0.131 A 
ATOM     93  C   UNL A   1      47.046  35.204  28.258  1.00  0.00     0.055 A 
ATOM     94  C   UNL A   1      47.552  34.406  30.476  1.00  0.00     0.041 A 
ATOM     95  F   UNL A   1      47.171  32.155  31.019  1.00  0.00    -0.206 F 
ATOM     96  C   UNL A   1      47.544  35.442  29.543  1.00  0.00     0.022 A 
BRANCH  93  97
ATOM     97  S   UNL A   1      47.151  36.549  27.046  1.00  0.00     0.124 S 
ATOM     98  O   UNL A   1      46.885  35.848  25.791  1.00  0.00    -0.237 OA
ATOM     99  O   UNL A   1      46.092  37.449  27.494  1.00  0.00    -0.237 OA
ATOM    100  O   UNL A   1      48.511  37.054  27.196  1.00  0.00    -0.744 OA
ENDBRANCH  93  97
ENDBRANCH  67  90
ENDBRANCH  41  42
ENDBRANCH  34  36
ENDBRANCH  33  34
ENDBRANCH  32  33
ENDBRANCH  31  32
ENDBRANCH  30  31
ENDBRANCH  29  30
ENDBRANCH   1  29
TORSDOF 25
ENDMDL
MODEL 2
REMARK VINA RESULT:     -10.0      2.259      3.048
REMARK SMILES Nc1c(Cl)ccc2c1C=C(C(=O)OCCOCCOCCOCCOC(=O)c1ccc(-c3c4nc(c(-c5cc(S(=O)(=O)[O-])ccc5F)c5ccc([nH]5)c(-c5cc(S(=O)(=O)[O-])ccc5F)c5nc(c(-c6cc(S(=O)(=O)[O-])ccc6F)c6ccc3[nH]6)C=C5)C=C4)cc1)[C@@H](C(F)(F)F)O2
REMARK SMILES IDX 20 1 19 2 18 3 17 4 16 5 15 6 14 7 13 8 11 9 12 10 10 11
REMARK SMILES IDX 2 12 3 13 8 14 4 15 5 16 7 17 9 18 6 19 96 20 91 21 1 22
REMARK SMILES IDX 92 25 93 26 94 27 95 28 21 29 22 30 23 31 24 32 25 33 26 34
REMARK SMILES IDX 27 35 28 36 29 37 90 38 30 39 89 40 31 41 32 42 33 43 83 44
REMARK SMILES IDX 34 45 88 46 82 47 84 48 35 49 87 50 81 51 80 52 36 54 68 55
REMARK SMILES IDX 48 56 67 57 49 58 52 59 66 60 85 61 50 62 51 63 65 65 86 66
REMARK SMILES IDX 53 67 37 68 38 69 46 70 39 71 45 72 47 73 44 74 40 75 41 76
REMARK SMILES IDX 42 77 43 78 69 79 70 80 78 81 71 82 77 83 79 84 76 85 72 86
REMARK SMILES IDX 73 87 74 88 75 89 54 90 55 91 63 92 56 93 62 94 64 95 61 96
REMARK SMILES IDX 57 97 58 98 59 99 60 100
REMARK H PARENT 1 23 1 24 84 53 52 64
REMARK Flexibility Score: inf
ROOT
ATOM      1  C   UNL A   1      41.184  20.639  27.356  1.00  0.00     0.188 C 
ENDROOT
BRANCH   1   2
ATOM      2  O   UNL A   1      40.125  21.575  27.558  1.00  0.00    -0.377 OA
BRANCH   2   3
ATOM      3  C   UNL A   1      39.632  22.268  26.425  1.00  0.00     0.188 C 
BRANCH   3   4
ATOM      4  C   UNL A   1      38.451  23.198  26.764  1.00  0.00     0.188 C 
BRANCH   4   5
ATOM      5  O   UNL A   1      38.064  24.039  25.690  1.00  0.00    -0.376 OA
BRANCH   5   6
ATOM      6  C   UNL A   1      36.929  23.739  24.891  1.00  0.00     0.202 C 
BRANCH   6   7
ATOM      7  C   UNL A   1      36.555  22.332  24.385  1.00  0.00     0.261 C 
BRANCH   7   8
ATOM      8  O   UNL A   1      35.252  22.154  23.830  1.00  0.00    -0.460 OA
BRANCH   8   9
ATOM      9  C   UNL A   1      34.357  21.437  24.529  1.00  0.00     0.338 C 
ATOM     10  O   UNL A   1      34.485  20.293  24.929  1.00  0.00    -0.246 OA
BRANCH   9  11
ATOM     11  C   UNL A   1      33.261  22.357  24.911  1.00  0.00     0.088 C 
ATOM     12  C   UNL A   1      31.297  25.103  23.366  1.00  0.00     0.061 A 
ATOM     13  C   UNL A   1      30.433  26.116  23.837  1.00  0.00     0.064 A 
ATOM     14  C   UNL A   1      31.775  24.154  24.298  1.00  0.00     0.042 A 
ATOM     15  Cl  UNL A   1      29.922  27.396  22.787  1.00  0.00    -0.082 Cl
ATOM     16  C   UNL A   1      29.957  26.113  25.148  1.00  0.00     0.026 A 
ATOM     17  C   UNL A   1      31.247  24.123  25.596  1.00  0.00     0.130 A 
ATOM     18  C   UNL A   1      32.865  23.235  23.981  1.00  0.00     0.029 C 
ATOM     19  C   UNL A   1      30.337  25.094  26.015  1.00  0.00     0.049 A 
ATOM     20  O   UNL A   1      31.571  23.190  26.538  1.00  0.00    -0.475 OA
ATOM     21  C   UNL A   1      32.604  22.208  26.258  1.00  0.00     0.316 C 
BRANCH  12  22
ATOM     22  N   UNL A   1      31.757  25.128  22.041  1.00  0.00    -0.397 N 
ATOM     23  H   UNL A   1      31.374  24.512  21.375  1.00  0.00     0.156 HD
ATOM     24  H   UNL A   1      32.462  25.761  21.776  1.00  0.00     0.156 HD
ENDBRANCH  12  22
BRANCH  21  25
ATOM     25  C   UNL A   1      33.625  22.260  27.402  1.00  0.00     0.430 C 
ATOM     26  F   UNL A   1      33.062  22.703  28.548  1.00  0.00    -0.167 F 
ATOM     27  F   UNL A   1      34.160  21.045  27.661  1.00  0.00    -0.167 F 
ATOM     28  F   UNL A   1      34.651  23.095  27.105  1.00  0.00    -0.167 F 
ENDBRANCH  21  25
ENDBRANCH   9  11
ENDBRANCH   8   9
ENDBRANCH   7   8
ENDBRANCH   6   7
ENDBRANCH   5   6
ENDBRANCH   4   5
ENDBRANCH   3   4
ENDBRANCH   2   3
ENDBRANCH   1   2
BRANCH   1  29
ATOM     29  C   UNL A   1      41.553  20.125  25.942  1.00  0.00     0.188 C 
BRANCH  29  30
ATOM     30  O   UNL A   1      41.945  18.756  25.901  1.00  0.00    -0.376 OA
BRANCH  30  31
ATOM     31  C   UNL A   1      43.191  18.412  26.487  1.00  0.00     0.202 C 
BRANCH  31  32
ATOM     32  C   UNL A   1      44.377  18.303  25.520  1.00  0.00     0.261 C 
BRANCH  32  33
ATOM     33  O   UNL A   1      45.172  19.487  25.367  1.00  0.00    -0.460 OA
BRANCH  33  34
ATOM     34  C   UNL A   1      44.854  20.333  24.363  1.00  0.00     0.338 C 
ATOM     35  O   UNL A   1      44.608  20.041  23.204  1.00  0.00    -0.246 OA
BRANCH  34  36
ATOM     36  C   UNL A   1      44.668  21.667  24.964  1.00  0.00     0.060 A 
ATOM     37  C   UNL A   1      44.234  22.730  24.161  1.00  0.00     0.016 A 
ATOM     38  C   UNL A   1      44.904  21.854  26.328  1.00  0.00     0.016 A 
ATOM     39  C   UNL A   1      44.053  23.995  24.721  1.00  0.00     0.010 A 
ATOM     40  C   UNL A   1      44.757  23.129  26.879  1.00  0.00     0.010 A 
ATOM     41  C   UNL A   1      44.364  24.209  26.070  1.00  0.00    -0.014 A 
BRANCH  41  42
ATOM     42  C   UNL A   1      44.528  25.593  26.568  1.00  0.00     0.031 A 
ATOM     43  C   UNL A   1      45.907  26.190  26.519  1.00  0.00     0.074 A 
ATOM     44  C   UNL A   1      43.492  26.303  27.046  1.00  0.00     0.049 A 
ATOM     45  N   UNL A   1      46.312  27.366  26.916  1.00  0.00    -0.248 NA
ATOM     46  C   UNL A   1      46.970  25.348  25.942  1.00  0.00     0.031 C 
ATOM     47  C   UNL A   1      42.109  25.841  27.110  1.00  0.00     0.029 A 
ATOM     48  N   UNL A   1      43.454  27.568  27.582  1.00  0.00    -0.354 N 
ATOM     49  C   UNL A   1      47.672  27.406  26.635  1.00  0.00     0.074 A 
ATOM     50  C   UNL A   1      48.031  26.131  26.062  1.00  0.00     0.031 C 
ATOM     51  C   UNL A   1      41.356  26.804  27.671  1.00  0.00     0.029 A 
ATOM     52  C   UNL A   1      42.209  27.938  28.032  1.00  0.00     0.049 A 
ATOM     53  H   UNL A   1      44.243  28.153  27.637  1.00  0.00     0.167 HD
ATOM     54  C   UNL A   1      48.541  28.422  26.829  1.00  0.00     0.034 A 
ATOM     55  C   UNL A   1      41.809  29.056  28.676  1.00  0.00     0.034 A 
ATOM     56  C   UNL A   1      48.179  29.685  27.413  1.00  0.00     0.049 A 
ATOM     57  C   UNL A   1      42.813  30.154  28.944  1.00  0.00     0.074 A 
ATOM     58  C   UNL A   1      48.991  30.781  27.638  1.00  0.00     0.029 A 
ATOM     59  N   UNL A   1      46.913  30.018  27.868  1.00  0.00    -0.354 N 
ATOM     60  N   UNL A   1      44.085  30.204  28.622  1.00  0.00    -0.248 NA
ATOM     61  C   UNL A   1      42.331  31.349  29.652  1.00  0.00     0.031 C 
ATOM     62  C   UNL A   1      48.231  31.755  28.285  1.00  0.00     0.029 A 
ATOM     63  C   UNL A   1      46.928  31.297  28.395  1.00  0.00     0.049 A 
ATOM     64  H   UNL A   1      46.123  29.433  27.823  1.00  0.00     0.167 HD
ATOM     65  C   UNL A   1      44.543  31.447  29.053  1.00  0.00     0.074 A 
ATOM     66  C   UNL A   1      43.412  32.121  29.652  1.00  0.00     0.031 C 
ATOM     67  C   UNL A   1      45.788  31.978  28.958  1.00  0.00     0.034 A 
BRANCH  54  68
ATOM     68  C   UNL A   1      49.972  28.231  26.413  1.00  0.00     0.023 A 
ATOM     69  C   UNL A   1      50.353  28.481  25.084  1.00  0.00     0.031 A 
ATOM     70  C   UNL A   1      50.921  27.681  27.292  1.00  0.00     0.131 A 
ATOM     71  C   UNL A   1      51.638  28.134  24.656  1.00  0.00     0.055 A 
ATOM     72  C   UNL A   1      52.214  27.374  26.870  1.00  0.00     0.041 A 
ATOM     73  F   UNL A   1      50.603  27.439  28.574  1.00  0.00    -0.206 F 
ATOM     74  C   UNL A   1      52.573  27.587  25.542  1.00  0.00     0.022 A 
BRANCH  71  75
ATOM     75  S   UNL A   1      52.127  28.335  22.922  1.00  0.00     0.124 S 
ATOM     76  O   UNL A   1      52.614  26.997  22.588  1.00  0.00    -0.237 OA
ATOM     77  O   UNL A   1      50.867  28.716  22.294  1.00  0.00    -0.237 OA
ATOM     78  O   UNL A   1      53.154  29.371  22.965  1.00  0.00    -0.744 OA
ENDBRANCH  71  75
ENDBRANCH  54  68
BRANCH  55  79
ATOM     79  C   UNL A   1      40.381  29.196  29.078  1.00  0.00     0.023 A 
ATOM     80  C   UNL A   1      39.998  29.093  30.426  1.00  0.00     0.031 A 
ATOM     81  C   UNL A   1      39.374  29.363  28.112  1.00  0.00     0.131 A 
ATOM     82  C   UNL A   1      38.638  29.102  30.767  1.00  0.00     0.055 A 
ATOM     83  C   UNL A   1      38.023  29.432  28.464  1.00  0.00     0.041 A 
ATOM     84  F   UNL A   1      39.692  29.463  26.813  1.00  0.00    -0.206 F 
ATOM     85  C   UNL A   1      37.650  29.287  29.796  1.00  0.00     0.022 A 
BRANCH  82  86
ATOM     86  S   UNL A   1      38.107  28.788  32.472  1.00  0.00     0.124 S 
ATOM     87  O   UNL A   1      36.703  29.188  32.435  1.00  0.00    -0.237 OA
ATOM     88  O   UNL A   1      38.351  27.354  32.595  1.00  0.00    -0.237 OA
ATOM     89  O   UNL A   1      38.981  29.641  33.269  1.00  0.00    -0.744 OA
ENDBRANCH  82  86
ENDBRANCH  55  79
BRANCH  67  90
ATOM     90  C   UNL A   1      46.032  33.377  29.469  1.00  0.00     0.023 A 
ATOM     91  C   UNL A   1      45.996  34.460  28.568  1.00  0.00     0.031 A 
ATOM     92  C   UNL A   1      46.480  33.614  30.778  1.00  0.00     0.131 A 
ATOM     93  C   UNL A   1      46.450  35.720  28.974  1.00  0.00     0.055 A 
ATOM     94  C   UNL A   1      46.887  34.884  31.192  1.00  0.00     0.041 A 
ATOM     95  F   UNL A   1      46.545  32.612  31.668  1.00  0.00    -0.206 F 
ATOM     96  C   UNL A   1      46.888  35.940  30.283  1.00  0.00     0.022 A 
BRANCH  93  97
ATOM     97  S   UNL A   1      46.567  37.096  27.797  1.00  0.00     0.124 S 
ATOM     98  O   UNL A   1      47.965  37.018  27.377  1.00  0.00    -0.237 OA
ATOM     99  O   UNL A   1      45.588  36.715  26.782  1.00  0.00    -0.237 OA
ATOM    100  O   UNL A   1      46.225  38.270  28.592  1.00  0.00    -0.744 OA
ENDBRANCH  93  97
ENDBRANCH  67  90
ENDBRANCH  41  42
ENDBRANCH  34  36
ENDBRANCH  33  34
ENDBRANCH  32  33
ENDBRANCH  31  32
ENDBRANCH  30  31
ENDBRANCH  29  30
ENDBRANCH   1  29
TORSDOF 25
ENDMDL
MODEL 3
REMARK VINA RESULT:      -9.9      2.844      3.772
REMARK SMILES Nc1c(Cl)ccc2c1C=C(C(=O)OCCOCCOCCOCCOC(=O)c1ccc(-c3c4nc(c(-c5cc(S(=O)(=O)[O-])ccc5F)c5ccc([nH]5)c(-c5cc(S(=O)(=O)[O-])ccc5F)c5nc(c(-c6cc(S(=O)(=O)[O-])ccc6F)c6ccc3[nH]6)C=C5)C=C4)cc1)[C@@H](C(F)(F)F)O2
REMARK SMILES IDX 20 1 19 2 18 3 17 4 16 5 15 6 14 7 13 8 11 9 12 10 10 11
REMARK SMILES IDX 2 12 3 13 8 14 4 15 5 16 7 17 9 18 6 19 96 20 91 21 1 22
REMARK SMILES IDX 92 25 93 26 94 27 95 28 21 29 22 30 23 31 24 32 25 33 26 34
REMARK SMILES IDX 27 35 28 36 29 37 90 38 30 39 89 40 31 41 32 42 33 43 83 44
REMARK SMILES IDX 34 45 88 46 82 47 84 48 35 49 87 50 81 51 80 52 36 54 68 55
REMARK SMILES IDX 48 56 67 57 49 58 52 59 66 60 85 61 50 62 51 63 65 65 86 66
REMARK SMILES IDX 53 67 37 68 38 69 46 70 39 71 45 72 47 73 44 74 40 75 41 76
REMARK SMILES IDX 42 77 43 78 69 79 70 80 78 81 71 82 77 83 79 84 76 85 72 86
REMARK SMILES IDX 73 87 74 88 75 89 54 90 55 91 63 92 56 93 62 94 64 95 61 96
REMARK SMILES IDX 57 97 58 98 59 99 60 100
REMARK H PARENT 1 23 1 24 84 53 52 64
REMARK Flexibility Score: inf
ROOT
ATOM      1  C   UNL A   1      41.060  20.744  26.914  1.00  0.00     0.188 C 
ENDROOT
BRANCH   1   2
ATOM      2  O   UNL A   1      39.755  21.320  26.966  1.00  0.00    -0.377 OA
BRANCH   2   3
ATOM      3  C   UNL A   1      39.064  21.500  25.742  1.00  0.00     0.188 C 
BRANCH   3   4
ATOM      4  C   UNL A   1      37.980  22.591  25.825  1.00  0.00     0.188 C 
BRANCH   4   5
ATOM      5  O   UNL A   1      36.786  22.259  25.139  1.00  0.00    -0.376 OA
BRANCH   5   6
ATOM      6  C   UNL A   1      35.788  21.448  25.744  1.00  0.00     0.202 C 
BRANCH   6   7
ATOM      7  C   UNL A   1      34.327  21.880  25.979  1.00  0.00     0.261 C 
BRANCH   7   8
ATOM      8  O   UNL A   1      34.089  23.246  26.324  1.00  0.00    -0.460 OA
BRANCH   8   9
ATOM      9  C   UNL A   1      32.847  23.600  26.690  1.00  0.00     0.338 C 
ATOM     10  O   UNL A   1      32.204  23.160  27.627  1.00  0.00    -0.246 OA
BRANCH   9  11
ATOM     11  C   UNL A   1      32.469  24.777  25.874  1.00  0.00     0.088 C 
ATOM     12  C   UNL A   1      32.155  28.451  26.307  1.00  0.00     0.061 A 
ATOM     13  C   UNL A   1      31.560  29.506  25.583  1.00  0.00     0.064 A 
ATOM     14  C   UNL A   1      32.146  27.161  25.728  1.00  0.00     0.042 A 
ATOM     15  Cl  UNL A   1      31.404  31.082  26.288  1.00  0.00    -0.082 Cl
ATOM     16  C   UNL A   1      31.090  29.320  24.282  1.00  0.00     0.026 A 
ATOM     17  C   UNL A   1      31.727  26.995  24.401  1.00  0.00     0.130 A 
ATOM     18  C   UNL A   1      32.492  25.965  26.491  1.00  0.00     0.029 C 
ATOM     19  C   UNL A   1      31.209  28.072  23.680  1.00  0.00     0.049 A 
ATOM     20  O   UNL A   1      31.769  25.813  23.721  1.00  0.00    -0.475 OA
ATOM     21  C   UNL A   1      32.168  24.597  24.409  1.00  0.00     0.316 C 
BRANCH  12  22
ATOM     22  N   UNL A   1      32.623  28.667  27.612  1.00  0.00    -0.397 N 
ATOM     23  H   UNL A   1      33.263  29.393  27.792  1.00  0.00     0.156 HD
ATOM     24  H   UNL A   1      32.311  28.092  28.348  1.00  0.00     0.156 HD
ENDBRANCH  12  22
BRANCH  21  25
ATOM     25  C   UNL A   1      31.077  23.544  24.173  1.00  0.00     0.430 C 
ATOM     26  F   UNL A   1      31.610  22.328  23.917  1.00  0.00    -0.167 F 
ATOM     27  F   UNL A   1      30.262  23.408  25.244  1.00  0.00    -0.167 F 
ATOM     28  F   UNL A   1      30.297  23.875  23.115  1.00  0.00    -0.167 F 
ENDBRANCH  21  25
ENDBRANCH   9  11
ENDBRANCH   8   9
ENDBRANCH   7   8
ENDBRANCH   6   7
ENDBRANCH   5   6
ENDBRANCH   4   5
ENDBRANCH   3   4
ENDBRANCH   2   3
ENDBRANCH   1   2
BRANCH   1  29
ATOM     29  C   UNL A   1      41.481  19.788  25.771  1.00  0.00     0.188 C 
BRANCH  29  30
ATOM     30  O   UNL A   1      41.839  18.479  26.204  1.00  0.00    -0.376 OA
BRANCH  30  31
ATOM     31  C   UNL A   1      43.164  18.284  26.674  1.00  0.00     0.202 C 
BRANCH  31  32
ATOM     32  C   UNL A   1      44.233  18.078  25.594  1.00  0.00     0.261 C 
BRANCH  32  33
ATOM     33  O   UNL A   1      45.107  19.190  25.357  1.00  0.00    -0.460 OA
BRANCH  33  34
ATOM     34  C   UNL A   1      44.817  20.010  24.324  1.00  0.00     0.338 C 
ATOM     35  O   UNL A   1      44.579  19.687  23.172  1.00  0.00    -0.246 OA
BRANCH  34  36
ATOM     36  C   UNL A   1      44.651  21.365  24.882  1.00  0.00     0.060 A 
ATOM     37  C   UNL A   1      44.180  22.396  24.057  1.00  0.00     0.016 A 
ATOM     38  C   UNL A   1      44.942  21.605  26.227  1.00  0.00     0.016 A 
ATOM     39  C   UNL A   1      44.018  23.681  24.576  1.00  0.00     0.010 A 
ATOM     40  C   UNL A   1      44.813  22.899  26.734  1.00  0.00     0.010 A 
ATOM     41  C   UNL A   1      44.383  23.947  25.902  1.00  0.00    -0.014 A 
BRANCH  41  42
ATOM     42  C   UNL A   1      44.562  25.349  26.340  1.00  0.00     0.031 A 
ATOM     43  C   UNL A   1      45.934  25.948  26.208  1.00  0.00     0.074 A 
ATOM     44  C   UNL A   1      43.545  26.074  26.836  1.00  0.00     0.049 A 
ATOM     45  N   UNL A   1      46.351  27.140  26.543  1.00  0.00    -0.248 NA
ATOM     46  C   UNL A   1      46.975  25.089  25.617  1.00  0.00     0.031 C 
ATOM     47  C   UNL A   1      42.168  25.610  26.978  1.00  0.00     0.029 A 
ATOM     48  N   UNL A   1      43.524  27.357  27.325  1.00  0.00    -0.354 N 
ATOM     49  C   UNL A   1      47.697  27.174  26.201  1.00  0.00     0.074 A 
ATOM     50  C   UNL A   1      48.037  25.879  25.661  1.00  0.00     0.031 C 
ATOM     51  C   UNL A   1      41.436  26.591  27.534  1.00  0.00     0.029 A 
ATOM     52  C   UNL A   1      42.298  27.741  27.815  1.00  0.00     0.049 A 
ATOM     53  H   UNL A   1      44.312  27.947  27.324  1.00  0.00     0.167 HD
ATOM     54  C   UNL A   1      48.569  28.199  26.318  1.00  0.00     0.034 A 
ATOM     55  C   UNL A   1      41.921  28.881  28.434  1.00  0.00     0.034 A 
ATOM     56  C   UNL A   1      48.226  29.481  26.870  1.00  0.00     0.049 A 
ATOM     57  C   UNL A   1      42.930  29.991  28.616  1.00  0.00     0.074 A 
ATOM     58  C   UNL A   1      49.042  30.588  27.018  1.00  0.00     0.029 A 
ATOM     59  N   UNL A   1      46.980  29.828  27.367  1.00  0.00    -0.354 N 
ATOM     60  N   UNL A   1      44.187  30.033  28.237  1.00  0.00    -0.248 NA
ATOM     61  C   UNL A   1      42.475  31.211  29.299  1.00  0.00     0.031 C 
ATOM     62  C   UNL A   1      48.307  31.584  27.660  1.00  0.00     0.029 A 
ATOM     63  C   UNL A   1      47.012  31.126  27.845  1.00  0.00     0.049 A 
ATOM     64  H   UNL A   1      46.191  29.239  27.379  1.00  0.00     0.167 HD
ATOM     65  C   UNL A   1      44.657  31.293  28.601  1.00  0.00     0.074 A 
ATOM     66  C   UNL A   1      43.550  31.986  29.223  1.00  0.00     0.031 C 
ATOM     67  C   UNL A   1      45.895  31.824  28.432  1.00  0.00     0.034 A 
BRANCH  54  68
ATOM     68  C   UNL A   1      49.982  27.997  25.848  1.00  0.00     0.023 A 
ATOM     69  C   UNL A   1      50.264  27.981  24.472  1.00  0.00     0.031 A 
ATOM     70  C   UNL A   1      51.015  27.692  26.750  1.00  0.00     0.131 A 
ATOM     71  C   UNL A   1      51.540  27.617  24.031  1.00  0.00     0.055 A 
ATOM     72  C   UNL A   1      52.297  27.368  26.307  1.00  0.00     0.041 A 
ATOM     73  F   UNL A   1      50.791  27.709  28.074  1.00  0.00    -0.206 F 
ATOM     74  C   UNL A   1      52.560  27.315  24.941  1.00  0.00     0.022 A 
BRANCH  71  75
ATOM     75  S   UNL A   1      51.909  27.474  22.262  1.00  0.00     0.124 S 
ATOM     76  O   UNL A   1      52.956  26.454  22.253  1.00  0.00    -0.237 OA
ATOM     77  O   UNL A   1      50.623  27.054  21.718  1.00  0.00    -0.237 OA
ATOM     78  O   UNL A   1      52.351  28.814  21.887  1.00  0.00    -0.744 OA
ENDBRANCH  71  75
ENDBRANCH  54  68
BRANCH  55  79
ATOM     79  C   UNL A   1      40.512  29.032  28.892  1.00  0.00     0.023 A 
ATOM     80  C   UNL A   1      40.179  28.915  30.253  1.00  0.00     0.031 A 
ATOM     81  C   UNL A   1      39.469  29.221  27.969  1.00  0.00     0.131 A 
ATOM     82  C   UNL A   1      38.834  28.936  30.647  1.00  0.00     0.055 A 
ATOM     83  C   UNL A   1      38.134  29.300  28.373  1.00  0.00     0.041 A 
ATOM     84  F   UNL A   1      39.738  29.333  26.659  1.00  0.00    -0.206 F 
ATOM     85  C   UNL A   1      37.811  29.143  29.717  1.00  0.00     0.022 A 
BRANCH  82  86
ATOM     86  S   UNL A   1      38.365  28.606  32.366  1.00  0.00     0.124 S 
ATOM     87  O   UNL A   1      39.338  29.403  33.109  1.00  0.00    -0.237 OA
ATOM     88  O   UNL A   1      36.991  29.099  32.395  1.00  0.00    -0.237 OA
ATOM     89  O   UNL A   1      38.512  27.160  32.493  1.00  0.00    -0.744 OA
ENDBRANCH  82  86
ENDBRANCH  55  79
BRANCH  67  90
ATOM     90  C   UNL A   1      46.154  33.242  28.878  1.00  0.00     0.023 A 
ATOM     91  C   UNL A   1      46.498  33.494  30.222  1.00  0.00     0.031 A 
ATOM     92  C   UNL A   1      45.881  34.337  28.044  1.00  0.00     0.131 A 
ATOM     93  C   UNL A   1      46.508  34.807  30.705  1.00  0.00     0.055 A 
ATOM     94  C   UNL A   1      45.940  35.649  28.519  1.00  0.00     0.041 A 
ATOM     95  F   UNL A   1      45.537  34.148  26.761  1.00  0.00    -0.206 F 
ATOM     96  C   UNL A   1      46.239  35.887  29.859  1.00  0.00     0.022 A 
BRANCH  93  97
ATOM     97  S   UNL A   1      46.789  35.155  32.463  1.00  0.00     0.124 S 
ATOM     98  O   UNL A   1      45.518  35.758  32.860  1.00  0.00    -0.237 OA
ATOM     99  O   UNL A   1      47.044  33.822  33.002  1.00  0.00    -0.237 OA
ATOM    100  O   UNL A   1      47.932  36.063  32.464  1.00  0.00    -0.744 OA
ENDBRANCH  93  97
ENDBRANCH  67  90
ENDBRANCH  41  42
ENDBRANCH  34  36
ENDBRANCH  33  34
ENDBRANCH  32  33
ENDBRANCH  31  32
ENDBRANCH  30  31
ENDBRANCH  29  30
ENDBRANCH   1  29
TORSDOF 25
ENDMDL
