MODEL 1
REMARK VINA RESULT:     -10.0      0.000      0.000
REMARK SMILES Cc1cc2c(c(C)c1Cl)C=C(C(=O)OCCOCCOCCOCCOC(=O)c1ccc(-c3c4nc(c(-c5cc(S(=O)(=O)[O-])ccc5F)c5ccc([nH]5)c(-c5cc(S(=O)(=O)[O-])ccc5F)c5nc(c(-c6cc(S(=O)(=O)[O-])ccc6F)c6ccc3[nH]6)C=C5)C=C4)cc1)[C@H](C(F)(F)F)O2
REMARK SMILES IDX 21 1 20 2 19 3 18 4 17 5 16 6 15 7 14 8 12 9 13 10 11 11
REMARK SMILES IDX 1 12 2 13 3 14 8 15 4 16 6 17 9 18 5 19 97 20 7 21 10 22
REMARK SMILES IDX 92 23 93 24 94 25 95 26 96 27 22 28 23 29 24 30 25 31 26 32
REMARK SMILES IDX 27 33 28 34 29 35 30 36 91 37 31 38 90 39 32 40 33 41 34 42
REMARK SMILES IDX 84 43 35 44 89 45 83 46 85 47 36 48 88 49 82 50 81 51 37 53
REMARK SMILES IDX 69 54 49 55 68 56 50 57 53 58 67 59 86 60 51 61 52 62 66 64
REMARK SMILES IDX 87 65 54 66 38 67 39 68 47 69 40 70 46 71 48 72 45 73 41 74
REMARK SMILES IDX 42 75 43 76 44 77 70 78 71 79 79 80 72 81 78 82 80 83 77 84
REMARK SMILES IDX 73 85 74 86 75 87 76 88 55 89 56 90 64 91 57 92 63 93 65 94
REMARK SMILES IDX 62 95 58 96 59 97 60 98 61 99
REMARK H PARENT 85 52 53 63
REMARK Flexibility Score: inf
ROOT
ATOM      1  C   UNL A   1      40.519  21.567  26.845  1.00  0.00     0.188 C 
ENDROOT
BRANCH   1   2
ATOM      2  O   UNL A   1      39.482  22.359  26.284  1.00  0.00    -0.377 OA
BRANCH   2   3
ATOM      3  C   UNL A   1      38.401  21.681  25.695  1.00  0.00     0.188 C 
BRANCH   3   4
ATOM      4  C   UNL A   1      37.222  22.594  25.343  1.00  0.00     0.188 C 
BRANCH   4   5
ATOM      5  O   UNL A   1      36.921  22.882  23.986  1.00  0.00    -0.376 OA
BRANCH   5   6
ATOM      6  C   UNL A   1      35.600  23.261  23.599  1.00  0.00     0.202 C 
BRANCH   6   7
ATOM      7  C   UNL A   1      34.869  24.424  24.297  1.00  0.00     0.261 C 
BRANCH   7   8
ATOM      8  O   UNL A   1      33.484  24.576  23.931  1.00  0.00    -0.460 OA
BRANCH   8   9
ATOM      9  C   UNL A   1      33.250  25.125  22.724  1.00  0.00     0.338 C 
ATOM     10  O   UNL A   1      33.463  24.606  21.638  1.00  0.00    -0.246 OA
BRANCH   9  11
ATOM     11  C   UNL A   1      32.517  26.397  22.854  1.00  0.00     0.087 C 
ATOM     12  C   UNL A   1      27.898  30.878  22.091  1.00  0.00     0.046 C 
ATOM     13  C   UNL A   1      28.734  29.688  22.475  1.00  0.00    -0.028 A 
ATOM     14  C   UNL A   1      30.106  29.706  22.188  1.00  0.00     0.052 A 
ATOM     15  C   UNL A   1      28.179  28.549  23.096  1.00  0.00     0.047 A 
ATOM     16  C   UNL A   1      30.904  28.599  22.455  1.00  0.00     0.128 A 
ATOM     17  C   UNL A   1      28.975  27.416  23.383  1.00  0.00    -0.021 A 
ATOM     18  Cl  UNL A   1      26.479  28.557  23.467  1.00  0.00    -0.084 Cl
ATOM     19  C   UNL A   1      30.347  27.446  23.024  1.00  0.00     0.022 A 
ATOM     20  O   UNL A   1      32.208  28.694  22.043  1.00  0.00    -0.475 OA
ATOM     21  C   UNL A   1      28.400  26.187  24.050  1.00  0.00     0.047 C 
ATOM     22  C   UNL A   1      31.203  26.266  23.093  1.00  0.00     0.027 C 
ATOM     23  C   UNL A   1      33.164  27.717  22.555  1.00  0.00     0.316 C 
BRANCH  23  24
ATOM     24  C   UNL A   1      33.964  28.356  23.707  1.00  0.00     0.430 C 
ATOM     25  F   UNL A   1      35.106  28.944  23.280  1.00  0.00    -0.167 F 
ATOM     26  F   UNL A   1      33.242  29.268  24.389  1.00  0.00    -0.167 F 
ATOM     27  F   UNL A   1      34.331  27.409  24.612  1.00  0.00    -0.167 F 
ENDBRANCH  23  24
ENDBRANCH   9  11
ENDBRANCH   8   9
ENDBRANCH   7   8
ENDBRANCH   6   7
ENDBRANCH   5   6
ENDBRANCH   4   5
ENDBRANCH   3   4
ENDBRANCH   2   3
ENDBRANCH   1   2
BRANCH   1  28
ATOM     28  C   UNL A   1      40.486  20.044  26.619  1.00  0.00     0.188 C 
BRANCH  28  29
ATOM     29  O   UNL A   1      41.339  19.453  25.653  1.00  0.00    -0.376 OA
BRANCH  29  30
ATOM     30  C   UNL A   1      42.430  18.608  25.965  1.00  0.00     0.202 C 
BRANCH  30  31
ATOM     31  C   UNL A   1      43.870  18.721  25.437  1.00  0.00     0.261 C 
BRANCH  31  32
ATOM     32  O   UNL A   1      44.127  19.605  24.353  1.00  0.00    -0.460 OA
BRANCH  32  33
ATOM     33  C   UNL A   1      45.309  20.258  24.395  1.00  0.00     0.338 C 
ATOM     34  O   UNL A   1      46.351  19.923  23.858  1.00  0.00    -0.246 OA
BRANCH  33  35
ATOM     35  C   UNL A   1      45.073  21.551  25.061  1.00  0.00     0.060 A 
ATOM     36  C   UNL A   1      44.528  22.604  24.317  1.00  0.00     0.016 A 
ATOM     37  C   UNL A   1      45.392  21.723  26.412  1.00  0.00     0.016 A 
ATOM     38  C   UNL A   1      44.326  23.844  24.916  1.00  0.00     0.010 A 
ATOM     39  C   UNL A   1      45.214  22.974  27.004  1.00  0.00     0.010 A 
ATOM     40  C   UNL A   1      44.714  24.048  26.246  1.00  0.00    -0.014 A 
BRANCH  40  41
ATOM     41  C   UNL A   1      44.821  25.435  26.756  1.00  0.00     0.031 A 
ATOM     42  C   UNL A   1      46.158  26.119  26.649  1.00  0.00     0.074 A 
ATOM     43  C   UNL A   1      43.751  26.092  27.236  1.00  0.00     0.049 A 
ATOM     44  N   UNL A   1      46.502  27.324  27.014  1.00  0.00    -0.248 NA
ATOM     45  C   UNL A   1      47.250  25.336  26.046  1.00  0.00     0.031 C 
ATOM     46  C   UNL A   1      42.398  25.547  27.330  1.00  0.00     0.029 A 
ATOM     47  N   UNL A   1      43.635  27.369  27.723  1.00  0.00    -0.354 N 
ATOM     48  C   UNL A   1      47.845  27.448  26.675  1.00  0.00     0.074 A 
ATOM     49  C   UNL A   1      48.266  26.181  26.123  1.00  0.00     0.031 C 
ATOM     50  C   UNL A   1      41.584  26.493  27.836  1.00  0.00     0.029 A 
ATOM     51  C   UNL A   1      42.363  27.694  28.131  1.00  0.00     0.049 A 
ATOM     52  H   UNL A   1      44.393  27.995  27.777  1.00  0.00     0.167 HD
ATOM     53  C   UNL A   1      48.648  28.530  26.792  1.00  0.00     0.034 A 
ATOM     54  C   UNL A   1      41.890  28.828  28.689  1.00  0.00     0.034 A 
ATOM     55  C   UNL A   1      48.220  29.788  27.342  1.00  0.00     0.049 A 
ATOM     56  C   UNL A   1      42.837  29.980  28.925  1.00  0.00     0.074 A 
ATOM     57  C   UNL A   1      48.953  30.949  27.499  1.00  0.00     0.029 A 
ATOM     58  N   UNL A   1      46.948  30.044  27.833  1.00  0.00    -0.354 N 
ATOM     59  N   UNL A   1      44.105  30.085  28.599  1.00  0.00    -0.248 NA
ATOM     60  C   UNL A   1      42.296  31.162  29.612  1.00  0.00     0.031 C 
ATOM     61  C   UNL A   1      48.146  31.887  28.147  1.00  0.00     0.029 A 
ATOM     62  C   UNL A   1      46.888  31.332  28.334  1.00  0.00     0.049 A 
ATOM     63  H   UNL A   1      46.199  29.406  27.825  1.00  0.00     0.167 HD
ATOM     64  C   UNL A   1      44.507  31.346  29.030  1.00  0.00     0.074 A 
ATOM     65  C   UNL A   1      43.346  31.973  29.628  1.00  0.00     0.031 C 
ATOM     66  C   UNL A   1      45.727  31.933  28.939  1.00  0.00     0.034 A 
BRANCH  53  67
ATOM     67  C   UNL A   1      50.075  28.392  26.338  1.00  0.00     0.023 A 
ATOM     68  C   UNL A   1      50.432  28.557  24.990  1.00  0.00     0.031 A 
ATOM     69  C   UNL A   1      51.092  28.110  27.266  1.00  0.00     0.131 A 
ATOM     70  C   UNL A   1      51.768  28.399  24.599  1.00  0.00     0.055 A 
ATOM     71  C   UNL A   1      52.429  28.016  26.881  1.00  0.00     0.041 A 
ATOM     72  F   UNL A   1      50.800  27.922  28.563  1.00  0.00    -0.206 F 
ATOM     73  C   UNL A   1      52.773  28.155  25.539  1.00  0.00     0.022 A 
BRANCH  70  74
ATOM     74  S   UNL A   1      52.165  28.439  22.831  1.00  0.00     0.124 S 
ATOM     75  O   UNL A   1      53.568  28.849  22.855  1.00  0.00    -0.237 OA
ATOM     76  O   UNL A   1      51.909  27.064  22.418  1.00  0.00    -0.237 OA
ATOM     77  O   UNL A   1      51.240  29.433  22.294  1.00  0.00    -0.744 OA
ENDBRANCH  70  74
ENDBRANCH  53  67
BRANCH  54  78
ATOM     78  C   UNL A   1      40.459  28.925  29.092  1.00  0.00     0.023 A 
ATOM     79  C   UNL A   1      40.072  28.772  30.433  1.00  0.00     0.031 A 
ATOM     80  C   UNL A   1      39.451  29.153  28.137  1.00  0.00     0.131 A 
ATOM     81  C   UNL A   1      38.713  28.828  30.779  1.00  0.00     0.055 A 
ATOM     82  C   UNL A   1      38.105  29.248  28.492  1.00  0.00     0.041 A 
ATOM     83  F   UNL A   1      39.767  29.304  26.840  1.00  0.00    -0.206 F 
ATOM     84  C   UNL A   1      37.729  29.079  29.820  1.00  0.00     0.022 A 
BRANCH  81  85
ATOM     85  S   UNL A   1      38.241  28.534  32.506  1.00  0.00     0.124 S 
ATOM     86  O   UNL A   1      39.351  29.149  33.225  1.00  0.00    -0.237 OA
ATOM     87  O   UNL A   1      36.958  29.224  32.593  1.00  0.00    -0.237 OA
ATOM     88  O   UNL A   1      38.168  27.077  32.595  1.00  0.00    -0.744 OA
ENDBRANCH  81  85
ENDBRANCH  54  78
BRANCH  66  89
ATOM     89  C   UNL A   1      45.887  33.320  29.502  1.00  0.00     0.023 A 
ATOM     90  C   UNL A   1      46.361  33.519  30.808  1.00  0.00     0.031 A 
ATOM     91  C   UNL A   1      45.670  34.448  28.690  1.00  0.00     0.131 A 
ATOM     92  C   UNL A   1      46.598  34.821  31.271  1.00  0.00     0.055 A 
ATOM     93  C   UNL A   1      45.949  35.738  29.142  1.00  0.00     0.041 A 
ATOM     94  F   UNL A   1      45.228  34.307  27.431  1.00  0.00    -0.206 F 
ATOM     95  C   UNL A   1      46.416  35.930  30.440  1.00  0.00     0.022 A 
BRANCH  92  96
ATOM     96  S   UNL A   1      47.152  35.049  32.983  1.00  0.00     0.124 S 
ATOM     97  O   UNL A   1      48.596  34.877  32.858  1.00  0.00    -0.237 OA
ATOM     98  O   UNL A   1      46.694  36.400  33.287  1.00  0.00    -0.237 OA
ATOM     99  O   UNL A   1      46.460  33.985  33.710  1.00  0.00    -0.744 OA
ENDBRANCH  92  96
ENDBRANCH  66  89
ENDBRANCH  40  41
ENDBRANCH  33  35
ENDBRANCH  32  33
ENDBRANCH  31  32
ENDBRANCH  30  31
ENDBRANCH  29  30
ENDBRANCH  28  29
ENDBRANCH   1  28
TORSDOF 24
ENDMDL
MODEL 2
REMARK VINA RESULT:      -9.7      4.147     10.000
REMARK SMILES Cc1cc2c(c(C)c1Cl)C=C(C(=O)OCCOCCOCCOCCOC(=O)c1ccc(-c3c4nc(c(-c5cc(S(=O)(=O)[O-])ccc5F)c5ccc([nH]5)c(-c5cc(S(=O)(=O)[O-])ccc5F)c5nc(c(-c6cc(S(=O)(=O)[O-])ccc6F)c6ccc3[nH]6)C=C5)C=C4)cc1)[C@H](C(F)(F)F)O2
REMARK SMILES IDX 21 1 20 2 19 3 18 4 17 5 16 6 15 7 14 8 12 9 13 10 11 11
REMARK SMILES IDX 1 12 2 13 3 14 8 15 4 16 6 17 9 18 5 19 97 20 7 21 10 22
REMARK SMILES IDX 92 23 93 24 94 25 95 26 96 27 22 28 23 29 24 30 25 31 26 32
REMARK SMILES IDX 27 33 28 34 29 35 30 36 91 37 31 38 90 39 32 40 33 41 34 42
REMARK SMILES IDX 84 43 35 44 89 45 83 46 85 47 36 48 88 49 82 50 81 51 37 53
REMARK SMILES IDX 69 54 49 55 68 56 50 57 53 58 67 59 86 60 51 61 52 62 66 64
REMARK SMILES IDX 87 65 54 66 38 67 39 68 47 69 40 70 46 71 48 72 45 73 41 74
REMARK SMILES IDX 42 75 43 76 44 77 70 78 71 79 79 80 72 81 78 82 80 83 77 84
REMARK SMILES IDX 73 85 74 86 75 87 76 88 55 89 56 90 64 91 57 92 63 93 65 94
REMARK SMILES IDX 62 95 58 96 59 97 60 98 61 99
REMARK H PARENT 85 52 53 63
REMARK Flexibility Score: inf
ROOT
ATOM      1  C   UNL A   1      32.699  36.215  30.456  1.00  0.00     0.188 C 
ENDROOT
BRANCH   1   2
ATOM      2  O   UNL A   1      32.789  34.912  29.898  1.00  0.00    -0.377 OA
BRANCH   2   3
ATOM      3  C   UNL A   1      33.602  34.753  28.763  1.00  0.00     0.188 C 
BRANCH   3   4
ATOM      4  C   UNL A   1      33.221  33.545  27.900  1.00  0.00     0.188 C 
BRANCH   4   5
ATOM      5  O   UNL A   1      34.213  32.616  27.492  1.00  0.00    -0.376 OA
BRANCH   5   6
ATOM      6  C   UNL A   1      34.156  31.255  27.921  1.00  0.00     0.202 C 
BRANCH   6   7
ATOM      7  C   UNL A   1      33.741  30.132  26.951  1.00  0.00     0.261 C 
BRANCH   7   8
ATOM      8  O   UNL A   1      32.322  30.006  26.740  1.00  0.00    -0.460 OA
BRANCH   8   9
ATOM      9  C   UNL A   1      31.785  28.809  27.040  1.00  0.00     0.338 C 
ATOM     10  O   UNL A   1      31.242  28.500  28.090  1.00  0.00    -0.246 OA
BRANCH   9  11
ATOM     11  C   UNL A   1      31.762  27.929  25.858  1.00  0.00     0.087 C 
ATOM     12  C   UNL A   1      33.198  23.009  21.890  1.00  0.00     0.046 C 
ATOM     13  C   UNL A   1      32.696  23.905  22.991  1.00  0.00    -0.028 A 
ATOM     14  C   UNL A   1      32.773  25.293  22.817  1.00  0.00     0.052 A 
ATOM     15  C   UNL A   1      32.171  23.393  24.195  1.00  0.00     0.047 A 
ATOM     16  C   UNL A   1      32.392  26.160  23.836  1.00  0.00     0.128 A 
ATOM     17  C   UNL A   1      31.771  24.257  25.241  1.00  0.00    -0.021 A 
ATOM     18  Cl  UNL A   1      32.061  21.666  24.379  1.00  0.00    -0.084 Cl
ATOM     19  C   UNL A   1      31.918  25.655  25.054  1.00  0.00     0.022 A 
ATOM     20  O   UNL A   1      32.602  27.492  23.592  1.00  0.00    -0.475 OA
ATOM     21  C   UNL A   1      31.204  23.728  26.538  1.00  0.00     0.047 C 
ATOM     22  C   UNL A   1      31.725  26.617  26.136  1.00  0.00     0.027 C 
ATOM     23  C   UNL A   1      31.955  28.463  24.470  1.00  0.00     0.316 C 
BRANCH  23  24
ATOM     24  C   UNL A   1      30.693  29.006  23.770  1.00  0.00     0.430 C 
ATOM     25  F   UNL A   1      29.695  28.094  23.720  1.00  0.00    -0.167 F 
ATOM     26  F   UNL A   1      30.223  30.125  24.359  1.00  0.00    -0.167 F 
ATOM     27  F   UNL A   1      30.974  29.345  22.483  1.00  0.00    -0.167 F 
ENDBRANCH  23  24
ENDBRANCH   9  11
ENDBRANCH   8   9
ENDBRANCH   7   8
ENDBRANCH   6   7
ENDBRANCH   5   6
ENDBRANCH   4   5
ENDBRANCH   3   4
ENDBRANCH   2   3
ENDBRANCH   1   2
BRANCH   1  28
ATOM     28  C   UNL A   1      32.357  36.355  31.950  1.00  0.00     0.188 C 
BRANCH  28  29
ATOM     29  O   UNL A   1      33.335  36.828  32.860  1.00  0.00    -0.376 OA
BRANCH  29  30
ATOM     30  C   UNL A   1      34.385  36.036  33.383  1.00  0.00     0.202 C 
BRANCH  30  31
ATOM     31  C   UNL A   1      34.638  34.542  33.121  1.00  0.00     0.261 C 
BRANCH  31  32
ATOM     32  O   UNL A   1      35.379  34.171  31.966  1.00  0.00    -0.460 OA
BRANCH  32  33
ATOM     33  C   UNL A   1      35.238  32.890  31.564  1.00  0.00     0.338 C 
ATOM     34  O   UNL A   1      34.194  32.280  31.411  1.00  0.00    -0.246 OA
BRANCH  33  35
ATOM     35  C   UNL A   1      36.571  32.406  31.164  1.00  0.00     0.060 A 
ATOM     36  C   UNL A   1      37.410  31.856  32.141  1.00  0.00     0.016 A 
ATOM     37  C   UNL A   1      36.990  32.497  29.833  1.00  0.00     0.016 A 
ATOM     38  C   UNL A   1      38.686  31.421  31.794  1.00  0.00     0.010 A 
ATOM     39  C   UNL A   1      38.280  32.085  29.492  1.00  0.00     0.010 A 
ATOM     40  C   UNL A   1      39.144  31.580  30.479  1.00  0.00    -0.014 A 
BRANCH  40  41
ATOM     41  C   UNL A   1      40.593  31.444  30.205  1.00  0.00     0.031 A 
ATOM     42  C   UNL A   1      41.440  32.685  30.284  1.00  0.00     0.074 A 
ATOM     43  C   UNL A   1      41.152  30.246  29.960  1.00  0.00     0.049 A 
ATOM     44  N   UNL A   1      42.724  32.824  30.094  1.00  0.00    -0.248 NA
ATOM     45  C   UNL A   1      40.741  33.936  30.625  1.00  0.00     0.031 C 
ATOM     46  C   UNL A   1      40.438  28.972  29.919  1.00  0.00     0.029 A 
ATOM     47  N   UNL A   1      42.459  29.907  29.712  1.00  0.00    -0.354 N 
ATOM     48  C   UNL A   1      42.989  34.173  30.305  1.00  0.00     0.074 A 
ATOM     49  C   UNL A   1      41.727  34.818  30.585  1.00  0.00     0.031 C 
ATOM     50  C   UNL A   1      41.320  27.986  29.671  1.00  0.00     0.029 A 
ATOM     51  C   UNL A   1      42.654  28.563  29.503  1.00  0.00     0.049 A 
ATOM     52  H   UNL A   1      43.189  30.567  29.686  1.00  0.00     0.167 HD
ATOM     53  C   UNL A   1      44.182  34.811  30.289  1.00  0.00     0.034 A 
ATOM     54  C   UNL A   1      43.779  27.882  29.200  1.00  0.00     0.034 A 
ATOM     55  C   UNL A   1      45.433  34.160  30.010  1.00  0.00     0.049 A 
ATOM     56  C   UNL A   1      45.079  28.638  29.065  1.00  0.00     0.074 A 
ATOM     57  C   UNL A   1      46.699  34.714  29.976  1.00  0.00     0.029 A 
ATOM     58  N   UNL A   1      45.574  32.813  29.708  1.00  0.00    -0.354 N 
ATOM     59  N   UNL A   1      45.317  29.913  29.267  1.00  0.00    -0.248 NA
ATOM     60  C   UNL A   1      46.261  27.867  28.650  1.00  0.00     0.031 C 
ATOM     61  C   UNL A   1      47.597  33.718  29.586  1.00  0.00     0.029 A 
ATOM     62  C   UNL A   1      46.900  32.527  29.442  1.00  0.00     0.049 A 
ATOM     63  H   UNL A   1      44.839  32.158  29.686  1.00  0.00     0.167 HD
ATOM     64  C   UNL A   1      46.674  30.093  29.016  1.00  0.00     0.074 A 
ATOM     65  C   UNL A   1      47.209  28.795  28.661  1.00  0.00     0.031 C 
ATOM     66  C   UNL A   1      47.412  31.230  29.075  1.00  0.00     0.034 A 
BRANCH  53  67
ATOM     67  C   UNL A   1      44.185  36.291  30.558  1.00  0.00     0.023 A 
ATOM     68  C   UNL A   1      44.253  36.794  31.867  1.00  0.00     0.031 A 
ATOM     69  C   UNL A   1      44.137  37.207  29.494  1.00  0.00     0.131 A 
ATOM     70  C   UNL A   1      44.232  38.178  32.082  1.00  0.00     0.055 A 
ATOM     71  C   UNL A   1      44.180  38.584  29.710  1.00  0.00     0.041 A 
ATOM     72  F   UNL A   1      44.050  36.776  28.226  1.00  0.00    -0.206 F 
ATOM     73  C   UNL A   1      44.222  39.077  31.012  1.00  0.00     0.022 A 
BRANCH  70  74
ATOM     74  S   UNL A   1      44.138  38.791  33.786  1.00  0.00     0.124 S 
ATOM     75  O   UNL A   1      45.103  37.926  34.462  1.00  0.00    -0.237 OA
ATOM     76  O   UNL A   1      44.526  40.189  33.641  1.00  0.00    -0.237 OA
ATOM     77  O   UNL A   1      42.743  38.566  34.154  1.00  0.00    -0.744 OA
ENDBRANCH  70  74
ENDBRANCH  53  67
BRANCH  54  78
ATOM     78  C   UNL A   1      43.727  26.410  28.974  1.00  0.00     0.023 A 
ATOM     79  C   UNL A   1      43.484  25.882  27.697  1.00  0.00     0.031 A 
ATOM     80  C   UNL A   1      43.899  25.507  30.039  1.00  0.00     0.131 A 
ATOM     81  C   UNL A   1      43.400  24.492  27.519  1.00  0.00     0.055 A 
ATOM     82  C   UNL A   1      43.855  24.125  29.850  1.00  0.00     0.041 A 
ATOM     83  F   UNL A   1      44.132  25.961  31.282  1.00  0.00    -0.206 F 
ATOM     84  C   UNL A   1      43.598  23.611  28.584  1.00  0.00     0.022 A 
BRANCH  81  85
ATOM     85  S   UNL A   1      42.994  23.847  25.873  1.00  0.00     0.124 S 
ATOM     86  O   UNL A   1      42.315  24.987  25.267  1.00  0.00    -0.237 OA
ATOM     87  O   UNL A   1      44.312  23.525  25.337  1.00  0.00    -0.237 OA
ATOM     88  O   UNL A   1      42.143  22.693  26.161  1.00  0.00    -0.744 OA
ENDBRANCH  81  85
ENDBRANCH  54  78
BRANCH  66  89
ATOM     89  C   UNL A   1      48.877  31.140  28.744  1.00  0.00     0.023 A 
ATOM     90  C   UNL A   1      49.805  30.686  29.694  1.00  0.00     0.031 A 
ATOM     91  C   UNL A   1      49.330  31.403  27.439  1.00  0.00     0.131 A 
ATOM     92  C   UNL A   1      51.148  30.514  29.327  1.00  0.00     0.055 A 
ATOM     93  C   UNL A   1      50.658  31.189  27.069  1.00  0.00     0.041 A 
ATOM     94  F   UNL A   1      48.477  31.829  26.493  1.00  0.00    -0.206 F 
ATOM     95  C   UNL A   1      51.576  30.743  28.016  1.00  0.00     0.022 A 
BRANCH  92  96
ATOM     96  S   UNL A   1      52.335  29.986  30.592  1.00  0.00     0.124 S 
ATOM     97  O   UNL A   1      53.594  30.015  29.854  1.00  0.00    -0.237 OA
ATOM     98  O   UNL A   1      52.176  31.007  31.622  1.00  0.00    -0.237 OA
ATOM     99  O   UNL A   1      51.865  28.654  30.967  1.00  0.00    -0.744 OA
ENDBRANCH  92  96
ENDBRANCH  66  89
ENDBRANCH  40  41
ENDBRANCH  33  35
ENDBRANCH  32  33
ENDBRANCH  31  32
ENDBRANCH  30  31
ENDBRANCH  29  30
ENDBRANCH  28  29
ENDBRANCH   1  28
TORSDOF 24
ENDMDL
MODEL 3
REMARK VINA RESULT:      -9.6      4.807      9.949
REMARK SMILES Cc1cc2c(c(C)c1Cl)C=C(C(=O)OCCOCCOCCOCCOC(=O)c1ccc(-c3c4nc(c(-c5cc(S(=O)(=O)[O-])ccc5F)c5ccc([nH]5)c(-c5cc(S(=O)(=O)[O-])ccc5F)c5nc(c(-c6cc(S(=O)(=O)[O-])ccc6F)c6ccc3[nH]6)C=C5)C=C4)cc1)[C@H](C(F)(F)F)O2
REMARK SMILES IDX 21 1 20 2 19 3 18 4 17 5 16 6 15 7 14 8 12 9 13 10 11 11
REMARK SMILES IDX 1 12 2 13 3 14 8 15 4 16 6 17 9 18 5 19 97 20 7 21 10 22
REMARK SMILES IDX 92 23 93 24 94 25 95 26 96 27 22 28 23 29 24 30 25 31 26 32
REMARK SMILES IDX 27 33 28 34 29 35 30 36 91 37 31 38 90 39 32 40 33 41 34 42
REMARK SMILES IDX 84 43 35 44 89 45 83 46 85 47 36 48 88 49 82 50 81 51 37 53
REMARK SMILES IDX 69 54 49 55 68 56 50 57 53 58 67 59 86 60 51 61 52 62 66 64
REMARK SMILES IDX 87 65 54 66 38 67 39 68 47 69 40 70 46 71 48 72 45 73 41 74
REMARK SMILES IDX 42 75 43 76 44 77 70 78 71 79 79 80 72 81 78 82 80 83 77 84
REMARK SMILES IDX 73 85 74 86 75 87 76 88 55 89 56 90 64 91 57 92 63 93 65 94
REMARK SMILES IDX 62 95 58 96 59 97 60 98 61 99
REMARK H PARENT 85 52 53 63
REMARK Flexibility Score: inf
ROOT
ATOM      1  C   UNL A   1      33.283  34.608  28.665  1.00  0.00     0.188 C 
ENDROOT
BRANCH   1   2
ATOM      2  O   UNL A   1      33.444  33.519  27.768  1.00  0.00    -0.377 OA
BRANCH   2   3
ATOM      3  C   UNL A   1      34.503  32.631  28.017  1.00  0.00     0.188 C 
BRANCH   3   4
ATOM      4  C   UNL A   1      34.178  31.174  27.670  1.00  0.00     0.188 C 
BRANCH   4   5
ATOM      5  O   UNL A   1      32.862  30.808  27.283  1.00  0.00    -0.376 OA
BRANCH   5   6
ATOM      6  C   UNL A   1      32.625  29.591  26.575  1.00  0.00     0.202 C 
BRANCH   6   7
ATOM      7  C   UNL A   1      32.779  29.518  25.043  1.00  0.00     0.261 C 
BRANCH   7   8
ATOM      8  O   UNL A   1      33.833  28.651  24.581  1.00  0.00    -0.460 OA
BRANCH   8   9
ATOM      9  C   UNL A   1      33.605  28.016  23.416  1.00  0.00     0.338 C 
ATOM     10  O   UNL A   1      33.937  28.399  22.304  1.00  0.00    -0.246 OA
BRANCH   9  11
ATOM     11  C   UNL A   1      33.046  26.672  23.647  1.00  0.00     0.087 C 
ATOM     12  C   UNL A   1      32.448  20.219  23.560  1.00  0.00     0.046 C 
ATOM     13  C   UNL A   1      32.830  21.651  23.821  1.00  0.00    -0.028 A 
ATOM     14  C   UNL A   1      32.001  22.669  23.331  1.00  0.00     0.052 A 
ATOM     15  C   UNL A   1      34.001  22.000  24.524  1.00  0.00     0.047 A 
ATOM     16  C   UNL A   1      32.351  24.007  23.482  1.00  0.00     0.128 A 
ATOM     17  C   UNL A   1      34.372  23.354  24.695  1.00  0.00    -0.021 A 
ATOM     18  Cl  UNL A   1      35.003  20.720  25.146  1.00  0.00    -0.084 Cl
ATOM     19  C   UNL A   1      33.540  24.357  24.134  1.00  0.00     0.022 A 
ATOM     20  O   UNL A   1      31.516  24.911  22.879  1.00  0.00    -0.475 OA
ATOM     21  C   UNL A   1      35.622  23.748  25.448  1.00  0.00     0.047 C 
ATOM     22  C   UNL A   1      33.932  25.763  24.081  1.00  0.00     0.027 C 
ATOM     23  C   UNL A   1      31.645  26.318  23.247  1.00  0.00     0.316 C 
BRANCH  23  24
ATOM     24  C   UNL A   1      30.539  26.672  24.262  1.00  0.00     0.430 C 
ATOM     25  F   UNL A   1      30.974  26.616  25.543  1.00  0.00    -0.167 F 
ATOM     26  F   UNL A   1      30.012  27.893  24.041  1.00  0.00    -0.167 F 
ATOM     27  F   UNL A   1      29.507  25.790  24.165  1.00  0.00    -0.167 F 
ENDBRANCH  23  24
ENDBRANCH   9  11
ENDBRANCH   8   9
ENDBRANCH   7   8
ENDBRANCH   6   7
ENDBRANCH   5   6
ENDBRANCH   4   5
ENDBRANCH   3   4
ENDBRANCH   2   3
ENDBRANCH   1   2
BRANCH   1  28
ATOM     28  C   UNL A   1      33.995  34.549  30.029  1.00  0.00     0.188 C 
BRANCH  28  29
ATOM     29  O   UNL A   1      33.306  34.940  31.205  1.00  0.00    -0.376 OA
BRANCH  29  30
ATOM     30  C   UNL A   1      33.753  34.663  32.519  1.00  0.00     0.202 C 
BRANCH  30  31
ATOM     31  C   UNL A   1      34.211  33.304  33.075  1.00  0.00     0.261 C 
BRANCH  31  32
ATOM     32  O   UNL A   1      35.571  32.927  32.907  1.00  0.00    -0.460 OA
BRANCH  32  33
ATOM     33  C   UNL A   1      36.306  32.856  34.038  1.00  0.00     0.338 C 
ATOM     34  O   UNL A   1      35.975  33.227  35.152  1.00  0.00    -0.246 OA
BRANCH  33  35
ATOM     35  C   UNL A   1      37.520  32.082  33.727  1.00  0.00     0.060 A 
ATOM     36  C   UNL A   1      38.645  32.233  34.545  1.00  0.00     0.016 A 
ATOM     37  C   UNL A   1      37.547  31.215  32.630  1.00  0.00     0.016 A 
ATOM     38  C   UNL A   1      39.814  31.537  34.252  1.00  0.00     0.010 A 
ATOM     39  C   UNL A   1      38.728  30.538  32.322  1.00  0.00     0.010 A 
ATOM     40  C   UNL A   1      39.876  30.726  33.111  1.00  0.00    -0.014 A 
BRANCH  40  41
ATOM     41  C   UNL A   1      41.201  30.279  32.622  1.00  0.00     0.031 A 
ATOM     42  C   UNL A   1      41.884  31.124  31.581  1.00  0.00     0.074 A 
ATOM     43  C   UNL A   1      41.810  29.195  33.135  1.00  0.00     0.049 A 
ATOM     44  N   UNL A   1      43.042  30.949  31.003  1.00  0.00    -0.248 NA
ATOM     45  C   UNL A   1      41.162  32.328  31.135  1.00  0.00     0.031 C 
ATOM     46  C   UNL A   1      41.267  28.339  34.187  1.00  0.00     0.029 A 
ATOM     47  N   UNL A   1      43.029  28.638  32.843  1.00  0.00    -0.354 N 
ATOM     48  C   UNL A   1      43.193  32.026  30.136  1.00  0.00     0.074 A 
ATOM     49  C   UNL A   1      41.988  32.819  30.225  1.00  0.00     0.031 C 
ATOM     50  C   UNL A   1      42.159  27.368  34.460  1.00  0.00     0.029 A 
ATOM     51  C   UNL A   1      43.318  27.515  33.581  1.00  0.00     0.049 A 
ATOM     52  H   UNL A   1      43.641  29.009  32.166  1.00  0.00     0.167 HD
ATOM     53  C   UNL A   1      44.251  32.336  29.354  1.00  0.00     0.034 A 
ATOM     54  C   UNL A   1      44.390  26.696  33.540  1.00  0.00     0.034 A 
ATOM     55  C   UNL A   1      45.447  31.541  29.273  1.00  0.00     0.049 A 
ATOM     56  C   UNL A   1      45.504  26.996  32.566  1.00  0.00     0.074 A 
ATOM     57  C   UNL A   1      46.580  31.773  28.517  1.00  0.00     0.029 A 
ATOM     58  N   UNL A   1      45.658  30.359  29.966  1.00  0.00    -0.354 N 
ATOM     59  N   UNL A   1      45.635  28.018  31.752  1.00  0.00    -0.248 NA
ATOM     60  C   UNL A   1      46.611  26.029  32.497  1.00  0.00     0.031 C 
ATOM     61  C   UNL A   1      47.449  30.695  28.698  1.00  0.00     0.029 A 
ATOM     62  C   UNL A   1      46.886  29.824  29.620  1.00  0.00     0.049 A 
ATOM     63  H   UNL A   1      45.028  29.959  30.608  1.00  0.00     0.167 HD
ATOM     64  C   UNL A   1      46.841  27.822  31.085  1.00  0.00     0.074 A 
ATOM     65  C   UNL A   1      47.409  26.593  31.600  1.00  0.00     0.031 C 
ATOM     66  C   UNL A   1      47.428  28.591  30.133  1.00  0.00     0.034 A 
BRANCH  53  67
ATOM     67  C   UNL A   1      44.153  33.576  28.507  1.00  0.00     0.023 A 
ATOM     68  C   UNL A   1      44.267  34.857  29.072  1.00  0.00     0.031 A 
ATOM     69  C   UNL A   1      43.961  33.475  27.119  1.00  0.00     0.131 A 
ATOM     70  C   UNL A   1      44.148  35.990  28.257  1.00  0.00     0.055 A 
ATOM     71  C   UNL A   1      43.906  34.605  26.303  1.00  0.00     0.041 A 
ATOM     72  F   UNL A   1      43.824  32.275  26.534  1.00  0.00    -0.206 F 
ATOM     73  C   UNL A   1      43.994  35.873  26.872  1.00  0.00     0.022 A 
BRANCH  70  74
ATOM     74  S   UNL A   1      44.119  37.624  29.040  1.00  0.00     0.124 S 
ATOM     75  O   UNL A   1      42.920  38.212  28.448  1.00  0.00    -0.237 OA
ATOM     76  O   UNL A   1      44.033  37.293  30.459  1.00  0.00    -0.237 OA
ATOM     77  O   UNL A   1      45.379  38.229  28.617  1.00  0.00    -0.744 OA
ENDBRANCH  70  74
ENDBRANCH  53  67
BRANCH  54  78
ATOM     78  C   UNL A   1      44.452  25.498  34.423  1.00  0.00     0.023 A 
ATOM     79  C   UNL A   1      44.840  25.609  35.767  1.00  0.00     0.031 A 
ATOM     80  C   UNL A   1      44.145  24.217  33.929  1.00  0.00     0.131 A 
ATOM     81  C   UNL A   1      44.929  24.458  36.567  1.00  0.00     0.055 A 
ATOM     82  C   UNL A   1      44.196  23.082  34.738  1.00  0.00     0.041 A 
ATOM     83  F   UNL A   1      43.771  24.056  32.649  1.00  0.00    -0.206 F 
ATOM     84  C   UNL A   1      44.596  23.198  36.065  1.00  0.00     0.022 A 
BRANCH  81  85
ATOM     85  S   UNL A   1      45.522  24.626  38.273  1.00  0.00     0.124 S 
ATOM     86  O   UNL A   1      46.867  25.150  38.069  1.00  0.00    -0.237 OA
ATOM     87  O   UNL A   1      44.550  25.553  38.843  1.00  0.00    -0.237 OA
ATOM     88  O   UNL A   1      45.454  23.260  38.792  1.00  0.00    -0.744 OA
ENDBRANCH  81  85
ENDBRANCH  54  78
BRANCH  66  89
ATOM     89  C   UNL A   1      48.746  28.135  29.569  1.00  0.00     0.023 A 
ATOM     90  C   UNL A   1      48.803  27.134  28.586  1.00  0.00     0.031 A 
ATOM     91  C   UNL A   1      49.940  28.780  29.936  1.00  0.00     0.131 A 
ATOM     92  C   UNL A   1      50.035  26.800  28.005  1.00  0.00     0.055 A 
ATOM     93  C   UNL A   1      51.156  28.474  29.323  1.00  0.00     0.041 A 
ATOM     94  F   UNL A   1      49.933  29.751  30.864  1.00  0.00    -0.206 F 
ATOM     95  C   UNL A   1      51.208  27.478  28.352  1.00  0.00     0.022 A 
BRANCH  92  96
ATOM     96  S   UNL A   1      50.087  25.462  26.783  1.00  0.00     0.124 S 
ATOM     97  O   UNL A   1      49.713  24.303  27.589  1.00  0.00    -0.237 OA
ATOM     98  O   UNL A   1      49.104  25.895  25.796  1.00  0.00    -0.237 OA
ATOM     99  O   UNL A   1      51.473  25.475  26.319  1.00  0.00    -0.744 OA
ENDBRANCH  92  96
ENDBRANCH  66  89
ENDBRANCH  40  41
ENDBRANCH  33  35
ENDBRANCH  32  33
ENDBRANCH  31  32
ENDBRANCH  30  31
ENDBRANCH  29  30
ENDBRANCH  28  29
ENDBRANCH   1  28
TORSDOF 24
ENDMDL
