MODEL 1
REMARK VINA RESULT:      -9.3      0.000      0.000
REMARK SMILES O=C(CC1(NC(=O)c2ccncc2Cl)CCCCC1)OCCOCCOCCOCCOC(=O)c1ccc(-c2c3nc(c(-c4cc(S(=O)(=O)[O-])ccc4F)c4ccc([nH]4)c(-c4cc(S(=O)(=O)[O-])ccc4F)c4nc(c(-c5cc(S(=O)(=O)[O-])ccc5F)c5ccc2[nH]5)C=C4)C=C3)cc1
REMARK SMILES IDX 26 1 25 2 24 3 23 4 22 5 21 6 20 7 2 8 1 9 3 10 4 11 15 12
REMARK SMILES IDX 19 13 16 14 18 15 17 16 5 17 6 18 7 20 8 21 9 22 13 23 10 24
REMARK SMILES IDX 12 25 14 26 11 27 27 28 28 29 29 30 30 31 31 32 32 33 33 34
REMARK SMILES IDX 34 35 35 36 36 37 97 38 37 39 96 40 38 41 39 42 40 43 90 44
REMARK SMILES IDX 41 45 95 46 89 47 91 48 42 49 94 50 88 51 87 52 43 54 75 55
REMARK SMILES IDX 55 56 74 57 56 58 59 59 73 60 92 61 57 62 58 63 72 65 93 66
REMARK SMILES IDX 60 67 44 68 45 69 53 70 46 71 52 72 54 73 51 74 47 75 48 76
REMARK SMILES IDX 49 77 50 78 76 79 77 80 85 81 78 82 84 83 86 84 83 85 79 86
REMARK SMILES IDX 80 87 81 88 82 89 61 90 62 91 70 92 63 93 69 94 71 95 68 96
REMARK SMILES IDX 64 97 65 98 66 99 67 100
REMARK H PARENT 5 19 91 53 59 64
REMARK Flexibility Score: inf
ROOT
ATOM      1  O   UNL A   1      38.472  23.033  26.086  1.00  0.00    -0.377 OA
ENDROOT
BRANCH   1   2
ATOM      2  C   UNL A   1      37.336  23.098  25.258  1.00  0.00     0.188 C 
BRANCH   2   3
ATOM      3  C   UNL A   1      36.022  22.787  26.010  1.00  0.00     0.188 C 
BRANCH   3   4
ATOM      4  O   UNL A   1      35.598  21.438  26.265  1.00  0.00    -0.376 OA
BRANCH   4   5
ATOM      5  C   UNL A   1      35.619  20.462  25.236  1.00  0.00     0.202 C 
BRANCH   5   6
ATOM      6  C   UNL A   1      34.240  19.958  24.820  1.00  0.00     0.261 C 
BRANCH   6   7
ATOM      7  O   UNL A   1      33.440  20.875  24.048  1.00  0.00    -0.463 OA
BRANCH   7   8
ATOM      8  C   UNL A   1      32.343  21.565  24.381  1.00  0.00     0.308 C 
ATOM      9  O   UNL A   1      31.789  21.380  25.470  1.00  0.00    -0.252 OA
BRANCH   8  10
ATOM     10  C   UNL A   1      31.782  22.611  23.509  1.00  0.00     0.151 C 
BRANCH  10  11
ATOM     11  C   UNL A   1      31.909  24.100  23.843  1.00  0.00     0.051 C 
ATOM     12  C   UNL A   1      33.400  24.438  24.157  1.00  0.00     0.029 C 
ATOM     13  C   UNL A   1      31.476  24.774  22.486  1.00  0.00     0.029 C 
ATOM     14  C   UNL A   1      34.003  25.739  23.644  1.00  0.00     0.002 C 
ATOM     15  C   UNL A   1      32.153  26.076  22.082  1.00  0.00     0.002 C 
ATOM     16  C   UNL A   1      33.660  25.964  22.192  1.00  0.00     0.000 C 
BRANCH  11  17
ATOM     17  N   UNL A   1      31.028  24.636  24.948  1.00  0.00    -0.346 N 
ATOM     18  C   UNL A   1      30.215  25.707  25.294  1.00  0.00     0.253 C 
ATOM     19  H   UNL A   1      31.033  23.994  25.694  1.00  0.00     0.164 HD
ATOM     20  O   UNL A   1      29.472  25.535  26.264  1.00  0.00    -0.269 OA
BRANCH  18  21
ATOM     21  C   UNL A   1      30.201  27.075  24.724  1.00  0.00     0.061 A 
ATOM     22  C   UNL A   1      29.287  27.380  23.710  1.00  0.00     0.035 A 
ATOM     23  C   UNL A   1      31.168  28.036  25.063  1.00  0.00     0.072 A 
ATOM     24  C   UNL A   1      29.300  28.661  23.166  1.00  0.00     0.112 A 
ATOM     25  C   UNL A   1      31.061  29.304  24.493  1.00  0.00     0.132 A 
ATOM     26  Cl  UNL A   1      32.442  27.753  26.191  1.00  0.00    -0.082 Cl
ATOM     27  N   UNL A   1      30.153  29.638  23.544  1.00  0.00    -0.263 NA
ENDBRANCH  18  21
ENDBRANCH  11  17
ENDBRANCH  10  11
ENDBRANCH   8  10
ENDBRANCH   7   8
ENDBRANCH   6   7
ENDBRANCH   5   6
ENDBRANCH   4   5
ENDBRANCH   3   4
ENDBRANCH   2   3
ENDBRANCH   1   2
BRANCH   1  28
ATOM     28  C   UNL A   1      39.208  21.834  26.076  1.00  0.00     0.188 C 
BRANCH  28  29
ATOM     29  C   UNL A   1      40.671  21.884  26.542  1.00  0.00     0.188 C 
BRANCH  29  30
ATOM     30  O   UNL A   1      41.731  21.820  25.614  1.00  0.00    -0.376 OA
BRANCH  30  31
ATOM     31  C   UNL A   1      42.713  22.794  25.354  1.00  0.00     0.202 C 
BRANCH  31  32
ATOM     32  C   UNL A   1      42.742  24.251  25.834  1.00  0.00     0.261 C 
BRANCH  32  33
ATOM     33  O   UNL A   1      43.188  25.278  24.962  1.00  0.00    -0.460 OA
BRANCH  33  34
ATOM     34  C   UNL A   1      44.305  25.957  25.295  1.00  0.00     0.338 C 
ATOM     35  O   UNL A   1      45.415  25.818  24.807  1.00  0.00    -0.246 OA
BRANCH  34  36
ATOM     36  C   UNL A   1      43.867  27.063  26.180  1.00  0.00     0.060 A 
ATOM     37  C   UNL A   1      42.889  27.968  25.737  1.00  0.00     0.016 A 
ATOM     38  C   UNL A   1      44.383  27.158  27.475  1.00  0.00     0.016 A 
ATOM     39  C   UNL A   1      42.459  29.001  26.568  1.00  0.00     0.010 A 
ATOM     40  C   UNL A   1      43.992  28.218  28.289  1.00  0.00     0.010 A 
ATOM     41  C   UNL A   1      43.072  29.169  27.813  1.00  0.00    -0.014 A 
BRANCH  41  42
ATOM     42  C   UNL A   1      43.067  30.500  28.456  1.00  0.00     0.031 A 
ATOM     43  C   UNL A   1      44.168  31.441  28.048  1.00  0.00     0.074 A 
ATOM     44  C   UNL A   1      42.173  30.839  29.396  1.00  0.00     0.049 A 
ATOM     45  N   UNL A   1      44.550  32.566  28.587  1.00  0.00    -0.248 NA
ATOM     46  C   UNL A   1      44.966  31.026  26.882  1.00  0.00     0.031 C 
ATOM     47  C   UNL A   1      41.035  30.026  29.815  1.00  0.00     0.029 A 
ATOM     48  N   UNL A   1      42.113  31.952  30.194  1.00  0.00    -0.354 N 
ATOM     49  C   UNL A   1      45.651  32.978  27.843  1.00  0.00     0.074 A 
ATOM     50  C   UNL A   1      45.893  31.967  26.841  1.00  0.00     0.031 C 
ATOM     51  C   UNL A   1      40.406  30.654  30.824  1.00  0.00     0.029 A 
ATOM     52  C   UNL A   1      41.134  31.880  31.154  1.00  0.00     0.049 A 
ATOM     53  H   UNL A   1      42.712  32.726  30.089  1.00  0.00     0.167 HD
ATOM     54  C   UNL A   1      46.395  34.100  27.991  1.00  0.00     0.034 A 
ATOM     55  C   UNL A   1      40.895  32.688  32.206  1.00  0.00     0.034 A 
ATOM     56  C   UNL A   1      46.144  35.071  29.023  1.00  0.00     0.049 A 
ATOM     57  C   UNL A   1      41.788  33.889  32.419  1.00  0.00     0.074 A 
ATOM     58  C   UNL A   1      46.816  36.252  29.281  1.00  0.00     0.029 A 
ATOM     59  N   UNL A   1      45.146  34.962  29.986  1.00  0.00    -0.354 N 
ATOM     60  N   UNL A   1      42.834  34.277  31.724  1.00  0.00    -0.248 NA
ATOM     61  C   UNL A   1      41.467  34.762  33.556  1.00  0.00     0.031 C 
ATOM     62  C   UNL A   1      46.282  36.810  30.446  1.00  0.00     0.029 A 
ATOM     63  C   UNL A   1      45.208  36.035  30.859  1.00  0.00     0.049 A 
ATOM     64  H   UNL A   1      44.492  34.229  30.040  1.00  0.00     0.167 HD
ATOM     65  C   UNL A   1      43.270  35.461  32.315  1.00  0.00     0.074 A 
ATOM     66  C   UNL A   1      42.376  35.718  33.426  1.00  0.00     0.031 C 
ATOM     67  C   UNL A   1      44.303  36.271  31.962  1.00  0.00     0.034 A 
BRANCH  54  68
ATOM     68  C   UNL A   1      47.579  34.267  27.069  1.00  0.00     0.023 A 
ATOM     69  C   UNL A   1      48.841  33.727  27.375  1.00  0.00     0.031 A 
ATOM     70  C   UNL A   1      47.467  35.053  25.909  1.00  0.00     0.131 A 
ATOM     71  C   UNL A   1      49.956  34.064  26.593  1.00  0.00     0.055 A 
ATOM     72  C   UNL A   1      48.562  35.300  25.078  1.00  0.00     0.041 A 
ATOM     73  F   UNL A   1      46.298  35.623  25.578  1.00  0.00    -0.206 F 
ATOM     74  C   UNL A   1      49.820  34.824  25.430  1.00  0.00     0.022 A 
BRANCH  71  75
ATOM     75  S   UNL A   1      51.609  33.662  27.228  1.00  0.00     0.124 S 
ATOM     76  O   UNL A   1      52.224  34.984  27.305  1.00  0.00    -0.237 OA
ATOM     77  O   UNL A   1      51.310  33.020  28.502  1.00  0.00    -0.237 OA
ATOM     78  O   UNL A   1      52.165  32.783  26.199  1.00  0.00    -0.744 OA
ENDBRANCH  71  75
ENDBRANCH  54  68
BRANCH  55  79
ATOM     79  C   UNL A   1      39.798  32.362  33.162  1.00  0.00     0.023 A 
ATOM     80  C   UNL A   1      38.561  33.020  33.098  1.00  0.00     0.031 A 
ATOM     81  C   UNL A   1      39.979  31.388  34.162  1.00  0.00     0.131 A 
ATOM     82  C   UNL A   1      37.559  32.714  34.034  1.00  0.00     0.055 A 
ATOM     83  C   UNL A   1      38.963  31.053  35.058  1.00  0.00     0.041 A 
ATOM     84  F   UNL A   1      41.145  30.732  34.267  1.00  0.00    -0.206 F 
ATOM     85  C   UNL A   1      37.745  31.725  35.002  1.00  0.00     0.022 A 
BRANCH  82  86
ATOM     86  S   UNL A   1      36.021  33.675  34.004  1.00  0.00     0.124 S 
ATOM     87  O   UNL A   1      35.606  33.613  35.400  1.00  0.00    -0.237 OA
ATOM     88  O   UNL A   1      36.485  34.976  33.530  1.00  0.00    -0.237 OA
ATOM     89  O   UNL A   1      35.177  32.939  33.066  1.00  0.00    -0.744 OA
ENDBRANCH  82  86
ENDBRANCH  55  79
BRANCH  67  90
ATOM     90  C   UNL A   1      44.477  37.555  32.735  1.00  0.00     0.023 A 
ATOM     91  C   UNL A   1      43.829  38.747  32.371  1.00  0.00     0.031 A 
ATOM     92  C   UNL A   1      45.284  37.566  33.889  1.00  0.00     0.131 A 
ATOM     93  C   UNL A   1      44.030  39.909  33.132  1.00  0.00     0.055 A 
ATOM     94  C   UNL A   1      45.431  38.708  34.676  1.00  0.00     0.041 A 
ATOM     95  F   UNL A   1      45.929  36.455  34.281  1.00  0.00    -0.206 F 
ATOM     96  C   UNL A   1      44.809  39.891  34.293  1.00  0.00     0.022 A 
BRANCH  93  97
ATOM     97  S   UNL A   1      43.322  41.473  32.545  1.00  0.00     0.124 S 
ATOM     98  O   UNL A   1      43.358  41.297  31.097  1.00  0.00    -0.237 OA
ATOM     99  O   UNL A   1      41.996  41.464  33.155  1.00  0.00    -0.237 OA
ATOM    100  O   UNL A   1      44.237  42.484  33.070  1.00  0.00    -0.744 OA
ENDBRANCH  93  97
ENDBRANCH  67  90
ENDBRANCH  41  42
ENDBRANCH  34  36
ENDBRANCH  33  34
ENDBRANCH  32  33
ENDBRANCH  31  32
ENDBRANCH  30  31
ENDBRANCH  29  30
ENDBRANCH  28  29
ENDBRANCH   1  28
TORSDOF 26
ENDMDL
MODEL 2
REMARK VINA RESULT:      -8.9      2.921      4.062
REMARK SMILES O=C(CC1(NC(=O)c2ccncc2Cl)CCCCC1)OCCOCCOCCOCCOC(=O)c1ccc(-c2c3nc(c(-c4cc(S(=O)(=O)[O-])ccc4F)c4ccc([nH]4)c(-c4cc(S(=O)(=O)[O-])ccc4F)c4nc(c(-c5cc(S(=O)(=O)[O-])ccc5F)c5ccc2[nH]5)C=C4)C=C3)cc1
REMARK SMILES IDX 26 1 25 2 24 3 23 4 22 5 21 6 20 7 2 8 1 9 3 10 4 11 15 12
REMARK SMILES IDX 19 13 16 14 18 15 17 16 5 17 6 18 7 20 8 21 9 22 13 23 10 24
REMARK SMILES IDX 12 25 14 26 11 27 27 28 28 29 29 30 30 31 31 32 32 33 33 34
REMARK SMILES IDX 34 35 35 36 36 37 97 38 37 39 96 40 38 41 39 42 40 43 90 44
REMARK SMILES IDX 41 45 95 46 89 47 91 48 42 49 94 50 88 51 87 52 43 54 75 55
REMARK SMILES IDX 55 56 74 57 56 58 59 59 73 60 92 61 57 62 58 63 72 65 93 66
REMARK SMILES IDX 60 67 44 68 45 69 53 70 46 71 52 72 54 73 51 74 47 75 48 76
REMARK SMILES IDX 49 77 50 78 76 79 77 80 85 81 78 82 84 83 86 84 83 85 79 86
REMARK SMILES IDX 80 87 81 88 82 89 61 90 62 91 70 92 63 93 69 94 71 95 68 96
REMARK SMILES IDX 64 97 65 98 66 99 67 100
REMARK H PARENT 5 19 91 53 59 64
REMARK Flexibility Score: inf
ROOT
ATOM      1  O   UNL A   1      38.569  22.737  26.339  1.00  0.00    -0.377 OA
ENDROOT
BRANCH   1   2
ATOM      2  C   UNL A   1      37.337  22.971  25.699  1.00  0.00     0.188 C 
BRANCH   2   3
ATOM      3  C   UNL A   1      37.110  22.056  24.474  1.00  0.00     0.188 C 
BRANCH   3   4
ATOM      4  O   UNL A   1      36.144  22.376  23.460  1.00  0.00    -0.376 OA
BRANCH   4   5
ATOM      5  C   UNL A   1      34.794  22.648  23.801  1.00  0.00     0.202 C 
BRANCH   5   6
ATOM      6  C   UNL A   1      34.035  21.451  24.364  1.00  0.00     0.261 C 
BRANCH   6   7
ATOM      7  O   UNL A   1      33.203  21.713  25.511  1.00  0.00    -0.463 OA
BRANCH   7   8
ATOM      8  C   UNL A   1      33.490  22.300  26.678  1.00  0.00     0.308 C 
ATOM      9  O   UNL A   1      34.397  21.865  27.396  1.00  0.00    -0.252 OA
BRANCH   8  10
ATOM     10  C   UNL A   1      32.796  23.517  27.133  1.00  0.00     0.151 C 
BRANCH  10  11
ATOM     11  C   UNL A   1      32.299  24.581  26.152  1.00  0.00     0.051 C 
ATOM     12  C   UNL A   1      31.460  25.649  26.922  1.00  0.00     0.029 C 
ATOM     13  C   UNL A   1      33.652  25.216  25.650  1.00  0.00     0.029 C 
ATOM     14  C   UNL A   1      31.607  27.123  26.570  1.00  0.00     0.002 C 
ATOM     15  C   UNL A   1      33.672  26.704  25.329  1.00  0.00     0.002 C 
ATOM     16  C   UNL A   1      33.060  27.513  26.454  1.00  0.00     0.000 C 
BRANCH  11  17
ATOM     17  N   UNL A   1      31.519  24.101  24.949  1.00  0.00    -0.346 N 
ATOM     18  C   UNL A   1      30.904  24.535  23.783  1.00  0.00     0.253 C 
ATOM     19  H   UNL A   1      31.406  23.125  25.017  1.00  0.00     0.164 HD
ATOM     20  O   UNL A   1      30.612  23.661  22.963  1.00  0.00    -0.269 OA
BRANCH  18  21
ATOM     21  C   UNL A   1      30.443  25.901  23.439  1.00  0.00     0.061 A 
ATOM     22  C   UNL A   1      29.170  26.312  23.850  1.00  0.00     0.035 A 
ATOM     23  C   UNL A   1      31.176  26.748  22.592  1.00  0.00     0.072 A 
ATOM     24  C   UNL A   1      28.738  27.589  23.501  1.00  0.00     0.112 A 
ATOM     25  C   UNL A   1      30.673  28.024  22.342  1.00  0.00     0.132 A 
ATOM     26  Cl  UNL A   1      32.694  26.317  21.894  1.00  0.00    -0.082 Cl
ATOM     27  N   UNL A   1      29.465  28.462  22.771  1.00  0.00    -0.263 NA
ENDBRANCH  18  21
ENDBRANCH  11  17
ENDBRANCH  10  11
ENDBRANCH   8  10
ENDBRANCH   7   8
ENDBRANCH   6   7
ENDBRANCH   5   6
ENDBRANCH   4   5
ENDBRANCH   3   4
ENDBRANCH   2   3
ENDBRANCH   1   2
BRANCH   1  28
ATOM     28  C   UNL A   1      39.364  21.688  25.842  1.00  0.00     0.188 C 
BRANCH  28  29
ATOM     29  C   UNL A   1      40.218  20.896  26.843  1.00  0.00     0.188 C 
BRANCH  29  30
ATOM     30  O   UNL A   1      41.221  20.009  26.400  1.00  0.00    -0.376 OA
BRANCH  30  31
ATOM     31  C   UNL A   1      42.571  20.298  26.128  1.00  0.00     0.202 C 
BRANCH  31  32
ATOM     32  C   UNL A   1      43.261  21.668  26.142  1.00  0.00     0.261 C 
BRANCH  32  33
ATOM     33  O   UNL A   1      44.229  21.986  25.154  1.00  0.00    -0.460 OA
BRANCH  33  34
ATOM     34  C   UNL A   1      45.514  22.126  25.541  1.00  0.00     0.338 C 
ATOM     35  O   UNL A   1      46.406  21.303  25.415  1.00  0.00    -0.246 OA
BRANCH  34  36
ATOM     36  C   UNL A   1      45.679  23.552  25.913  1.00  0.00     0.060 A 
ATOM     37  C   UNL A   1      46.084  23.893  27.213  1.00  0.00     0.016 A 
ATOM     38  C   UNL A   1      45.493  24.544  24.947  1.00  0.00     0.016 A 
ATOM     39  C   UNL A   1      46.258  25.230  27.566  1.00  0.00     0.010 A 
ATOM     40  C   UNL A   1      45.617  25.882  25.311  1.00  0.00     0.010 A 
ATOM     41  C   UNL A   1      45.945  26.224  26.635  1.00  0.00    -0.014 A 
BRANCH  41  42
ATOM     42  C   UNL A   1      45.579  27.577  27.105  1.00  0.00     0.031 A 
ATOM     43  C   UNL A   1      46.691  28.588  27.157  1.00  0.00     0.074 A 
ATOM     44  C   UNL A   1      44.341  27.879  27.524  1.00  0.00     0.049 A 
ATOM     45  N   UNL A   1      46.728  29.763  27.722  1.00  0.00    -0.248 NA
ATOM     46  C   UNL A   1      47.948  28.192  26.500  1.00  0.00     0.031 C 
ATOM     47  C   UNL A   1      43.183  26.992  27.456  1.00  0.00     0.029 A 
ATOM     48  N   UNL A   1      43.869  29.017  28.125  1.00  0.00    -0.354 N 
ATOM     49  C   UNL A   1      48.021  30.234  27.514  1.00  0.00     0.074 A 
ATOM     50  C   UNL A   1      48.741  29.204  26.802  1.00  0.00     0.031 C 
ATOM     51  C   UNL A   1      42.135  27.608  28.032  1.00  0.00     0.029 A 
ATOM     52  C   UNL A   1      42.569  28.904  28.555  1.00  0.00     0.049 A 
ATOM     53  H   UNL A   1      44.407  29.833  28.238  1.00  0.00     0.167 HD
ATOM     54  C   UNL A   1      48.556  31.419  27.890  1.00  0.00     0.034 A 
ATOM     55  C   UNL A   1      41.840  29.734  29.328  1.00  0.00     0.034 A 
ATOM     56  C   UNL A   1      47.816  32.410  28.627  1.00  0.00     0.049 A 
ATOM     57  C   UNL A   1      42.475  31.014  29.822  1.00  0.00     0.074 A 
ATOM     58  C   UNL A   1      48.235  33.653  29.065  1.00  0.00     0.029 A 
ATOM     59  N   UNL A   1      46.501  32.259  29.054  1.00  0.00    -0.354 N 
ATOM     60  N   UNL A   1      43.698  31.458  29.635  1.00  0.00    -0.248 NA
ATOM     61  C   UNL A   1      41.631  31.905  30.629  1.00  0.00     0.031 C 
ATOM     62  C   UNL A   1      47.206  34.214  29.827  1.00  0.00     0.029 A 
ATOM     63  C   UNL A   1      46.105  33.370  29.780  1.00  0.00     0.049 A 
ATOM     64  H   UNL A   1      45.934  31.477  28.868  1.00  0.00     0.167 HD
ATOM     65  C   UNL A   1      43.757  32.698  30.266  1.00  0.00     0.074 A 
ATOM     66  C   UNL A   1      42.447  32.928  30.844  1.00  0.00     0.031 C 
ATOM     67  C   UNL A   1      44.791  33.576  30.347  1.00  0.00     0.034 A 
BRANCH  54  68
ATOM     68  C   UNL A   1      50.016  31.645  27.577  1.00  0.00     0.023 A 
ATOM     69  C   UNL A   1      50.434  32.242  26.375  1.00  0.00     0.031 A 
ATOM     70  C   UNL A   1      51.008  31.176  28.455  1.00  0.00     0.131 A 
ATOM     71  C   UNL A   1      51.796  32.260  26.038  1.00  0.00     0.055 A 
ATOM     72  C   UNL A   1      52.368  31.290  28.159  1.00  0.00     0.041 A 
ATOM     73  F   UNL A   1      50.674  30.567  29.605  1.00  0.00    -0.206 F 
ATOM     74  C   UNL A   1      52.768  31.814  26.934  1.00  0.00     0.022 A 
BRANCH  71  75
ATOM     75  S   UNL A   1      52.259  32.690  24.336  1.00  0.00     0.124 S 
ATOM     76  O   UNL A   1      51.503  33.923  24.128  1.00  0.00    -0.237 OA
ATOM     77  O   UNL A   1      53.706  32.835  24.429  1.00  0.00    -0.237 OA
ATOM     78  O   UNL A   1      51.793  31.545  23.555  1.00  0.00    -0.744 OA
ENDBRANCH  71  75
ENDBRANCH  54  68
BRANCH  55  79
ATOM     79  C   UNL A   1      40.452  29.358  29.721  1.00  0.00     0.023 A 
ATOM     80  C   UNL A   1      39.341  29.850  29.020  1.00  0.00     0.031 A 
ATOM     81  C   UNL A   1      40.219  28.504  30.815  1.00  0.00     0.131 A 
ATOM     82  C   UNL A   1      38.045  29.505  29.435  1.00  0.00     0.055 A 
ATOM     83  C   UNL A   1      38.930  28.125  31.194  1.00  0.00     0.041 A 
ATOM     84  F   UNL A   1      41.247  28.008  31.521  1.00  0.00    -0.206 F 
ATOM     85  C   UNL A   1      37.832  28.633  30.506  1.00  0.00     0.022 A 
BRANCH  82  86
ATOM     86  S   UNL A   1      36.632  30.262  28.588  1.00  0.00     0.124 S 
ATOM     87  O   UNL A   1      37.169  30.476  27.249  1.00  0.00    -0.237 OA
ATOM     88  O   UNL A   1      35.612  29.225  28.712  1.00  0.00    -0.237 OA
ATOM     89  O   UNL A   1      36.379  31.475  29.362  1.00  0.00    -0.744 OA
ENDBRANCH  82  86
ENDBRANCH  55  79
BRANCH  67  90
ATOM     90  C   UNL A   1      44.529  34.903  31.017  1.00  0.00     0.023 A 
ATOM     91  C   UNL A   1      44.757  35.113  32.386  1.00  0.00     0.031 A 
ATOM     92  C   UNL A   1      44.077  35.991  30.246  1.00  0.00     0.131 A 
ATOM     93  C   UNL A   1      44.495  36.371  32.951  1.00  0.00     0.055 A 
ATOM     94  C   UNL A   1      43.877  37.255  30.801  1.00  0.00     0.041 A 
ATOM     95  F   UNL A   1      43.840  35.846  28.932  1.00  0.00    -0.206 F 
ATOM     96  C   UNL A   1      44.078  37.448  32.163  1.00  0.00     0.022 A 
BRANCH  93  97
ATOM     97  S   UNL A   1      44.632  36.569  34.749  1.00  0.00     0.124 S 
ATOM     98  O   UNL A   1      43.239  36.758  35.140  1.00  0.00    -0.237 OA
ATOM     99  O   UNL A   1      45.243  35.308  35.157  1.00  0.00    -0.237 OA
ATOM    100  O   UNL A   1      45.484  37.747  34.901  1.00  0.00    -0.744 OA
ENDBRANCH  93  97
ENDBRANCH  67  90
ENDBRANCH  41  42
ENDBRANCH  34  36
ENDBRANCH  33  34
ENDBRANCH  32  33
ENDBRANCH  31  32
ENDBRANCH  30  31
ENDBRANCH  29  30
ENDBRANCH  28  29
ENDBRANCH   1  28
TORSDOF 26
ENDMDL
MODEL 3
REMARK VINA RESULT:      -8.9      2.449      3.189
REMARK SMILES O=C(CC1(NC(=O)c2ccncc2Cl)CCCCC1)OCCOCCOCCOCCOC(=O)c1ccc(-c2c3nc(c(-c4cc(S(=O)(=O)[O-])ccc4F)c4ccc([nH]4)c(-c4cc(S(=O)(=O)[O-])ccc4F)c4nc(c(-c5cc(S(=O)(=O)[O-])ccc5F)c5ccc2[nH]5)C=C4)C=C3)cc1
REMARK SMILES IDX 26 1 25 2 24 3 23 4 22 5 21 6 20 7 2 8 1 9 3 10 4 11 15 12
REMARK SMILES IDX 19 13 16 14 18 15 17 16 5 17 6 18 7 20 8 21 9 22 13 23 10 24
REMARK SMILES IDX 12 25 14 26 11 27 27 28 28 29 29 30 30 31 31 32 32 33 33 34
REMARK SMILES IDX 34 35 35 36 36 37 97 38 37 39 96 40 38 41 39 42 40 43 90 44
REMARK SMILES IDX 41 45 95 46 89 47 91 48 42 49 94 50 88 51 87 52 43 54 75 55
REMARK SMILES IDX 55 56 74 57 56 58 59 59 73 60 92 61 57 62 58 63 72 65 93 66
REMARK SMILES IDX 60 67 44 68 45 69 53 70 46 71 52 72 54 73 51 74 47 75 48 76
REMARK SMILES IDX 49 77 50 78 76 79 77 80 85 81 78 82 84 83 86 84 83 85 79 86
REMARK SMILES IDX 80 87 81 88 82 89 61 90 62 91 70 92 63 93 69 94 71 95 68 96
REMARK SMILES IDX 64 97 65 98 66 99 67 100
REMARK H PARENT 5 19 91 53 59 64
REMARK Flexibility Score: inf
ROOT
ATOM      1  O   UNL A   1      38.410  22.926  25.824  1.00  0.00    -0.377 OA
ENDROOT
BRANCH   1   2
ATOM      2  C   UNL A   1      37.156  23.180  25.239  1.00  0.00     0.188 C 
BRANCH   2   3
ATOM      3  C   UNL A   1      36.938  22.407  23.919  1.00  0.00     0.188 C 
BRANCH   3   4
ATOM      4  O   UNL A   1      36.004  22.857  22.924  1.00  0.00    -0.376 OA
BRANCH   4   5
ATOM      5  C   UNL A   1      34.727  23.352  23.295  1.00  0.00     0.202 C 
BRANCH   5   6
ATOM      6  C   UNL A   1      33.942  22.430  24.222  1.00  0.00     0.261 C 
BRANCH   6   7
ATOM      7  O   UNL A   1      32.691  22.948  24.717  1.00  0.00    -0.463 OA
BRANCH   7   8
ATOM      8  C   UNL A   1      32.243  23.088  25.970  1.00  0.00     0.308 C 
ATOM      9  O   UNL A   1      32.109  22.104  26.705  1.00  0.00    -0.252 OA
BRANCH   8  10
ATOM     10  C   UNL A   1      31.949  24.409  26.552  1.00  0.00     0.151 C 
BRANCH  10  11
ATOM     11  C   UNL A   1      32.030  25.695  25.725  1.00  0.00     0.051 C 
ATOM     12  C   UNL A   1      31.110  26.783  26.362  1.00  0.00     0.029 C 
ATOM     13  C   UNL A   1      33.544  26.098  25.901  1.00  0.00     0.029 C 
ATOM     14  C   UNL A   1      31.584  28.228  26.429  1.00  0.00     0.002 C 
ATOM     15  C   UNL A   1      33.893  27.578  25.953  1.00  0.00     0.002 C 
ATOM     16  C   UNL A   1      33.003  28.313  26.935  1.00  0.00     0.000 C 
BRANCH  11  17
ATOM     17  N   UNL A   1      31.731  25.585  24.248  1.00  0.00    -0.346 N 
ATOM     18  C   UNL A   1      31.239  26.297  23.162  1.00  0.00     0.253 C 
ATOM     19  H   UNL A   1      31.972  24.680  23.945  1.00  0.00     0.164 HD
ATOM     20  O   UNL A   1      31.453  25.809  22.049  1.00  0.00    -0.269 OA
BRANCH  18  21
ATOM     21  C   UNL A   1      30.387  27.509  23.165  1.00  0.00     0.061 A 
ATOM     22  C   UNL A   1      28.996  27.363  23.220  1.00  0.00     0.035 A 
ATOM     23  C   UNL A   1      30.915  28.796  22.970  1.00  0.00     0.072 A 
ATOM     24  C   UNL A   1      28.205  28.508  23.198  1.00  0.00     0.112 A 
ATOM     25  C   UNL A   1      30.038  29.879  23.011  1.00  0.00     0.132 A 
ATOM     26  Cl  UNL A   1      32.595  29.114  22.744  1.00  0.00    -0.082 Cl
ATOM     27  N   UNL A   1      28.691  29.765  23.112  1.00  0.00    -0.263 NA
ENDBRANCH  18  21
ENDBRANCH  11  17
ENDBRANCH  10  11
ENDBRANCH   8  10
ENDBRANCH   7   8
ENDBRANCH   6   7
ENDBRANCH   5   6
ENDBRANCH   4   5
ENDBRANCH   3   4
ENDBRANCH   2   3
ENDBRANCH   1   2
BRANCH   1  28
ATOM     28  C   UNL A   1      38.886  21.603  25.777  1.00  0.00     0.188 C 
BRANCH  28  29
ATOM     29  C   UNL A   1      40.104  21.245  26.642  1.00  0.00     0.188 C 
BRANCH  29  30
ATOM     30  O   UNL A   1      41.137  20.427  26.139  1.00  0.00    -0.376 OA
BRANCH  30  31
ATOM     31  C   UNL A   1      42.512  20.718  26.065  1.00  0.00     0.202 C 
BRANCH  31  32
ATOM     32  C   UNL A   1      43.239  21.963  26.590  1.00  0.00     0.261 C 
BRANCH  32  33
ATOM     33  O   UNL A   1      44.200  22.620  25.777  1.00  0.00    -0.460 OA
BRANCH  33  34
ATOM     34  C   UNL A   1      45.187  23.309  26.386  1.00  0.00     0.338 C 
ATOM     35  O   UNL A   1      46.376  23.032  26.385  1.00  0.00    -0.246 OA
BRANCH  34  36
ATOM     36  C   UNL A   1      44.582  24.585  26.837  1.00  0.00     0.060 A 
ATOM     37  C   UNL A   1      44.120  25.513  25.890  1.00  0.00     0.016 A 
ATOM     38  C   UNL A   1      44.416  24.827  28.203  1.00  0.00     0.016 A 
ATOM     39  C   UNL A   1      43.535  26.708  26.305  1.00  0.00     0.010 A 
ATOM     40  C   UNL A   1      43.878  26.040  28.621  1.00  0.00     0.010 A 
ATOM     41  C   UNL A   1      43.490  27.002  27.671  1.00  0.00    -0.014 A 
BRANCH  41  42
ATOM     42  C   UNL A   1      43.414  28.411  28.112  1.00  0.00     0.031 A 
ATOM     43  C   UNL A   1      44.721  29.143  28.231  1.00  0.00     0.074 A 
ATOM     44  C   UNL A   1      42.254  28.995  28.450  1.00  0.00     0.049 A 
ATOM     45  N   UNL A   1      44.991  30.289  28.794  1.00  0.00    -0.248 NA
ATOM     46  C   UNL A   1      45.893  28.460  27.658  1.00  0.00     0.031 C 
ATOM     47  C   UNL A   1      40.931  28.393  28.311  1.00  0.00     0.029 A 
ATOM     48  N   UNL A   1      42.018  30.221  29.016  1.00  0.00    -0.354 N 
ATOM     49  C   UNL A   1      46.367  30.449  28.667  1.00  0.00     0.074 A 
ATOM     50  C   UNL A   1      46.876  29.270  28.006  1.00  0.00     0.031 C 
ATOM     51  C   UNL A   1      40.018  29.242  28.816  1.00  0.00     0.029 A 
ATOM     52  C   UNL A   1      40.703  30.415  29.362  1.00  0.00     0.049 A 
ATOM     53  H   UNL A   1      42.720  30.895  29.159  1.00  0.00     0.167 HD
ATOM     54  C   UNL A   1      47.135  31.489  29.072  1.00  0.00     0.034 A 
ATOM     55  C   UNL A   1      40.136  31.402  30.083  1.00  0.00     0.034 A 
ATOM     56  C   UNL A   1      46.596  32.635  29.757  1.00  0.00     0.049 A 
ATOM     57  C   UNL A   1      41.015  32.513  30.612  1.00  0.00     0.074 A 
ATOM     58  C   UNL A   1      47.260  33.757  30.216  1.00  0.00     0.029 A 
ATOM     59  N   UNL A   1      45.258  32.795  30.099  1.00  0.00    -0.354 N 
ATOM     60  N   UNL A   1      42.316  32.663  30.502  1.00  0.00    -0.248 NA
ATOM     61  C   UNL A   1      40.349  33.587  31.360  1.00  0.00     0.031 C 
ATOM     62  C   UNL A   1      46.342  34.552  30.908  1.00  0.00     0.029 A 
ATOM     63  C   UNL A   1      45.083  33.980  30.794  1.00  0.00     0.049 A 
ATOM     64  H   UNL A   1      44.540  32.159  29.880  1.00  0.00     0.167 HD
ATOM     65  C   UNL A   1      42.618  33.869  31.131  1.00  0.00     0.074 A 
ATOM     66  C   UNL A   1      41.362  34.401  31.623  1.00  0.00     0.031 C 
ATOM     67  C   UNL A   1      43.818  34.490  31.275  1.00  0.00     0.034 A 
BRANCH  54  68
ATOM     68  C   UNL A   1      48.624  31.371  28.853  1.00  0.00     0.023 A 
ATOM     69  C   UNL A   1      49.265  31.981  27.760  1.00  0.00     0.031 A 
ATOM     70  C   UNL A   1      49.402  30.562  29.699  1.00  0.00     0.131 A 
ATOM     71  C   UNL A   1      50.610  31.692  27.484  1.00  0.00     0.055 A 
ATOM     72  C   UNL A   1      50.766  30.360  29.477  1.00  0.00     0.041 A 
ATOM     73  F   UNL A   1      48.844  29.926  30.742  1.00  0.00    -0.206 F 
ATOM     74  C   UNL A   1      51.372  30.909  28.352  1.00  0.00     0.022 A 
BRANCH  71  75
ATOM     75  S   UNL A   1      51.288  32.191  25.876  1.00  0.00     0.124 S 
ATOM     76  O   UNL A   1      52.556  32.801  26.268  1.00  0.00    -0.237 OA
ATOM     77  O   UNL A   1      51.382  30.922  25.166  1.00  0.00    -0.237 OA
ATOM     78  O   UNL A   1      50.290  33.126  25.359  1.00  0.00    -0.744 OA
ENDBRANCH  71  75
ENDBRANCH  54  68
BRANCH  55  79
ATOM     79  C   UNL A   1      38.678  31.359  30.388  1.00  0.00     0.023 A 
ATOM     80  C   UNL A   1      37.743  31.994  29.556  1.00  0.00     0.031 A 
ATOM     81  C   UNL A   1      38.198  30.686  31.527  1.00  0.00     0.131 A 
ATOM     82  C   UNL A   1      36.379  31.964  29.888  1.00  0.00     0.055 A 
ATOM     83  C   UNL A   1      36.837  30.617  31.826  1.00  0.00     0.041 A 
ATOM     84  F   UNL A   1      39.051  30.064  32.357  1.00  0.00    -0.206 F 
ATOM     85  C   UNL A   1      35.918  31.267  31.007  1.00  0.00     0.022 A 
BRANCH  82  86
ATOM     86  S   UNL A   1      35.216  32.905  28.863  1.00  0.00     0.124 S 
ATOM     87  O   UNL A   1      34.972  34.079  29.692  1.00  0.00    -0.237 OA
ATOM     88  O   UNL A   1      35.994  33.128  27.648  1.00  0.00    -0.237 OA
ATOM     89  O   UNL A   1      34.081  31.997  28.714  1.00  0.00    -0.744 OA
ENDBRANCH  82  86
ENDBRANCH  55  79
BRANCH  67  90
ATOM     90  C   UNL A   1      43.825  35.854  31.922  1.00  0.00     0.023 A 
ATOM     91  C   UNL A   1      43.887  37.041  31.175  1.00  0.00     0.031 A 
ATOM     92  C   UNL A   1      43.726  35.956  33.322  1.00  0.00     0.131 A 
ATOM     93  C   UNL A   1      43.888  38.280  31.835  1.00  0.00     0.055 A 
ATOM     94  C   UNL A   1      43.665  37.191  33.969  1.00  0.00     0.041 A 
ATOM     95  F   UNL A   1      43.666  34.853  34.086  1.00  0.00    -0.206 F 
ATOM     96  C   UNL A   1      43.755  38.362  33.225  1.00  0.00     0.022 A 
BRANCH  93  97
ATOM     97  S   UNL A   1      44.142  39.790  30.863  1.00  0.00     0.124 S 
ATOM     98  O   UNL A   1      44.164  40.817  31.899  1.00  0.00    -0.237 OA
ATOM     99  O   UNL A   1      45.415  39.525  30.200  1.00  0.00    -0.237 OA
ATOM    100  O   UNL A   1      42.980  39.829  29.977  1.00  0.00    -0.744 OA
ENDBRANCH  93  97
ENDBRANCH  67  90
ENDBRANCH  41  42
ENDBRANCH  34  36
ENDBRANCH  33  34
ENDBRANCH  32  33
ENDBRANCH  31  32
ENDBRANCH  30  31
ENDBRANCH  29  30
ENDBRANCH  28  29
ENDBRANCH   1  28
TORSDOF 26
ENDMDL
