MODEL 1
REMARK VINA RESULT:      -8.6      0.000      0.000
REMARK SMILES C[C@](NC(=O)Cc1csc(N)n1)(C(=O)OCCOCCOCCOCCOC(=O)c1ccc(-c2c3nc(c(-c4cc(S(=O)(=O)[O-])ccc4F)c4ccc([nH]4)c(-c4cc(S(=O)(=O)[O-])ccc4F)c4nc(c(-c5cc(S(=O)(=O)[O-])ccc5F)c5ccc2[nH]5)C=C4)C=C3)cc1)C(F)(F)F
REMARK SMILES IDX 20 1 19 2 18 3 17 4 16 5 15 6 13 7 14 8 2 9 1 10 93 11 94 12
REMARK SMILES IDX 95 13 96 14 3 15 4 16 5 18 6 19 7 20 8 21 12 22 9 23 10 24
REMARK SMILES IDX 11 25 21 28 22 29 23 30 24 31 25 32 26 33 27 34 28 35 29 36
REMARK SMILES IDX 30 37 31 38 92 39 32 40 91 41 33 42 34 43 35 44 85 45 36 46
REMARK SMILES IDX 90 47 84 48 86 49 37 50 89 51 83 52 82 53 38 55 70 56 50 57
REMARK SMILES IDX 69 58 51 59 54 60 68 61 87 62 52 63 53 64 67 66 88 67 55 68
REMARK SMILES IDX 39 69 40 70 48 71 41 72 47 73 49 74 46 75 42 76 43 77 44 78
REMARK SMILES IDX 45 79 71 80 72 81 80 82 73 83 79 84 81 85 78 86 74 87 75 88
REMARK SMILES IDX 76 89 77 90 56 91 57 92 65 93 58 94 64 95 66 96 63 97 59 98
REMARK SMILES IDX 60 99 61 100 62 101
REMARK H PARENT 3 17 11 26 11 27 86 54 54 65
REMARK Flexibility Score: inf
ROOT
ATOM      1  C   UNL A   1      34.454  31.876  27.931  1.00  0.00     0.188 C 
ENDROOT
BRANCH   1   2
ATOM      2  C   UNL A   1      33.694  30.750  27.215  1.00  0.00     0.188 C 
BRANCH   2   3
ATOM      3  O   UNL A   1      34.152  29.423  27.389  1.00  0.00    -0.376 OA
BRANCH   3   4
ATOM      4  C   UNL A   1      34.093  28.469  26.336  1.00  0.00     0.202 C 
BRANCH   4   5
ATOM      5  C   UNL A   1      32.903  28.260  25.374  1.00  0.00     0.261 C 
BRANCH   5   6
ATOM      6  O   UNL A   1      32.858  27.019  24.653  1.00  0.00    -0.461 OA
BRANCH   6   7
ATOM      7  C   UNL A   1      31.829  26.192  24.918  1.00  0.00     0.341 C 
ATOM      8  O   UNL A   1      31.577  25.783  26.046  1.00  0.00    -0.249 OA
BRANCH   7   9
ATOM      9  C   UNL A   1      31.023  25.798  23.666  1.00  0.00     0.231 C 
ATOM     10  C   UNL A   1      30.469  24.398  23.967  1.00  0.00     0.058 C 
BRANCH   9  11
ATOM     11  C   UNL A   1      29.887  26.809  23.691  1.00  0.00     0.422 C 
ATOM     12  F   UNL A   1      30.002  27.630  24.754  1.00  0.00    -0.168 F 
ATOM     13  F   UNL A   1      29.921  27.524  22.546  1.00  0.00    -0.168 F 
ATOM     14  F   UNL A   1      28.648  26.278  23.733  1.00  0.00    -0.168 F 
ENDBRANCH   9  11
BRANCH   9  15
ATOM     15  N   UNL A   1      31.778  25.647  22.344  1.00  0.00    -0.333 N 
ATOM     16  C   UNL A   1      32.935  25.015  21.958  1.00  0.00     0.227 C 
ATOM     17  H   UNL A   1      31.332  26.109  21.599  1.00  0.00     0.164 HD
ATOM     18  O   UNL A   1      33.674  25.647  21.192  1.00  0.00    -0.275 OA
BRANCH  16  19
ATOM     19  C   UNL A   1      33.227  23.535  22.201  1.00  0.00     0.157 C 
BRANCH  19  20
ATOM     20  C   UNL A   1      33.767  23.188  23.540  1.00  0.00     0.063 A 
ATOM     21  C   UNL A   1      34.621  23.903  24.357  1.00  0.00     0.093 A 
ATOM     22  N   UNL A   1      33.337  21.989  24.085  1.00  0.00    -0.225 NA
ATOM     23  S   UNL A   1      34.669  23.168  25.917  1.00  0.00    -0.106 S 
ATOM     24  C   UNL A   1      33.561  21.977  25.372  1.00  0.00     0.180 A 
BRANCH  24  25
ATOM     25  N   UNL A   1      32.868  21.178  26.193  1.00  0.00    -0.375 N 
ATOM     26  H   UNL A   1      32.658  20.256  25.922  1.00  0.00     0.159 HD
ATOM     27  H   UNL A   1      32.570  21.513  27.070  1.00  0.00     0.159 HD
ENDBRANCH  24  25
ENDBRANCH  19  20
ENDBRANCH  16  19
ENDBRANCH   9  15
ENDBRANCH   7   9
ENDBRANCH   6   7
ENDBRANCH   5   6
ENDBRANCH   4   5
ENDBRANCH   3   4
ENDBRANCH   2   3
ENDBRANCH   1   2
BRANCH   1  28
ATOM     28  O   UNL A   1      33.628  32.927  28.384  1.00  0.00    -0.377 OA
BRANCH  28  29
ATOM     29  C   UNL A   1      34.023  34.246  28.049  1.00  0.00     0.188 C 
BRANCH  29  30
ATOM     30  C   UNL A   1      33.548  35.422  28.929  1.00  0.00     0.188 C 
BRANCH  30  31
ATOM     31  O   UNL A   1      32.909  35.036  30.139  1.00  0.00    -0.376 OA
BRANCH  31  32
ATOM     32  C   UNL A   1      33.296  35.665  31.351  1.00  0.00     0.202 C 
BRANCH  32  33
ATOM     33  C   UNL A   1      34.419  35.021  32.181  1.00  0.00     0.261 C 
BRANCH  33  34
ATOM     34  O   UNL A   1      35.459  34.346  31.462  1.00  0.00    -0.460 OA
BRANCH  34  35
ATOM     35  C   UNL A   1      35.459  32.995  31.447  1.00  0.00     0.338 C 
ATOM     36  O   UNL A   1      34.486  32.263  31.451  1.00  0.00    -0.246 OA
BRANCH  35  37
ATOM     37  C   UNL A   1      36.855  32.566  31.201  1.00  0.00     0.060 A 
ATOM     38  C   UNL A   1      37.606  32.019  32.253  1.00  0.00     0.016 A 
ATOM     39  C   UNL A   1      37.397  32.660  29.918  1.00  0.00     0.016 A 
ATOM     40  C   UNL A   1      38.916  31.591  32.028  1.00  0.00     0.010 A 
ATOM     41  C   UNL A   1      38.716  32.260  29.702  1.00  0.00     0.010 A 
ATOM     42  C   UNL A   1      39.492  31.757  30.763  1.00  0.00    -0.014 A 
BRANCH  42  43
ATOM     43  C   UNL A   1      40.960  31.667  30.582  1.00  0.00     0.031 A 
ATOM     44  C   UNL A   1      41.743  32.947  30.668  1.00  0.00     0.074 A 
ATOM     45  C   UNL A   1      41.577  30.509  30.294  1.00  0.00     0.049 A 
ATOM     46  N   UNL A   1      42.987  33.190  30.353  1.00  0.00    -0.248 NA
ATOM     47  C   UNL A   1      41.000  34.118  31.155  1.00  0.00     0.031 C 
ATOM     48  C   UNL A   1      40.934  29.199  30.242  1.00  0.00     0.029 A 
ATOM     49  N   UNL A   1      42.886  30.261  29.957  1.00  0.00    -0.354 N 
ATOM     50  C   UNL A   1      43.169  34.550  30.578  1.00  0.00     0.074 A 
ATOM     51  C   UNL A   1      41.898  35.078  31.022  1.00  0.00     0.031 C 
ATOM     52  C   UNL A   1      41.844  28.287  29.856  1.00  0.00     0.029 A 
ATOM     53  C   UNL A   1      43.115  28.959  29.582  1.00  0.00     0.049 A 
ATOM     54  H   UNL A   1      43.589  30.949  29.982  1.00  0.00     0.167 HD
ATOM     55  C   UNL A   1      44.296  35.289  30.421  1.00  0.00     0.034 A 
ATOM     56  C   UNL A   1      44.208  28.390  29.029  1.00  0.00     0.034 A 
ATOM     57  C   UNL A   1      45.543  34.741  29.949  1.00  0.00     0.049 A 
ATOM     58  C   UNL A   1      45.429  29.243  28.770  1.00  0.00     0.074 A 
ATOM     59  C   UNL A   1      46.753  35.385  29.767  1.00  0.00     0.029 A 
ATOM     60  N   UNL A   1      45.733  33.420  29.562  1.00  0.00    -0.354 N 
ATOM     61  N   UNL A   1      45.601  30.529  28.978  1.00  0.00    -0.248 NA
ATOM     62  C   UNL A   1      46.604  28.568  28.200  1.00  0.00     0.031 C 
ATOM     63  C   UNL A   1      47.645  34.478  29.184  1.00  0.00     0.029 A 
ATOM     64  C   UNL A   1      47.028  33.239  29.102  1.00  0.00     0.049 A 
ATOM     65  H   UNL A   1      45.048  32.714  29.608  1.00  0.00     0.167 HD
ATOM     66  C   UNL A   1      46.914  30.807  28.602  1.00  0.00     0.074 A 
ATOM     67  C   UNL A   1      47.486  29.555  28.149  1.00  0.00     0.031 C 
ATOM     68  C   UNL A   1      47.587  31.986  28.647  1.00  0.00     0.034 A 
BRANCH  55  69
ATOM     69  C   UNL A   1      44.185  36.772  30.688  1.00  0.00     0.023 A 
ATOM     70  C   UNL A   1      44.310  37.306  31.983  1.00  0.00     0.031 A 
ATOM     71  C   UNL A   1      43.866  37.658  29.642  1.00  0.00     0.131 A 
ATOM     72  C   UNL A   1      44.008  38.657  32.215  1.00  0.00     0.055 A 
ATOM     73  C   UNL A   1      43.670  39.021  29.865  1.00  0.00     0.041 A 
ATOM     74  F   UNL A   1      43.706  37.207  28.389  1.00  0.00    -0.206 F 
ATOM     75  C   UNL A   1      43.717  39.525  31.161  1.00  0.00     0.022 A 
BRANCH  72  76
ATOM     76  S   UNL A   1      43.797  39.209  33.931  1.00  0.00     0.124 S 
ATOM     77  O   UNL A   1      42.601  38.472  34.332  1.00  0.00    -0.237 OA
ATOM     78  O   UNL A   1      45.046  38.788  34.554  1.00  0.00    -0.237 OA
ATOM     79  O   UNL A   1      43.615  40.654  33.805  1.00  0.00    -0.744 OA
ENDBRANCH  72  76
ENDBRANCH  55  69
BRANCH  56  80
ATOM     80  C   UNL A   1      44.175  26.954  28.631  1.00  0.00     0.023 A 
ATOM     81  C   UNL A   1      43.879  26.566  27.315  1.00  0.00     0.031 A 
ATOM     82  C   UNL A   1      44.435  25.942  29.574  1.00  0.00     0.131 A 
ATOM     83  C   UNL A   1      43.829  25.202  26.983  1.00  0.00     0.055 A 
ATOM     84  C   UNL A   1      44.432  24.590  29.228  1.00  0.00     0.041 A 
ATOM     85  F   UNL A   1      44.721  26.259  30.847  1.00  0.00    -0.206 F 
ATOM     86  C   UNL A   1      44.121  24.214  27.926  1.00  0.00     0.022 A 
BRANCH  83  87
ATOM     87  S   UNL A   1      43.327  24.731  25.305  1.00  0.00     0.124 S 
ATOM     88  O   UNL A   1      42.459  25.842  24.932  1.00  0.00    -0.237 OA
ATOM     89  O   UNL A   1      44.609  24.658  24.614  1.00  0.00    -0.237 OA
ATOM     90  O   UNL A   1      42.653  23.449  25.500  1.00  0.00    -0.744 OA
ENDBRANCH  83  87
ENDBRANCH  56  80
BRANCH  68  91
ATOM     91  C   UNL A   1      49.050  31.973  28.264  1.00  0.00     0.023 A 
ATOM     92  C   UNL A   1      49.522  32.534  27.066  1.00  0.00     0.031 A 
ATOM     93  C   UNL A   1      49.994  31.415  29.148  1.00  0.00     0.131 A 
ATOM     94  C   UNL A   1      50.895  32.495  26.769  1.00  0.00     0.055 A 
ATOM     95  C   UNL A   1      51.362  31.434  28.876  1.00  0.00     0.041 A 
ATOM     96  F   UNL A   1      49.601  30.861  30.305  1.00  0.00    -0.206 F 
ATOM     97  C   UNL A   1      51.819  31.969  27.675  1.00  0.00     0.022 A 
BRANCH  94  98
ATOM     98  S   UNL A   1      51.457  33.070  25.142  1.00  0.00     0.124 S 
ATOM     99  O   UNL A   1      51.475  31.831  24.372  1.00  0.00    -0.237 OA
ATOM    100  O   UNL A   1      50.424  34.035  24.776  1.00  0.00    -0.237 OA
ATOM    101  O   UNL A   1      52.772  33.647  25.417  1.00  0.00    -0.744 OA
ENDBRANCH  94  98
ENDBRANCH  68  91
ENDBRANCH  42  43
ENDBRANCH  35  37
ENDBRANCH  34  35
ENDBRANCH  33  34
ENDBRANCH  32  33
ENDBRANCH  31  32
ENDBRANCH  30  31
ENDBRANCH  29  30
ENDBRANCH  28  29
ENDBRANCH   1  28
TORSDOF 28
ENDMDL
MODEL 2
REMARK VINA RESULT:      -8.6      2.100      2.414
REMARK SMILES C[C@](NC(=O)Cc1csc(N)n1)(C(=O)OCCOCCOCCOCCOC(=O)c1ccc(-c2c3nc(c(-c4cc(S(=O)(=O)[O-])ccc4F)c4ccc([nH]4)c(-c4cc(S(=O)(=O)[O-])ccc4F)c4nc(c(-c5cc(S(=O)(=O)[O-])ccc5F)c5ccc2[nH]5)C=C4)C=C3)cc1)C(F)(F)F
REMARK SMILES IDX 20 1 19 2 18 3 17 4 16 5 15 6 13 7 14 8 2 9 1 10 93 11 94 12
REMARK SMILES IDX 95 13 96 14 3 15 4 16 5 18 6 19 7 20 8 21 12 22 9 23 10 24
REMARK SMILES IDX 11 25 21 28 22 29 23 30 24 31 25 32 26 33 27 34 28 35 29 36
REMARK SMILES IDX 30 37 31 38 92 39 32 40 91 41 33 42 34 43 35 44 85 45 36 46
REMARK SMILES IDX 90 47 84 48 86 49 37 50 89 51 83 52 82 53 38 55 70 56 50 57
REMARK SMILES IDX 69 58 51 59 54 60 68 61 87 62 52 63 53 64 67 66 88 67 55 68
REMARK SMILES IDX 39 69 40 70 48 71 41 72 47 73 49 74 46 75 42 76 43 77 44 78
REMARK SMILES IDX 45 79 71 80 72 81 80 82 73 83 79 84 81 85 78 86 74 87 75 88
REMARK SMILES IDX 76 89 77 90 56 91 57 92 65 93 58 94 64 95 66 96 63 97 59 98
REMARK SMILES IDX 60 99 61 100 62 101
REMARK H PARENT 3 17 11 26 11 27 86 54 54 65
REMARK Flexibility Score: inf
ROOT
ATOM      1  C   UNL A   1      34.575  32.091  27.855  1.00  0.00     0.188 C 
ENDROOT
BRANCH   1   2
ATOM      2  C   UNL A   1      33.921  30.725  27.602  1.00  0.00     0.188 C 
BRANCH   2   3
ATOM      3  O   UNL A   1      34.713  29.703  27.030  1.00  0.00    -0.376 OA
BRANCH   3   4
ATOM      4  C   UNL A   1      34.177  28.781  26.089  1.00  0.00     0.202 C 
BRANCH   4   5
ATOM      5  C   UNL A   1      33.248  29.137  24.907  1.00  0.00     0.261 C 
BRANCH   5   6
ATOM      6  O   UNL A   1      32.799  28.051  24.082  1.00  0.00    -0.461 OA
BRANCH   6   7
ATOM      7  C   UNL A   1      31.584  27.537  24.350  1.00  0.00     0.341 C 
ATOM      8  O   UNL A   1      31.209  27.275  25.488  1.00  0.00    -0.249 OA
BRANCH   7   9
ATOM      9  C   UNL A   1      30.732  27.291  23.091  1.00  0.00     0.231 C 
ATOM     10  C   UNL A   1      29.660  26.278  23.520  1.00  0.00     0.058 C 
BRANCH   9  11
ATOM     11  C   UNL A   1      30.086  28.651  22.878  1.00  0.00     0.422 C 
ATOM     12  F   UNL A   1      30.707  29.326  21.891  1.00  0.00    -0.168 F 
ATOM     13  F   UNL A   1      28.784  28.466  22.568  1.00  0.00    -0.168 F 
ATOM     14  F   UNL A   1      30.075  29.457  23.960  1.00  0.00    -0.168 F 
ENDBRANCH   9  11
BRANCH   9  15
ATOM     15  N   UNL A   1      31.411  26.657  21.877  1.00  0.00    -0.333 N 
ATOM     16  C   UNL A   1      32.455  25.782  21.700  1.00  0.00     0.227 C 
ATOM     17  H   UNL A   1      31.006  26.940  21.026  1.00  0.00     0.164 HD
ATOM     18  O   UNL A   1      33.246  26.052  20.787  1.00  0.00    -0.275 OA
BRANCH  16  19
ATOM     19  C   UNL A   1      32.551  24.412  22.368  1.00  0.00     0.157 C 
BRANCH  19  20
ATOM     20  C   UNL A   1      33.687  24.219  23.304  1.00  0.00     0.063 A 
ATOM     21  C   UNL A   1      33.714  24.292  24.683  1.00  0.00     0.093 A 
ATOM     22  N   UNL A   1      34.904  23.883  22.734  1.00  0.00    -0.225 NA
ATOM     23  S   UNL A   1      35.221  23.682  25.259  1.00  0.00    -0.106 S 
ATOM     24  C   UNL A   1      35.699  23.379  23.639  1.00  0.00     0.180 A 
BRANCH  24  25
ATOM     25  N   UNL A   1      36.722  22.583  23.306  1.00  0.00    -0.375 N 
ATOM     26  H   UNL A   1      37.621  22.760  23.664  1.00  0.00     0.159 HD
ATOM     27  H   UNL A   1      36.574  21.818  22.702  1.00  0.00     0.159 HD
ENDBRANCH  24  25
ENDBRANCH  19  20
ENDBRANCH  16  19
ENDBRANCH   9  15
ENDBRANCH   7   9
ENDBRANCH   6   7
ENDBRANCH   5   6
ENDBRANCH   4   5
ENDBRANCH   3   4
ENDBRANCH   2   3
ENDBRANCH   1   2
BRANCH   1  28
ATOM     28  O   UNL A   1      33.747  33.005  28.540  1.00  0.00    -0.377 OA
BRANCH  28  29
ATOM     29  C   UNL A   1      33.683  34.325  28.028  1.00  0.00     0.188 C 
BRANCH  29  30
ATOM     30  C   UNL A   1      33.168  35.463  28.934  1.00  0.00     0.188 C 
BRANCH  30  31
ATOM     31  O   UNL A   1      32.694  35.038  30.206  1.00  0.00    -0.376 OA
BRANCH  31  32
ATOM     32  C   UNL A   1      33.018  35.809  31.352  1.00  0.00     0.202 C 
BRANCH  32  33
ATOM     33  C   UNL A   1      34.096  35.274  32.310  1.00  0.00     0.261 C 
BRANCH  33  34
ATOM     34  O   UNL A   1      35.143  34.480  31.739  1.00  0.00    -0.460 OA
BRANCH  34  35
ATOM     35  C   UNL A   1      35.094  33.139  31.896  1.00  0.00     0.338 C 
ATOM     36  O   UNL A   1      34.095  32.453  32.020  1.00  0.00    -0.246 OA
BRANCH  35  37
ATOM     37  C   UNL A   1      36.464  32.627  31.667  1.00  0.00     0.060 A 
ATOM     38  C   UNL A   1      37.192  32.095  32.742  1.00  0.00     0.016 A 
ATOM     39  C   UNL A   1      37.004  32.629  30.379  1.00  0.00     0.016 A 
ATOM     40  C   UNL A   1      38.477  31.590  32.535  1.00  0.00     0.010 A 
ATOM     41  C   UNL A   1      38.299  32.151  30.179  1.00  0.00     0.010 A 
ATOM     42  C   UNL A   1      39.054  31.662  31.261  1.00  0.00    -0.014 A 
BRANCH  42  43
ATOM     43  C   UNL A   1      40.514  31.488  31.081  1.00  0.00     0.031 A 
ATOM     44  C   UNL A   1      41.368  32.722  31.151  1.00  0.00     0.074 A 
ATOM     45  C   UNL A   1      41.065  30.294  30.806  1.00  0.00     0.049 A 
ATOM     46  N   UNL A   1      42.624  32.891  30.831  1.00  0.00    -0.248 NA
ATOM     47  C   UNL A   1      40.693  33.940  31.624  1.00  0.00     0.031 C 
ATOM     48  C   UNL A   1      40.349  29.021  30.770  1.00  0.00     0.029 A 
ATOM     49  N   UNL A   1      42.357  29.969  30.471  1.00  0.00    -0.354 N 
ATOM     50  C   UNL A   1      42.882  34.242  31.040  1.00  0.00     0.074 A 
ATOM     51  C   UNL A   1      41.643  34.846  31.478  1.00  0.00     0.031 C 
ATOM     52  C   UNL A   1      41.206  28.055  30.394  1.00  0.00     0.029 A 
ATOM     53  C   UNL A   1      42.513  28.652  30.111  1.00  0.00     0.049 A 
ATOM     54  H   UNL A   1      43.098  30.616  30.487  1.00  0.00     0.167 HD
ATOM     55  C   UNL A   1      44.048  34.915  30.874  1.00  0.00     0.034 A 
ATOM     56  C   UNL A   1      43.571  28.016  29.565  1.00  0.00     0.034 A 
ATOM     57  C   UNL A   1      45.262  34.292  30.407  1.00  0.00     0.049 A 
ATOM     58  C   UNL A   1      44.837  28.795  29.294  1.00  0.00     0.074 A 
ATOM     59  C   UNL A   1      46.506  34.865  30.216  1.00  0.00     0.029 A 
ATOM     60  N   UNL A   1      45.377  32.957  30.036  1.00  0.00    -0.354 N 
ATOM     61  N   UNL A   1      45.081  30.071  29.486  1.00  0.00    -0.248 NA
ATOM     62  C   UNL A   1      45.971  28.048  28.732  1.00  0.00     0.031 C 
ATOM     63  C   UNL A   1      47.345  33.902  29.644  1.00  0.00     0.029 A 
ATOM     64  C   UNL A   1      46.659  32.699  29.577  1.00  0.00     0.049 A 
ATOM     65  H   UNL A   1      44.654  32.292  30.090  1.00  0.00     0.167 HD
ATOM     66  C   UNL A   1      46.407  30.271  29.107  1.00  0.00     0.074 A 
ATOM     67  C   UNL A   1      46.908  28.984  28.668  1.00  0.00     0.031 C 
ATOM     68  C   UNL A   1      47.146  31.410  29.136  1.00  0.00     0.034 A 
BRANCH  55  69
ATOM     69  C   UNL A   1      44.021  36.405  31.122  1.00  0.00     0.023 A 
ATOM     70  C   UNL A   1      43.755  37.326  30.092  1.00  0.00     0.031 A 
ATOM     71  C   UNL A   1      44.349  36.917  32.390  1.00  0.00     0.131 A 
ATOM     72  C   UNL A   1      43.932  38.699  30.319  1.00  0.00     0.055 A 
ATOM     73  C   UNL A   1      44.420  38.289  32.635  1.00  0.00     0.041 A 
ATOM     74  F   UNL A   1      44.641  36.092  33.407  1.00  0.00    -0.206 F 
ATOM     75  C   UNL A   1      44.234  39.190  31.591  1.00  0.00     0.022 A 
BRANCH  72  76
ATOM     76  S   UNL A   1      43.965  39.811  28.886  1.00  0.00     0.124 S 
ATOM     77  O   UNL A   1      42.543  39.938  28.578  1.00  0.00    -0.237 OA
ATOM     78  O   UNL A   1      44.611  41.002  29.425  1.00  0.00    -0.237 OA
ATOM     79  O   UNL A   1      44.744  39.070  27.896  1.00  0.00    -0.744 OA
ENDBRANCH  72  76
ENDBRANCH  55  69
BRANCH  56  80
ATOM     80  C   UNL A   1      43.456  26.579  29.183  1.00  0.00     0.023 A 
ATOM     81  C   UNL A   1      42.963  26.192  27.928  1.00  0.00     0.031 A 
ATOM     82  C   UNL A   1      43.837  25.565  30.084  1.00  0.00     0.131 A 
ATOM     83  C   UNL A   1      42.844  24.828  27.615  1.00  0.00     0.055 A 
ATOM     84  C   UNL A   1      43.761  24.213  29.749  1.00  0.00     0.041 A 
ATOM     85  F   UNL A   1      44.312  25.881  31.299  1.00  0.00    -0.206 F 
ATOM     86  C   UNL A   1      43.256  23.837  28.509  1.00  0.00     0.022 A 
BRANCH  83  87
ATOM     87  S   UNL A   1      42.091  24.359  26.032  1.00  0.00     0.124 S 
ATOM     88  O   UNL A   1      41.591  23.021  26.327  1.00  0.00    -0.237 OA
ATOM     89  O   UNL A   1      41.082  25.398  25.857  1.00  0.00    -0.237 OA
ATOM     90  O   UNL A   1      43.209  24.415  25.094  1.00  0.00    -0.744 OA
ENDBRANCH  83  87
ENDBRANCH  56  80
BRANCH  68  91
ATOM     91  C   UNL A   1      48.606  31.311  28.753  1.00  0.00     0.023 A 
ATOM     92  C   UNL A   1      49.598  30.903  29.659  1.00  0.00     0.031 A 
ATOM     93  C   UNL A   1      48.997  31.599  27.430  1.00  0.00     0.131 A 
ATOM     94  C   UNL A   1      50.938  30.827  29.240  1.00  0.00     0.055 A 
ATOM     95  C   UNL A   1      50.317  31.462  27.005  1.00  0.00     0.041 A 
ATOM     96  F   UNL A   1      48.092  31.998  26.523  1.00  0.00    -0.206 F 
ATOM     97  C   UNL A   1      51.300  31.083  27.915  1.00  0.00     0.022 A 
BRANCH  94  98
ATOM     98  S   UNL A   1      52.222  30.465  30.470  1.00  0.00     0.124 S 
ATOM     99  O   UNL A   1      52.636  31.804  30.879  1.00  0.00    -0.237 OA
ATOM    100  O   UNL A   1      51.491  29.691  31.468  1.00  0.00    -0.237 OA
ATOM    101  O   UNL A   1      53.221  29.713  29.713  1.00  0.00    -0.744 OA
ENDBRANCH  94  98
ENDBRANCH  68  91
ENDBRANCH  42  43
ENDBRANCH  35  37
ENDBRANCH  34  35
ENDBRANCH  33  34
ENDBRANCH  32  33
ENDBRANCH  31  32
ENDBRANCH  30  31
ENDBRANCH  29  30
ENDBRANCH  28  29
ENDBRANCH   1  28
TORSDOF 28
ENDMDL
MODEL 3
REMARK VINA RESULT:      -8.3      5.336      7.750
REMARK SMILES C[C@](NC(=O)Cc1csc(N)n1)(C(=O)OCCOCCOCCOCCOC(=O)c1ccc(-c2c3nc(c(-c4cc(S(=O)(=O)[O-])ccc4F)c4ccc([nH]4)c(-c4cc(S(=O)(=O)[O-])ccc4F)c4nc(c(-c5cc(S(=O)(=O)[O-])ccc5F)c5ccc2[nH]5)C=C4)C=C3)cc1)C(F)(F)F
REMARK SMILES IDX 20 1 19 2 18 3 17 4 16 5 15 6 13 7 14 8 2 9 1 10 93 11 94 12
REMARK SMILES IDX 95 13 96 14 3 15 4 16 5 18 6 19 7 20 8 21 12 22 9 23 10 24
REMARK SMILES IDX 11 25 21 28 22 29 23 30 24 31 25 32 26 33 27 34 28 35 29 36
REMARK SMILES IDX 30 37 31 38 92 39 32 40 91 41 33 42 34 43 35 44 85 45 36 46
REMARK SMILES IDX 90 47 84 48 86 49 37 50 89 51 83 52 82 53 38 55 70 56 50 57
REMARK SMILES IDX 69 58 51 59 54 60 68 61 87 62 52 63 53 64 67 66 88 67 55 68
REMARK SMILES IDX 39 69 40 70 48 71 41 72 47 73 49 74 46 75 42 76 43 77 44 78
REMARK SMILES IDX 45 79 71 80 72 81 80 82 73 83 79 84 81 85 78 86 74 87 75 88
REMARK SMILES IDX 76 89 77 90 56 91 57 92 65 93 58 94 64 95 66 96 63 97 59 98
REMARK SMILES IDX 60 99 61 100 62 101
REMARK H PARENT 3 17 11 26 11 27 86 54 54 65
REMARK Flexibility Score: inf
ROOT
ATOM      1  C   UNL A   1      33.634  34.828  29.363  1.00  0.00     0.188 C 
ENDROOT
BRANCH   1   2
ATOM      2  C   UNL A   1      33.830  33.702  28.337  1.00  0.00     0.188 C 
BRANCH   2   3
ATOM      3  O   UNL A   1      34.315  32.457  28.800  1.00  0.00    -0.376 OA
BRANCH   3   4
ATOM      4  C   UNL A   1      34.612  31.392  27.904  1.00  0.00     0.202 C 
BRANCH   4   5
ATOM      5  C   UNL A   1      33.637  30.271  27.482  1.00  0.00     0.261 C 
BRANCH   5   6
ATOM      6  O   UNL A   1      33.703  29.830  26.117  1.00  0.00    -0.461 OA
BRANCH   6   7
ATOM      7  C   UNL A   1      32.535  29.642  25.475  1.00  0.00     0.341 C 
ATOM      8  O   UNL A   1      31.547  30.342  25.672  1.00  0.00    -0.249 OA
BRANCH   7   9
ATOM      9  C   UNL A   1      32.560  28.455  24.495  1.00  0.00     0.231 C 
ATOM     10  C   UNL A   1      34.031  28.306  24.079  1.00  0.00     0.058 C 
BRANCH   9  11
ATOM     11  C   UNL A   1      32.168  27.294  25.396  1.00  0.00     0.422 C 
ATOM     12  F   UNL A   1      33.230  26.857  26.101  1.00  0.00    -0.168 F 
ATOM     13  F   UNL A   1      31.192  27.708  26.233  1.00  0.00    -0.168 F 
ATOM     14  F   UNL A   1      31.650  26.223  24.759  1.00  0.00    -0.168 F 
ENDBRANCH   9  11
BRANCH   9  15
ATOM     15  N   UNL A   1      31.791  28.592  23.180  1.00  0.00    -0.333 N 
ATOM     16  C   UNL A   1      30.495  28.358  22.789  1.00  0.00     0.227 C 
ATOM     17  H   UNL A   1      32.354  28.926  22.445  1.00  0.00     0.164 HD
ATOM     18  O   UNL A   1      30.347  27.797  21.695  1.00  0.00    -0.275 OA
BRANCH  16  19
ATOM     19  C   UNL A   1      29.269  28.956  23.475  1.00  0.00     0.157 C 
BRANCH  19  20
ATOM     20  C   UNL A   1      28.872  30.317  23.033  1.00  0.00     0.063 A 
ATOM     21  C   UNL A   1      29.019  31.530  23.677  1.00  0.00     0.093 A 
ATOM     22  N   UNL A   1      28.299  30.413  21.775  1.00  0.00    -0.225 NA
ATOM     23  S   UNL A   1      28.663  32.809  22.576  1.00  0.00    -0.106 S 
ATOM     24  C   UNL A   1      28.348  31.648  21.353  1.00  0.00     0.180 A 
BRANCH  24  25
ATOM     25  N   UNL A   1      28.287  31.944  20.049  1.00  0.00    -0.375 N 
ATOM     26  H   UNL A   1      29.116  32.088  19.538  1.00  0.00     0.159 HD
ATOM     27  H   UNL A   1      27.413  32.016  19.601  1.00  0.00     0.159 HD
ENDBRANCH  24  25
ENDBRANCH  19  20
ENDBRANCH  16  19
ENDBRANCH   9  15
ENDBRANCH   7   9
ENDBRANCH   6   7
ENDBRANCH   5   6
ENDBRANCH   4   5
ENDBRANCH   3   4
ENDBRANCH   2   3
ENDBRANCH   1   2
BRANCH   1  28
ATOM     28  O   UNL A   1      34.438  34.700  30.515  1.00  0.00    -0.377 OA
BRANCH  28  29
ATOM     29  C   UNL A   1      33.935  35.260  31.716  1.00  0.00     0.188 C 
BRANCH  29  30
ATOM     30  C   UNL A   1      34.509  34.786  33.068  1.00  0.00     0.188 C 
BRANCH  30  31
ATOM     31  O   UNL A   1      35.790  34.174  32.985  1.00  0.00    -0.376 OA
BRANCH  31  32
ATOM     32  C   UNL A   1      35.875  32.758  32.963  1.00  0.00     0.202 C 
BRANCH  32  33
ATOM     33  C   UNL A   1      36.918  32.075  33.864  1.00  0.00     0.261 C 
BRANCH  33  34
ATOM     34  O   UNL A   1      36.973  32.494  35.234  1.00  0.00    -0.460 OA
BRANCH  34  35
ATOM     35  C   UNL A   1      38.024  32.099  35.987  1.00  0.00     0.338 C 
ATOM     36  O   UNL A   1      38.101  31.089  36.663  1.00  0.00    -0.246 OA
BRANCH  35  37
ATOM     37  C   UNL A   1      39.149  33.005  35.666  1.00  0.00     0.060 A 
ATOM     38  C   UNL A   1      38.892  34.357  35.390  1.00  0.00     0.016 A 
ATOM     39  C   UNL A   1      40.460  32.525  35.691  1.00  0.00     0.016 A 
ATOM     40  C   UNL A   1      39.948  35.226  35.107  1.00  0.00     0.010 A 
ATOM     41  C   UNL A   1      41.510  33.388  35.378  1.00  0.00     0.010 A 
ATOM     42  C   UNL A   1      41.256  34.733  35.051  1.00  0.00    -0.014 A 
BRANCH  42  43
ATOM     43  C   UNL A   1      42.334  35.517  34.403  1.00  0.00     0.031 A 
ATOM     44  C   UNL A   1      43.079  36.501  35.261  1.00  0.00     0.074 A 
ATOM     45  C   UNL A   1      42.610  35.411  33.094  1.00  0.00     0.049 A 
ATOM     46  N   UNL A   1      43.912  37.448  34.919  1.00  0.00    -0.248 NA
ATOM     47  C   UNL A   1      42.818  36.415  36.706  1.00  0.00     0.031 C 
ATOM     48  C   UNL A   1      41.997  34.454  32.176  1.00  0.00     0.029 A 
ATOM     49  N   UNL A   1      43.460  36.146  32.303  1.00  0.00    -0.354 N 
ATOM     50  C   UNL A   1      44.255  38.088  36.105  1.00  0.00     0.074 A 
ATOM     51  C   UNL A   1      43.512  37.441  37.164  1.00  0.00     0.031 C 
ATOM     52  C   UNL A   1      42.464  34.685  30.936  1.00  0.00     0.029 A 
ATOM     53  C   UNL A   1      43.364  35.839  30.967  1.00  0.00     0.049 A 
ATOM     54  H   UNL A   1      44.077  36.825  32.660  1.00  0.00     0.167 HD
ATOM     55  C   UNL A   1      45.110  39.125  36.289  1.00  0.00     0.034 A 
ATOM     56  C   UNL A   1      43.898  36.456  29.890  1.00  0.00     0.034 A 
ATOM     57  C   UNL A   1      45.817  39.769  35.210  1.00  0.00     0.049 A 
ATOM     58  C   UNL A   1      44.774  37.670  30.097  1.00  0.00     0.074 A 
ATOM     59  C   UNL A   1      46.720  40.814  35.274  1.00  0.00     0.029 A 
ATOM     60  N   UNL A   1      45.682  39.442  33.866  1.00  0.00    -0.354 N 
ATOM     61  N   UNL A   1      45.095  38.278  31.216  1.00  0.00    -0.248 NA
ATOM     62  C   UNL A   1      45.359  38.281  28.896  1.00  0.00     0.031 C 
ATOM     63  C   UNL A   1      47.058  41.178  33.966  1.00  0.00     0.029 A 
ATOM     64  C   UNL A   1      46.452  40.292  33.088  1.00  0.00     0.049 A 
ATOM     65  H   UNL A   1      45.121  38.712  33.516  1.00  0.00     0.167 HD
ATOM     66  C   UNL A   1      45.951  39.317  30.857  1.00  0.00     0.074 A 
ATOM     67  C   UNL A   1      46.090  39.257  29.416  1.00  0.00     0.031 C 
ATOM     68  C   UNL A   1      46.578  40.226  31.649  1.00  0.00     0.034 A 
BRANCH  55  69
ATOM     69  C   UNL A   1      45.247  39.659  37.696  1.00  0.00     0.023 A 
ATOM     70  C   UNL A   1      44.333  40.587  38.230  1.00  0.00     0.031 A 
ATOM     71  C   UNL A   1      46.354  39.301  38.485  1.00  0.00     0.131 A 
ATOM     72  C   UNL A   1      44.604  41.204  39.461  1.00  0.00     0.055 A 
ATOM     73  C   UNL A   1      46.560  39.841  39.755  1.00  0.00     0.041 A 
ATOM     74  F   UNL A   1      47.275  38.442  38.022  1.00  0.00    -0.206 F 
ATOM     75  C   UNL A   1      45.695  40.817  40.241  1.00  0.00     0.022 A 
BRANCH  72  76
ATOM     76  S   UNL A   1      43.627  42.661  39.926  1.00  0.00     0.124 S 
ATOM     77  O   UNL A   1      42.444  42.504  39.083  1.00  0.00    -0.237 OA
ATOM     78  O   UNL A   1      43.424  42.463  41.355  1.00  0.00    -0.237 OA
ATOM     79  O   UNL A   1      44.493  43.782  39.566  1.00  0.00    -0.744 OA
ENDBRANCH  72  76
ENDBRANCH  55  69
BRANCH  56  80
ATOM     80  C   UNL A   1      43.570  35.969  28.520  1.00  0.00     0.023 A 
ATOM     81  C   UNL A   1      44.338  34.978  27.891  1.00  0.00     0.031 A 
ATOM     82  C   UNL A   1      42.474  36.502  27.813  1.00  0.00     0.131 A 
ATOM     83  C   UNL A   1      44.015  34.564  26.588  1.00  0.00     0.055 A 
ATOM     84  C   UNL A   1      42.129  36.053  26.538  1.00  0.00     0.041 A 
ATOM     85  F   UNL A   1      41.708  37.455  28.368  1.00  0.00    -0.206 F 
ATOM     86  C   UNL A   1      42.905  35.083  25.916  1.00  0.00     0.022 A 
BRANCH  83  87
ATOM     87  S   UNL A   1      45.098  33.369  25.758  1.00  0.00     0.124 S 
ATOM     88  O   UNL A   1      44.223  32.854  24.711  1.00  0.00    -0.237 OA
ATOM     89  O   UNL A   1      46.199  34.216  25.314  1.00  0.00    -0.237 OA
ATOM     90  O   UNL A   1      45.432  32.420  26.817  1.00  0.00    -0.744 OA
ENDBRANCH  83  87
ENDBRANCH  56  80
BRANCH  68  91
ATOM     91  C   UNL A   1      47.537  41.190  30.988  1.00  0.00     0.023 A 
ATOM     92  C   UNL A   1      48.893  40.885  30.783  1.00  0.00     0.031 A 
ATOM     93  C   UNL A   1      47.062  42.431  30.522  1.00  0.00     0.131 A 
ATOM     94  C   UNL A   1      49.733  41.823  30.159  1.00  0.00     0.055 A 
ATOM     95  C   UNL A   1      47.886  43.332  29.849  1.00  0.00     0.041 A 
ATOM     96  F   UNL A   1      45.777  42.779  30.696  1.00  0.00    -0.206 F 
ATOM     97  C   UNL A   1      49.234  43.034  29.672  1.00  0.00     0.022 A 
BRANCH  94  98
ATOM     98  S   UNL A   1      51.511  41.477  30.059  1.00  0.00     0.124 S 
ATOM     99  O   UNL A   1      51.574  40.086  30.499  1.00  0.00    -0.237 OA
ATOM    100  O   UNL A   1      51.799  41.714  28.648  1.00  0.00    -0.237 OA
ATOM    101  O   UNL A   1      52.102  42.445  30.982  1.00  0.00    -0.744 OA
ENDBRANCH  94  98
ENDBRANCH  68  91
ENDBRANCH  42  43
ENDBRANCH  35  37
ENDBRANCH  34  35
ENDBRANCH  33  34
ENDBRANCH  32  33
ENDBRANCH  31  32
ENDBRANCH  30  31
ENDBRANCH  29  30
ENDBRANCH  28  29
ENDBRANCH   1  28
TORSDOF 28
ENDMDL
