MODEL 1
REMARK VINA RESULT:      -9.1      0.000      0.000
REMARK SMILES COc1ccc(C(=O)N[C@@H](C(=O)OCCOCCOCCOCCOC(=O)c2ccc(-c3c4nc(c(-c5cc(S(=O)(=O)[O-])ccc5F)c5ccc([nH]5)c(-c5cc(S(=O)(=O)[O-])ccc5F)c5nc(c(-c6cc(S(=O)(=O)[O-])ccc6F)c6ccc3[nH]6)C=C5)C=C4)cc2)C(C)C)cc1O
REMARK SMILES IDX 19 1 18 2 17 3 16 4 15 5 14 6 13 7 11 8 12 9 10 10 9 11 7 12
REMARK SMILES IDX 8 13 6 15 3 16 4 17 95 18 5 19 94 20 2 21 1 22 96 23 91 25
REMARK SMILES IDX 92 26 93 27 20 28 21 29 22 30 23 31 24 32 25 33 26 34 27 35
REMARK SMILES IDX 28 36 29 37 90 38 30 39 89 40 31 41 32 42 33 43 83 44 34 45
REMARK SMILES IDX 88 46 82 47 84 48 35 49 87 50 81 51 80 52 36 54 68 55 48 56
REMARK SMILES IDX 67 57 49 58 52 59 66 60 85 61 50 62 51 63 65 65 86 66 53 67
REMARK SMILES IDX 37 68 38 69 46 70 39 71 45 72 47 73 44 74 40 75 41 76 42 77
REMARK SMILES IDX 43 78 69 79 70 80 78 81 71 82 77 83 79 84 76 85 72 86 73 87
REMARK SMILES IDX 74 88 75 89 54 90 55 91 63 92 56 93 62 94 64 95 61 96 57 97
REMARK SMILES IDX 58 98 59 99 60 100
REMARK H PARENT 9 14 96 24 84 53 52 64
REMARK Flexibility Score: inf
ROOT
ATOM      1  O   UNL A   1      34.638  31.659  27.647  1.00  0.00    -0.377 OA
ENDROOT
BRANCH   1   2
ATOM      2  C   UNL A   1      35.038  30.313  27.768  1.00  0.00     0.188 C 
BRANCH   2   3
ATOM      3  C   UNL A   1      34.299  29.335  26.840  1.00  0.00     0.188 C 
BRANCH   3   4
ATOM      4  O   UNL A   1      33.571  28.235  27.360  1.00  0.00    -0.376 OA
BRANCH   4   5
ATOM      5  C   UNL A   1      32.557  27.598  26.595  1.00  0.00     0.202 C 
BRANCH   5   6
ATOM      6  C   UNL A   1      32.443  26.065  26.463  1.00  0.00     0.261 C 
BRANCH   6   7
ATOM      7  O   UNL A   1      32.469  25.528  25.131  1.00  0.00    -0.462 OA
BRANCH   7   8
ATOM      8  C   UNL A   1      31.363  24.871  24.708  1.00  0.00     0.328 C 
ATOM      9  O   UNL A   1      30.509  24.416  25.462  1.00  0.00    -0.250 OA
BRANCH   8  10
ATOM     10  C   UNL A   1      31.255  24.790  23.152  1.00  0.00     0.195 C 
BRANCH  10  11
ATOM     11  N   UNL A   1      31.416  23.430  22.570  1.00  0.00    -0.338 N 
ATOM     12  C   UNL A   1      32.333  22.426  22.755  1.00  0.00     0.252 C 
ATOM     13  O   UNL A   1      32.154  21.354  22.181  1.00  0.00    -0.269 OA
ATOM     14  H   UNL A   1      30.718  23.203  21.913  1.00  0.00     0.164 HD
BRANCH  12  15
ATOM     15  C   UNL A   1      33.427  22.560  23.740  1.00  0.00     0.043 A 
ATOM     16  C   UNL A   1      35.718  22.274  25.326  1.00  0.00     0.160 A 
ATOM     17  C   UNL A   1      35.764  23.019  24.141  1.00  0.00     0.051 A 
ATOM     18  C   UNL A   1      34.490  21.756  25.731  1.00  0.00     0.158 A 
ATOM     19  C   UNL A   1      34.631  23.136  23.330  1.00  0.00     0.018 A 
ATOM     20  C   UNL A   1      33.336  22.005  25.008  1.00  0.00     0.064 A 
BRANCH  16  21
ATOM     21  O   UNL A   1      36.927  22.123  25.944  1.00  0.00    -0.493 OA
ATOM     22  C   UNL A   1      37.984  21.541  25.192  1.00  0.00     0.278 C 
ENDBRANCH  16  21
BRANCH  18  23
ATOM     23  O   UNL A   1      34.332  20.869  26.757  1.00  0.00    -0.504 OA
ATOM     24  H   UNL A   1      35.079  20.571  27.238  1.00  0.00     0.293 HD
ENDBRANCH  18  23
ENDBRANCH  12  15
ENDBRANCH  10  11
BRANCH  10  25
ATOM     25  C   UNL A   1      32.244  25.780  22.466  1.00  0.00     0.017 C 
ATOM     26  C   UNL A   1      32.576  25.304  21.047  1.00  0.00     0.010 C 
ATOM     27  C   UNL A   1      31.711  27.218  22.395  1.00  0.00     0.010 C 
ENDBRANCH  10  25
ENDBRANCH   8  10
ENDBRANCH   7   8
ENDBRANCH   6   7
ENDBRANCH   5   6
ENDBRANCH   4   5
ENDBRANCH   3   4
ENDBRANCH   2   3
ENDBRANCH   1   2
BRANCH   1  28
ATOM     28  C   UNL A   1      34.519  32.399  28.853  1.00  0.00     0.188 C 
BRANCH  28  29
ATOM     29  C   UNL A   1      35.616  33.436  29.167  1.00  0.00     0.188 C 
BRANCH  29  30
ATOM     30  O   UNL A   1      35.347  34.744  28.671  1.00  0.00    -0.376 OA
BRANCH  30  31
ATOM     31  C   UNL A   1      34.024  35.068  28.267  1.00  0.00     0.202 C 
BRANCH  31  32
ATOM     32  C   UNL A   1      33.114  35.812  29.262  1.00  0.00     0.261 C 
BRANCH  32  33
ATOM     33  O   UNL A   1      32.641  35.066  30.393  1.00  0.00    -0.460 OA
BRANCH  33  34
ATOM     34  C   UNL A   1      32.731  35.642  31.613  1.00  0.00     0.338 C 
ATOM     35  O   UNL A   1      31.948  36.424  32.106  1.00  0.00    -0.246 OA
BRANCH  34  36
ATOM     36  C   UNL A   1      33.844  34.984  32.339  1.00  0.00     0.060 A 
ATOM     37  C   UNL A   1      35.124  35.550  32.262  1.00  0.00     0.016 A 
ATOM     38  C   UNL A   1      33.629  33.825  33.086  1.00  0.00     0.016 A 
ATOM     39  C   UNL A   1      36.202  34.933  32.899  1.00  0.00     0.010 A 
ATOM     40  C   UNL A   1      34.716  33.192  33.700  1.00  0.00     0.010 A 
ATOM     41  C   UNL A   1      36.013  33.723  33.577  1.00  0.00    -0.014 A 
BRANCH  41  42
ATOM     42  C   UNL A   1      37.193  32.908  33.963  1.00  0.00     0.031 A 
ATOM     43  C   UNL A   1      37.934  33.292  35.219  1.00  0.00     0.074 A 
ATOM     44  C   UNL A   1      37.583  31.841  33.241  1.00  0.00     0.049 A 
ATOM     45  N   UNL A   1      39.024  32.781  35.729  1.00  0.00    -0.248 NA
ATOM     46  C   UNL A   1      37.369  34.405  36.000  1.00  0.00     0.031 C 
ATOM     47  C   UNL A   1      36.911  31.341  32.042  1.00  0.00     0.029 A 
ATOM     48  N   UNL A   1      38.649  30.991  33.406  1.00  0.00    -0.354 N 
ATOM     49  C   UNL A   1      39.286  33.522  36.877  1.00  0.00     0.074 A 
ATOM     50  C   UNL A   1      38.251  34.527  36.980  1.00  0.00     0.031 C 
ATOM     51  C   UNL A   1      37.594  30.284  31.570  1.00  0.00     0.029 A 
ATOM     52  C   UNL A   1      38.777  30.059  32.401  1.00  0.00     0.049 A 
ATOM     53  H   UNL A   1      39.266  31.044  34.172  1.00  0.00     0.167 HD
ATOM     54  C   UNL A   1      40.302  33.376  37.760  1.00  0.00     0.034 A 
ATOM     55  C   UNL A   1      39.754  29.158  32.162  1.00  0.00     0.034 A 
ATOM     56  C   UNL A   1      41.323  32.366  37.647  1.00  0.00     0.049 A 
ATOM     57  C   UNL A   1      40.919  29.072  33.127  1.00  0.00     0.074 A 
ATOM     58  C   UNL A   1      42.370  32.106  38.512  1.00  0.00     0.029 A 
ATOM     59  N   UNL A   1      41.438  31.463  36.599  1.00  0.00    -0.354 N 
ATOM     60  N   UNL A   1      41.138  29.757  34.226  1.00  0.00    -0.248 NA
ATOM     61  C   UNL A   1      41.966  28.085  32.823  1.00  0.00     0.031 C 
ATOM     62  C   UNL A   1      43.172  31.113  37.943  1.00  0.00     0.029 A 
ATOM     63  C   UNL A   1      42.566  30.679  36.774  1.00  0.00     0.049 A 
ATOM     64  H   UNL A   1      40.810  31.390  35.845  1.00  0.00     0.167 HD
ATOM     65  C   UNL A   1      42.322  29.251  34.762  1.00  0.00     0.074 A 
ATOM     66  C   UNL A   1      42.759  28.194  33.877  1.00  0.00     0.031 C 
ATOM     67  C   UNL A   1      42.989  29.622  35.886  1.00  0.00     0.034 A 
BRANCH  54  68
ATOM     68  C   UNL A   1      40.406  34.369  38.891  1.00  0.00     0.023 A 
ATOM     69  C   UNL A   1      39.847  34.130  40.158  1.00  0.00     0.031 A 
ATOM     70  C   UNL A   1      41.112  35.570  38.697  1.00  0.00     0.131 A 
ATOM     71  C   UNL A   1      39.976  35.092  41.171  1.00  0.00     0.055 A 
ATOM     72  C   UNL A   1      41.298  36.491  39.729  1.00  0.00     0.041 A 
ATOM     73  F   UNL A   1      41.642  35.865  37.500  1.00  0.00    -0.206 F 
ATOM     74  C   UNL A   1      40.723  36.258  40.973  1.00  0.00     0.022 A 
BRANCH  71  75
ATOM     75  S   UNL A   1      39.076  34.850  42.726  1.00  0.00     0.124 S 
ATOM     76  O   UNL A   1      37.819  35.543  42.450  1.00  0.00    -0.237 OA
ATOM     77  O   UNL A   1      38.996  33.397  42.823  1.00  0.00    -0.237 OA
ATOM     78  O   UNL A   1      39.929  35.496  43.722  1.00  0.00    -0.744 OA
ENDBRANCH  71  75
ENDBRANCH  54  68
BRANCH  55  79
ATOM     79  C   UNL A   1      39.735  28.306  30.933  1.00  0.00     0.023 A 
ATOM     80  C   UNL A   1      40.437  28.680  29.775  1.00  0.00     0.031 A 
ATOM     81  C   UNL A   1      38.917  27.164  30.860  1.00  0.00     0.131 A 
ATOM     82  C   UNL A   1      40.244  27.972  28.578  1.00  0.00     0.055 A 
ATOM     83  C   UNL A   1      38.788  26.417  29.687  1.00  0.00     0.041 A 
ATOM     84  F   UNL A   1      38.211  26.763  31.929  1.00  0.00    -0.206 F 
ATOM     85  C   UNL A   1      39.437  26.833  28.530  1.00  0.00     0.022 A 
BRANCH  82  86
ATOM     86  S   UNL A   1      40.939  28.652  27.045  1.00  0.00     0.124 S 
ATOM     87  O   UNL A   1      42.002  29.507  27.558  1.00  0.00    -0.237 OA
ATOM     88  O   UNL A   1      41.366  27.445  26.346  1.00  0.00    -0.237 OA
ATOM     89  O   UNL A   1      39.808  29.354  26.440  1.00  0.00    -0.744 OA
ENDBRANCH  82  86
ENDBRANCH  55  79
BRANCH  67  90
ATOM     90  C   UNL A   1      44.221  28.832  36.259  1.00  0.00     0.023 A 
ATOM     91  C   UNL A   1      44.167  27.728  37.129  1.00  0.00     0.031 A 
ATOM     92  C   UNL A   1      45.474  29.193  35.731  1.00  0.00     0.131 A 
ATOM     93  C   UNL A   1      45.350  27.065  37.490  1.00  0.00     0.055 A 
ATOM     94  C   UNL A   1      46.637  28.484  36.037  1.00  0.00     0.041 A 
ATOM     95  F   UNL A   1      45.589  30.241  34.897  1.00  0.00    -0.206 F 
ATOM     96  C   UNL A   1      46.581  27.422  36.932  1.00  0.00     0.022 A 
BRANCH  93  97
ATOM     97  S   UNL A   1      45.277  25.791  38.779  1.00  0.00     0.124 S 
ATOM     98  O   UNL A   1      44.759  24.643  38.041  1.00  0.00    -0.237 OA
ATOM     99  O   UNL A   1      46.668  25.698  39.207  1.00  0.00    -0.237 OA
ATOM    100  O   UNL A   1      44.361  26.356  39.769  1.00  0.00    -0.744 OA
ENDBRANCH  93  97
ENDBRANCH  67  90
ENDBRANCH  41  42
ENDBRANCH  34  36
ENDBRANCH  33  34
ENDBRANCH  32  33
ENDBRANCH  31  32
ENDBRANCH  30  31
ENDBRANCH  29  30
ENDBRANCH  28  29
ENDBRANCH   1  28
TORSDOF 28
ENDMDL
MODEL 2
REMARK VINA RESULT:      -8.3      4.963      8.136
REMARK SMILES COc1ccc(C(=O)N[C@@H](C(=O)OCCOCCOCCOCCOC(=O)c2ccc(-c3c4nc(c(-c5cc(S(=O)(=O)[O-])ccc5F)c5ccc([nH]5)c(-c5cc(S(=O)(=O)[O-])ccc5F)c5nc(c(-c6cc(S(=O)(=O)[O-])ccc6F)c6ccc3[nH]6)C=C5)C=C4)cc2)C(C)C)cc1O
REMARK SMILES IDX 19 1 18 2 17 3 16 4 15 5 14 6 13 7 11 8 12 9 10 10 9 11 7 12
REMARK SMILES IDX 8 13 6 15 3 16 4 17 95 18 5 19 94 20 2 21 1 22 96 23 91 25
REMARK SMILES IDX 92 26 93 27 20 28 21 29 22 30 23 31 24 32 25 33 26 34 27 35
REMARK SMILES IDX 28 36 29 37 90 38 30 39 89 40 31 41 32 42 33 43 83 44 34 45
REMARK SMILES IDX 88 46 82 47 84 48 35 49 87 50 81 51 80 52 36 54 68 55 48 56
REMARK SMILES IDX 67 57 49 58 52 59 66 60 85 61 50 62 51 63 65 65 86 66 53 67
REMARK SMILES IDX 37 68 38 69 46 70 39 71 45 72 47 73 44 74 40 75 41 76 42 77
REMARK SMILES IDX 43 78 69 79 70 80 78 81 71 82 77 83 79 84 76 85 72 86 73 87
REMARK SMILES IDX 74 88 75 89 54 90 55 91 63 92 56 93 62 94 64 95 61 96 57 97
REMARK SMILES IDX 58 98 59 99 60 100
REMARK H PARENT 9 14 96 24 84 53 52 64
REMARK Flexibility Score: inf
ROOT
ATOM      1  O   UNL A   1      31.847  30.788  25.765  1.00  0.00    -0.377 OA
ENDROOT
BRANCH   1   2
ATOM      2  C   UNL A   1      31.606  29.478  25.305  1.00  0.00     0.188 C 
BRANCH   2   3
ATOM      3  C   UNL A   1      30.851  29.393  23.968  1.00  0.00     0.188 C 
BRANCH   3   4
ATOM      4  O   UNL A   1      29.810  28.452  23.769  1.00  0.00    -0.376 OA
BRANCH   4   5
ATOM      5  C   UNL A   1      30.064  27.193  23.161  1.00  0.00     0.202 C 
BRANCH   5   6
ATOM      6  C   UNL A   1      29.310  25.905  23.552  1.00  0.00     0.261 C 
BRANCH   6   7
ATOM      7  O   UNL A   1      30.104  24.822  24.062  1.00  0.00    -0.462 OA
BRANCH   7   8
ATOM      8  C   UNL A   1      30.772  25.040  25.220  1.00  0.00     0.328 C 
ATOM      9  O   UNL A   1      30.327  25.702  26.152  1.00  0.00    -0.250 OA
BRANCH   8  10
ATOM     10  C   UNL A   1      32.157  24.320  25.275  1.00  0.00     0.195 C 
BRANCH  10  11
ATOM     11  N   UNL A   1      32.509  23.709  26.585  1.00  0.00    -0.338 N 
ATOM     12  C   UNL A   1      32.996  22.480  26.955  1.00  0.00     0.252 C 
ATOM     13  O   UNL A   1      33.275  22.290  28.136  1.00  0.00    -0.269 OA
ATOM     14  H   UNL A   1      32.359  24.313  27.349  1.00  0.00     0.164 HD
BRANCH  12  15
ATOM     15  C   UNL A   1      33.333  21.455  25.944  1.00  0.00     0.043 A 
ATOM     16  C   UNL A   1      33.977  19.117  24.542  1.00  0.00     0.160 A 
ATOM     17  C   UNL A   1      32.640  19.488  24.726  1.00  0.00     0.051 A 
ATOM     18  C   UNL A   1      34.970  19.981  25.001  1.00  0.00     0.158 A 
ATOM     19  C   UNL A   1      32.314  20.637  25.453  1.00  0.00     0.018 A 
ATOM     20  C   UNL A   1      34.647  21.195  25.583  1.00  0.00     0.064 A 
BRANCH  16  21
ATOM     21  O   UNL A   1      34.148  17.903  23.939  1.00  0.00    -0.493 OA
ATOM     22  C   UNL A   1      33.145  17.473  23.029  1.00  0.00     0.278 C 
ENDBRANCH  16  21
BRANCH  18  23
ATOM     23  O   UNL A   1      36.298  19.667  25.051  1.00  0.00    -0.504 OA
ATOM     24  H   UNL A   1      36.933  20.339  25.204  1.00  0.00     0.293 HD
ENDBRANCH  18  23
ENDBRANCH  12  15
ENDBRANCH  10  11
BRANCH  10  25
ATOM     25  C   UNL A   1      33.304  25.267  24.808  1.00  0.00     0.017 C 
ATOM     26  C   UNL A   1      34.486  25.192  25.781  1.00  0.00     0.010 C 
ATOM     27  C   UNL A   1      33.806  24.957  23.391  1.00  0.00     0.010 C 
ENDBRANCH  10  25
ENDBRANCH   8  10
ENDBRANCH   7   8
ENDBRANCH   6   7
ENDBRANCH   5   6
ENDBRANCH   4   5
ENDBRANCH   3   4
ENDBRANCH   2   3
ENDBRANCH   1   2
BRANCH   1  28
ATOM     28  C   UNL A   1      32.392  30.913  27.071  1.00  0.00     0.188 C 
BRANCH  28  29
ATOM     29  C   UNL A   1      33.890  30.597  27.253  1.00  0.00     0.188 C 
BRANCH  29  30
ATOM     30  O   UNL A   1      34.699  31.732  27.547  1.00  0.00    -0.376 OA
BRANCH  30  31
ATOM     31  C   UNL A   1      34.763  32.203  28.886  1.00  0.00     0.202 C 
BRANCH  31  32
ATOM     32  C   UNL A   1      35.855  31.636  29.812  1.00  0.00     0.261 C 
BRANCH  32  33
ATOM     33  O   UNL A   1      35.539  31.541  31.208  1.00  0.00    -0.460 OA
BRANCH  33  34
ATOM     34  C   UNL A   1      36.307  30.737  31.978  1.00  0.00     0.338 C 
ATOM     35  O   UNL A   1      36.391  29.530  31.908  1.00  0.00    -0.246 OA
BRANCH  34  36
ATOM     36  C   UNL A   1      37.203  31.605  32.780  1.00  0.00     0.060 A 
ATOM     37  C   UNL A   1      38.426  31.084  33.221  1.00  0.00     0.016 A 
ATOM     38  C   UNL A   1      36.841  32.917  33.093  1.00  0.00     0.016 A 
ATOM     39  C   UNL A   1      39.273  31.859  34.014  1.00  0.00     0.010 A 
ATOM     40  C   UNL A   1      37.678  33.683  33.912  1.00  0.00     0.010 A 
ATOM     41  C   UNL A   1      38.880  33.144  34.406  1.00  0.00    -0.014 A 
BRANCH  41  42
ATOM     42  C   UNL A   1      39.612  33.831  35.500  1.00  0.00     0.031 A 
ATOM     43  C   UNL A   1      39.176  33.563  36.918  1.00  0.00     0.074 A 
ATOM     44  C   UNL A   1      40.653  34.648  35.250  1.00  0.00     0.049 A 
ATOM     45  N   UNL A   1      39.612  34.086  38.034  1.00  0.00    -0.248 NA
ATOM     46  C   UNL A   1      38.102  32.572  37.097  1.00  0.00     0.031 C 
ATOM     47  C   UNL A   1      41.200  34.939  33.926  1.00  0.00     0.029 A 
ATOM     48  N   UNL A   1      41.429  35.394  36.104  1.00  0.00    -0.354 N 
ATOM     49  C   UNL A   1      38.851  33.506  39.044  1.00  0.00     0.074 A 
ATOM     50  C   UNL A   1      37.918  32.602  38.409  1.00  0.00     0.031 C 
ATOM     51  C   UNL A   1      42.211  35.817  34.055  1.00  0.00     0.029 A 
ATOM     52  C   UNL A   1      42.354  36.188  35.463  1.00  0.00     0.049 A 
ATOM     53  H   UNL A   1      41.333  35.365  37.083  1.00  0.00     0.167 HD
ATOM     54  C   UNL A   1      38.926  33.713  40.380  1.00  0.00     0.034 A 
ATOM     55  C   UNL A   1      43.187  37.130  35.953  1.00  0.00     0.034 A 
ATOM     56  C   UNL A   1      39.866  34.613  40.999  1.00  0.00     0.049 A 
ATOM     57  C   UNL A   1      43.192  37.396  37.445  1.00  0.00     0.074 A 
ATOM     58  C   UNL A   1      40.053  34.861  42.347  1.00  0.00     0.029 A 
ATOM     59  N   UNL A   1      40.762  35.423  40.317  1.00  0.00    -0.354 N 
ATOM     60  N   UNL A   1      42.491  36.816  38.393  1.00  0.00    -0.248 NA
ATOM     61  C   UNL A   1      44.108  38.437  37.935  1.00  0.00     0.031 C 
ATOM     62  C   UNL A   1      40.991  35.889  42.476  1.00  0.00     0.029 A 
ATOM     63  C   UNL A   1      41.469  36.206  41.215  1.00  0.00     0.049 A 
ATOM     64  H   UNL A   1      40.879  35.438  39.340  1.00  0.00     0.167 HD
ATOM     65  C   UNL A   1      42.915  37.395  39.589  1.00  0.00     0.074 A 
ATOM     66  C   UNL A   1      43.943  38.352  39.245  1.00  0.00     0.031 C 
ATOM     67  C   UNL A   1      42.497  37.155  40.859  1.00  0.00     0.034 A 
BRANCH  54  68
ATOM     68  C   UNL A   1      37.926  33.011  41.264  1.00  0.00     0.023 A 
ATOM     69  C   UNL A   1      36.632  33.512  41.483  1.00  0.00     0.031 A 
ATOM     70  C   UNL A   1      38.274  31.791  41.873  1.00  0.00     0.131 A 
ATOM     71  C   UNL A   1      35.745  32.813  42.317  1.00  0.00     0.055 A 
ATOM     72  C   UNL A   1      37.365  31.065  42.643  1.00  0.00     0.041 A 
ATOM     73  F   UNL A   1      39.506  31.280  41.721  1.00  0.00    -0.206 F 
ATOM     74  C   UNL A   1      36.093  31.579  42.874  1.00  0.00     0.022 A 
BRANCH  71  75
ATOM     75  S   UNL A   1      34.160  33.581  42.745  1.00  0.00     0.124 S 
ATOM     76  O   UNL A   1      34.513  34.338  43.944  1.00  0.00    -0.237 OA
ATOM     77  O   UNL A   1      33.859  34.371  41.557  1.00  0.00    -0.237 OA
ATOM     78  O   UNL A   1      33.276  32.439  42.977  1.00  0.00    -0.744 OA
ENDBRANCH  71  75
ENDBRANCH  54  68
BRANCH  55  79
ATOM     79  C   UNL A   1      44.042  37.954  35.043  1.00  0.00     0.023 A 
ATOM     80  C   UNL A   1      43.590  39.182  34.531  1.00  0.00     0.031 A 
ATOM     81  C   UNL A   1      45.277  37.467  34.577  1.00  0.00     0.131 A 
ATOM     82  C   UNL A   1      44.324  39.836  33.528  1.00  0.00     0.055 A 
ATOM     83  C   UNL A   1      46.041  38.161  33.636  1.00  0.00     0.041 A 
ATOM     84  F   UNL A   1      45.756  36.293  35.020  1.00  0.00    -0.206 F 
ATOM     85  C   UNL A   1      45.554  39.343  33.089  1.00  0.00     0.022 A 
BRANCH  82  86
ATOM     86  S   UNL A   1      43.571  41.261  32.692  1.00  0.00     0.124 S 
ATOM     87  O   UNL A   1      44.213  42.377  33.376  1.00  0.00    -0.237 OA
ATOM     88  O   UNL A   1      43.971  41.042  31.305  1.00  0.00    -0.237 OA
ATOM     89  O   UNL A   1      42.144  41.099  32.962  1.00  0.00    -0.744 OA
ENDBRANCH  82  86
ENDBRANCH  55  79
BRANCH  67  90
ATOM     90  C   UNL A   1      43.202  37.890  41.976  1.00  0.00     0.023 A 
ATOM     91  C   UNL A   1      42.743  39.127  42.462  1.00  0.00     0.031 A 
ATOM     92  C   UNL A   1      44.354  37.337  42.563  1.00  0.00     0.131 A 
ATOM     93  C   UNL A   1      43.468  39.796  43.460  1.00  0.00     0.055 A 
ATOM     94  C   UNL A   1      45.030  37.973  43.605  1.00  0.00     0.041 A 
ATOM     95  F   UNL A   1      44.841  36.159  42.137  1.00  0.00    -0.206 F 
ATOM     96  C   UNL A   1      44.595  39.217  44.050  1.00  0.00     0.022 A 
BRANCH  93  97
ATOM     97  S   UNL A   1      42.978  41.484  43.911  1.00  0.00     0.124 S 
ATOM     98  O   UNL A   1      41.525  41.367  43.984  1.00  0.00    -0.237 OA
ATOM     99  O   UNL A   1      43.666  41.681  45.181  1.00  0.00    -0.237 OA
ATOM    100  O   UNL A   1      43.480  42.295  42.802  1.00  0.00    -0.744 OA
ENDBRANCH  93  97
ENDBRANCH  67  90
ENDBRANCH  41  42
ENDBRANCH  34  36
ENDBRANCH  33  34
ENDBRANCH  32  33
ENDBRANCH  31  32
ENDBRANCH  30  31
ENDBRANCH  29  30
ENDBRANCH  28  29
ENDBRANCH   1  28
TORSDOF 28
ENDMDL
MODEL 3
REMARK VINA RESULT:      -8.1      3.256      4.920
REMARK SMILES COc1ccc(C(=O)N[C@@H](C(=O)OCCOCCOCCOCCOC(=O)c2ccc(-c3c4nc(c(-c5cc(S(=O)(=O)[O-])ccc5F)c5ccc([nH]5)c(-c5cc(S(=O)(=O)[O-])ccc5F)c5nc(c(-c6cc(S(=O)(=O)[O-])ccc6F)c6ccc3[nH]6)C=C5)C=C4)cc2)C(C)C)cc1O
REMARK SMILES IDX 19 1 18 2 17 3 16 4 15 5 14 6 13 7 11 8 12 9 10 10 9 11 7 12
REMARK SMILES IDX 8 13 6 15 3 16 4 17 95 18 5 19 94 20 2 21 1 22 96 23 91 25
REMARK SMILES IDX 92 26 93 27 20 28 21 29 22 30 23 31 24 32 25 33 26 34 27 35
REMARK SMILES IDX 28 36 29 37 90 38 30 39 89 40 31 41 32 42 33 43 83 44 34 45
REMARK SMILES IDX 88 46 82 47 84 48 35 49 87 50 81 51 80 52 36 54 68 55 48 56
REMARK SMILES IDX 67 57 49 58 52 59 66 60 85 61 50 62 51 63 65 65 86 66 53 67
REMARK SMILES IDX 37 68 38 69 46 70 39 71 45 72 47 73 44 74 40 75 41 76 42 77
REMARK SMILES IDX 43 78 69 79 70 80 78 81 71 82 77 83 79 84 76 85 72 86 73 87
REMARK SMILES IDX 74 88 75 89 54 90 55 91 63 92 56 93 62 94 64 95 61 96 57 97
REMARK SMILES IDX 58 98 59 99 60 100
REMARK H PARENT 9 14 96 24 84 53 52 64
REMARK Flexibility Score: inf
ROOT
ATOM      1  O   UNL A   1      33.054  29.505  25.684  1.00  0.00    -0.377 OA
ENDROOT
BRANCH   1   2
ATOM      2  C   UNL A   1      33.380  29.247  24.338  1.00  0.00     0.188 C 
BRANCH   2   3
ATOM      3  C   UNL A   1      33.764  27.789  24.035  1.00  0.00     0.188 C 
BRANCH   3   4
ATOM      4  O   UNL A   1      34.130  27.381  22.728  1.00  0.00    -0.376 OA
BRANCH   4   5
ATOM      5  C   UNL A   1      33.405  26.365  22.047  1.00  0.00     0.202 C 
BRANCH   5   6
ATOM      6  C   UNL A   1      33.413  24.887  22.492  1.00  0.00     0.261 C 
BRANCH   6   7
ATOM      7  O   UNL A   1      34.489  24.480  23.353  1.00  0.00    -0.462 OA
BRANCH   7   8
ATOM      8  C   UNL A   1      34.553  23.167  23.680  1.00  0.00     0.328 C 
ATOM      9  O   UNL A   1      35.589  22.510  23.669  1.00  0.00    -0.250 OA
BRANCH   8  10
ATOM     10  C   UNL A   1      33.176  22.577  24.124  1.00  0.00     0.195 C 
BRANCH  10  11
ATOM     11  N   UNL A   1      32.920  22.586  25.590  1.00  0.00    -0.338 N 
ATOM     12  C   UNL A   1      32.109  23.337  26.404  1.00  0.00     0.252 C 
ATOM     13  O   UNL A   1      32.046  23.049  27.597  1.00  0.00    -0.269 OA
ATOM     14  H   UNL A   1      33.444  21.910  26.080  1.00  0.00     0.164 HD
BRANCH  12  15
ATOM     15  C   UNL A   1      31.208  24.367  25.846  1.00  0.00     0.043 A 
ATOM     16  C   UNL A   1      30.018  26.473  24.434  1.00  0.00     0.160 A 
ATOM     17  C   UNL A   1      29.959  25.165  23.939  1.00  0.00     0.051 A 
ATOM     18  C   UNL A   1      30.608  26.680  25.680  1.00  0.00     0.158 A 
ATOM     19  C   UNL A   1      30.579  24.116  24.624  1.00  0.00     0.018 A 
ATOM     20  C   UNL A   1      31.084  25.618  26.430  1.00  0.00     0.064 A 
BRANCH  16  21
ATOM     21  O   UNL A   1      29.496  27.418  23.597  1.00  0.00    -0.493 OA
ATOM     22  C   UNL A   1      30.351  27.959  22.598  1.00  0.00     0.278 C 
ENDBRANCH  16  21
BRANCH  18  23
ATOM     23  O   UNL A   1      30.894  27.910  26.198  1.00  0.00    -0.504 OA
ATOM     24  H   UNL A   1      31.762  28.258  26.128  1.00  0.00     0.293 HD
ENDBRANCH  18  23
ENDBRANCH  12  15
ENDBRANCH  10  11
BRANCH  10  25
ATOM     25  C   UNL A   1      32.970  21.140  23.559  1.00  0.00     0.017 C 
ATOM     26  C   UNL A   1      32.436  20.209  24.654  1.00  0.00     0.010 C 
ATOM     27  C   UNL A   1      32.016  21.092  22.357  1.00  0.00     0.010 C 
ENDBRANCH  10  25
ENDBRANCH   8  10
ENDBRANCH   7   8
ENDBRANCH   6   7
ENDBRANCH   5   6
ENDBRANCH   4   5
ENDBRANCH   3   4
ENDBRANCH   2   3
ENDBRANCH   1   2
BRANCH   1  28
ATOM     28  C   UNL A   1      34.036  29.167  26.653  1.00  0.00     0.188 C 
BRANCH  28  29
ATOM     29  C   UNL A   1      34.762  30.324  27.369  1.00  0.00     0.188 C 
BRANCH  29  30
ATOM     30  O   UNL A   1      33.899  31.217  28.067  1.00  0.00    -0.376 OA
BRANCH  30  31
ATOM     31  C   UNL A   1      34.210  32.604  28.080  1.00  0.00     0.202 C 
BRANCH  31  32
ATOM     32  C   UNL A   1      35.087  33.148  29.222  1.00  0.00     0.261 C 
BRANCH  32  33
ATOM     33  O   UNL A   1      34.542  34.218  30.008  1.00  0.00    -0.460 OA
BRANCH  33  34
ATOM     34  C   UNL A   1      34.501  34.059  31.350  1.00  0.00     0.338 C 
ATOM     35  O   UNL A   1      33.559  34.281  32.079  1.00  0.00    -0.246 OA
BRANCH  34  36
ATOM     36  C   UNL A   1      35.740  33.353  31.757  1.00  0.00     0.060 A 
ATOM     37  C   UNL A   1      36.977  33.917  31.416  1.00  0.00     0.016 A 
ATOM     38  C   UNL A   1      35.684  32.152  32.466  1.00  0.00     0.016 A 
ATOM     39  C   UNL A   1      38.162  33.258  31.746  1.00  0.00     0.010 A 
ATOM     40  C   UNL A   1      36.872  31.478  32.771  1.00  0.00     0.010 A 
ATOM     41  C   UNL A   1      38.115  32.010  32.379  1.00  0.00    -0.014 A 
BRANCH  41  42
ATOM     42  C   UNL A   1      39.337  31.169  32.431  1.00  0.00     0.031 A 
ATOM     43  C   UNL A   1      40.306  31.402  33.562  1.00  0.00     0.074 A 
ATOM     44  C   UNL A   1      39.572  30.205  31.521  1.00  0.00     0.049 A 
ATOM     45  N   UNL A   1      41.466  30.845  33.791  1.00  0.00    -0.248 NA
ATOM     46  C   UNL A   1      39.911  32.402  34.569  1.00  0.00     0.031 C 
ATOM     47  C   UNL A   1      38.681  29.851  30.417  1.00  0.00     0.029 A 
ATOM     48  N   UNL A   1      40.640  29.355  31.374  1.00  0.00    -0.354 N 
ATOM     49  C   UNL A   1      41.949  31.440  34.952  1.00  0.00     0.074 A 
ATOM     50  C   UNL A   1      40.963  32.411  35.373  1.00  0.00     0.031 C 
ATOM     51  C   UNL A   1      39.250  28.869  29.696  1.00  0.00     0.029 A 
ATOM     52  C   UNL A   1      40.566  28.556  30.255  1.00  0.00     0.049 A 
ATOM     53  H   UNL A   1      41.391  29.319  32.011  1.00  0.00     0.167 HD
ATOM     54  C   UNL A   1      43.111  31.198  35.603  1.00  0.00     0.034 A 
ATOM     55  C   UNL A   1      41.470  27.705  29.725  1.00  0.00     0.034 A 
ATOM     56  C   UNL A   1      44.081  30.223  35.173  1.00  0.00     0.049 A 
ATOM     57  C   UNL A   1      42.796  27.514  30.435  1.00  0.00     0.074 A 
ATOM     58  C   UNL A   1      45.270  29.870  35.787  1.00  0.00     0.029 A 
ATOM     59  N   UNL A   1      43.986  29.459  34.018  1.00  0.00    -0.354 N 
ATOM     60  N   UNL A   1      43.226  28.059  31.550  1.00  0.00    -0.248 NA
ATOM     61  C   UNL A   1      43.755  26.586  29.818  1.00  0.00     0.031 C 
ATOM     62  C   UNL A   1      45.938  28.967  34.957  1.00  0.00     0.029 A 
ATOM     63  C   UNL A   1      45.119  28.673  33.878  1.00  0.00     0.049 A 
ATOM     64  H   UNL A   1      43.227  29.473  33.393  1.00  0.00     0.167 HD
ATOM     65  C   UNL A   1      44.483  27.505  31.786  1.00  0.00     0.074 A 
ATOM     66  C   UNL A   1      44.733  26.573  30.709  1.00  0.00     0.031 C 
ATOM     67  C   UNL A   1      45.354  27.742  32.802  1.00  0.00     0.034 A 
BRANCH  54  68
ATOM     68  C   UNL A   1      43.437  32.043  36.809  1.00  0.00     0.023 A 
ATOM     69  C   UNL A   1      43.086  31.660  38.114  1.00  0.00     0.031 A 
ATOM     70  C   UNL A   1      44.147  33.246  36.642  1.00  0.00     0.131 A 
ATOM     71  C   UNL A   1      43.416  32.490  39.197  1.00  0.00     0.055 A 
ATOM     72  C   UNL A   1      44.535  34.031  37.728  1.00  0.00     0.041 A 
ATOM     73  F   UNL A   1      44.483  33.675  35.415  1.00  0.00    -0.206 F 
ATOM     74  C   UNL A   1      44.164  33.657  39.015  1.00  0.00     0.022 A 
BRANCH  71  75
ATOM     75  S   UNL A   1      42.776  32.075  40.842  1.00  0.00     0.124 S 
ATOM     76  O   UNL A   1      43.115  33.276  41.601  1.00  0.00    -0.237 OA
ATOM     77  O   UNL A   1      41.357  31.862  40.585  1.00  0.00    -0.237 OA
ATOM     78  O   UNL A   1      43.531  30.879  41.213  1.00  0.00    -0.744 OA
ENDBRANCH  71  75
ENDBRANCH  54  68
BRANCH  55  79
ATOM     79  C   UNL A   1      41.210  27.013  28.425  1.00  0.00     0.023 A 
ATOM     80  C   UNL A   1      40.944  25.634  28.373  1.00  0.00     0.031 A 
ATOM     81  C   UNL A   1      41.341  27.700  27.204  1.00  0.00     0.131 A 
ATOM     82  C   UNL A   1      40.901  24.975  27.133  1.00  0.00     0.055 A 
ATOM     83  C   UNL A   1      41.219  27.053  25.972  1.00  0.00     0.041 A 
ATOM     84  F   UNL A   1      41.608  29.016  27.189  1.00  0.00    -0.206 F 
ATOM     85  C   UNL A   1      41.020  25.677  25.932  1.00  0.00     0.022 A 
BRANCH  82  86
ATOM     86  S   UNL A   1      40.842  23.161  27.118  1.00  0.00     0.124 S 
ATOM     87  O   UNL A   1      41.363  22.838  28.440  1.00  0.00    -0.237 OA
ATOM     88  O   UNL A   1      39.421  22.907  26.908  1.00  0.00    -0.237 OA
ATOM     89  O   UNL A   1      41.711  22.802  25.998  1.00  0.00    -0.744 OA
ENDBRANCH  82  86
ENDBRANCH  55  79
BRANCH  67  90
ATOM     90  C   UNL A   1      46.626  26.926  32.834  1.00  0.00     0.023 A 
ATOM     91  C   UNL A   1      47.792  27.335  32.163  1.00  0.00     0.031 A 
ATOM     92  C   UNL A   1      46.668  25.718  33.552  1.00  0.00     0.131 A 
ATOM     93  C   UNL A   1      48.929  26.512  32.175  1.00  0.00     0.055 A 
ATOM     94  C   UNL A   1      47.824  24.939  33.621  1.00  0.00     0.041 A 
ATOM     95  F   UNL A   1      45.583  25.275  34.210  1.00  0.00    -0.206 F 
ATOM     96  C   UNL A   1      48.959  25.328  32.918  1.00  0.00     0.022 A 
BRANCH  93  97
ATOM     97  S   UNL A   1      50.339  26.956  31.124  1.00  0.00     0.124 S 
ATOM     98  O   UNL A   1      50.559  25.721  30.376  1.00  0.00    -0.237 OA
ATOM     99  O   UNL A   1      49.816  28.080  30.357  1.00  0.00    -0.237 OA
ATOM    100  O   UNL A   1      51.389  27.295  32.083  1.00  0.00    -0.744 OA
ENDBRANCH  93  97
ENDBRANCH  67  90
ENDBRANCH  41  42
ENDBRANCH  34  36
ENDBRANCH  33  34
ENDBRANCH  32  33
ENDBRANCH  31  32
ENDBRANCH  30  31
ENDBRANCH  29  30
ENDBRANCH  28  29
ENDBRANCH   1  28
TORSDOF 28
ENDMDL
