MODEL 1
REMARK VINA RESULT:      -8.3      0.000      0.000
REMARK SMILES CCCc1sc(C(=O)NCCC(=O)OCCOCCOCCOCCOC(=O)c2ccc(-c3c4nc(c(-c5cc(S(=O)(=O)[O-])ccc5F)c5ccc([nH]5)c(-c5cc(S(=O)(=O)[O-])ccc5F)c5nc(c(-c6cc(S(=O)(=O)[O-])ccc6F)c6ccc3[nH]6)C=C5)C=C4)cc2)cc1CC
REMARK SMILES IDX 19 1 18 2 17 3 16 4 15 5 14 6 12 7 13 8 11 9 10 10 9 11 7 12
REMARK SMILES IDX 8 13 6 15 4 16 5 17 93 18 92 19 3 20 2 21 1 22 94 23 95 24
REMARK SMILES IDX 20 25 21 26 22 27 23 28 24 29 25 30 26 31 27 32 28 33 29 34
REMARK SMILES IDX 30 35 91 36 31 37 90 38 32 39 33 40 34 41 84 42 35 43 89 44
REMARK SMILES IDX 83 45 85 46 36 47 88 48 82 49 81 50 37 52 69 53 49 54 68 55
REMARK SMILES IDX 50 56 53 57 67 58 86 59 51 60 52 61 66 63 87 64 54 65 38 66
REMARK SMILES IDX 39 67 47 68 40 69 46 70 48 71 45 72 41 73 42 74 43 75 44 76
REMARK SMILES IDX 70 77 71 78 79 79 72 80 78 81 80 82 77 83 73 84 74 85 75 86
REMARK SMILES IDX 76 87 55 88 56 89 64 90 57 91 63 92 65 93 62 94 58 95 59 96
REMARK SMILES IDX 60 97 61 98
REMARK H PARENT 9 14 85 51 53 62
REMARK Flexibility Score: inf
ROOT
ATOM      1  C   UNL A   1      38.481  20.771  25.344  1.00  0.00     0.188 C 
ENDROOT
BRANCH   1   2
ATOM      2  C   UNL A   1      38.248  22.220  25.800  1.00  0.00     0.188 C 
BRANCH   2   3
ATOM      3  O   UNL A   1      36.943  22.772  25.879  1.00  0.00    -0.376 OA
BRANCH   3   4
ATOM      4  C   UNL A   1      35.969  22.539  24.873  1.00  0.00     0.202 C 
BRANCH   4   5
ATOM      5  C   UNL A   1      34.870  21.468  24.995  1.00  0.00     0.261 C 
BRANCH   5   6
ATOM      6  O   UNL A   1      33.505  21.916  24.952  1.00  0.00    -0.463 OA
BRANCH   6   7
ATOM      7  C   UNL A   1      32.772  21.399  23.948  1.00  0.00     0.307 C 
ATOM      8  O   UNL A   1      32.739  20.208  23.650  1.00  0.00    -0.252 OA
BRANCH   7   9
ATOM      9  C   UNL A   1      31.986  22.404  23.152  1.00  0.00     0.144 C 
BRANCH   9  10
ATOM     10  C   UNL A   1      30.948  23.340  23.740  1.00  0.00     0.128 C 
BRANCH  10  11
ATOM     11  N   UNL A   1      30.537  23.188  25.120  1.00  0.00    -0.351 N 
ATOM     12  C   UNL A   1      30.584  24.151  26.122  1.00  0.00     0.261 C 
ATOM     13  O   UNL A   1      30.191  23.838  27.243  1.00  0.00    -0.268 OA
ATOM     14  H   UNL A   1      30.185  22.305  25.377  1.00  0.00     0.163 HD
BRANCH  12  15
ATOM     15  C   UNL A   1      31.113  25.469  25.790  1.00  0.00     0.092 A 
ATOM     16  C   UNL A   1      32.626  27.341  25.202  1.00  0.00     0.009 A 
ATOM     17  S   UNL A   1      32.794  25.764  25.867  1.00  0.00    -0.135 S 
ATOM     18  C   UNL A   1      31.313  27.607  24.846  1.00  0.00    -0.034 A 
ATOM     19  C   UNL A   1      30.445  26.612  25.394  1.00  0.00     0.029 A 
BRANCH  16  20
ATOM     20  C   UNL A   1      33.831  28.231  25.080  1.00  0.00     0.047 C 
BRANCH  20  21
ATOM     21  C   UNL A   1      33.787  29.378  26.099  1.00  0.00     0.002 C 
ATOM     22  C   UNL A   1      34.349  28.995  27.463  1.00  0.00     0.004 C 
ENDBRANCH  20  21
ENDBRANCH  16  20
BRANCH  18  23
ATOM     23  C   UNL A   1      30.813  28.771  24.039  1.00  0.00     0.033 C 
ATOM     24  C   UNL A   1      30.781  28.431  22.549  1.00  0.00     0.009 C 
ENDBRANCH  18  23
ENDBRANCH  12  15
ENDBRANCH  10  11
ENDBRANCH   9  10
ENDBRANCH   7   9
ENDBRANCH   6   7
ENDBRANCH   5   6
ENDBRANCH   4   5
ENDBRANCH   3   4
ENDBRANCH   2   3
ENDBRANCH   1   2
BRANCH   1  25
ATOM     25  O   UNL A   1      39.619  20.155  25.904  1.00  0.00    -0.377 OA
BRANCH  25  26
ATOM     26  C   UNL A   1      40.669  21.022  26.322  1.00  0.00     0.188 C 
BRANCH  26  27
ATOM     27  C   UNL A   1      42.066  20.405  26.566  1.00  0.00     0.188 C 
BRANCH  27  28
ATOM     28  O   UNL A   1      42.880  20.333  25.399  1.00  0.00    -0.376 OA
BRANCH  28  29
ATOM     29  C   UNL A   1      43.933  21.277  25.264  1.00  0.00     0.202 C 
BRANCH  29  30
ATOM     30  C   UNL A   1      43.971  22.437  26.273  1.00  0.00     0.261 C 
BRANCH  30  31
ATOM     31  O   UNL A   1      45.178  23.215  26.315  1.00  0.00    -0.460 OA
BRANCH  31  32
ATOM     32  C   UNL A   1      45.271  24.285  25.499  1.00  0.00     0.338 C 
ATOM     33  O   UNL A   1      45.529  24.269  24.305  1.00  0.00    -0.246 OA
BRANCH  32  34
ATOM     34  C   UNL A   1      44.797  25.470  26.244  1.00  0.00     0.060 A 
ATOM     35  C   UNL A   1      44.285  26.562  25.532  1.00  0.00     0.016 A 
ATOM     36  C   UNL A   1      44.862  25.506  27.639  1.00  0.00     0.016 A 
ATOM     37  C   UNL A   1      43.874  27.712  26.209  1.00  0.00     0.010 A 
ATOM     38  C   UNL A   1      44.474  26.668  28.314  1.00  0.00     0.010 A 
ATOM     39  C   UNL A   1      44.015  27.789  27.600  1.00  0.00    -0.014 A 
BRANCH  39  40
ATOM     40  C   UNL A   1      43.899  29.104  28.283  1.00  0.00     0.031 A 
ATOM     41  C   UNL A   1      45.128  29.972  28.353  1.00  0.00     0.074 A 
ATOM     42  C   UNL A   1      42.738  29.530  28.810  1.00  0.00     0.049 A 
ATOM     43  N   UNL A   1      45.311  31.110  28.968  1.00  0.00    -0.248 NA
ATOM     44  C   UNL A   1      46.312  29.480  27.629  1.00  0.00     0.031 C 
ATOM     45  C   UNL A   1      41.468  28.810  28.751  1.00  0.00     0.029 A 
ATOM     46  N   UNL A   1      42.443  30.674  29.512  1.00  0.00    -0.354 N 
ATOM     47  C   UNL A   1      46.632  31.468  28.717  1.00  0.00     0.074 A 
ATOM     48  C   UNL A   1      47.212  30.406  27.921  1.00  0.00     0.031 C 
ATOM     49  C   UNL A   1      40.532  29.524  29.402  1.00  0.00     0.029 A 
ATOM     50  C   UNL A   1      41.146  30.725  29.966  1.00  0.00     0.049 A 
ATOM     51  H   UNL A   1      43.099  31.390  29.673  1.00  0.00     0.167 HD
ATOM     52  C   UNL A   1      47.298  32.582  29.107  1.00  0.00     0.034 A 
ATOM     53  C   UNL A   1      40.538  31.620  30.776  1.00  0.00     0.034 A 
ATOM     54  C   UNL A   1      46.709  33.624  29.911  1.00  0.00     0.049 A 
ATOM     55  C   UNL A   1      41.334  32.799  31.294  1.00  0.00     0.074 A 
ATOM     56  C   UNL A   1      47.292  34.795  30.363  1.00  0.00     0.029 A 
ATOM     57  N   UNL A   1      45.407  33.616  30.395  1.00  0.00    -0.354 N 
ATOM     58  N   UNL A   1      42.585  33.124  31.056  1.00  0.00    -0.248 NA
ATOM     59  C   UNL A   1      40.634  33.734  32.185  1.00  0.00     0.031 C 
ATOM     60  C   UNL A   1      46.374  35.451  31.186  1.00  0.00     0.029 A 
ATOM     61  C   UNL A   1      45.182  34.743  31.170  1.00  0.00     0.049 A 
ATOM     62  H   UNL A   1      44.743  32.912  30.215  1.00  0.00     0.167 HD
ATOM     63  C   UNL A   1      42.803  34.323  31.733  1.00  0.00     0.074 A 
ATOM     64  C   UNL A   1      41.555  34.666  32.381  1.00  0.00     0.031 C 
ATOM     65  C   UNL A   1      43.930  35.077  31.807  1.00  0.00     0.034 A 
BRANCH  52  66
ATOM     66  C   UNL A   1      48.751  32.698  28.716  1.00  0.00     0.023 A 
ATOM     67  C   UNL A   1      49.149  33.262  27.492  1.00  0.00     0.031 A 
ATOM     68  C   UNL A   1      49.756  32.220  29.577  1.00  0.00     0.131 A 
ATOM     69  C   UNL A   1      50.505  33.275  27.134  1.00  0.00     0.055 A 
ATOM     70  C   UNL A   1      51.110  32.312  29.252  1.00  0.00     0.041 A 
ATOM     71  F   UNL A   1      49.436  31.645  30.747  1.00  0.00    -0.206 F 
ATOM     72  C   UNL A   1      51.492  32.830  28.018  1.00  0.00     0.022 A 
BRANCH  69  73
ATOM     73  S   UNL A   1      50.953  33.750  25.443  1.00  0.00     0.124 S 
ATOM     74  O   UNL A   1      51.186  32.448  24.822  1.00  0.00    -0.237 OA
ATOM     75  O   UNL A   1      49.767  34.469  24.991  1.00  0.00    -0.237 OA
ATOM     76  O   UNL A   1      52.150  34.569  25.621  1.00  0.00    -0.744 OA
ENDBRANCH  69  73
ENDBRANCH  52  66
BRANCH  53  77
ATOM     77  C   UNL A   1      39.120  31.425  31.201  1.00  0.00     0.023 A 
ATOM     78  C   UNL A   1      38.062  32.035  30.507  1.00  0.00     0.031 A 
ATOM     79  C   UNL A   1      38.806  30.693  32.362  1.00  0.00     0.131 A 
ATOM     80  C   UNL A   1      36.753  31.953  31.010  1.00  0.00     0.055 A 
ATOM     81  C   UNL A   1      37.495  30.557  32.819  1.00  0.00     0.041 A 
ATOM     82  F   UNL A   1      39.777  30.099  33.074  1.00  0.00    -0.206 F 
ATOM     83  C   UNL A   1      36.460  31.204  32.152  1.00  0.00     0.022 A 
BRANCH  80  84
ATOM     84  S   UNL A   1      35.455  32.940  30.215  1.00  0.00     0.124 S 
ATOM     85  O   UNL A   1      36.240  33.922  29.477  1.00  0.00    -0.237 OA
ATOM     86  O   UNL A   1      34.760  31.939  29.413  1.00  0.00    -0.237 OA
ATOM     87  O   UNL A   1      34.693  33.472  31.343  1.00  0.00    -0.744 OA
ENDBRANCH  80  84
ENDBRANCH  53  77
BRANCH  65  88
ATOM     88  C   UNL A   1      43.846  36.387  32.556  1.00  0.00     0.023 A 
ATOM     89  C   UNL A   1      43.615  37.610  31.904  1.00  0.00     0.031 A 
ATOM     90  C   UNL A   1      43.990  36.404  33.956  1.00  0.00     0.131 A 
ATOM     91  C   UNL A   1      43.588  38.803  32.643  1.00  0.00     0.055 A 
ATOM     92  C   UNL A   1      43.895  37.583  34.694  1.00  0.00     0.041 A 
ATOM     93  F   UNL A   1      44.217  35.267  34.633  1.00  0.00    -0.206 F 
ATOM     94  C   UNL A   1      43.704  38.795  34.036  1.00  0.00     0.022 A 
BRANCH  91  95
ATOM     95  S   UNL A   1      43.491  40.382  31.754  1.00  0.00     0.124 S 
ATOM     96  O   UNL A   1      43.564  39.951  30.363  1.00  0.00    -0.237 OA
ATOM     97  O   UNL A   1      42.204  40.909  32.193  1.00  0.00    -0.237 OA
ATOM     98  O   UNL A   1      44.658  41.119  32.238  1.00  0.00    -0.744 OA
ENDBRANCH  91  95
ENDBRANCH  65  88
ENDBRANCH  39  40
ENDBRANCH  32  34
ENDBRANCH  31  32
ENDBRANCH  30  31
ENDBRANCH  29  30
ENDBRANCH  28  29
ENDBRANCH  27  28
ENDBRANCH  26  27
ENDBRANCH  25  26
ENDBRANCH   1  25
TORSDOF 29
ENDMDL
MODEL 2
REMARK VINA RESULT:      -7.9      4.272      9.495
REMARK SMILES CCCc1sc(C(=O)NCCC(=O)OCCOCCOCCOCCOC(=O)c2ccc(-c3c4nc(c(-c5cc(S(=O)(=O)[O-])ccc5F)c5ccc([nH]5)c(-c5cc(S(=O)(=O)[O-])ccc5F)c5nc(c(-c6cc(S(=O)(=O)[O-])ccc6F)c6ccc3[nH]6)C=C5)C=C4)cc2)cc1CC
REMARK SMILES IDX 19 1 18 2 17 3 16 4 15 5 14 6 12 7 13 8 11 9 10 10 9 11 7 12
REMARK SMILES IDX 8 13 6 15 4 16 5 17 93 18 92 19 3 20 2 21 1 22 94 23 95 24
REMARK SMILES IDX 20 25 21 26 22 27 23 28 24 29 25 30 26 31 27 32 28 33 29 34
REMARK SMILES IDX 30 35 91 36 31 37 90 38 32 39 33 40 34 41 84 42 35 43 89 44
REMARK SMILES IDX 83 45 85 46 36 47 88 48 82 49 81 50 37 52 69 53 49 54 68 55
REMARK SMILES IDX 50 56 53 57 67 58 86 59 51 60 52 61 66 63 87 64 54 65 38 66
REMARK SMILES IDX 39 67 47 68 40 69 46 70 48 71 45 72 41 73 42 74 43 75 44 76
REMARK SMILES IDX 70 77 71 78 79 79 72 80 78 81 80 82 77 83 73 84 74 85 75 86
REMARK SMILES IDX 76 87 55 88 56 89 64 90 57 91 63 92 65 93 62 94 58 95 59 96
REMARK SMILES IDX 60 97 61 98
REMARK H PARENT 9 14 85 51 53 62
REMARK Flexibility Score: inf
ROOT
ATOM      1  C   UNL A   1      38.005  21.721  25.473  1.00  0.00     0.188 C 
ENDROOT
BRANCH   1   2
ATOM      2  C   UNL A   1      36.830  21.359  24.553  1.00  0.00     0.188 C 
BRANCH   2   3
ATOM      3  O   UNL A   1      35.517  21.836  24.805  1.00  0.00    -0.376 OA
BRANCH   3   4
ATOM      4  C   UNL A   1      35.067  22.133  26.119  1.00  0.00     0.202 C 
BRANCH   4   5
ATOM      5  C   UNL A   1      33.645  21.819  26.614  1.00  0.00     0.261 C 
BRANCH   5   6
ATOM      6  O   UNL A   1      32.912  22.887  27.237  1.00  0.00    -0.463 OA
BRANCH   6   7
ATOM      7  C   UNL A   1      31.723  23.165  26.669  1.00  0.00     0.307 C 
ATOM      8  O   UNL A   1      30.761  23.642  27.265  1.00  0.00    -0.252 OA
BRANCH   7   9
ATOM      9  C   UNL A   1      31.616  22.812  25.212  1.00  0.00     0.144 C 
BRANCH   9  10
ATOM     10  C   UNL A   1      31.352  23.814  24.105  1.00  0.00     0.128 C 
BRANCH  10  11
ATOM     11  N   UNL A   1      32.345  24.032  23.075  1.00  0.00    -0.351 N 
ATOM     12  C   UNL A   1      32.838  25.252  22.627  1.00  0.00     0.261 C 
ATOM     13  O   UNL A   1      33.685  25.242  21.736  1.00  0.00    -0.268 OA
ATOM     14  H   UNL A   1      32.715  23.226  22.647  1.00  0.00     0.163 HD
BRANCH  12  15
ATOM     15  C   UNL A   1      32.308  26.473  23.223  1.00  0.00     0.092 A 
ATOM     16  C   UNL A   1      30.917  28.462  23.721  1.00  0.00     0.009 A 
ATOM     17  S   UNL A   1      31.143  27.402  22.386  1.00  0.00    -0.135 S 
ATOM     18  C   UNL A   1      31.658  28.061  24.822  1.00  0.00    -0.034 A 
ATOM     19  C   UNL A   1      32.603  27.060  24.439  1.00  0.00     0.029 A 
BRANCH  16  20
ATOM     20  C   UNL A   1      30.006  29.648  23.585  1.00  0.00     0.047 C 
BRANCH  20  21
ATOM     21  C   UNL A   1      28.878  29.378  22.579  1.00  0.00     0.002 C 
ATOM     22  C   UNL A   1      27.721  28.580  23.169  1.00  0.00     0.004 C 
ENDBRANCH  20  21
ENDBRANCH  16  20
BRANCH  18  23
ATOM     23  C   UNL A   1      31.554  28.590  26.224  1.00  0.00     0.033 C 
ATOM     24  C   UNL A   1      32.915  29.061  26.735  1.00  0.00     0.009 C 
ENDBRANCH  18  23
ENDBRANCH  12  15
ENDBRANCH  10  11
ENDBRANCH   9  10
ENDBRANCH   7   9
ENDBRANCH   6   7
ENDBRANCH   5   6
ENDBRANCH   4   5
ENDBRANCH   3   4
ENDBRANCH   2   3
ENDBRANCH   1   2
BRANCH   1  25
ATOM     25  O   UNL A   1      38.952  20.690  25.649  1.00  0.00    -0.377 OA
BRANCH  25  26
ATOM     26  C   UNL A   1      40.238  21.082  26.121  1.00  0.00     0.188 C 
BRANCH  26  27
ATOM     27  C   UNL A   1      40.892  20.233  27.235  1.00  0.00     0.188 C 
BRANCH  27  28
ATOM     28  O   UNL A   1      42.277  19.973  27.029  1.00  0.00    -0.376 OA
BRANCH  28  29
ATOM     29  C   UNL A   1      42.870  20.442  25.826  1.00  0.00     0.202 C 
BRANCH  29  30
ATOM     30  C   UNL A   1      43.861  21.613  25.940  1.00  0.00     0.261 C 
BRANCH  30  31
ATOM     31  O   UNL A   1      43.364  22.914  25.587  1.00  0.00    -0.460 OA
BRANCH  31  32
ATOM     32  C   UNL A   1      42.899  23.705  26.576  1.00  0.00     0.338 C 
ATOM     33  O   UNL A   1      42.077  23.399  27.426  1.00  0.00    -0.246 OA
BRANCH  32  34
ATOM     34  C   UNL A   1      43.709  24.941  26.591  1.00  0.00     0.060 A 
ATOM     35  C   UNL A   1      43.964  25.603  25.383  1.00  0.00     0.016 A 
ATOM     36  C   UNL A   1      44.219  25.443  27.791  1.00  0.00     0.016 A 
ATOM     37  C   UNL A   1      44.765  26.746  25.365  1.00  0.00     0.010 A 
ATOM     38  C   UNL A   1      45.042  26.573  27.768  1.00  0.00     0.010 A 
ATOM     39  C   UNL A   1      45.351  27.207  26.551  1.00  0.00    -0.014 A 
BRANCH  39  40
ATOM     40  C   UNL A   1      46.453  28.202  26.494  1.00  0.00     0.031 A 
ATOM     41  C   UNL A   1      46.091  29.661  26.594  1.00  0.00     0.074 A 
ATOM     42  C   UNL A   1      47.740  27.830  26.378  1.00  0.00     0.049 A 
ATOM     43  N   UNL A   1      46.849  30.718  26.479  1.00  0.00    -0.248 NA
ATOM     44  C   UNL A   1      44.673  29.961  26.857  1.00  0.00     0.031 C 
ATOM     45  C   UNL A   1      48.220  26.451  26.336  1.00  0.00     0.029 A 
ATOM     46  N   UNL A   1      48.880  28.587  26.263  1.00  0.00    -0.354 N 
ATOM     47  C   UNL A   1      46.004  31.810  26.644  1.00  0.00     0.074 A 
ATOM     48  C   UNL A   1      44.669  31.285  26.832  1.00  0.00     0.031 C 
ATOM     49  C   UNL A   1      49.558  26.460  26.191  1.00  0.00     0.029 A 
ATOM     50  C   UNL A   1      50.022  27.842  26.079  1.00  0.00     0.049 A 
ATOM     51  H   UNL A   1      48.880  29.570  26.309  1.00  0.00     0.167 HD
ATOM     52  C   UNL A   1      46.313  33.130  26.646  1.00  0.00     0.034 A 
ATOM     53  C   UNL A   1      51.288  28.234  25.814  1.00  0.00     0.034 A 
ATOM     54  C   UNL A   1      47.647  33.637  26.443  1.00  0.00     0.049 A 
ATOM     55  C   UNL A   1      51.590  29.713  25.707  1.00  0.00     0.074 A 
ATOM     56  C   UNL A   1      48.073  34.954  26.425  1.00  0.00     0.029 A 
ATOM     57  N   UNL A   1      48.770  32.854  26.209  1.00  0.00    -0.354 N 
ATOM     58  N   UNL A   1      50.781  30.738  25.858  1.00  0.00    -0.248 NA
ATOM     59  C   UNL A   1      52.977  30.088  25.400  1.00  0.00     0.031 C 
ATOM     60  C   UNL A   1      49.432  34.970  26.098  1.00  0.00     0.029 A 
ATOM     61  C   UNL A   1      49.880  33.660  26.010  1.00  0.00     0.049 A 
ATOM     62  H   UNL A   1      48.776  31.870  26.186  1.00  0.00     0.167 HD
ATOM     63  C   UNL A   1      51.574  31.875  25.706  1.00  0.00     0.074 A 
ATOM     64  C   UNL A   1      52.923  31.410  25.461  1.00  0.00     0.031 C 
ATOM     65  C   UNL A   1      51.222  33.185  25.772  1.00  0.00     0.034 A 
BRANCH  52  66
ATOM     66  C   UNL A   1      45.179  34.111  26.816  1.00  0.00     0.023 A 
ATOM     67  C   UNL A   1      44.847  34.652  28.070  1.00  0.00     0.031 A 
ATOM     68  C   UNL A   1      44.407  34.500  25.706  1.00  0.00     0.131 A 
ATOM     69  C   UNL A   1      43.734  35.497  28.195  1.00  0.00     0.055 A 
ATOM     70  C   UNL A   1      43.352  35.407  25.823  1.00  0.00     0.041 A 
ATOM     71  F   UNL A   1      44.659  33.994  24.488  1.00  0.00    -0.206 F 
ATOM     72  C   UNL A   1      43.002  35.902  27.075  1.00  0.00     0.022 A 
BRANCH  69  73
ATOM     73  S   UNL A   1      43.170  35.950  29.857  1.00  0.00     0.124 S 
ATOM     74  O   UNL A   1      43.391  37.395  29.861  1.00  0.00    -0.237 OA
ATOM     75  O   UNL A   1      41.777  35.518  29.849  1.00  0.00    -0.237 OA
ATOM     76  O   UNL A   1      44.054  35.191  30.739  1.00  0.00    -0.744 OA
ENDBRANCH  69  73
ENDBRANCH  52  66
BRANCH  53  77
ATOM     77  C   UNL A   1      52.365  27.227  25.575  1.00  0.00     0.023 A 
ATOM     78  C   UNL A   1      53.274  26.880  26.589  1.00  0.00     0.031 A 
ATOM     79  C   UNL A   1      52.554  26.658  24.302  1.00  0.00     0.131 A 
ATOM     80  C   UNL A   1      54.361  26.040  26.298  1.00  0.00     0.055 A 
ATOM     81  C   UNL A   1      53.597  25.770  24.036  1.00  0.00     0.041 A 
ATOM     82  F   UNL A   1      51.725  26.963  23.291  1.00  0.00    -0.206 F 
ATOM     83  C   UNL A   1      54.519  25.469  25.033  1.00  0.00     0.022 A 
BRANCH  80  84
ATOM     84  S   UNL A   1      55.635  25.799  27.567  1.00  0.00     0.124 S 
ATOM     85  O   UNL A   1      55.075  26.538  28.692  1.00  0.00    -0.237 OA
ATOM     86  O   UNL A   1      55.660  24.347  27.700  1.00  0.00    -0.237 OA
ATOM     87  O   UNL A   1      56.830  26.389  26.966  1.00  0.00    -0.744 OA
ENDBRANCH  80  84
ENDBRANCH  53  77
BRANCH  65  88
ATOM     88  C   UNL A   1      52.324  34.212  25.650  1.00  0.00     0.023 A 
ATOM     89  C   UNL A   1      53.002  34.721  26.770  1.00  0.00     0.031 A 
ATOM     90  C   UNL A   1      52.708  34.679  24.378  1.00  0.00     0.131 A 
ATOM     91  C   UNL A   1      53.990  35.705  26.602  1.00  0.00     0.055 A 
ATOM     92  C   UNL A   1      53.736  35.606  24.212  1.00  0.00     0.041 A 
ATOM     93  F   UNL A   1      52.093  34.231  23.271  1.00  0.00    -0.206 F 
ATOM     94  C   UNL A   1      54.376  36.134  25.329  1.00  0.00     0.022 A 
BRANCH  91  95
ATOM     95  S   UNL A   1      54.702  36.489  28.074  1.00  0.00     0.124 S 
ATOM     96  O   UNL A   1      55.990  35.812  28.185  1.00  0.00    -0.237 OA
ATOM     97  O   UNL A   1      54.751  37.895  27.687  1.00  0.00    -0.237 OA
ATOM     98  O   UNL A   1      53.741  36.173  29.130  1.00  0.00    -0.744 OA
ENDBRANCH  91  95
ENDBRANCH  65  88
ENDBRANCH  39  40
ENDBRANCH  32  34
ENDBRANCH  31  32
ENDBRANCH  30  31
ENDBRANCH  29  30
ENDBRANCH  28  29
ENDBRANCH  27  28
ENDBRANCH  26  27
ENDBRANCH  25  26
ENDBRANCH   1  25
TORSDOF 29
ENDMDL
MODEL 3
REMARK VINA RESULT:      -7.9      4.371      6.639
REMARK SMILES CCCc1sc(C(=O)NCCC(=O)OCCOCCOCCOCCOC(=O)c2ccc(-c3c4nc(c(-c5cc(S(=O)(=O)[O-])ccc5F)c5ccc([nH]5)c(-c5cc(S(=O)(=O)[O-])ccc5F)c5nc(c(-c6cc(S(=O)(=O)[O-])ccc6F)c6ccc3[nH]6)C=C5)C=C4)cc2)cc1CC
REMARK SMILES IDX 19 1 18 2 17 3 16 4 15 5 14 6 12 7 13 8 11 9 10 10 9 11 7 12
REMARK SMILES IDX 8 13 6 15 4 16 5 17 93 18 92 19 3 20 2 21 1 22 94 23 95 24
REMARK SMILES IDX 20 25 21 26 22 27 23 28 24 29 25 30 26 31 27 32 28 33 29 34
REMARK SMILES IDX 30 35 91 36 31 37 90 38 32 39 33 40 34 41 84 42 35 43 89 44
REMARK SMILES IDX 83 45 85 46 36 47 88 48 82 49 81 50 37 52 69 53 49 54 68 55
REMARK SMILES IDX 50 56 53 57 67 58 86 59 51 60 52 61 66 63 87 64 54 65 38 66
REMARK SMILES IDX 39 67 47 68 40 69 46 70 48 71 45 72 41 73 42 74 43 75 44 76
REMARK SMILES IDX 70 77 71 78 79 79 72 80 78 81 80 82 77 83 73 84 74 85 75 86
REMARK SMILES IDX 76 87 55 88 56 89 64 90 57 91 63 92 65 93 62 94 58 95 59 96
REMARK SMILES IDX 60 97 61 98
REMARK H PARENT 9 14 85 51 53 62
REMARK Flexibility Score: inf
ROOT
ATOM      1  C   UNL A   1      38.444  21.124  25.374  1.00  0.00     0.188 C 
ENDROOT
BRANCH   1   2
ATOM      2  C   UNL A   1      37.832  19.793  24.910  1.00  0.00     0.188 C 
BRANCH   2   3
ATOM      3  O   UNL A   1      36.427  19.598  24.867  1.00  0.00    -0.376 OA
BRANCH   3   4
ATOM      4  C   UNL A   1      35.516  20.669  25.069  1.00  0.00     0.202 C 
BRANCH   4   5
ATOM      5  C   UNL A   1      33.990  20.512  24.941  1.00  0.00     0.261 C 
BRANCH   5   6
ATOM      6  O   UNL A   1      33.170  21.327  25.794  1.00  0.00    -0.463 OA
BRANCH   6   7
ATOM      7  C   UNL A   1      32.106  21.888  25.189  1.00  0.00     0.307 C 
ATOM      8  O   UNL A   1      30.992  21.994  25.695  1.00  0.00    -0.252 OA
BRANCH   7   9
ATOM      9  C   UNL A   1      32.352  22.368  23.787  1.00  0.00     0.144 C 
BRANCH   9  10
ATOM     10  C   UNL A   1      32.017  23.760  23.286  1.00  0.00     0.128 C 
BRANCH  10  11
ATOM     11  N   UNL A   1      32.450  24.177  21.969  1.00  0.00    -0.351 N 
ATOM     12  C   UNL A   1      32.597  25.480  21.506  1.00  0.00     0.261 C 
ATOM     13  O   UNL A   1      32.977  25.642  20.348  1.00  0.00    -0.268 OA
ATOM     14  H   UNL A   1      32.666  23.458  21.331  1.00  0.00     0.163 HD
BRANCH  12  15
ATOM     15  C   UNL A   1      32.274  26.576  22.411  1.00  0.00     0.092 A 
ATOM     16  C   UNL A   1      32.438  28.501  23.962  1.00  0.00     0.009 A 
ATOM     17  S   UNL A   1      33.490  27.265  23.394  1.00  0.00    -0.135 S 
ATOM     18  C   UNL A   1      31.199  28.440  23.345  1.00  0.00    -0.034 A 
ATOM     19  C   UNL A   1      31.065  27.207  22.635  1.00  0.00     0.029 A 
BRANCH  16  20
ATOM     20  C   UNL A   1      32.919  29.466  25.009  1.00  0.00     0.047 C 
BRANCH  20  21
ATOM     21  C   UNL A   1      34.028  28.851  25.874  1.00  0.00     0.002 C 
ATOM     22  C   UNL A   1      33.619  28.652  27.329  1.00  0.00     0.004 C 
ENDBRANCH  20  21
ENDBRANCH  16  20
BRANCH  18  23
ATOM     23  C   UNL A   1      30.106  29.468  23.407  1.00  0.00     0.033 C 
ATOM     24  C   UNL A   1      29.009  29.165  22.386  1.00  0.00     0.009 C 
ENDBRANCH  18  23
ENDBRANCH  12  15
ENDBRANCH  10  11
ENDBRANCH   9  10
ENDBRANCH   7   9
ENDBRANCH   6   7
ENDBRANCH   5   6
ENDBRANCH   4   5
ENDBRANCH   3   4
ENDBRANCH   2   3
ENDBRANCH   1   2
BRANCH   1  25
ATOM     25  O   UNL A   1      39.679  21.000  26.044  1.00  0.00    -0.377 OA
BRANCH  25  26
ATOM     26  C   UNL A   1      40.430  22.198  26.218  1.00  0.00     0.188 C 
BRANCH  26  27
ATOM     27  C   UNL A   1      40.534  22.789  27.643  1.00  0.00     0.188 C 
BRANCH  27  28
ATOM     28  O   UNL A   1      41.866  23.084  28.052  1.00  0.00    -0.376 OA
BRANCH  28  29
ATOM     29  C   UNL A   1      42.918  22.294  27.514  1.00  0.00     0.202 C 
BRANCH  29  30
ATOM     30  C   UNL A   1      44.319  22.927  27.468  1.00  0.00     0.261 C 
BRANCH  30  31
ATOM     31  O   UNL A   1      44.812  23.308  26.174  1.00  0.00    -0.460 OA
BRANCH  31  32
ATOM     32  C   UNL A   1      44.102  24.211  25.466  1.00  0.00     0.338 C 
ATOM     33  O   UNL A   1      43.470  24.000  24.443  1.00  0.00    -0.246 OA
BRANCH  32  34
ATOM     34  C   UNL A   1      44.039  25.461  26.254  1.00  0.00     0.060 A 
ATOM     35  C   UNL A   1      45.232  26.046  26.698  1.00  0.00     0.016 A 
ATOM     36  C   UNL A   1      42.809  26.049  26.558  1.00  0.00     0.016 A 
ATOM     37  C   UNL A   1      45.198  27.199  27.483  1.00  0.00     0.010 A 
ATOM     38  C   UNL A   1      42.775  27.190  27.365  1.00  0.00     0.010 A 
ATOM     39  C   UNL A   1      43.966  27.749  27.863  1.00  0.00    -0.014 A 
BRANCH  39  40
ATOM     40  C   UNL A   1      43.911  28.758  28.953  1.00  0.00     0.031 A 
ATOM     41  C   UNL A   1      43.858  28.258  30.373  1.00  0.00     0.074 A 
ATOM     42  C   UNL A   1      43.926  30.078  28.699  1.00  0.00     0.049 A 
ATOM     43  N   UNL A   1      43.713  28.926  31.487  1.00  0.00    -0.248 NA
ATOM     44  C   UNL A   1      43.984  26.802  30.555  1.00  0.00     0.031 C 
ATOM     45  C   UNL A   1      44.038  30.682  27.374  1.00  0.00     0.029 A 
ATOM     46  N   UNL A   1      43.836  31.151  29.552  1.00  0.00    -0.354 N 
ATOM     47  C   UNL A   1      43.719  27.974  32.501  1.00  0.00     0.074 A 
ATOM     48  C   UNL A   1      43.847  26.680  31.865  1.00  0.00     0.031 C 
ATOM     49  C   UNL A   1      43.996  32.021  27.501  1.00  0.00     0.029 A 
ATOM     50  C   UNL A   1      43.804  32.367  28.909  1.00  0.00     0.049 A 
ATOM     51  H   UNL A   1      43.798  31.059  30.531  1.00  0.00     0.167 HD
ATOM     52  C   UNL A   1      43.632  28.162  33.841  1.00  0.00     0.034 A 
ATOM     53  C   UNL A   1      43.606  33.610  29.400  1.00  0.00     0.034 A 
ATOM     54  C   UNL A   1      43.490  29.457  34.458  1.00  0.00     0.049 A 
ATOM     55  C   UNL A   1      43.397  33.786  30.888  1.00  0.00     0.074 A 
ATOM     56  C   UNL A   1      43.394  29.763  35.805  1.00  0.00     0.029 A 
ATOM     57  N   UNL A   1      43.411  30.662  33.771  1.00  0.00    -0.354 N 
ATOM     58  N   UNL A   1      43.397  32.878  31.839  1.00  0.00    -0.248 NA
ATOM     59  C   UNL A   1      43.167  35.154  31.371  1.00  0.00     0.031 C 
ATOM     60  C   UNL A   1      43.173  31.137  35.926  1.00  0.00     0.029 A 
ATOM     61  C   UNL A   1      43.231  31.707  34.664  1.00  0.00     0.049 A 
ATOM     62  H   UNL A   1      43.473  30.758  32.793  1.00  0.00     0.167 HD
ATOM     63  C   UNL A   1      43.211  33.575  33.032  1.00  0.00     0.074 A 
ATOM     64  C   UNL A   1      43.112  34.976  32.682  1.00  0.00     0.031 C 
ATOM     65  C   UNL A   1      43.138  33.102  34.303  1.00  0.00     0.034 A 
BRANCH  52  66
ATOM     66  C   UNL A   1      43.630  26.934  34.718  1.00  0.00     0.023 A 
ATOM     67  C   UNL A   1      44.816  26.400  35.251  1.00  0.00     0.031 A 
ATOM     68  C   UNL A   1      42.422  26.276  35.013  1.00  0.00     0.131 A 
ATOM     69  C   UNL A   1      44.777  25.210  35.994  1.00  0.00     0.055 A 
ATOM     70  C   UNL A   1      42.380  25.140  35.823  1.00  0.00     0.041 A 
ATOM     71  F   UNL A   1      41.261  26.723  34.509  1.00  0.00    -0.206 F 
ATOM     72  C   UNL A   1      43.563  24.592  36.308  1.00  0.00     0.022 A 
BRANCH  69  73
ATOM     73  S   UNL A   1      46.342  24.404  36.426  1.00  0.00     0.124 S 
ATOM     74  O   UNL A   1      46.698  25.095  37.664  1.00  0.00    -0.237 OA
ATOM     75  O   UNL A   1      45.951  23.006  36.565  1.00  0.00    -0.237 OA
ATOM     76  O   UNL A   1      47.207  24.700  35.286  1.00  0.00    -0.744 OA
ENDBRANCH  69  73
ENDBRANCH  52  66
BRANCH  53  77
ATOM     77  C   UNL A   1      43.537  34.790  28.486  1.00  0.00     0.023 A 
ATOM     78  C   UNL A   1      44.704  35.410  28.010  1.00  0.00     0.031 A 
ATOM     79  C   UNL A   1      42.300  35.368  28.144  1.00  0.00     0.131 A 
ATOM     80  C   UNL A   1      44.613  36.600  27.270  1.00  0.00     0.055 A 
ATOM     81  C   UNL A   1      42.214  36.513  27.350  1.00  0.00     0.041 A 
ATOM     82  F   UNL A   1      41.152  34.828  28.581  1.00  0.00    -0.206 F 
ATOM     83  C   UNL A   1      43.376  37.147  26.923  1.00  0.00     0.022 A 
BRANCH  80  84
ATOM     84  S   UNL A   1      46.143  37.491  26.870  1.00  0.00     0.124 S 
ATOM     85  O   UNL A   1      46.704  36.656  25.814  1.00  0.00    -0.237 OA
ATOM     86  O   UNL A   1      45.635  38.795  26.456  1.00  0.00    -0.237 OA
ATOM     87  O   UNL A   1      46.882  37.483  28.130  1.00  0.00    -0.744 OA
ENDBRANCH  80  84
ENDBRANCH  53  77
BRANCH  65  88
ATOM     88  C   UNL A   1      43.015  34.114  35.419  1.00  0.00     0.023 A 
ATOM     89  C   UNL A   1      41.769  34.549  35.903  1.00  0.00     0.031 A 
ATOM     90  C   UNL A   1      44.175  34.642  36.017  1.00  0.00     0.131 A 
ATOM     91  C   UNL A   1      41.713  35.523  36.913  1.00  0.00     0.055 A 
ATOM     92  C   UNL A   1      44.114  35.557  37.067  1.00  0.00     0.041 A 
ATOM     93  F   UNL A   1      45.393  34.266  35.594  1.00  0.00    -0.206 F 
ATOM     94  C   UNL A   1      42.876  36.013  37.513  1.00  0.00     0.022 A 
BRANCH  91  95
ATOM     95  S   UNL A   1      40.099  36.212  37.374  1.00  0.00     0.124 S 
ATOM     96  O   UNL A   1      39.544  36.576  36.075  1.00  0.00    -0.237 OA
ATOM     97  O   UNL A   1      39.461  35.087  38.049  1.00  0.00    -0.237 OA
ATOM     98  O   UNL A   1      40.443  37.339  38.240  1.00  0.00    -0.744 OA
ENDBRANCH  91  95
ENDBRANCH  65  88
ENDBRANCH  39  40
ENDBRANCH  32  34
ENDBRANCH  31  32
ENDBRANCH  30  31
ENDBRANCH  29  30
ENDBRANCH  28  29
ENDBRANCH  27  28
ENDBRANCH  26  27
ENDBRANCH  25  26
ENDBRANCH   1  25
TORSDOF 29
ENDMDL
