MODEL 1
REMARK VINA RESULT:      -7.7      0.000      0.000
REMARK SMILES O=C(OCCOCCOCCOCCOC(=O)c1ccc(-c2c3nc(c(-c4cc(S(=O)(=O)[O-])ccc4F)c4ccc([nH]4)c(-c4cc(S(=O)(=O)[O-])ccc4F)c4nc(c(-c5cc(S(=O)(=O)[O-])ccc5F)c5ccc2[nH]5)C=C4)C=C3)cc1)C1=Cc2cc(Cl)cc(-c3ccccc3)c2O[C@@H]1C(F)(F)F
REMARK SMILES IDX 10 1 9 2 8 3 7 4 6 5 5 6 4 7 3 8 2 9 1 10 81 11 82 12 97 13
REMARK SMILES IDX 83 14 96 15 84 16 95 17 85 18 88 19 86 20 87 21 98 22 99 23
REMARK SMILES IDX 100 24 101 25 89 26 90 27 94 28 91 29 93 30 92 31 11 32
REMARK SMILES IDX 12 33 13 34 14 35 15 36 16 37 17 38 18 39 19 40 80 41 20 42
REMARK SMILES IDX 79 43 21 44 22 45 23 46 73 47 24 48 78 49 72 50 74 51 25 52
REMARK SMILES IDX 77 53 71 54 70 55 26 57 58 58 38 59 57 60 39 61 42 62 56 63
REMARK SMILES IDX 75 64 40 65 41 66 55 68 76 69 43 70 27 71 28 72 36 73 29 74
REMARK SMILES IDX 35 75 37 76 34 77 30 78 31 79 32 80 33 81 59 82 60 83 68 84
REMARK SMILES IDX 61 85 67 86 69 87 66 88 62 89 63 90 64 91 65 92 44 93 45 94
REMARK SMILES IDX 53 95 46 96 52 97 54 98 51 99 47 100 48 101 49 102 50 103
REMARK H PARENT 74 56 42 67
REMARK Flexibility Score: inf
ROOT
ATOM      1  C   UNL A   1      36.662  29.421  29.923  1.00  0.00     0.188 C 
ENDROOT
BRANCH   1   2
ATOM      2  O   UNL A   1      37.809  28.989  29.193  1.00  0.00    -0.377 OA
BRANCH   2   3
ATOM      3  C   UNL A   1      38.849  29.960  29.078  1.00  0.00     0.188 C 
BRANCH   3   4
ATOM      4  C   UNL A   1      40.143  29.352  28.546  1.00  0.00     0.188 C 
BRANCH   4   5
ATOM      5  O   UNL A   1      39.992  28.769  27.269  1.00  0.00    -0.376 OA
BRANCH   5   6
ATOM      6  C   UNL A   1      41.166  28.444  26.544  1.00  0.00     0.202 C 
BRANCH   6   7
ATOM      7  C   UNL A   1      41.845  27.110  26.894  1.00  0.00     0.261 C 
BRANCH   7   8
ATOM      8  O   UNL A   1      42.484  26.472  25.766  1.00  0.00    -0.460 OA
BRANCH   8   9
ATOM      9  C   UNL A   1      43.798  26.769  25.556  1.00  0.00     0.338 C 
ATOM     10  O   UNL A   1      44.166  27.797  25.011  1.00  0.00    -0.246 OA
BRANCH   9  11
ATOM     11  C   UNL A   1      44.721  25.664  25.965  1.00  0.00     0.087 C 
ATOM     12  C   UNL A   1      45.061  25.594  27.263  1.00  0.00     0.027 C 
ATOM     13  C   UNL A   1      44.561  24.371  25.237  1.00  0.00     0.316 C 
ATOM     14  C   UNL A   1      44.527  24.452  28.010  1.00  0.00     0.019 A 
ATOM     15  O   UNL A   1      43.731  23.435  25.971  1.00  0.00    -0.475 OA
ATOM     16  C   UNL A   1      44.648  24.372  29.398  1.00  0.00     0.032 A 
ATOM     17  C   UNL A   1      43.651  23.590  27.340  1.00  0.00     0.135 A 
ATOM     18  C   UNL A   1      43.848  23.475  30.106  1.00  0.00     0.042 A 
ATOM     19  C   UNL A   1      42.648  22.920  28.076  1.00  0.00     0.026 A 
ATOM     20  Cl  UNL A   1      44.034  23.320  31.809  1.00  0.00    -0.084 Cl
ATOM     21  C   UNL A   1      42.816  22.797  29.463  1.00  0.00     0.033 A 
BRANCH  13  22
ATOM     22  C   UNL A   1      45.916  23.883  24.703  1.00  0.00     0.430 C 
ATOM     23  F   UNL A   1      46.817  24.886  24.607  1.00  0.00    -0.167 F 
ATOM     24  F   UNL A   1      46.457  22.980  25.574  1.00  0.00    -0.167 F 
ATOM     25  F   UNL A   1      45.840  23.268  23.505  1.00  0.00    -0.167 F 
ENDBRANCH  13  22
BRANCH  19  26
ATOM     26  C   UNL A   1      41.289  22.715  27.534  1.00  0.00    -0.015 A 
ATOM     27  C   UNL A   1      40.395  23.817  27.511  1.00  0.00     0.009 A 
ATOM     28  C   UNL A   1      40.846  21.512  26.997  1.00  0.00     0.009 A 
ATOM     29  C   UNL A   1      39.142  23.743  26.895  1.00  0.00     0.001 A 
ATOM     30  C   UNL A   1      39.595  21.450  26.366  1.00  0.00     0.001 A 
ATOM     31  C   UNL A   1      38.755  22.561  26.288  1.00  0.00     0.000 A 
ENDBRANCH  19  26
ENDBRANCH   9  11
ENDBRANCH   8   9
ENDBRANCH   7   8
ENDBRANCH   6   7
ENDBRANCH   5   6
ENDBRANCH   4   5
ENDBRANCH   3   4
ENDBRANCH   2   3
ENDBRANCH   1   2
BRANCH   1  32
ATOM     32  C   UNL A   1      36.577  30.946  30.154  1.00  0.00     0.188 C 
BRANCH  32  33
ATOM     33  O   UNL A   1      35.755  31.530  31.158  1.00  0.00    -0.376 OA
BRANCH  33  34
ATOM     34  C   UNL A   1      35.504  32.916  31.100  1.00  0.00     0.202 C 
BRANCH  34  35
ATOM     35  C   UNL A   1      36.713  33.784  30.714  1.00  0.00     0.261 C 
BRANCH  35  36
ATOM     36  O   UNL A   1      37.469  34.323  31.816  1.00  0.00    -0.460 OA
BRANCH  36  37
ATOM     37  C   UNL A   1      38.440  33.524  32.353  1.00  0.00     0.338 C 
ATOM     38  O   UNL A   1      38.293  32.715  33.224  1.00  0.00    -0.246 OA
BRANCH  37  39
ATOM     39  C   UNL A   1      39.717  33.733  31.582  1.00  0.00     0.060 A 
ATOM     40  C   UNL A   1      40.826  34.286  32.243  1.00  0.00     0.016 A 
ATOM     41  C   UNL A   1      39.850  33.372  30.237  1.00  0.00     0.016 A 
ATOM     42  C   UNL A   1      42.050  34.485  31.569  1.00  0.00     0.010 A 
ATOM     43  C   UNL A   1      41.071  33.572  29.566  1.00  0.00     0.010 A 
ATOM     44  C   UNL A   1      42.187  34.141  30.217  1.00  0.00    -0.014 A 
BRANCH  44  45
ATOM     45  C   UNL A   1      43.374  34.538  29.389  1.00  0.00     0.031 A 
ATOM     46  C   UNL A   1      44.403  33.483  29.096  1.00  0.00     0.074 A 
ATOM     47  C   UNL A   1      43.616  35.793  28.952  1.00  0.00     0.049 A 
ATOM     48  N   UNL A   1      45.581  33.609  28.544  1.00  0.00    -0.248 NA
ATOM     49  C   UNL A   1      44.039  32.103  29.446  1.00  0.00     0.031 C 
ATOM     50  C   UNL A   1      42.675  36.898  28.980  1.00  0.00     0.029 A 
ATOM     51  N   UNL A   1      44.760  36.370  28.436  1.00  0.00    -0.354 N 
ATOM     52  C   UNL A   1      46.084  32.321  28.441  1.00  0.00     0.074 A 
ATOM     53  C   UNL A   1      45.114  31.437  29.052  1.00  0.00     0.031 C 
ATOM     54  C   UNL A   1      43.306  38.045  28.669  1.00  0.00     0.029 A 
ATOM     55  C   UNL A   1      44.703  37.749  28.370  1.00  0.00     0.049 A 
ATOM     56  H   UNL A   1      45.542  35.847  28.144  1.00  0.00     0.167 HD
ATOM     57  C   UNL A   1      47.234  31.907  27.860  1.00  0.00     0.034 A 
ATOM     58  C   UNL A   1      45.659  38.670  28.118  1.00  0.00     0.034 A 
ATOM     59  C   UNL A   1      48.212  32.783  27.271  1.00  0.00     0.049 A 
ATOM     60  C   UNL A   1      47.033  38.200  27.697  1.00  0.00     0.074 A 
ATOM     61  C   UNL A   1      49.380  32.443  26.611  1.00  0.00     0.029 A 
ATOM     62  N   UNL A   1      48.161  34.169  27.300  1.00  0.00    -0.354 N 
ATOM     63  N   UNL A   1      47.462  36.971  27.526  1.00  0.00    -0.248 NA
ATOM     64  C   UNL A   1      48.036  39.230  27.386  1.00  0.00     0.031 C 
ATOM     65  C   UNL A   1      50.082  33.620  26.329  1.00  0.00     0.029 A 
ATOM     66  C   UNL A   1      49.312  34.697  26.735  1.00  0.00     0.049 A 
ATOM     67  H   UNL A   1      47.418  34.699  27.668  1.00  0.00     0.167 HD
ATOM     68  C   UNL A   1      48.752  37.088  27.015  1.00  0.00     0.074 A 
ATOM     69  C   UNL A   1      49.041  38.502  26.922  1.00  0.00     0.031 C 
ATOM     70  C   UNL A   1      49.607  36.106  26.634  1.00  0.00     0.034 A 
BRANCH  57  71
ATOM     71  C   UNL A   1      47.510  30.429  27.871  1.00  0.00     0.023 A 
ATOM     72  C   UNL A   1      48.216  29.823  28.924  1.00  0.00     0.031 A 
ATOM     73  C   UNL A   1      47.075  29.624  26.807  1.00  0.00     0.131 A 
ATOM     74  C   UNL A   1      48.515  28.456  28.861  1.00  0.00     0.055 A 
ATOM     75  C   UNL A   1      47.313  28.250  26.786  1.00  0.00     0.041 A 
ATOM     76  F   UNL A   1      46.420  30.162  25.766  1.00  0.00    -0.206 F 
ATOM     77  C   UNL A   1      48.047  27.661  27.811  1.00  0.00     0.022 A 
BRANCH  74  78
ATOM     78  S   UNL A   1      49.625  27.755  30.110  1.00  0.00     0.124 S 
ATOM     79  O   UNL A   1      48.724  26.866  30.839  1.00  0.00    -0.237 OA
ATOM     80  O   UNL A   1      50.645  27.104  29.297  1.00  0.00    -0.237 OA
ATOM     81  O   UNL A   1      50.079  28.925  30.861  1.00  0.00    -0.744 OA
ENDBRANCH  74  78
ENDBRANCH  57  71
BRANCH  58  82
ATOM     82  C   UNL A   1      45.406  40.134  28.305  1.00  0.00     0.023 A 
ATOM     83  C   UNL A   1      45.445  40.735  29.574  1.00  0.00     0.031 A 
ATOM     84  C   UNL A   1      44.965  40.920  27.224  1.00  0.00     0.131 A 
ATOM     85  C   UNL A   1      44.973  42.048  29.745  1.00  0.00     0.055 A 
ATOM     86  C   UNL A   1      44.546  42.242  27.390  1.00  0.00     0.041 A 
ATOM     87  F   UNL A   1      44.903  40.401  25.986  1.00  0.00    -0.206 F 
ATOM     88  C   UNL A   1      44.528  42.807  28.661  1.00  0.00     0.022 A 
BRANCH  85  89
ATOM     89  S   UNL A   1      44.815  42.706  31.431  1.00  0.00     0.124 S 
ATOM     90  O   UNL A   1      46.075  42.284  32.032  1.00  0.00    -0.237 OA
ATOM     91  O   UNL A   1      44.668  44.135  31.181  1.00  0.00    -0.237 OA
ATOM     92  O   UNL A   1      43.621  42.038  31.946  1.00  0.00    -0.744 OA
ENDBRANCH  85  89
ENDBRANCH  58  82
BRANCH  70  93
ATOM     93  C   UNL A   1      50.919  36.520  26.012  1.00  0.00     0.023 A 
ATOM     94  C   UNL A   1      52.065  36.762  26.788  1.00  0.00     0.031 A 
ATOM     95  C   UNL A   1      51.025  36.655  24.616  1.00  0.00     0.131 A 
ATOM     96  C   UNL A   1      53.257  37.165  26.166  1.00  0.00     0.055 A 
ATOM     97  C   UNL A   1      52.229  36.994  23.998  1.00  0.00     0.041 A 
ATOM     98  F   UNL A   1      49.960  36.442  23.825  1.00  0.00    -0.206 F 
ATOM     99  C   UNL A   1      53.352  37.260  24.775  1.00  0.00     0.022 A 
BRANCH  96 100
ATOM    100  S   UNL A   1      54.669  37.626  27.205  1.00  0.00     0.124 S 
ATOM    101  O   UNL A   1      55.662  36.625  26.828  1.00  0.00    -0.237 OA
ATOM    102  O   UNL A   1      54.946  38.992  26.771  1.00  0.00    -0.237 OA
ATOM    103  O   UNL A   1      54.150  37.503  28.565  1.00  0.00    -0.744 OA
ENDBRANCH  96 100
ENDBRANCH  70  93
ENDBRANCH  44  45
ENDBRANCH  37  39
ENDBRANCH  36  37
ENDBRANCH  35  36
ENDBRANCH  34  35
ENDBRANCH  33  34
ENDBRANCH  32  33
ENDBRANCH   1  32
TORSDOF 25
ENDMDL
MODEL 2
REMARK VINA RESULT:      -7.6      6.893     15.167
REMARK SMILES O=C(OCCOCCOCCOCCOC(=O)c1ccc(-c2c3nc(c(-c4cc(S(=O)(=O)[O-])ccc4F)c4ccc([nH]4)c(-c4cc(S(=O)(=O)[O-])ccc4F)c4nc(c(-c5cc(S(=O)(=O)[O-])ccc5F)c5ccc2[nH]5)C=C4)C=C3)cc1)C1=Cc2cc(Cl)cc(-c3ccccc3)c2O[C@@H]1C(F)(F)F
REMARK SMILES IDX 10 1 9 2 8 3 7 4 6 5 5 6 4 7 3 8 2 9 1 10 81 11 82 12 97 13
REMARK SMILES IDX 83 14 96 15 84 16 95 17 85 18 88 19 86 20 87 21 98 22 99 23
REMARK SMILES IDX 100 24 101 25 89 26 90 27 94 28 91 29 93 30 92 31 11 32
REMARK SMILES IDX 12 33 13 34 14 35 15 36 16 37 17 38 18 39 19 40 80 41 20 42
REMARK SMILES IDX 79 43 21 44 22 45 23 46 73 47 24 48 78 49 72 50 74 51 25 52
REMARK SMILES IDX 77 53 71 54 70 55 26 57 58 58 38 59 57 60 39 61 42 62 56 63
REMARK SMILES IDX 75 64 40 65 41 66 55 68 76 69 43 70 27 71 28 72 36 73 29 74
REMARK SMILES IDX 35 75 37 76 34 77 30 78 31 79 32 80 33 81 59 82 60 83 68 84
REMARK SMILES IDX 61 85 67 86 69 87 66 88 62 89 63 90 64 91 65 92 44 93 45 94
REMARK SMILES IDX 53 95 46 96 52 97 54 98 51 99 47 100 48 101 49 102 50 103
REMARK H PARENT 74 56 42 67
REMARK Flexibility Score: inf
ROOT
ATOM      1  C   UNL A   1      46.550  41.411  29.023  1.00  0.00     0.188 C 
ENDROOT
BRANCH   1   2
ATOM      2  O   UNL A   1      46.125  41.182  27.680  1.00  0.00    -0.377 OA
BRANCH   2   3
ATOM      3  C   UNL A   1      47.026  40.410  26.888  1.00  0.00     0.188 C 
BRANCH   3   4
ATOM      4  C   UNL A   1      46.769  40.583  25.395  1.00  0.00     0.188 C 
BRANCH   4   5
ATOM      5  O   UNL A   1      47.132  41.861  24.918  1.00  0.00    -0.376 OA
BRANCH   5   6
ATOM      6  C   UNL A   1      46.103  42.818  24.731  1.00  0.00     0.202 C 
BRANCH   6   7
ATOM      7  C   UNL A   1      46.515  44.296  24.807  1.00  0.00     0.261 C 
BRANCH   7   8
ATOM      8  O   UNL A   1      46.190  45.050  23.617  1.00  0.00    -0.460 OA
BRANCH   8   9
ATOM      9  C   UNL A   1      44.956  44.841  23.076  1.00  0.00     0.338 C 
ATOM     10  O   UNL A   1      43.937  45.323  23.543  1.00  0.00    -0.246 OA
BRANCH   9  11
ATOM     11  C   UNL A   1      44.975  43.884  21.925  1.00  0.00     0.087 C 
ATOM     12  C   UNL A   1      43.789  43.493  21.430  1.00  0.00     0.027 C 
ATOM     13  C   UNL A   1      46.095  44.050  20.952  1.00  0.00     0.316 C 
ATOM     14  C   UNL A   1      43.459  43.978  20.087  1.00  0.00     0.019 A 
ATOM     15  O   UNL A   1      45.698  44.834  19.799  1.00  0.00    -0.475 OA
ATOM     16  C   UNL A   1      42.186  43.803  19.543  1.00  0.00     0.032 A 
ATOM     17  C   UNL A   1      44.357  44.864  19.478  1.00  0.00     0.135 A 
ATOM     18  C   UNL A   1      41.802  44.559  18.437  1.00  0.00     0.042 A 
ATOM     19  C   UNL A   1      43.861  45.827  18.569  1.00  0.00     0.026 A 
ATOM     20  Cl  UNL A   1      40.260  44.305  17.719  1.00  0.00    -0.084 Cl
ATOM     21  C   UNL A   1      42.605  45.603  17.987  1.00  0.00     0.033 A 
BRANCH  13  22
ATOM     22  C   UNL A   1      46.804  42.707  20.714  1.00  0.00     0.430 C 
ATOM     23  F   UNL A   1      46.128  41.671  21.260  1.00  0.00    -0.167 F 
ATOM     24  F   UNL A   1      46.863  42.448  19.374  1.00  0.00    -0.167 F 
ATOM     25  F   UNL A   1      48.072  42.672  21.172  1.00  0.00    -0.167 F 
ENDBRANCH  13  22
BRANCH  19  26
ATOM     26  C   UNL A   1      44.400  47.201  18.520  1.00  0.00    -0.015 A 
ATOM     27  C   UNL A   1      44.561  47.821  17.255  1.00  0.00     0.009 A 
ATOM     28  C   UNL A   1      44.714  47.948  19.651  1.00  0.00     0.009 A 
ATOM     29  C   UNL A   1      44.937  49.162  17.128  1.00  0.00     0.001 A 
ATOM     30  C   UNL A   1      45.074  49.297  19.516  1.00  0.00     0.001 A 
ATOM     31  C   UNL A   1      45.161  49.913  18.268  1.00  0.00     0.000 A 
ENDBRANCH  19  26
ENDBRANCH   9  11
ENDBRANCH   8   9
ENDBRANCH   7   8
ENDBRANCH   6   7
ENDBRANCH   5   6
ENDBRANCH   4   5
ENDBRANCH   3   4
ENDBRANCH   2   3
ENDBRANCH   1   2
BRANCH   1  32
ATOM     32  C   UNL A   1      46.637  42.899  29.430  1.00  0.00     0.188 C 
BRANCH  32  33
ATOM     33  O   UNL A   1      46.329  43.963  28.536  1.00  0.00    -0.376 OA
BRANCH  33  34
ATOM     34  C   UNL A   1      45.171  44.729  28.775  1.00  0.00     0.202 C 
BRANCH  34  35
ATOM     35  C   UNL A   1      44.327  44.279  29.979  1.00  0.00     0.261 C 
BRANCH  35  36
ATOM     36  O   UNL A   1      44.746  44.791  31.259  1.00  0.00    -0.460 OA
BRANCH  36  37
ATOM     37  C   UNL A   1      43.882  44.626  32.306  1.00  0.00     0.338 C 
ATOM     38  O   UNL A   1      43.193  45.473  32.800  1.00  0.00    -0.246 OA
BRANCH  37  39
ATOM     39  C   UNL A   1      43.838  43.164  32.669  1.00  0.00     0.060 A 
ATOM     40  C   UNL A   1      45.039  42.503  32.969  1.00  0.00     0.016 A 
ATOM     41  C   UNL A   1      42.640  42.446  32.744  1.00  0.00     0.016 A 
ATOM     42  C   UNL A   1      45.047  41.138  33.331  1.00  0.00     0.010 A 
ATOM     43  C   UNL A   1      42.649  41.085  33.104  1.00  0.00     0.010 A 
ATOM     44  C   UNL A   1      43.853  40.407  33.394  1.00  0.00    -0.014 A 
BRANCH  44  45
ATOM     45  C   UNL A   1      43.816  38.914  33.542  1.00  0.00     0.031 A 
ATOM     46  C   UNL A   1      43.791  38.090  32.285  1.00  0.00     0.074 A 
ATOM     47  C   UNL A   1      43.731  38.265  34.723  1.00  0.00     0.049 A 
ATOM     48  N   UNL A   1      43.602  36.805  32.144  1.00  0.00    -0.248 NA
ATOM     49  C   UNL A   1      44.041  38.810  31.028  1.00  0.00     0.031 C 
ATOM     50  C   UNL A   1      43.915  38.860  36.034  1.00  0.00     0.029 A 
ATOM     51  N   UNL A   1      43.416  36.952  35.016  1.00  0.00    -0.354 N 
ATOM     52  C   UNL A   1      43.752  36.552  30.789  1.00  0.00     0.074 A 
ATOM     53  C   UNL A   1      43.977  37.828  30.143  1.00  0.00     0.031 C 
ATOM     54  C   UNL A   1      43.554  37.984  36.989  1.00  0.00     0.029 A 
ATOM     55  C   UNL A   1      43.151  36.733  36.354  1.00  0.00     0.049 A 
ATOM     56  H   UNL A   1      43.382  36.241  34.336  1.00  0.00     0.167 HD
ATOM     57  C   UNL A   1      43.737  35.362  30.144  1.00  0.00     0.034 A 
ATOM     58  C   UNL A   1      42.629  35.664  36.997  1.00  0.00     0.034 A 
ATOM     59  C   UNL A   1      43.492  34.094  30.778  1.00  0.00     0.049 A 
ATOM     60  C   UNL A   1      42.383  34.392  36.218  1.00  0.00     0.074 A 
ATOM     61  C   UNL A   1      43.515  32.833  30.208  1.00  0.00     0.029 A 
ATOM     62  N   UNL A   1      43.144  33.922  32.110  1.00  0.00    -0.354 N 
ATOM     63  N   UNL A   1      42.612  34.152  34.948  1.00  0.00    -0.248 NA
ATOM     64  C   UNL A   1      41.858  33.235  36.958  1.00  0.00     0.031 C 
ATOM     65  C   UNL A   1      43.086  31.911  31.169  1.00  0.00     0.029 A 
ATOM     66  C   UNL A   1      42.878  32.585  32.361  1.00  0.00     0.049 A 
ATOM     67  H   UNL A   1      43.093  34.644  32.777  1.00  0.00     0.167 HD
ATOM     68  C   UNL A   1      42.334  32.801  34.762  1.00  0.00     0.074 A 
ATOM     69  C   UNL A   1      41.903  32.280  36.041  1.00  0.00     0.031 C 
ATOM     70  C   UNL A   1      42.453  32.056  33.634  1.00  0.00     0.034 A 
BRANCH  57  71
ATOM     71  C   UNL A   1      43.960  35.390  28.657  1.00  0.00     0.023 A 
ATOM     72  C   UNL A   1      45.253  35.381  28.109  1.00  0.00     0.031 A 
ATOM     73  C   UNL A   1      42.863  35.442  27.782  1.00  0.00     0.131 A 
ATOM     74  C   UNL A   1      45.419  35.480  26.722  1.00  0.00     0.055 A 
ATOM     75  C   UNL A   1      43.033  35.468  26.399  1.00  0.00     0.041 A 
ATOM     76  F   UNL A   1      41.609  35.479  28.260  1.00  0.00    -0.206 F 
ATOM     77  C   UNL A   1      44.317  35.499  25.861  1.00  0.00     0.022 A 
BRANCH  74  78
ATOM     78  S   UNL A   1      47.092  35.705  26.064  1.00  0.00     0.124 S 
ATOM     79  O   UNL A   1      47.900  35.623  27.279  1.00  0.00    -0.237 OA
ATOM     80  O   UNL A   1      47.220  34.588  25.136  1.00  0.00    -0.237 OA
ATOM     81  O   UNL A   1      47.041  37.028  25.445  1.00  0.00    -0.744 OA
ENDBRANCH  74  78
ENDBRANCH  57  71
BRANCH  58  82
ATOM     82  C   UNL A   1      42.237  35.732  38.441  1.00  0.00     0.023 A 
ATOM     83  C   UNL A   1      41.008  36.277  38.848  1.00  0.00     0.031 A 
ATOM     84  C   UNL A   1      43.165  35.393  39.443  1.00  0.00     0.131 A 
ATOM     85  C   UNL A   1      40.773  36.543  40.208  1.00  0.00     0.055 A 
ATOM     86  C   UNL A   1      42.906  35.611  40.799  1.00  0.00     0.041 A 
ATOM     87  F   UNL A   1      44.359  34.870  39.117  1.00  0.00    -0.206 F 
ATOM     88  C   UNL A   1      41.712  36.210  41.187  1.00  0.00     0.022 A 
BRANCH  85  89
ATOM     89  S   UNL A   1      39.277  37.464  40.671  1.00  0.00     0.124 S 
ATOM     90  O   UNL A   1      38.770  37.877  39.368  1.00  0.00    -0.237 OA
ATOM     91  O   UNL A   1      38.504  36.444  41.370  1.00  0.00    -0.237 OA
ATOM     92  O   UNL A   1      39.790  38.543  41.514  1.00  0.00    -0.744 OA
ENDBRANCH  85  89
ENDBRANCH  58  82
BRANCH  70  93
ATOM     93  C   UNL A   1      42.178  30.576  33.739  1.00  0.00     0.023 A 
ATOM     94  C   UNL A   1      43.152  29.669  34.188  1.00  0.00     0.031 A 
ATOM     95  C   UNL A   1      40.910  30.069  33.400  1.00  0.00     0.131 A 
ATOM     96  C   UNL A   1      42.856  28.298  34.249  1.00  0.00     0.055 A 
ATOM     97  C   UNL A   1      40.601  28.714  33.522  1.00  0.00     0.041 A 
ATOM     98  F   UNL A   1      39.941  30.888  32.958  1.00  0.00    -0.206 F 
ATOM     99  C   UNL A   1      41.580  27.818  33.941  1.00  0.00     0.022 A 
BRANCH  96 100
ATOM    100  S   UNL A   1      44.182  27.138  34.677  1.00  0.00     0.124 S 
ATOM    101  O   UNL A   1      44.415  27.450  36.082  1.00  0.00    -0.237 OA
ATOM    102  O   UNL A   1      43.566  25.843  34.406  1.00  0.00    -0.237 OA
ATOM    103  O   UNL A   1      45.267  27.507  33.770  1.00  0.00    -0.744 OA
ENDBRANCH  96 100
ENDBRANCH  70  93
ENDBRANCH  44  45
ENDBRANCH  37  39
ENDBRANCH  36  37
ENDBRANCH  35  36
ENDBRANCH  34  35
ENDBRANCH  33  34
ENDBRANCH  32  33
ENDBRANCH   1  32
TORSDOF 25
ENDMDL
MODEL 3
REMARK VINA RESULT:      -7.5      5.378     11.627
REMARK SMILES O=C(OCCOCCOCCOCCOC(=O)c1ccc(-c2c3nc(c(-c4cc(S(=O)(=O)[O-])ccc4F)c4ccc([nH]4)c(-c4cc(S(=O)(=O)[O-])ccc4F)c4nc(c(-c5cc(S(=O)(=O)[O-])ccc5F)c5ccc2[nH]5)C=C4)C=C3)cc1)C1=Cc2cc(Cl)cc(-c3ccccc3)c2O[C@@H]1C(F)(F)F
REMARK SMILES IDX 10 1 9 2 8 3 7 4 6 5 5 6 4 7 3 8 2 9 1 10 81 11 82 12 97 13
REMARK SMILES IDX 83 14 96 15 84 16 95 17 85 18 88 19 86 20 87 21 98 22 99 23
REMARK SMILES IDX 100 24 101 25 89 26 90 27 94 28 91 29 93 30 92 31 11 32
REMARK SMILES IDX 12 33 13 34 14 35 15 36 16 37 17 38 18 39 19 40 80 41 20 42
REMARK SMILES IDX 79 43 21 44 22 45 23 46 73 47 24 48 78 49 72 50 74 51 25 52
REMARK SMILES IDX 77 53 71 54 70 55 26 57 58 58 38 59 57 60 39 61 42 62 56 63
REMARK SMILES IDX 75 64 40 65 41 66 55 68 76 69 43 70 27 71 28 72 36 73 29 74
REMARK SMILES IDX 35 75 37 76 34 77 30 78 31 79 32 80 33 81 59 82 60 83 68 84
REMARK SMILES IDX 61 85 67 86 69 87 66 88 62 89 63 90 64 91 65 92 44 93 45 94
REMARK SMILES IDX 53 95 46 96 52 97 54 98 51 99 47 100 48 101 49 102 50 103
REMARK H PARENT 74 56 42 67
REMARK Flexibility Score: inf
ROOT
ATOM      1  C   UNL A   1      47.875  33.286  33.913  1.00  0.00     0.188 C 
ENDROOT
BRANCH   1   2
ATOM      2  O   UNL A   1      46.496  33.581  33.687  1.00  0.00    -0.377 OA
BRANCH   2   3
ATOM      3  C   UNL A   1      45.588  32.913  34.562  1.00  0.00     0.188 C 
BRANCH   3   4
ATOM      4  C   UNL A   1      44.760  31.860  33.833  1.00  0.00     0.188 C 
BRANCH   4   5
ATOM      5  O   UNL A   1      44.825  30.589  34.444  1.00  0.00    -0.376 OA
BRANCH   5   6
ATOM      6  C   UNL A   1      44.627  29.448  33.627  1.00  0.00     0.202 C 
BRANCH   6   7
ATOM      7  C   UNL A   1      43.928  28.246  34.281  1.00  0.00     0.261 C 
BRANCH   7   8
ATOM      8  O   UNL A   1      44.799  27.112  34.488  1.00  0.00    -0.460 OA
BRANCH   8   9
ATOM      9  C   UNL A   1      44.614  26.037  33.669  1.00  0.00     0.338 C 
ATOM     10  O   UNL A   1      45.098  25.965  32.550  1.00  0.00    -0.246 OA
BRANCH   9  11
ATOM     11  C   UNL A   1      43.679  25.018  34.242  1.00  0.00     0.087 C 
ATOM     12  C   UNL A   1      43.872  23.737  33.885  1.00  0.00     0.027 C 
ATOM     13  C   UNL A   1      43.207  25.270  35.635  1.00  0.00     0.316 C 
ATOM     14  C   UNL A   1      44.348  22.838  34.940  1.00  0.00     0.019 A 
ATOM     15  O   UNL A   1      43.992  24.542  36.613  1.00  0.00    -0.475 OA
ATOM     16  C   UNL A   1      44.767  21.538  34.652  1.00  0.00     0.032 A 
ATOM     17  C   UNL A   1      44.641  23.400  36.189  1.00  0.00     0.135 A 
ATOM     18  C   UNL A   1      45.526  20.839  35.590  1.00  0.00     0.042 A 
ATOM     19  C   UNL A   1      45.647  22.813  36.988  1.00  0.00     0.026 A 
ATOM     20  Cl  UNL A   1      45.992  19.213  35.274  1.00  0.00    -0.084 Cl
ATOM     21  C   UNL A   1      46.013  21.485  36.722  1.00  0.00     0.033 A 
BRANCH  13  22
ATOM     22  C   UNL A   1      41.675  25.174  35.709  1.00  0.00     0.430 C 
ATOM     23  F   UNL A   1      41.202  25.521  36.927  1.00  0.00    -0.167 F 
ATOM     24  F   UNL A   1      41.114  26.055  34.828  1.00  0.00    -0.167 F 
ATOM     25  F   UNL A   1      41.191  23.954  35.399  1.00  0.00    -0.167 F 
ENDBRANCH  13  22
BRANCH  19  26
ATOM     26  C   UNL A   1      46.583  23.630  37.787  1.00  0.00    -0.015 A 
ATOM     27  C   UNL A   1      47.019  24.872  37.259  1.00  0.00     0.009 A 
ATOM     28  C   UNL A   1      47.027  23.276  39.057  1.00  0.00     0.009 A 
ATOM     29  C   UNL A   1      47.796  25.764  38.004  1.00  0.00     0.001 A 
ATOM     30  C   UNL A   1      47.792  24.183  39.805  1.00  0.00     0.001 A 
ATOM     31  C   UNL A   1      48.155  25.431  39.298  1.00  0.00     0.000 A 
ENDBRANCH  19  26
ENDBRANCH   9  11
ENDBRANCH   8   9
ENDBRANCH   7   8
ENDBRANCH   6   7
ENDBRANCH   5   6
ENDBRANCH   4   5
ENDBRANCH   3   4
ENDBRANCH   2   3
ENDBRANCH   1   2
BRANCH   1  32
ATOM     32  C   UNL A   1      48.832  34.486  33.733  1.00  0.00     0.188 C 
BRANCH  32  33
ATOM     33  O   UNL A   1      48.515  35.611  32.922  1.00  0.00    -0.376 OA
BRANCH  33  34
ATOM     34  C   UNL A   1      49.546  36.213  32.174  1.00  0.00     0.202 C 
BRANCH  34  35
ATOM     35  C   UNL A   1      49.174  36.584  30.729  1.00  0.00     0.261 C 
BRANCH  35  36
ATOM     36  O   UNL A   1      47.765  36.584  30.430  1.00  0.00    -0.460 OA
BRANCH  36  37
ATOM     37  C   UNL A   1      47.402  36.262  29.151  1.00  0.00     0.338 C 
ATOM     38  O   UNL A   1      47.728  36.838  28.152  1.00  0.00    -0.246 OA
BRANCH  37  39
ATOM     39  C   UNL A   1      46.617  34.976  29.183  1.00  0.00     0.060 A 
ATOM     40  C   UNL A   1      46.835  34.074  30.237  1.00  0.00     0.016 A 
ATOM     41  C   UNL A   1      45.658  34.657  28.216  1.00  0.00     0.016 A 
ATOM     42  C   UNL A   1      46.111  32.864  30.321  1.00  0.00     0.010 A 
ATOM     43  C   UNL A   1      44.939  33.451  28.300  1.00  0.00     0.010 A 
ATOM     44  C   UNL A   1      45.161  32.530  29.347  1.00  0.00    -0.014 A 
BRANCH  44  45
ATOM     45  C   UNL A   1      44.534  31.170  29.250  1.00  0.00     0.031 A 
ATOM     46  C   UNL A   1      45.181  30.169  28.336  1.00  0.00     0.074 A 
ATOM     47  C   UNL A   1      43.389  30.810  29.870  1.00  0.00     0.049 A 
ATOM     48  N   UNL A   1      44.751  28.993  27.961  1.00  0.00    -0.248 NA
ATOM     49  C   UNL A   1      46.501  30.532  27.801  1.00  0.00     0.031 C 
ATOM     50  C   UNL A   1      42.717  31.561  30.914  1.00  0.00     0.029 A 
ATOM     51  N   UNL A   1      42.553  29.728  29.674  1.00  0.00    -0.354 N 
ATOM     52  C   UNL A   1      45.763  28.456  27.180  1.00  0.00     0.074 A 
ATOM     53  C   UNL A   1      46.798  29.464  27.078  1.00  0.00     0.031 C 
ATOM     54  C   UNL A   1      41.506  31.027  31.155  1.00  0.00     0.029 A 
ATOM     55  C   UNL A   1      41.330  29.854  30.305  1.00  0.00     0.049 A 
ATOM     56  H   UNL A   1      42.804  28.943  29.136  1.00  0.00     0.167 HD
ATOM     57  C   UNL A   1      45.840  27.224  26.626  1.00  0.00     0.034 A 
ATOM     58  C   UNL A   1      40.195  29.127  30.203  1.00  0.00     0.034 A 
ATOM     59  C   UNL A   1      44.805  26.228  26.707  1.00  0.00     0.049 A 
ATOM     60  C   UNL A   1      40.210  27.860  29.378  1.00  0.00     0.074 A 
ATOM     61  C   UNL A   1      44.824  24.932  26.221  1.00  0.00     0.029 A 
ATOM     62  N   UNL A   1      43.555  26.420  27.276  1.00  0.00    -0.354 N 
ATOM     63  N   UNL A   1      41.209  27.328  28.713  1.00  0.00    -0.248 NA
ATOM     64  C   UNL A   1      38.971  27.070  29.326  1.00  0.00     0.031 C 
ATOM     65  C   UNL A   1      43.555  24.375  26.408  1.00  0.00     0.029 A 
ATOM     66  C   UNL A   1      42.770  25.293  27.088  1.00  0.00     0.049 A 
ATOM     67  H   UNL A   1      43.268  27.238  27.743  1.00  0.00     0.167 HD
ATOM     68  C   UNL A   1      40.738  26.108  28.234  1.00  0.00     0.074 A 
ATOM     69  C   UNL A   1      39.364  25.988  28.668  1.00  0.00     0.031 C 
ATOM     70  C   UNL A   1      41.400  25.163  27.521  1.00  0.00     0.034 A 
BRANCH  57  71
ATOM     71  C   UNL A   1      47.085  26.904  25.846  1.00  0.00     0.023 A 
ATOM     72  C   UNL A   1      48.202  26.311  26.460  1.00  0.00     0.031 A 
ATOM     73  C   UNL A   1      47.158  27.211  24.478  1.00  0.00     0.131 A 
ATOM     74  C   UNL A   1      49.368  26.095  25.715  1.00  0.00     0.055 A 
ATOM     75  C   UNL A   1      48.296  26.927  23.725  1.00  0.00     0.041 A 
ATOM     76  F   UNL A   1      46.126  27.802  23.856  1.00  0.00    -0.206 F 
ATOM     77  C   UNL A   1      49.415  26.376  24.346  1.00  0.00     0.022 A 
BRANCH  74  78
ATOM     78  S   UNL A   1      50.862  25.553  26.584  1.00  0.00     0.124 S 
ATOM     79  O   UNL A   1      51.750  25.229  25.470  1.00  0.00    -0.237 OA
ATOM     80  O   UNL A   1      51.220  26.731  27.364  1.00  0.00    -0.237 OA
ATOM     81  O   UNL A   1      50.406  24.403  27.364  1.00  0.00    -0.744 OA
ENDBRANCH  74  78
ENDBRANCH  57  71
BRANCH  58  82
ATOM     82  C   UNL A   1      38.915  29.578  30.836  1.00  0.00     0.023 A 
ATOM     83  C   UNL A   1      38.102  30.557  30.242  1.00  0.00     0.031 A 
ATOM     84  C   UNL A   1      38.573  29.142  32.131  1.00  0.00     0.131 A 
ATOM     85  C   UNL A   1      37.042  31.127  30.970  1.00  0.00     0.055 A 
ATOM     86  C   UNL A   1      37.486  29.674  32.829  1.00  0.00     0.041 A 
ATOM     87  F   UNL A   1      39.314  28.210  32.753  1.00  0.00    -0.206 F 
ATOM     88  C   UNL A   1      36.726  30.689  32.257  1.00  0.00     0.022 A 
BRANCH  85  89
ATOM     89  S   UNL A   1      36.165  32.552  30.262  1.00  0.00     0.124 S 
ATOM     90  O   UNL A   1      36.022  33.418  31.427  1.00  0.00    -0.237 OA
ATOM     91  O   UNL A   1      37.102  33.000  29.238  1.00  0.00    -0.237 OA
ATOM     92  O   UNL A   1      34.923  31.970  29.758  1.00  0.00    -0.744 OA
ENDBRANCH  85  89
ENDBRANCH  58  82
BRANCH  70  93
ATOM     93  C   UNL A   1      40.672  23.876  27.217  1.00  0.00     0.023 A 
ATOM     94  C   UNL A   1      39.511  23.848  26.427  1.00  0.00     0.031 A 
ATOM     95  C   UNL A   1      41.164  22.654  27.712  1.00  0.00     0.131 A 
ATOM     96  C   UNL A   1      38.857  22.628  26.189  1.00  0.00     0.055 A 
ATOM     97  C   UNL A   1      40.547  21.438  27.420  1.00  0.00     0.041 A 
ATOM     98  F   UNL A   1      42.268  22.621  28.478  1.00  0.00    -0.206 F 
ATOM     99  C   UNL A   1      39.380  21.422  26.661  1.00  0.00     0.022 A 
BRANCH  96 100
ATOM    100  S   UNL A   1      37.274  22.646  25.305  1.00  0.00     0.124 S 
ATOM    101  O   UNL A   1      36.507  21.645  26.038  1.00  0.00    -0.237 OA
ATOM    102  O   UNL A   1      36.838  24.029  25.469  1.00  0.00    -0.237 OA
ATOM    103  O   UNL A   1      37.639  22.271  23.941  1.00  0.00    -0.744 OA
ENDBRANCH  96 100
ENDBRANCH  70  93
ENDBRANCH  44  45
ENDBRANCH  37  39
ENDBRANCH  36  37
ENDBRANCH  35  36
ENDBRANCH  34  35
ENDBRANCH  33  34
ENDBRANCH  32  33
ENDBRANCH   1  32
TORSDOF 25
ENDMDL
