MODEL 1
REMARK VINA RESULT:     -10.0      0.000      0.000
REMARK SMILES CCc1ccc(S(=O)(=O)N2CCC3(CC2)NC(=O)C[C@H]3C(=O)OCCOCCOCCOCCOC(=O)c2ccc(-c3c4nc(c(-c5cc(S(=O)(=O)[O-])ccc5F)c5ccc([nH]5)c(-c5cc(S(=O)(=O)[O-])ccc5F)c5nc(c(-c6cc(S(=O)(=O)[O-])ccc6F)c6ccc3[nH]6)C=C5)C=C4)cc2)s1
REMARK SMILES IDX 29 1 28 2 27 3 26 4 25 5 24 6 23 7 21 8 22 9 20 10 10 11
REMARK SMILES IDX 11 12 15 13 12 14 14 15 13 16 16 17 17 18 19 20 18 21 7 22
REMARK SMILES IDX 8 23 9 24 6 25 3 26 4 27 101 28 5 29 2 30 1 31 30 32 31 33
REMARK SMILES IDX 32 34 33 35 34 36 35 37 36 38 37 39 38 40 39 41 100 42 40 43
REMARK SMILES IDX 99 44 41 45 42 46 43 47 93 48 44 49 98 50 92 51 94 52 45 53
REMARK SMILES IDX 97 54 91 55 90 56 46 58 78 59 58 60 77 61 59 62 62 63 76 64
REMARK SMILES IDX 95 65 60 66 61 67 75 69 96 70 63 71 47 72 48 73 56 74 49 75
REMARK SMILES IDX 55 76 57 77 54 78 50 79 51 80 52 81 53 82 79 83 80 84 88 85
REMARK SMILES IDX 81 86 87 87 89 88 86 89 82 90 83 91 84 92 85 93 64 94 65 95
REMARK SMILES IDX 73 96 66 97 72 98 74 99 71 100 67 101 68 102 69 103 70 104
REMARK H PARENT 16 19 94 57 62 68
REMARK Flexibility Score: inf
ROOT
ATOM      1  O   UNL A   1      32.217  36.782  31.031  1.00  0.00    -0.377 OA
ENDROOT
BRANCH   1   2
ATOM      2  C   UNL A   1      33.293  37.103  30.172  1.00  0.00     0.188 C 
BRANCH   2   3
ATOM      3  C   UNL A   1      33.290  36.352  28.841  1.00  0.00     0.188 C 
BRANCH   3   4
ATOM      4  O   UNL A   1      32.609  35.113  28.777  1.00  0.00    -0.376 OA
BRANCH   4   5
ATOM      5  C   UNL A   1      33.125  34.111  27.903  1.00  0.00     0.202 C 
BRANCH   5   6
ATOM      6  C   UNL A   1      32.212  32.956  27.434  1.00  0.00     0.261 C 
BRANCH   6   7
ATOM      7  O   UNL A   1      32.841  31.716  27.008  1.00  0.00    -0.463 OA
BRANCH   7   8
ATOM      8  C   UNL A   1      32.061  30.810  26.376  1.00  0.00     0.311 C 
ATOM      9  O   UNL A   1      31.021  31.107  25.788  1.00  0.00    -0.252 OA
BRANCH   8  10
ATOM     10  C   UNL A   1      32.456  29.330  26.494  1.00  0.00     0.134 C 
ATOM     11  N   UNL A   1      31.898  26.731  23.371  1.00  0.00    -0.197 NA
ATOM     12  C   UNL A   1      31.962  26.193  24.729  1.00  0.00     0.105 C 
ATOM     13  C   UNL A   1      31.689  28.174  23.366  1.00  0.00     0.105 C 
ATOM     14  C   UNL A   1      32.960  26.937  25.622  1.00  0.00     0.046 C 
ATOM     15  C   UNL A   1      32.887  28.875  23.964  1.00  0.00     0.046 C 
ATOM     16  C   UNL A   1      33.170  28.484  25.402  1.00  0.00     0.056 C 
ATOM     17  N   UNL A   1      34.565  28.760  25.709  1.00  0.00    -0.350 N 
ATOM     18  C   UNL A   1      34.780  29.136  27.010  1.00  0.00     0.221 C 
ATOM     19  H   UNL A   1      35.286  28.683  25.044  1.00  0.00     0.164 HD
ATOM     20  C   UNL A   1      33.444  29.284  27.682  1.00  0.00     0.117 C 
ATOM     21  O   UNL A   1      35.872  29.263  27.530  1.00  0.00    -0.275 OA
BRANCH  11  22
ATOM     22  S   UNL A   1      32.712  26.018  22.057  1.00  0.00     0.252 S 
ATOM     23  O   UNL A   1      33.971  26.708  21.899  1.00  0.00    -0.206 OA
ATOM     24  O   UNL A   1      31.770  25.893  20.962  1.00  0.00    -0.206 OA
BRANCH  22  25
ATOM     25  C   UNL A   1      33.086  24.334  22.526  1.00  0.00     0.135 A 
ATOM     26  C   UNL A   1      34.027  22.438  23.818  1.00  0.00     0.006 A 
ATOM     27  C   UNL A   1      32.839  22.117  23.189  1.00  0.00     0.017 A 
ATOM     28  S   UNL A   1      34.525  24.036  23.412  1.00  0.00    -0.127 S 
ATOM     29  C   UNL A   1      32.338  23.181  22.391  1.00  0.00     0.034 A 
BRANCH  26  30
ATOM     30  C   UNL A   1      34.859  21.605  24.759  1.00  0.00     0.043 C 
ATOM     31  C   UNL A   1      34.331  20.184  24.916  1.00  0.00     0.010 C 
ENDBRANCH  26  30
ENDBRANCH  22  25
ENDBRANCH  11  22
ENDBRANCH   8  10
ENDBRANCH   7   8
ENDBRANCH   6   7
ENDBRANCH   5   6
ENDBRANCH   4   5
ENDBRANCH   3   4
ENDBRANCH   2   3
ENDBRANCH   1   2
BRANCH   1  32
ATOM     32  C   UNL A   1      32.453  36.377  32.379  1.00  0.00     0.188 C 
BRANCH  32  33
ATOM     33  C   UNL A   1      33.748  35.624  32.685  1.00  0.00     0.188 C 
BRANCH  33  34
ATOM     34  O   UNL A   1      33.813  34.250  32.285  1.00  0.00    -0.376 OA
BRANCH  34  35
ATOM     35  C   UNL A   1      34.223  33.274  33.241  1.00  0.00     0.202 C 
BRANCH  35  36
ATOM     36  C   UNL A   1      35.409  32.417  32.823  1.00  0.00     0.261 C 
BRANCH  36  37
ATOM     37  O   UNL A   1      35.845  32.818  31.517  1.00  0.00    -0.460 OA
BRANCH  37  38
ATOM     38  C   UNL A   1      35.534  31.964  30.519  1.00  0.00     0.338 C 
ATOM     39  O   UNL A   1      34.528  31.961  29.832  1.00  0.00    -0.246 OA
BRANCH  38  40
ATOM     40  C   UNL A   1      36.721  31.136  30.245  1.00  0.00     0.060 A 
ATOM     41  C   UNL A   1      36.793  29.865  30.833  1.00  0.00     0.016 A 
ATOM     42  C   UNL A   1      37.770  31.627  29.464  1.00  0.00     0.016 A 
ATOM     43  C   UNL A   1      37.951  29.108  30.703  1.00  0.00     0.010 A 
ATOM     44  C   UNL A   1      38.933  30.874  29.344  1.00  0.00     0.010 A 
ATOM     45  C   UNL A   1      39.043  29.643  30.013  1.00  0.00    -0.014 A 
BRANCH  45  46
ATOM     46  C   UNL A   1      40.392  29.082  30.225  1.00  0.00     0.031 A 
ATOM     47  C   UNL A   1      41.239  29.716  31.292  1.00  0.00     0.074 A 
ATOM     48  C   UNL A   1      40.846  28.064  29.481  1.00  0.00     0.049 A 
ATOM     49  N   UNL A   1      42.501  29.536  31.573  1.00  0.00    -0.248 NA
ATOM     50  C   UNL A   1      40.564  30.710  32.143  1.00  0.00     0.031 C 
ATOM     51  C   UNL A   1      40.070  27.337  28.480  1.00  0.00     0.029 A 
ATOM     52  N   UNL A   1      42.082  27.477  29.450  1.00  0.00    -0.354 N 
ATOM     53  C   UNL A   1      42.778  30.409  32.621  1.00  0.00     0.074 A 
ATOM     54  C   UNL A   1      41.565  31.152  32.885  1.00  0.00     0.031 C 
ATOM     55  C   UNL A   1      40.856  26.399  27.922  1.00  0.00     0.029 A 
ATOM     56  C   UNL A   1      42.200  26.503  28.489  1.00  0.00     0.049 A 
ATOM     57  H   UNL A   1      42.815  27.728  30.057  1.00  0.00     0.167 HD
ATOM     58  C   UNL A   1      43.938  30.567  33.304  1.00  0.00     0.034 A 
ATOM     59  C   UNL A   1      43.284  25.805  28.101  1.00  0.00     0.034 A 
ATOM     60  C   UNL A   1      45.133  29.825  32.992  1.00  0.00     0.049 A 
ATOM     61  C   UNL A   1      44.602  26.077  28.787  1.00  0.00     0.074 A 
ATOM     62  C   UNL A   1      46.378  29.896  33.589  1.00  0.00     0.029 A 
ATOM     63  N   UNL A   1      45.231  28.879  31.976  1.00  0.00    -0.354 N 
ATOM     64  N   UNL A   1      44.870  26.923  29.758  1.00  0.00    -0.248 NA
ATOM     65  C   UNL A   1      45.761  25.305  28.326  1.00  0.00     0.031 C 
ATOM     66  C   UNL A   1      47.245  29.056  32.884  1.00  0.00     0.029 A 
ATOM     67  C   UNL A   1      46.522  28.384  31.909  1.00  0.00     0.049 A 
ATOM     68  H   UNL A   1      44.489  28.601  31.391  1.00  0.00     0.167 HD
ATOM     69  C   UNL A   1      46.219  26.746  30.055  1.00  0.00     0.074 A 
ATOM     70  C   UNL A   1      46.709  25.722  29.154  1.00  0.00     0.031 C 
ATOM     71  C   UNL A   1      46.981  27.359  30.998  1.00  0.00     0.034 A 
BRANCH  58  72
ATOM     72  C   UNL A   1      43.962  31.623  34.385  1.00  0.00     0.023 A 
ATOM     73  C   UNL A   1      43.417  31.387  35.661  1.00  0.00     0.031 A 
ATOM     74  C   UNL A   1      44.448  32.914  34.111  1.00  0.00     0.131 A 
ATOM     75  C   UNL A   1      43.265  32.449  36.566  1.00  0.00     0.055 A 
ATOM     76  C   UNL A   1      44.390  33.940  35.057  1.00  0.00     0.041 A 
ATOM     77  F   UNL A   1      44.955  33.213  32.905  1.00  0.00    -0.206 F 
ATOM     78  C   UNL A   1      43.774  33.717  36.285  1.00  0.00     0.022 A 
BRANCH  75  79
ATOM     79  S   UNL A   1      42.207  32.195  38.019  1.00  0.00     0.124 S 
ATOM     80  O   UNL A   1      42.212  33.527  38.621  1.00  0.00    -0.237 OA
ATOM     81  O   UNL A   1      40.948  31.768  37.422  1.00  0.00    -0.237 OA
ATOM     82  O   UNL A   1      42.916  31.172  38.784  1.00  0.00    -0.744 OA
ENDBRANCH  75  79
ENDBRANCH  58  72
BRANCH  59  83
ATOM     83  C   UNL A   1      43.174  24.796  27.011  1.00  0.00     0.023 A 
ATOM     84  C   UNL A   1      42.463  23.603  27.211  1.00  0.00     0.031 A 
ATOM     85  C   UNL A   1      43.783  25.000  25.759  1.00  0.00     0.131 A 
ATOM     86  C   UNL A   1      42.407  22.643  26.190  1.00  0.00     0.055 A 
ATOM     87  C   UNL A   1      43.680  24.063  24.729  1.00  0.00     0.041 A 
ATOM     88  F   UNL A   1      44.471  26.126  25.514  1.00  0.00    -0.206 F 
ATOM     89  C   UNL A   1      42.996  22.871  24.945  1.00  0.00     0.022 A 
BRANCH  86  90
ATOM     90  S   UNL A   1      41.602  21.057  26.541  1.00  0.00     0.124 S 
ATOM     91  O   UNL A   1      40.217  21.342  26.186  1.00  0.00    -0.237 OA
ATOM     92  O   UNL A   1      42.321  20.150  25.653  1.00  0.00    -0.237 OA
ATOM     93  O   UNL A   1      41.854  20.859  27.968  1.00  0.00    -0.744 OA
ENDBRANCH  86  90
ENDBRANCH  59  83
BRANCH  71  94
ATOM     94  C   UNL A   1      48.405  26.884  31.156  1.00  0.00     0.023 A 
ATOM     95  C   UNL A   1      49.473  27.473  30.459  1.00  0.00     0.031 A 
ATOM     96  C   UNL A   1      48.693  25.839  32.055  1.00  0.00     0.131 A 
ATOM     97  C   UNL A   1      50.777  26.986  30.645  1.00  0.00     0.055 A 
ATOM     98  C   UNL A   1      49.997  25.403  32.281  1.00  0.00     0.041 A 
ATOM     99  F   UNL A   1      47.708  25.240  32.743  1.00  0.00    -0.206 F 
ATOM    100  C   UNL A   1      51.048  25.971  31.567  1.00  0.00     0.022 A 
BRANCH  97 101
ATOM    101  S   UNL A   1      52.110  27.647  29.609  1.00  0.00     0.124 S 
ATOM    102  O   UNL A   1      53.291  27.034  30.210  1.00  0.00    -0.237 OA
ATOM    103  O   UNL A   1      51.746  27.162  28.282  1.00  0.00    -0.237 OA
ATOM    104  O   UNL A   1      52.001  29.093  29.792  1.00  0.00    -0.744 OA
ENDBRANCH  97 101
ENDBRANCH  71  94
ENDBRANCH  45  46
ENDBRANCH  38  40
ENDBRANCH  37  38
ENDBRANCH  36  37
ENDBRANCH  35  36
ENDBRANCH  34  35
ENDBRANCH  33  34
ENDBRANCH  32  33
ENDBRANCH   1  32
TORSDOF 26
ENDMDL
MODEL 2
REMARK VINA RESULT:      -9.7      3.919      9.536
REMARK SMILES CCc1ccc(S(=O)(=O)N2CCC3(CC2)NC(=O)C[C@H]3C(=O)OCCOCCOCCOCCOC(=O)c2ccc(-c3c4nc(c(-c5cc(S(=O)(=O)[O-])ccc5F)c5ccc([nH]5)c(-c5cc(S(=O)(=O)[O-])ccc5F)c5nc(c(-c6cc(S(=O)(=O)[O-])ccc6F)c6ccc3[nH]6)C=C5)C=C4)cc2)s1
REMARK SMILES IDX 29 1 28 2 27 3 26 4 25 5 24 6 23 7 21 8 22 9 20 10 10 11
REMARK SMILES IDX 11 12 15 13 12 14 14 15 13 16 16 17 17 18 19 20 18 21 7 22
REMARK SMILES IDX 8 23 9 24 6 25 3 26 4 27 101 28 5 29 2 30 1 31 30 32 31 33
REMARK SMILES IDX 32 34 33 35 34 36 35 37 36 38 37 39 38 40 39 41 100 42 40 43
REMARK SMILES IDX 99 44 41 45 42 46 43 47 93 48 44 49 98 50 92 51 94 52 45 53
REMARK SMILES IDX 97 54 91 55 90 56 46 58 78 59 58 60 77 61 59 62 62 63 76 64
REMARK SMILES IDX 95 65 60 66 61 67 75 69 96 70 63 71 47 72 48 73 56 74 49 75
REMARK SMILES IDX 55 76 57 77 54 78 50 79 51 80 52 81 53 82 79 83 80 84 88 85
REMARK SMILES IDX 81 86 87 87 89 88 86 89 82 90 83 91 84 92 85 93 64 94 65 95
REMARK SMILES IDX 73 96 66 97 72 98 74 99 71 100 67 101 68 102 69 103 70 104
REMARK H PARENT 16 19 94 57 62 68
REMARK Flexibility Score: inf
ROOT
ATOM      1  O   UNL A   1      34.517  22.482  23.199  1.00  0.00    -0.377 OA
ENDROOT
BRANCH   1   2
ATOM      2  C   UNL A   1      33.608  23.048  22.276  1.00  0.00     0.188 C 
BRANCH   2   3
ATOM      3  C   UNL A   1      34.003  24.432  21.761  1.00  0.00     0.188 C 
BRANCH   3   4
ATOM      4  O   UNL A   1      33.120  25.088  20.871  1.00  0.00    -0.376 OA
BRANCH   4   5
ATOM      5  C   UNL A   1      32.152  25.978  21.424  1.00  0.00     0.202 C 
BRANCH   5   6
ATOM      6  C   UNL A   1      32.515  27.462  21.652  1.00  0.00     0.261 C 
BRANCH   6   7
ATOM      7  O   UNL A   1      31.726  28.219  22.611  1.00  0.00    -0.463 OA
BRANCH   7   8
ATOM      8  C   UNL A   1      32.340  28.604  23.753  1.00  0.00     0.311 C 
ATOM      9  O   UNL A   1      33.355  29.301  23.772  1.00  0.00    -0.252 OA
BRANCH   8  10
ATOM     10  C   UNL A   1      31.788  28.051  25.076  1.00  0.00     0.134 C 
ATOM     11  N   UNL A   1      32.207  24.093  26.062  1.00  0.00    -0.197 NA
ATOM     12  C   UNL A   1      31.114  24.855  26.666  1.00  0.00     0.105 C 
ATOM     13  C   UNL A   1      32.779  24.782  24.911  1.00  0.00     0.105 C 
ATOM     14  C   UNL A   1      31.496  26.307  26.976  1.00  0.00     0.046 C 
ATOM     15  C   UNL A   1      33.449  26.063  25.352  1.00  0.00     0.046 C 
ATOM     16  C   UNL A   1      32.507  27.047  26.019  1.00  0.00     0.056 C 
ATOM     17  N   UNL A   1      33.275  27.956  26.855  1.00  0.00    -0.350 N 
ATOM     18  C   UNL A   1      32.751  29.221  26.923  1.00  0.00     0.221 C 
ATOM     19  H   UNL A   1      34.096  27.688  27.327  1.00  0.00     0.164 HD
ATOM     20  C   UNL A   1      31.593  29.299  25.967  1.00  0.00     0.117 C 
ATOM     21  O   UNL A   1      33.130  30.096  27.677  1.00  0.00    -0.275 OA
BRANCH  11  22
ATOM     22  S   UNL A   1      33.192  23.030  26.953  1.00  0.00     0.252 S 
ATOM     23  O   UNL A   1      32.559  22.820  28.234  1.00  0.00    -0.206 OA
ATOM     24  O   UNL A   1      34.562  23.494  26.846  1.00  0.00    -0.206 OA
BRANCH  22  25
ATOM     25  C   UNL A   1      33.179  21.462  26.094  1.00  0.00     0.135 A 
ATOM     26  C   UNL A   1      32.704  19.784  24.331  1.00  0.00     0.006 A 
ATOM     27  C   UNL A   1      33.889  19.536  24.997  1.00  0.00     0.017 A 
ATOM     28  S   UNL A   1      31.883  21.133  25.018  1.00  0.00    -0.127 S 
ATOM     29  C   UNL A   1      34.125  20.456  26.055  1.00  0.00     0.034 A 
BRANCH  26  30
ATOM     30  C   UNL A   1      32.110  19.061  23.149  1.00  0.00     0.043 C 
ATOM     31  C   UNL A   1      32.778  17.719  22.879  1.00  0.00     0.010 C 
ENDBRANCH  26  30
ENDBRANCH  22  25
ENDBRANCH  11  22
ENDBRANCH   8  10
ENDBRANCH   7   8
ENDBRANCH   6   7
ENDBRANCH   5   6
ENDBRANCH   4   5
ENDBRANCH   3   4
ENDBRANCH   2   3
ENDBRANCH   1   2
BRANCH   1  32
ATOM     32  C   UNL A   1      35.754  23.129  23.498  1.00  0.00     0.188 C 
BRANCH  32  33
ATOM     33  C   UNL A   1      36.984  22.251  23.727  1.00  0.00     0.188 C 
BRANCH  33  34
ATOM     34  O   UNL A   1      37.520  22.213  25.055  1.00  0.00    -0.376 OA
BRANCH  34  35
ATOM     35  C   UNL A   1      37.648  20.953  25.710  1.00  0.00     0.202 C 
BRANCH  35  36
ATOM     36  C   UNL A   1      38.956  20.220  25.452  1.00  0.00     0.261 C 
BRANCH  36  37
ATOM     37  O   UNL A   1      40.054  21.091  25.754  1.00  0.00    -0.460 OA
BRANCH  37  38
ATOM     38  C   UNL A   1      40.541  20.990  27.010  1.00  0.00     0.338 C 
ATOM     39  O   UNL A   1      40.908  19.981  27.583  1.00  0.00    -0.246 OA
BRANCH  38  40
ATOM     40  C   UNL A   1      40.755  22.355  27.523  1.00  0.00     0.060 A 
ATOM     41  C   UNL A   1      39.925  23.380  27.046  1.00  0.00     0.016 A 
ATOM     42  C   UNL A   1      41.789  22.626  28.421  1.00  0.00     0.016 A 
ATOM     43  C   UNL A   1      40.177  24.698  27.408  1.00  0.00     0.010 A 
ATOM     44  C   UNL A   1      42.048  23.946  28.774  1.00  0.00     0.010 A 
ATOM     45  C   UNL A   1      41.280  24.984  28.220  1.00  0.00    -0.014 A 
BRANCH  45  46
ATOM     46  C   UNL A   1      41.824  26.354  28.262  1.00  0.00     0.031 A 
ATOM     47  C   UNL A   1      43.193  26.568  27.679  1.00  0.00     0.074 A 
ATOM     48  C   UNL A   1      41.133  27.361  28.815  1.00  0.00     0.049 A 
ATOM     49  N   UNL A   1      43.968  27.616  27.730  1.00  0.00    -0.248 NA
ATOM     50  C   UNL A   1      43.770  25.421  26.958  1.00  0.00     0.031 C 
ATOM     51  C   UNL A   1      39.771  27.266  29.333  1.00  0.00     0.029 A 
ATOM     52  N   UNL A   1      41.496  28.660  29.043  1.00  0.00    -0.354 N 
ATOM     53  C   UNL A   1      45.135  27.250  27.065  1.00  0.00     0.074 A 
ATOM     54  C   UNL A   1      44.980  25.867  26.670  1.00  0.00     0.031 C 
ATOM     55  C   UNL A   1      39.413  28.463  29.829  1.00  0.00     0.029 A 
ATOM     56  C   UNL A   1      40.542  29.385  29.713  1.00  0.00     0.049 A 
ATOM     57  H   UNL A   1      42.358  29.039  28.755  1.00  0.00     0.167 HD
ATOM     58  C   UNL A   1      46.230  28.005  26.804  1.00  0.00     0.034 A 
ATOM     59  C   UNL A   1      40.599  30.640  30.199  1.00  0.00     0.034 A 
ATOM     60  C   UNL A   1      46.355  29.373  27.240  1.00  0.00     0.049 A 
ATOM     61  C   UNL A   1      41.872  31.431  30.009  1.00  0.00     0.074 A 
ATOM     62  C   UNL A   1      47.411  30.246  27.059  1.00  0.00     0.029 A 
ATOM     63  N   UNL A   1      45.386  30.062  27.962  1.00  0.00    -0.354 N 
ATOM     64  N   UNL A   1      42.984  31.075  29.406  1.00  0.00    -0.248 NA
ATOM     65  C   UNL A   1      41.897  32.789  30.564  1.00  0.00     0.031 C 
ATOM     66  C   UNL A   1      47.115  31.431  27.740  1.00  0.00     0.029 A 
ATOM     67  C   UNL A   1      45.833  31.337  28.262  1.00  0.00     0.049 A 
ATOM     68  H   UNL A   1      44.510  29.696  28.221  1.00  0.00     0.167 HD
ATOM     69  C   UNL A   1      43.823  32.185  29.467  1.00  0.00     0.074 A 
ATOM     70  C   UNL A   1      43.090  33.217  30.175  1.00  0.00     0.031 C 
ATOM     71  C   UNL A   1      45.077  32.347  28.970  1.00  0.00     0.034 A 
BRANCH  58  72
ATOM     72  C   UNL A   1      47.375  27.330  26.084  1.00  0.00     0.023 A 
ATOM     73  C   UNL A   1      48.287  26.500  26.762  1.00  0.00     0.031 A 
ATOM     74  C   UNL A   1      47.617  27.594  24.725  1.00  0.00     0.131 A 
ATOM     75  C   UNL A   1      49.452  26.063  26.113  1.00  0.00     0.055 A 
ATOM     76  C   UNL A   1      48.725  27.067  24.057  1.00  0.00     0.041 A 
ATOM     77  F   UNL A   1      46.802  28.400  24.027  1.00  0.00    -0.206 F 
ATOM     78  C   UNL A   1      49.664  26.316  24.758  1.00  0.00     0.022 A 
BRANCH  75  79
ATOM     79  S   UNL A   1      50.780  25.345  27.122  1.00  0.00     0.124 S 
ATOM     80  O   UNL A   1      51.299  26.526  27.809  1.00  0.00    -0.237 OA
ATOM     81  O   UNL A   1      50.061  24.387  27.953  1.00  0.00    -0.237 OA
ATOM     82  O   UNL A   1      51.684  24.762  26.133  1.00  0.00    -0.744 OA
ENDBRANCH  75  79
ENDBRANCH  58  72
BRANCH  59  83
ATOM     83  C   UNL A   1      39.428  31.219  30.915  1.00  0.00     0.023 A 
ATOM     84  C   UNL A   1      38.347  31.755  30.199  1.00  0.00     0.031 A 
ATOM     85  C   UNL A   1      39.374  31.258  32.320  1.00  0.00     0.131 A 
ATOM     86  C   UNL A   1      37.273  32.338  30.888  1.00  0.00     0.055 A 
ATOM     87  C   UNL A   1      38.279  31.792  33.001  1.00  0.00     0.041 A 
ATOM     88  F   UNL A   1      40.381  30.755  33.053  1.00  0.00    -0.206 F 
ATOM     89  C   UNL A   1      37.223  32.346  32.283  1.00  0.00     0.022 A 
BRANCH  86  90
ATOM     90  S   UNL A   1      35.968  33.147  29.924  1.00  0.00     0.124 S 
ATOM     91  O   UNL A   1      36.716  34.189  29.231  1.00  0.00    -0.237 OA
ATOM     92  O   UNL A   1      35.477  32.049  29.097  1.00  0.00    -0.237 OA
ATOM     93  O   UNL A   1      35.036  33.620  30.946  1.00  0.00    -0.744 OA
ENDBRANCH  86  90
ENDBRANCH  59  83
BRANCH  71  94
ATOM     94  C   UNL A   1      45.706  33.712  29.105  1.00  0.00     0.023 A 
ATOM     95  C   UNL A   1      45.618  34.682  28.092  1.00  0.00     0.031 A 
ATOM     96  C   UNL A   1      46.376  34.053  30.295  1.00  0.00     0.131 A 
ATOM     97  C   UNL A   1      46.226  35.934  28.275  1.00  0.00     0.055 A 
ATOM     98  C   UNL A   1      46.923  35.319  30.494  1.00  0.00     0.041 A 
ATOM     99  F   UNL A   1      46.492  33.161  31.293  1.00  0.00    -0.206 F 
ATOM    100  C   UNL A   1      46.857  36.266  29.477  1.00  0.00     0.022 A 
BRANCH  97 101
ATOM    101  S   UNL A   1      46.245  37.104  26.890  1.00  0.00     0.124 S 
ATOM    102  O   UNL A   1      47.223  38.089  27.340  1.00  0.00    -0.237 OA
ATOM    103  O   UNL A   1      46.658  36.260  25.773  1.00  0.00    -0.237 OA
ATOM    104  O   UNL A   1      44.866  37.583  26.826  1.00  0.00    -0.744 OA
ENDBRANCH  97 101
ENDBRANCH  71  94
ENDBRANCH  45  46
ENDBRANCH  38  40
ENDBRANCH  37  38
ENDBRANCH  36  37
ENDBRANCH  35  36
ENDBRANCH  34  35
ENDBRANCH  33  34
ENDBRANCH  32  33
ENDBRANCH   1  32
TORSDOF 26
ENDMDL
MODEL 3
REMARK VINA RESULT:      -9.5      1.966      2.240
REMARK SMILES CCc1ccc(S(=O)(=O)N2CCC3(CC2)NC(=O)C[C@H]3C(=O)OCCOCCOCCOCCOC(=O)c2ccc(-c3c4nc(c(-c5cc(S(=O)(=O)[O-])ccc5F)c5ccc([nH]5)c(-c5cc(S(=O)(=O)[O-])ccc5F)c5nc(c(-c6cc(S(=O)(=O)[O-])ccc6F)c6ccc3[nH]6)C=C5)C=C4)cc2)s1
REMARK SMILES IDX 29 1 28 2 27 3 26 4 25 5 24 6 23 7 21 8 22 9 20 10 10 11
REMARK SMILES IDX 11 12 15 13 12 14 14 15 13 16 16 17 17 18 19 20 18 21 7 22
REMARK SMILES IDX 8 23 9 24 6 25 3 26 4 27 101 28 5 29 2 30 1 31 30 32 31 33
REMARK SMILES IDX 32 34 33 35 34 36 35 37 36 38 37 39 38 40 39 41 100 42 40 43
REMARK SMILES IDX 99 44 41 45 42 46 43 47 93 48 44 49 98 50 92 51 94 52 45 53
REMARK SMILES IDX 97 54 91 55 90 56 46 58 78 59 58 60 77 61 59 62 62 63 76 64
REMARK SMILES IDX 95 65 60 66 61 67 75 69 96 70 63 71 47 72 48 73 56 74 49 75
REMARK SMILES IDX 55 76 57 77 54 78 50 79 51 80 52 81 53 82 79 83 80 84 88 85
REMARK SMILES IDX 81 86 87 87 89 88 86 89 82 90 83 91 84 92 85 93 64 94 65 95
REMARK SMILES IDX 73 96 66 97 72 98 74 99 71 100 67 101 68 102 69 103 70 104
REMARK H PARENT 16 19 94 57 62 68
REMARK Flexibility Score: inf
ROOT
ATOM      1  O   UNL A   1      32.225  36.671  30.563  1.00  0.00    -0.377 OA
ENDROOT
BRANCH   1   2
ATOM      2  C   UNL A   1      33.310  36.862  29.677  1.00  0.00     0.188 C 
BRANCH   2   3
ATOM      3  C   UNL A   1      33.510  35.735  28.663  1.00  0.00     0.188 C 
BRANCH   3   4
ATOM      4  O   UNL A   1      32.603  34.650  28.687  1.00  0.00    -0.376 OA
BRANCH   4   5
ATOM      5  C   UNL A   1      32.934  33.485  27.933  1.00  0.00     0.202 C 
BRANCH   5   6
ATOM      6  C   UNL A   1      31.857  32.804  27.060  1.00  0.00     0.261 C 
BRANCH   6   7
ATOM      7  O   UNL A   1      32.291  31.814  26.086  1.00  0.00    -0.463 OA
BRANCH   7   8
ATOM      8  C   UNL A   1      31.391  30.877  25.711  1.00  0.00     0.311 C 
ATOM      9  O   UNL A   1      30.282  31.152  25.254  1.00  0.00    -0.252 OA
BRANCH   8  10
ATOM     10  C   UNL A   1      31.750  29.405  25.968  1.00  0.00     0.134 C 
ATOM     11  N   UNL A   1      31.835  26.676  22.909  1.00  0.00    -0.197 NA
ATOM     12  C   UNL A   1      31.619  26.195  24.273  1.00  0.00     0.105 C 
ATOM     13  C   UNL A   1      31.635  28.116  22.802  1.00  0.00     0.105 C 
ATOM     14  C   UNL A   1      32.416  26.982  25.319  1.00  0.00     0.046 C 
ATOM     15  C   UNL A   1      32.688  28.849  23.601  1.00  0.00     0.046 C 
ATOM     16  C   UNL A   1      32.669  28.520  25.082  1.00  0.00     0.056 C 
ATOM     17  N   UNL A   1      33.973  28.816  25.656  1.00  0.00    -0.350 N 
ATOM     18  C   UNL A   1      33.919  29.247  26.956  1.00  0.00     0.221 C 
ATOM     19  H   UNL A   1      34.815  28.716  25.156  1.00  0.00     0.164 HD
ATOM     20  C   UNL A   1      32.474  29.415  27.334  1.00  0.00     0.117 C 
ATOM     21  O   UNL A   1      34.882  29.402  27.682  1.00  0.00    -0.275 OA
BRANCH  11  22
ATOM     22  S   UNL A   1      32.898  25.914  21.820  1.00  0.00     0.252 S 
ATOM     23  O   UNL A   1      34.123  26.680  21.800  1.00  0.00    -0.206 OA
ATOM     24  O   UNL A   1      32.162  25.623  20.606  1.00  0.00    -0.206 OA
BRANCH  22  25
ATOM     25  C   UNL A   1      33.289  24.310  22.507  1.00  0.00     0.135 A 
ATOM     26  C   UNL A   1      34.151  22.612  24.094  1.00  0.00     0.006 A 
ATOM     27  C   UNL A   1      33.064  22.161  23.370  1.00  0.00     0.017 A 
ATOM     28  S   UNL A   1      34.622  24.186  23.580  1.00  0.00    -0.127 S 
ATOM     29  C   UNL A   1      32.615  23.108  22.410  1.00  0.00     0.034 A 
BRANCH  26  30
ATOM     30  C   UNL A   1      34.898  21.927  25.210  1.00  0.00     0.043 C 
ATOM     31  C   UNL A   1      34.872  22.716  26.513  1.00  0.00     0.010 C 
ENDBRANCH  26  30
ENDBRANCH  22  25
ENDBRANCH  11  22
ENDBRANCH   8  10
ENDBRANCH   7   8
ENDBRANCH   6   7
ENDBRANCH   5   6
ENDBRANCH   4   5
ENDBRANCH   3   4
ENDBRANCH   2   3
ENDBRANCH   1   2
BRANCH   1  32
ATOM     32  C   UNL A   1      32.444  36.521  31.965  1.00  0.00     0.188 C 
BRANCH  32  33
ATOM     33  C   UNL A   1      33.679  35.742  32.418  1.00  0.00     0.188 C 
BRANCH  33  34
ATOM     34  O   UNL A   1      33.603  34.312  32.367  1.00  0.00    -0.376 OA
BRANCH  34  35
ATOM     35  C   UNL A   1      34.208  33.553  33.411  1.00  0.00     0.202 C 
BRANCH  35  36
ATOM     36  C   UNL A   1      35.410  32.719  32.993  1.00  0.00     0.261 C 
BRANCH  36  37
ATOM     37  O   UNL A   1      35.788  33.073  31.656  1.00  0.00    -0.460 OA
BRANCH  37  38
ATOM     38  C   UNL A   1      35.440  32.181  30.704  1.00  0.00     0.338 C 
ATOM     39  O   UNL A   1      34.435  32.187  30.015  1.00  0.00    -0.246 OA
BRANCH  38  40
ATOM     40  C   UNL A   1      36.590  31.288  30.479  1.00  0.00     0.060 A 
ATOM     41  C   UNL A   1      36.507  29.970  30.951  1.00  0.00     0.016 A 
ATOM     42  C   UNL A   1      37.749  31.758  29.857  1.00  0.00     0.016 A 
ATOM     43  C   UNL A   1      37.617  29.137  30.872  1.00  0.00     0.010 A 
ATOM     44  C   UNL A   1      38.863  30.929  29.789  1.00  0.00     0.010 A 
ATOM     45  C   UNL A   1      38.813  29.641  30.349  1.00  0.00    -0.014 A 
BRANCH  45  46
ATOM     46  C   UNL A   1      40.087  28.959  30.646  1.00  0.00     0.031 A 
ATOM     47  C   UNL A   1      40.873  29.454  31.827  1.00  0.00     0.074 A 
ATOM     48  C   UNL A   1      40.533  27.953  29.880  1.00  0.00     0.049 A 
ATOM     49  N   UNL A   1      42.084  29.155  32.210  1.00  0.00    -0.248 NA
ATOM     50  C   UNL A   1      40.197  30.448  32.677  1.00  0.00     0.031 C 
ATOM     51  C   UNL A   1      39.805  27.354  28.764  1.00  0.00     0.029 A 
ATOM     52  N   UNL A   1      41.718  27.269  29.922  1.00  0.00    -0.354 N 
ATOM     53  C   UNL A   1      42.324  29.937  33.336  1.00  0.00     0.074 A 
ATOM     54  C   UNL A   1      41.151  30.760  33.537  1.00  0.00     0.031 C 
ATOM     55  C   UNL A   1      40.567  26.390  28.219  1.00  0.00     0.029 A 
ATOM     56  C   UNL A   1      41.853  26.348  28.913  1.00  0.00     0.049 A 
ATOM     57  H   UNL A   1      42.406  27.422  30.610  1.00  0.00     0.167 HD
ATOM     58  C   UNL A   1      43.421  29.957  34.131  1.00  0.00     0.034 A 
ATOM     59  C   UNL A   1      42.914  25.588  28.579  1.00  0.00     0.034 A 
ATOM     60  C   UNL A   1      44.581  29.139  33.881  1.00  0.00     0.049 A 
ATOM     61  C   UNL A   1      44.176  25.709  29.401  1.00  0.00     0.074 A 
ATOM     62  C   UNL A   1      45.763  29.071  34.594  1.00  0.00     0.029 A 
ATOM     63  N   UNL A   1      44.704  28.252  32.817  1.00  0.00    -0.354 N 
ATOM     64  N   UNL A   1      44.412  26.469  30.447  1.00  0.00    -0.248 NA
ATOM     65  C   UNL A   1      45.312  24.873  28.997  1.00  0.00     0.031 C 
ATOM     66  C   UNL A   1      46.628  28.207  33.916  1.00  0.00     0.029 A 
ATOM     67  C   UNL A   1      45.954  27.657  32.835  1.00  0.00     0.049 A 
ATOM     68  H   UNL A   1      44.004  28.072  32.149  1.00  0.00     0.167 HD
ATOM     69  C   UNL A   1      45.708  26.165  30.855  1.00  0.00     0.074 A 
ATOM     70  C   UNL A   1      46.204  25.159  29.935  1.00  0.00     0.031 C 
ATOM     71  C   UNL A   1      46.420  26.654  31.903  1.00  0.00     0.034 A 
BRANCH  58  72
ATOM     72  C   UNL A   1      43.420  30.941  35.279  1.00  0.00     0.023 A 
ATOM     73  C   UNL A   1      43.967  32.231  35.148  1.00  0.00     0.031 A 
ATOM     74  C   UNL A   1      42.956  30.555  36.549  1.00  0.00     0.131 A 
ATOM     75  C   UNL A   1      44.141  33.038  36.282  1.00  0.00     0.055 A 
ATOM     76  C   UNL A   1      43.035  31.406  37.654  1.00  0.00     0.041 A 
ATOM     77  F   UNL A   1      42.449  29.329  36.750  1.00  0.00    -0.206 F 
ATOM     78  C   UNL A   1      43.653  32.647  37.530  1.00  0.00     0.022 A 
BRANCH  75  79
ATOM     79  S   UNL A   1      45.201  34.505  36.140  1.00  0.00     0.124 S 
ATOM     80  O   UNL A   1      46.534  33.906  36.152  1.00  0.00    -0.237 OA
ATOM     81  O   UNL A   1      44.771  35.082  34.872  1.00  0.00    -0.237 OA
ATOM     82  O   UNL A   1      44.866  35.285  37.329  1.00  0.00    -0.744 OA
ENDBRANCH  75  79
ENDBRANCH  58  72
BRANCH  59  83
ATOM     83  C   UNL A   1      42.834  24.659  27.418  1.00  0.00     0.023 A 
ATOM     84  C   UNL A   1      42.075  23.482  27.496  1.00  0.00     0.031 A 
ATOM     85  C   UNL A   1      43.519  24.925  26.218  1.00  0.00     0.131 A 
ATOM     86  C   UNL A   1      42.045  22.595  26.410  1.00  0.00     0.055 A 
ATOM     87  C   UNL A   1      43.444  24.064  25.121  1.00  0.00     0.041 A 
ATOM     88  F   UNL A   1      44.256  26.039  26.089  1.00  0.00    -0.206 F 
ATOM     89  C   UNL A   1      42.711  22.885  25.217  1.00  0.00     0.022 A 
BRANCH  86  90
ATOM     90  S   UNL A   1      41.172  21.019  26.606  1.00  0.00     0.124 S 
ATOM     91  O   UNL A   1      39.953  21.259  25.843  1.00  0.00    -0.237 OA
ATOM     92  O   UNL A   1      42.119  20.073  26.025  1.00  0.00    -0.237 OA
ATOM     93  O   UNL A   1      40.994  20.909  28.053  1.00  0.00    -0.744 OA
ENDBRANCH  86  90
ENDBRANCH  59  83
BRANCH  71  94
ATOM     94  C   UNL A   1      47.781  26.055  32.158  1.00  0.00     0.023 A 
ATOM     95  C   UNL A   1      47.993  25.061  33.129  1.00  0.00     0.031 A 
ATOM     96  C   UNL A   1      48.879  26.469  31.381  1.00  0.00     0.131 A 
ATOM     97  C   UNL A   1      49.283  24.542  33.322  1.00  0.00     0.055 A 
ATOM     98  C   UNL A   1      50.144  25.904  31.536  1.00  0.00     0.041 A 
ATOM     99  F   UNL A   1      48.732  27.418  30.442  1.00  0.00    -0.206 F 
ATOM    100  C   UNL A   1      50.353  24.941  32.518  1.00  0.00     0.022 A 
BRANCH  97 101
ATOM    101  S   UNL A   1      49.561  23.388  34.692  1.00  0.00     0.124 S 
ATOM    102  O   UNL A   1      51.014  23.430  34.832  1.00  0.00    -0.237 OA
ATOM    103  O   UNL A   1      48.800  23.998  35.777  1.00  0.00    -0.237 OA
ATOM    104  O   UNL A   1      49.023  22.125  34.192  1.00  0.00    -0.744 OA
ENDBRANCH  97 101
ENDBRANCH  71  94
ENDBRANCH  45  46
ENDBRANCH  38  40
ENDBRANCH  37  38
ENDBRANCH  36  37
ENDBRANCH  35  36
ENDBRANCH  34  35
ENDBRANCH  33  34
ENDBRANCH  32  33
ENDBRANCH   1  32
TORSDOF 26
ENDMDL
