MODEL 1
REMARK VINA RESULT:      -9.8      0.000      0.000
REMARK SMILES NC(=O)CC[C@@H](NC(=O)Nc1ccc(Cl)c(Cl)c1)C(=O)OCCOCCOCCOCCOC(=O)c1ccc(-c2c3nc(c(-c4cc(S(=O)(=O)[O-])ccc4F)c4ccc([nH]4)c(-c4cc(S(=O)(=O)[O-])ccc4F)c4nc(c(-c5cc(S(=O)(=O)[O-])ccc5F)c5ccc2[nH]5)C=C4)C=C3)cc1
REMARK SMILES IDX 27 1 26 2 25 3 24 4 23 5 22 6 21 7 19 8 20 9 6 10 5 11 4 12
REMARK SMILES IDX 2 13 1 14 3 17 7 18 8 19 9 21 10 22 11 24 12 25 18 26 13 27
REMARK SMILES IDX 16 28 14 29 17 30 15 31 28 32 29 33 30 34 31 35 32 36 33 37
REMARK SMILES IDX 34 38 35 39 36 40 37 41 98 42 38 43 97 44 39 45 40 46 41 47
REMARK SMILES IDX 91 48 42 49 96 50 90 51 92 52 43 53 95 54 89 55 88 56 44 58
REMARK SMILES IDX 76 59 56 60 75 61 57 62 60 63 74 64 93 65 58 66 59 67 73 69
REMARK SMILES IDX 94 70 61 71 45 72 46 73 54 74 47 75 53 76 55 77 52 78 48 79
REMARK SMILES IDX 49 80 50 81 51 82 77 83 78 84 86 85 79 86 85 87 87 88 84 89
REMARK SMILES IDX 80 90 81 91 82 92 83 93 62 94 63 95 71 96 64 97 70 98 72 99
REMARK SMILES IDX 69 100 65 101 66 102 67 103 68 104
REMARK H PARENT 1 15 1 16 7 20 10 23 92 57 60 68
REMARK Flexibility Score: inf
ROOT
ATOM      1  O   UNL A   1      33.677  21.423  25.056  1.00  0.00    -0.377 OA
ENDROOT
BRANCH   1   2
ATOM      2  C   UNL A   1      32.622  22.175  25.616  1.00  0.00     0.188 C 
BRANCH   2   3
ATOM      3  C   UNL A   1      31.856  23.084  24.650  1.00  0.00     0.188 C 
BRANCH   3   4
ATOM      4  O   UNL A   1      32.553  24.246  24.223  1.00  0.00    -0.376 OA
BRANCH   4   5
ATOM      5  C   UNL A   1      33.240  24.207  22.975  1.00  0.00     0.202 C 
BRANCH   5   6
ATOM      6  C   UNL A   1      32.661  25.039  21.822  1.00  0.00     0.261 C 
BRANCH   6   7
ATOM      7  O   UNL A   1      31.807  26.076  22.315  1.00  0.00    -0.462 OA
BRANCH   7   8
ATOM      8  C   UNL A   1      32.432  27.231  22.655  1.00  0.00     0.328 C 
ATOM      9  O   UNL A   1      33.479  27.606  22.144  1.00  0.00    -0.250 OA
BRANCH   8  10
ATOM     10  C   UNL A   1      31.530  28.061  23.610  1.00  0.00     0.194 C 
BRANCH  10  11
ATOM     11  C   UNL A   1      30.682  29.046  22.769  1.00  0.00     0.047 C 
BRANCH  11  12
ATOM     12  C   UNL A   1      29.164  28.916  22.842  1.00  0.00     0.102 C 
BRANCH  12  13
ATOM     13  C   UNL A   1      28.427  30.045  22.164  1.00  0.00     0.217 C 
ATOM     14  N   UNL A   1      28.027  31.053  22.986  1.00  0.00    -0.370 N 
ATOM     15  H   UNL A   1      27.539  31.825  22.617  1.00  0.00     0.159 HD
ATOM     16  H   UNL A   1      28.225  31.011  23.949  1.00  0.00     0.159 HD
ATOM     17  O   UNL A   1      28.192  30.081  20.963  1.00  0.00    -0.275 OA
ENDBRANCH  12  13
ENDBRANCH  11  12
ENDBRANCH  10  11
BRANCH  10  18
ATOM     18  N   UNL A   1      30.698  27.168  24.419  1.00  0.00    -0.324 N 
ATOM     19  C   UNL A   1      30.881  26.688  25.673  1.00  0.00     0.319 C 
ATOM     20  H   UNL A   1      29.869  26.868  23.981  1.00  0.00     0.166 HD
ATOM     21  O   UNL A   1      30.181  25.733  26.013  1.00  0.00    -0.248 OA
ATOM     22  N   UNL A   1      31.925  27.064  26.445  1.00  0.00    -0.308 N 
ATOM     23  H   UNL A   1      32.366  26.311  26.899  1.00  0.00     0.171 HD
BRANCH  22  24
ATOM     24  C   UNL A   1      32.507  28.305  26.730  1.00  0.00     0.044 A 
ATOM     25  C   UNL A   1      31.779  29.493  26.744  1.00  0.00     0.028 A 
ATOM     26  C   UNL A   1      33.865  28.325  27.079  1.00  0.00     0.048 A 
ATOM     27  C   UNL A   1      32.416  30.699  27.061  1.00  0.00     0.024 A 
ATOM     28  C   UNL A   1      34.512  29.533  27.364  1.00  0.00     0.061 A 
ATOM     29  C   UNL A   1      33.785  30.725  27.354  1.00  0.00     0.059 A 
ATOM     30  Cl  UNL A   1      36.209  29.484  27.684  1.00  0.00    -0.083 Cl
ATOM     31  Cl  UNL A   1      34.511  32.259  27.671  1.00  0.00    -0.083 Cl
ENDBRANCH  22  24
ENDBRANCH  10  18
ENDBRANCH   8  10
ENDBRANCH   7   8
ENDBRANCH   6   7
ENDBRANCH   5   6
ENDBRANCH   4   5
ENDBRANCH   3   4
ENDBRANCH   2   3
ENDBRANCH   1   2
BRANCH   1  32
ATOM     32  C   UNL A   1      35.010  21.714  25.473  1.00  0.00     0.188 C 
BRANCH  32  33
ATOM     33  C   UNL A   1      36.055  22.306  24.504  1.00  0.00     0.188 C 
BRANCH  33  34
ATOM     34  O   UNL A   1      37.285  21.599  24.458  1.00  0.00    -0.376 OA
BRANCH  34  35
ATOM     35  C   UNL A   1      37.227  20.242  24.880  1.00  0.00     0.202 C 
BRANCH  35  36
ATOM     36  C   UNL A   1      38.578  19.646  25.295  1.00  0.00     0.261 C 
BRANCH  36  37
ATOM     37  O   UNL A   1      39.676  20.569  25.423  1.00  0.00    -0.460 OA
BRANCH  37  38
ATOM     38  C   UNL A   1      40.504  20.474  26.490  1.00  0.00     0.338 C 
ATOM     39  O   UNL A   1      41.174  19.508  26.808  1.00  0.00    -0.246 OA
BRANCH  38  40
ATOM     40  C   UNL A   1      40.662  21.844  27.046  1.00  0.00     0.060 A 
ATOM     41  C   UNL A   1      39.806  22.866  26.599  1.00  0.00     0.016 A 
ATOM     42  C   UNL A   1      41.574  22.099  28.074  1.00  0.00     0.016 A 
ATOM     43  C   UNL A   1      39.897  24.152  27.143  1.00  0.00     0.010 A 
ATOM     44  C   UNL A   1      41.686  23.390  28.597  1.00  0.00     0.010 A 
ATOM     45  C   UNL A   1      40.885  24.433  28.097  1.00  0.00    -0.014 A 
BRANCH  45  46
ATOM     46  C   UNL A   1      41.377  25.827  28.267  1.00  0.00     0.031 A 
ATOM     47  C   UNL A   1      42.758  26.108  27.729  1.00  0.00     0.074 A 
ATOM     48  C   UNL A   1      40.687  26.794  28.898  1.00  0.00     0.049 A 
ATOM     49  N   UNL A   1      43.527  27.151  27.889  1.00  0.00    -0.248 NA
ATOM     50  C   UNL A   1      43.354  25.040  26.908  1.00  0.00     0.031 C 
ATOM     51  C   UNL A   1      39.318  26.680  29.395  1.00  0.00     0.029 A 
ATOM     52  N   UNL A   1      41.064  28.071  29.241  1.00  0.00    -0.354 N 
ATOM     53  C   UNL A   1      44.700  26.857  27.200  1.00  0.00     0.074 A 
ATOM     54  C   UNL A   1      44.554  25.527  26.657  1.00  0.00     0.031 C 
ATOM     55  C   UNL A   1      38.976  27.838  29.993  1.00  0.00     0.029 A 
ATOM     56  C   UNL A   1      40.119  28.753  29.971  1.00  0.00     0.049 A 
ATOM     57  H   UNL A   1      41.932  28.461  28.986  1.00  0.00     0.167 HD
ATOM     58  C   UNL A   1      45.802  27.624  27.030  1.00  0.00     0.034 A 
ATOM     59  C   UNL A   1      40.191  29.959  30.577  1.00  0.00     0.034 A 
ATOM     60  C   UNL A   1      45.955  28.928  27.613  1.00  0.00     0.049 A 
ATOM     61  C   UNL A   1      41.483  30.748  30.497  1.00  0.00     0.074 A 
ATOM     62  C   UNL A   1      47.041  29.782  27.550  1.00  0.00     0.029 A 
ATOM     63  N   UNL A   1      44.990  29.561  28.387  1.00  0.00    -0.354 N 
ATOM     64  N   UNL A   1      42.600  30.448  29.875  1.00  0.00    -0.248 NA
ATOM     65  C   UNL A   1      41.526  32.035  31.210  1.00  0.00     0.031 C 
ATOM     66  C   UNL A   1      46.760  30.900  28.340  1.00  0.00     0.029 A 
ATOM     67  C   UNL A   1      45.466  30.784  28.826  1.00  0.00     0.049 A 
ATOM     68  H   UNL A   1      44.101  29.194  28.593  1.00  0.00     0.167 HD
ATOM     69  C   UNL A   1      43.456  31.531  30.080  1.00  0.00     0.074 A 
ATOM     70  C   UNL A   1      42.732  32.484  30.895  1.00  0.00     0.031 C 
ATOM     71  C   UNL A   1      44.719  31.728  29.623  1.00  0.00     0.034 A 
BRANCH  58  72
ATOM     72  C   UNL A   1      46.936  27.014  26.244  1.00  0.00     0.023 A 
ATOM     73  C   UNL A   1      47.967  26.299  26.878  1.00  0.00     0.031 A 
ATOM     74  C   UNL A   1      47.042  27.236  24.860  1.00  0.00     0.131 A 
ATOM     75  C   UNL A   1      49.105  25.921  26.150  1.00  0.00     0.055 A 
ATOM     76  C   UNL A   1      48.133  26.773  24.123  1.00  0.00     0.041 A 
ATOM     77  F   UNL A   1      46.105  27.942  24.207  1.00  0.00    -0.206 F 
ATOM     78  C   UNL A   1      49.183  26.129  24.772  1.00  0.00     0.022 A 
BRANCH  75  79
ATOM     79  S   UNL A   1      50.557  25.332  27.065  1.00  0.00     0.124 S 
ATOM     80  O   UNL A   1      50.941  26.529  27.809  1.00  0.00    -0.237 OA
ATOM     81  O   UNL A   1      50.008  24.236  27.856  1.00  0.00    -0.237 OA
ATOM     82  O   UNL A   1      51.488  24.937  26.011  1.00  0.00    -0.744 OA
ENDBRANCH  75  79
ENDBRANCH  58  72
BRANCH  59  83
ATOM     83  C   UNL A   1      39.035  30.492  31.361  1.00  0.00     0.023 A 
ATOM     84  C   UNL A   1      38.194  31.483  30.826  1.00  0.00     0.031 A 
ATOM     85  C   UNL A   1      38.799  30.076  32.683  1.00  0.00     0.131 A 
ATOM     86  C   UNL A   1      37.184  32.051  31.622  1.00  0.00     0.055 A 
ATOM     87  C   UNL A   1      37.762  30.609  33.454  1.00  0.00     0.041 A 
ATOM     88  F   UNL A   1      39.578  29.141  33.251  1.00  0.00    -0.206 F 
ATOM     89  C   UNL A   1      36.955  31.611  32.926  1.00  0.00     0.022 A 
BRANCH  86  90
ATOM     90  S   UNL A   1      36.227  33.441  30.953  1.00  0.00     0.124 S 
ATOM     91  O   UNL A   1      36.440  34.463  31.971  1.00  0.00    -0.237 OA
ATOM     92  O   UNL A   1      36.879  33.667  29.667  1.00  0.00    -0.237 OA
ATOM     93  O   UNL A   1      34.867  32.910  30.874  1.00  0.00    -0.744 OA
ENDBRANCH  86  90
ENDBRANCH  59  83
BRANCH  71  94
ATOM     94  C   UNL A   1      45.374  33.057  29.907  1.00  0.00     0.023 A 
ATOM     95  C   UNL A   1      45.221  34.168  29.060  1.00  0.00     0.031 A 
ATOM     96  C   UNL A   1      46.113  33.222  31.094  1.00  0.00     0.131 A 
ATOM     97  C   UNL A   1      45.825  35.389  29.401  1.00  0.00     0.055 A 
ATOM     98  C   UNL A   1      46.668  34.450  31.451  1.00  0.00     0.041 A 
ATOM     99  F   UNL A   1      46.285  32.192  31.939  1.00  0.00    -0.206 F 
ATOM    100  C   UNL A   1      46.529  35.542  30.600  1.00  0.00     0.022 A 
BRANCH  97 101
ATOM    101  S   UNL A   1      45.710  36.778  28.240  1.00  0.00     0.124 S 
ATOM    102  O   UNL A   1      47.040  37.370  28.342  1.00  0.00    -0.237 OA
ATOM    103  O   UNL A   1      45.404  36.109  26.979  1.00  0.00    -0.237 OA
ATOM    104  O   UNL A   1      44.625  37.592  28.785  1.00  0.00    -0.744 OA
ENDBRANCH  97 101
ENDBRANCH  71  94
ENDBRANCH  45  46
ENDBRANCH  38  40
ENDBRANCH  37  38
ENDBRANCH  36  37
ENDBRANCH  35  36
ENDBRANCH  34  35
ENDBRANCH  33  34
ENDBRANCH  32  33
ENDBRANCH   1  32
TORSDOF 28
ENDMDL
MODEL 2
REMARK VINA RESULT:      -9.0      2.934      8.194
REMARK SMILES NC(=O)CC[C@@H](NC(=O)Nc1ccc(Cl)c(Cl)c1)C(=O)OCCOCCOCCOCCOC(=O)c1ccc(-c2c3nc(c(-c4cc(S(=O)(=O)[O-])ccc4F)c4ccc([nH]4)c(-c4cc(S(=O)(=O)[O-])ccc4F)c4nc(c(-c5cc(S(=O)(=O)[O-])ccc5F)c5ccc2[nH]5)C=C4)C=C3)cc1
REMARK SMILES IDX 27 1 26 2 25 3 24 4 23 5 22 6 21 7 19 8 20 9 6 10 5 11 4 12
REMARK SMILES IDX 2 13 1 14 3 17 7 18 8 19 9 21 10 22 11 24 12 25 18 26 13 27
REMARK SMILES IDX 16 28 14 29 17 30 15 31 28 32 29 33 30 34 31 35 32 36 33 37
REMARK SMILES IDX 34 38 35 39 36 40 37 41 98 42 38 43 97 44 39 45 40 46 41 47
REMARK SMILES IDX 91 48 42 49 96 50 90 51 92 52 43 53 95 54 89 55 88 56 44 58
REMARK SMILES IDX 76 59 56 60 75 61 57 62 60 63 74 64 93 65 58 66 59 67 73 69
REMARK SMILES IDX 94 70 61 71 45 72 46 73 54 74 47 75 53 76 55 77 52 78 48 79
REMARK SMILES IDX 49 80 50 81 51 82 77 83 78 84 86 85 79 86 85 87 87 88 84 89
REMARK SMILES IDX 80 90 81 91 82 92 83 93 62 94 63 95 71 96 64 97 70 98 72 99
REMARK SMILES IDX 69 100 65 101 66 102 67 103 68 104
REMARK H PARENT 1 15 1 16 7 20 10 23 92 57 60 68
REMARK Flexibility Score: inf
ROOT
ATOM      1  O   UNL A   1      37.926  22.099  25.625  1.00  0.00    -0.377 OA
ENDROOT
BRANCH   1   2
ATOM      2  C   UNL A   1      37.409  20.909  25.071  1.00  0.00     0.188 C 
BRANCH   2   3
ATOM      3  C   UNL A   1      35.884  20.756  25.107  1.00  0.00     0.188 C 
BRANCH   3   4
ATOM      4  O   UNL A   1      35.240  21.334  26.234  1.00  0.00    -0.376 OA
BRANCH   4   5
ATOM      5  C   UNL A   1      33.914  20.914  26.548  1.00  0.00     0.202 C 
BRANCH   5   6
ATOM      6  C   UNL A   1      32.762  21.844  26.142  1.00  0.00     0.261 C 
BRANCH   6   7
ATOM      7  O   UNL A   1      33.160  23.217  26.213  1.00  0.00    -0.462 OA
BRANCH   7   8
ATOM      8  C   UNL A   1      32.161  24.098  26.469  1.00  0.00     0.328 C 
ATOM      9  O   UNL A   1      31.410  24.006  27.431  1.00  0.00    -0.250 OA
BRANCH   8  10
ATOM     10  C   UNL A   1      32.257  25.306  25.495  1.00  0.00     0.194 C 
BRANCH  10  11
ATOM     11  C   UNL A   1      32.823  26.525  26.263  1.00  0.00     0.047 C 
BRANCH  11  12
ATOM     12  C   UNL A   1      32.152  27.877  26.042  1.00  0.00     0.102 C 
BRANCH  12  13
ATOM     13  C   UNL A   1      32.962  29.045  26.550  1.00  0.00     0.217 C 
ATOM     14  N   UNL A   1      33.209  29.040  27.888  1.00  0.00    -0.370 N 
ATOM     15  H   UNL A   1      33.731  29.769  28.295  1.00  0.00     0.159 HD
ATOM     16  H   UNL A   1      32.867  28.308  28.450  1.00  0.00     0.159 HD
ATOM     17  O   UNL A   1      33.381  29.946  25.835  1.00  0.00    -0.275 OA
ENDBRANCH  12  13
ENDBRANCH  11  12
ENDBRANCH  10  11
BRANCH  10  18
ATOM     18  N   UNL A   1      33.079  24.953  24.335  1.00  0.00    -0.324 N 
ATOM     19  C   UNL A   1      32.739  24.777  23.035  1.00  0.00     0.319 C 
ATOM     20  H   UNL A   1      34.034  24.824  24.532  1.00  0.00     0.166 HD
ATOM     21  O   UNL A   1      33.561  24.207  22.316  1.00  0.00    -0.248 OA
ATOM     22  N   UNL A   1      31.485  24.996  22.580  1.00  0.00    -0.308 N 
ATOM     23  H   UNL A   1      31.157  24.286  21.983  1.00  0.00     0.171 HD
BRANCH  22  24
ATOM     24  C   UNL A   1      30.558  26.025  22.784  1.00  0.00     0.044 A 
ATOM     25  C   UNL A   1      29.369  25.839  23.486  1.00  0.00     0.028 A 
ATOM     26  C   UNL A   1      30.887  27.304  22.314  1.00  0.00     0.048 A 
ATOM     27  C   UNL A   1      28.494  26.915  23.677  1.00  0.00     0.024 A 
ATOM     28  C   UNL A   1      29.999  28.375  22.474  1.00  0.00     0.061 A 
ATOM     29  C   UNL A   1      28.798  28.179  23.157  1.00  0.00     0.059 A 
ATOM     30  Cl  UNL A   1      30.433  29.894  21.775  1.00  0.00    -0.083 Cl
ATOM     31  Cl  UNL A   1      27.638  29.440  23.378  1.00  0.00    -0.083 Cl
ENDBRANCH  22  24
ENDBRANCH  10  18
ENDBRANCH   8  10
ENDBRANCH   7   8
ENDBRANCH   6   7
ENDBRANCH   5   6
ENDBRANCH   4   5
ENDBRANCH   3   4
ENDBRANCH   2   3
ENDBRANCH   1   2
BRANCH   1  32
ATOM     32  C   UNL A   1      39.257  22.085  26.134  1.00  0.00     0.188 C 
BRANCH  32  33
ATOM     33  C   UNL A   1      40.148  20.827  26.052  1.00  0.00     0.188 C 
BRANCH  33  34
ATOM     34  O   UNL A   1      41.025  20.651  27.154  1.00  0.00    -0.376 OA
BRANCH  34  35
ATOM     35  C   UNL A   1      42.194  21.460  27.140  1.00  0.00     0.202 C 
BRANCH  35  36
ATOM     36  C   UNL A   1      42.920  21.507  25.789  1.00  0.00     0.261 C 
BRANCH  36  37
ATOM     37  O   UNL A   1      42.803  22.731  25.038  1.00  0.00    -0.460 OA
BRANCH  37  38
ATOM     38  C   UNL A   1      43.886  23.528  24.891  1.00  0.00     0.338 C 
ATOM     39  O   UNL A   1      44.769  23.410  24.060  1.00  0.00    -0.246 OA
BRANCH  38  40
ATOM     40  C   UNL A   1      43.667  24.729  25.741  1.00  0.00     0.060 A 
ATOM     41  C   UNL A   1      43.265  25.931  25.135  1.00  0.00     0.016 A 
ATOM     42  C   UNL A   1      43.757  24.645  27.134  1.00  0.00     0.016 A 
ATOM     43  C   UNL A   1      43.001  27.062  25.916  1.00  0.00     0.010 A 
ATOM     44  C   UNL A   1      43.523  25.782  27.913  1.00  0.00     0.010 A 
ATOM     45  C   UNL A   1      43.196  27.008  27.304  1.00  0.00    -0.014 A 
BRANCH  45  46
ATOM     46  C   UNL A   1      43.478  28.256  28.063  1.00  0.00     0.031 A 
ATOM     47  C   UNL A   1      42.284  28.925  28.696  1.00  0.00     0.074 A 
ATOM     48  C   UNL A   1      44.699  28.812  28.163  1.00  0.00     0.049 A 
ATOM     49  N   UNL A   1      42.175  30.102  29.249  1.00  0.00    -0.248 NA
ATOM     50  C   UNL A   1      41.032  28.150  28.676  1.00  0.00     0.031 C 
ATOM     51  C   UNL A   1      45.944  28.233  27.669  1.00  0.00     0.029 A 
ATOM     52  N   UNL A   1      45.080  30.014  28.712  1.00  0.00    -0.354 N 
ATOM     53  C   UNL A   1      40.841  30.211  29.631  1.00  0.00     0.074 A 
ATOM     54  C   UNL A   1      40.176  29.001  29.210  1.00  0.00     0.031 C 
ATOM     55  C   UNL A   1      46.953  29.089  27.924  1.00  0.00     0.029 A 
ATOM     56  C   UNL A   1      46.416  30.300  28.550  1.00  0.00     0.049 A 
ATOM     57  H   UNL A   1      44.455  30.614  29.179  1.00  0.00     0.167 HD
ATOM     58  C   UNL A   1      40.220  31.227  30.276  1.00  0.00     0.034 A 
ATOM     59  C   UNL A   1      47.107  31.424  28.841  1.00  0.00     0.034 A 
ATOM     60  C   UNL A   1      40.882  32.447  30.649  1.00  0.00     0.049 A 
ATOM     61  C   UNL A   1      46.370  32.609  29.435  1.00  0.00     0.074 A 
ATOM     62  C   UNL A   1      40.351  33.565  31.266  1.00  0.00     0.029 A 
ATOM     63  N   UNL A   1      42.226  32.714  30.422  1.00  0.00    -0.354 N 
ATOM     64  N   UNL A   1      45.103  32.719  29.759  1.00  0.00    -0.248 NA
ATOM     65  C   UNL A   1      47.158  33.824  29.693  1.00  0.00     0.031 C 
ATOM     66  C   UNL A   1      41.356  34.533  31.350  1.00  0.00     0.029 A 
ATOM     67  C   UNL A   1      42.535  33.989  30.864  1.00  0.00     0.049 A 
ATOM     68  H   UNL A   1      42.864  32.090  30.006  1.00  0.00     0.167 HD
ATOM     69  C   UNL A   1      44.955  33.994  30.306  1.00  0.00     0.074 A 
ATOM     70  C   UNL A   1      46.259  34.621  30.255  1.00  0.00     0.031 C 
ATOM     71  C   UNL A   1      43.848  34.587  30.820  1.00  0.00     0.034 A 
BRANCH  58  72
ATOM     72  C   UNL A   1      38.743  31.063  30.533  1.00  0.00     0.023 A 
ATOM     73  C   UNL A   1      37.783  31.636  29.682  1.00  0.00     0.031 A 
ATOM     74  C   UNL A   1      38.292  30.415  31.696  1.00  0.00     0.131 A 
ATOM     75  C   UNL A   1      36.431  31.639  30.056  1.00  0.00     0.055 A 
ATOM     76  C   UNL A   1      36.935  30.338  32.013  1.00  0.00     0.041 A 
ATOM     77  F   UNL A   1      39.165  29.879  32.563  1.00  0.00    -0.206 F 
ATOM     78  C   UNL A   1      35.997  30.970  31.201  1.00  0.00     0.022 A 
BRANCH  75  79
ATOM     79  S   UNL A   1      35.282  32.692  29.126  1.00  0.00     0.124 S 
ATOM     80  O   UNL A   1      36.186  33.366  28.197  1.00  0.00    -0.237 OA
ATOM     81  O   UNL A   1      34.368  31.720  28.538  1.00  0.00    -0.237 OA
ATOM     82  O   UNL A   1      34.701  33.553  30.154  1.00  0.00    -0.744 OA
ENDBRANCH  75  79
ENDBRANCH  58  72
BRANCH  59  83
ATOM     83  C   UNL A   1      48.567  31.527  28.537  1.00  0.00     0.023 A 
ATOM     84  C   UNL A   1      49.026  32.261  27.430  1.00  0.00     0.031 A 
ATOM     85  C   UNL A   1      49.520  30.832  29.302  1.00  0.00     0.131 A 
ATOM     86  C   UNL A   1      50.391  32.251  27.096  1.00  0.00     0.055 A 
ATOM     87  C   UNL A   1      50.884  30.866  28.997  1.00  0.00     0.041 A 
ATOM     88  F   UNL A   1      49.140  30.105  30.365  1.00  0.00    -0.206 F 
ATOM     89  C   UNL A   1      51.323  31.569  27.880  1.00  0.00     0.022 A 
BRANCH  86  90
ATOM     90  S   UNL A   1      50.920  33.074  25.568  1.00  0.00     0.124 S 
ATOM     91  O   UNL A   1      51.255  31.935  24.720  1.00  0.00    -0.237 OA
ATOM     92  O   UNL A   1      49.725  33.823  25.197  1.00  0.00    -0.237 OA
ATOM     93  O   UNL A   1      52.056  33.889  25.996  1.00  0.00    -0.744 OA
ENDBRANCH  86  90
ENDBRANCH  59  83
BRANCH  71  94
ATOM     94  C   UNL A   1      44.005  35.947  31.454  1.00  0.00     0.023 A 
ATOM     95  C   UNL A   1      43.966  37.136  30.707  1.00  0.00     0.031 A 
ATOM     96  C   UNL A   1      44.131  36.044  32.853  1.00  0.00     0.131 A 
ATOM     97  C   UNL A   1      44.079  38.372  31.363  1.00  0.00     0.055 A 
ATOM     98  C   UNL A   1      44.192  37.276  33.502  1.00  0.00     0.041 A 
ATOM     99  F   UNL A   1      44.169  34.937  33.613  1.00  0.00    -0.206 F 
ATOM    100  C   UNL A   1      44.172  38.450  32.757  1.00  0.00     0.022 A 
BRANCH  97 101
ATOM    101  S   UNL A   1      44.140  39.889  30.370  1.00  0.00     0.124 S 
ATOM    102  O   UNL A   1      45.192  39.580  29.407  1.00  0.00    -0.237 OA
ATOM    103  O   UNL A   1      42.786  39.967  29.832  1.00  0.00    -0.237 OA
ATOM    104  O   UNL A   1      44.477  40.925  31.344  1.00  0.00    -0.744 OA
ENDBRANCH  97 101
ENDBRANCH  71  94
ENDBRANCH  45  46
ENDBRANCH  38  40
ENDBRANCH  37  38
ENDBRANCH  36  37
ENDBRANCH  35  36
ENDBRANCH  34  35
ENDBRANCH  33  34
ENDBRANCH  32  33
ENDBRANCH   1  32
TORSDOF 28
ENDMDL
MODEL 3
REMARK VINA RESULT:      -8.6      2.377      3.404
REMARK SMILES NC(=O)CC[C@@H](NC(=O)Nc1ccc(Cl)c(Cl)c1)C(=O)OCCOCCOCCOCCOC(=O)c1ccc(-c2c3nc(c(-c4cc(S(=O)(=O)[O-])ccc4F)c4ccc([nH]4)c(-c4cc(S(=O)(=O)[O-])ccc4F)c4nc(c(-c5cc(S(=O)(=O)[O-])ccc5F)c5ccc2[nH]5)C=C4)C=C3)cc1
REMARK SMILES IDX 27 1 26 2 25 3 24 4 23 5 22 6 21 7 19 8 20 9 6 10 5 11 4 12
REMARK SMILES IDX 2 13 1 14 3 17 7 18 8 19 9 21 10 22 11 24 12 25 18 26 13 27
REMARK SMILES IDX 16 28 14 29 17 30 15 31 28 32 29 33 30 34 31 35 32 36 33 37
REMARK SMILES IDX 34 38 35 39 36 40 37 41 98 42 38 43 97 44 39 45 40 46 41 47
REMARK SMILES IDX 91 48 42 49 96 50 90 51 92 52 43 53 95 54 89 55 88 56 44 58
REMARK SMILES IDX 76 59 56 60 75 61 57 62 60 63 74 64 93 65 58 66 59 67 73 69
REMARK SMILES IDX 94 70 61 71 45 72 46 73 54 74 47 75 53 76 55 77 52 78 48 79
REMARK SMILES IDX 49 80 50 81 51 82 77 83 78 84 86 85 79 86 85 87 87 88 84 89
REMARK SMILES IDX 80 90 81 91 82 92 83 93 62 94 63 95 71 96 64 97 70 98 72 99
REMARK SMILES IDX 69 100 65 101 66 102 67 103 68 104
REMARK H PARENT 1 15 1 16 7 20 10 23 92 57 60 68
REMARK Flexibility Score: inf
ROOT
ATOM      1  O   UNL A   1      35.668  22.990  24.512  1.00  0.00    -0.377 OA
ENDROOT
BRANCH   1   2
ATOM      2  C   UNL A   1      34.822  22.113  25.225  1.00  0.00     0.188 C 
BRANCH   2   3
ATOM      3  C   UNL A   1      34.241  20.941  24.426  1.00  0.00     0.188 C 
BRANCH   3   4
ATOM      4  O   UNL A   1      32.834  20.972  24.233  1.00  0.00    -0.376 OA
BRANCH   4   5
ATOM      5  C   UNL A   1      32.331  21.386  22.964  1.00  0.00     0.202 C 
BRANCH   5   6
ATOM      6  C   UNL A   1      32.966  22.627  22.321  1.00  0.00     0.261 C 
BRANCH   6   7
ATOM      7  O   UNL A   1      32.382  23.828  22.837  1.00  0.00    -0.462 OA
BRANCH   7   8
ATOM      8  C   UNL A   1      33.073  24.967  22.577  1.00  0.00     0.328 C 
ATOM      9  O   UNL A   1      33.675  25.166  21.530  1.00  0.00    -0.250 OA
BRANCH   8  10
ATOM     10  C   UNL A   1      32.811  26.013  23.696  1.00  0.00     0.194 C 
BRANCH  10  11
ATOM     11  C   UNL A   1      32.999  25.332  25.073  1.00  0.00     0.047 C 
BRANCH  11  12
ATOM     12  C   UNL A   1      33.063  26.229  26.306  1.00  0.00     0.102 C 
BRANCH  12  13
ATOM     13  C   UNL A   1      31.974  27.272  26.351  1.00  0.00     0.217 C 
ATOM     14  N   UNL A   1      30.768  26.832  26.805  1.00  0.00    -0.370 N 
ATOM     15  H   UNL A   1      30.007  27.454  26.863  1.00  0.00     0.159 HD
ATOM     16  H   UNL A   1      30.657  25.892  27.075  1.00  0.00     0.159 HD
ATOM     17  O   UNL A   1      32.132  28.438  26.013  1.00  0.00    -0.275 OA
ENDBRANCH  12  13
ENDBRANCH  11  12
ENDBRANCH  10  11
BRANCH  10  18
ATOM     18  N   UNL A   1      33.700  27.165  23.523  1.00  0.00    -0.324 N 
ATOM     19  C   UNL A   1      33.532  28.309  22.818  1.00  0.00     0.319 C 
ATOM     20  H   UNL A   1      34.558  27.097  24.000  1.00  0.00     0.166 HD
ATOM     21  O   UNL A   1      34.539  28.987  22.605  1.00  0.00    -0.248 OA
ATOM     22  N   UNL A   1      32.379  28.598  22.173  1.00  0.00    -0.308 N 
ATOM     23  H   UNL A   1      32.517  28.940  21.261  1.00  0.00     0.171 HD
BRANCH  22  24
ATOM     24  C   UNL A   1      31.030  28.510  22.537  1.00  0.00     0.044 A 
ATOM     25  C   UNL A   1      30.366  27.294  22.677  1.00  0.00     0.028 A 
ATOM     26  C   UNL A   1      30.354  29.702  22.832  1.00  0.00     0.048 A 
ATOM     27  C   UNL A   1      29.022  27.272  23.067  1.00  0.00     0.024 A 
ATOM     28  C   UNL A   1      29.001  29.686  23.191  1.00  0.00     0.061 A 
ATOM     29  C   UNL A   1      28.332  28.467  23.307  1.00  0.00     0.059 A 
ATOM     30  Cl  UNL A   1      28.214  31.204  23.438  1.00  0.00    -0.083 Cl
ATOM     31  Cl  UNL A   1      26.659  28.360  23.721  1.00  0.00    -0.083 Cl
ENDBRANCH  22  24
ENDBRANCH  10  18
ENDBRANCH   8  10
ENDBRANCH   7   8
ENDBRANCH   6   7
ENDBRANCH   5   6
ENDBRANCH   4   5
ENDBRANCH   3   4
ENDBRANCH   2   3
ENDBRANCH   1   2
BRANCH   1  32
ATOM     32  C   UNL A   1      36.993  23.194  24.999  1.00  0.00     0.188 C 
BRANCH  32  33
ATOM     33  C   UNL A   1      37.601  22.305  26.105  1.00  0.00     0.188 C 
BRANCH  33  34
ATOM     34  O   UNL A   1      38.941  21.902  25.868  1.00  0.00    -0.376 OA
BRANCH  34  35
ATOM     35  C   UNL A   1      39.117  20.531  25.537  1.00  0.00     0.202 C 
BRANCH  35  36
ATOM     36  C   UNL A   1      40.405  19.903  26.086  1.00  0.00     0.261 C 
BRANCH  36  37
ATOM     37  O   UNL A   1      41.078  20.629  27.133  1.00  0.00    -0.460 OA
BRANCH  37  38
ATOM     38  C   UNL A   1      42.192  21.339  26.840  1.00  0.00     0.338 C 
ATOM     39  O   UNL A   1      43.133  20.969  26.160  1.00  0.00    -0.246 OA
BRANCH  38  40
ATOM     40  C   UNL A   1      41.943  22.742  27.265  1.00  0.00     0.060 A 
ATOM     41  C   UNL A   1      41.363  23.639  26.352  1.00  0.00     0.016 A 
ATOM     42  C   UNL A   1      42.183  23.144  28.582  1.00  0.00     0.016 A 
ATOM     43  C   UNL A   1      41.069  24.952  26.740  1.00  0.00     0.010 A 
ATOM     44  C   UNL A   1      41.918  24.463  28.963  1.00  0.00     0.010 A 
ATOM     45  C   UNL A   1      41.410  25.386  28.029  1.00  0.00    -0.014 A 
BRANCH  45  46
ATOM     46  C   UNL A   1      41.643  26.832  28.288  1.00  0.00     0.031 A 
ATOM     47  C   UNL A   1      43.074  27.297  28.183  1.00  0.00     0.074 A 
ATOM     48  C   UNL A   1      40.674  27.695  28.643  1.00  0.00     0.049 A 
ATOM     49  N   UNL A   1      43.616  28.433  28.530  1.00  0.00    -0.248 NA
ATOM     50  C   UNL A   1      44.024  26.322  27.623  1.00  0.00     0.031 C 
ATOM     51  C   UNL A   1      39.246  27.398  28.705  1.00  0.00     0.029 A 
ATOM     52  N   UNL A   1      40.762  29.010  29.035  1.00  0.00    -0.354 N 
ATOM     53  C   UNL A   1      44.971  28.302  28.240  1.00  0.00     0.074 A 
ATOM     54  C   UNL A   1      45.170  26.965  27.729  1.00  0.00     0.031 C 
ATOM     55  C   UNL A   1      38.592  28.497  29.128  1.00  0.00     0.029 A 
ATOM     56  C   UNL A   1      39.558  29.557  29.418  1.00  0.00     0.049 A 
ATOM     57  H   UNL A   1      41.608  29.514  29.042  1.00  0.00     0.167 HD
ATOM     58  C   UNL A   1      45.965  29.210  28.383  1.00  0.00     0.034 A 
ATOM     59  C   UNL A   1      39.286  30.760  29.972  1.00  0.00     0.034 A 
ATOM     60  C   UNL A   1      45.763  30.521  28.936  1.00  0.00     0.049 A 
ATOM     61  C   UNL A   1      40.429  31.715  30.258  1.00  0.00     0.074 A 
ATOM     62  C   UNL A   1      46.696  31.513  29.173  1.00  0.00     0.029 A 
ATOM     63  N   UNL A   1      44.535  31.016  29.356  1.00  0.00    -0.354 N 
ATOM     64  N   UNL A   1      41.711  31.570  30.016  1.00  0.00    -0.248 NA
ATOM     65  C   UNL A   1      40.085  32.993  30.901  1.00  0.00     0.031 C 
ATOM     66  C   UNL A   1      46.046  32.581  29.798  1.00  0.00     0.029 A 
ATOM     67  C   UNL A   1      44.692  32.291  29.872  1.00  0.00     0.049 A 
ATOM     68  H   UNL A   1      43.680  30.532  29.296  1.00  0.00     0.167 HD
ATOM     69  C   UNL A   1      42.317  32.757  30.429  1.00  0.00     0.074 A 
ATOM     70  C   UNL A   1      41.263  33.602  30.949  1.00  0.00     0.031 C 
ATOM     71  C   UNL A   1      43.622  33.123  30.369  1.00  0.00     0.034 A 
BRANCH  58  72
ATOM     72  C   UNL A   1      47.353  28.760  28.002  1.00  0.00     0.023 A 
ATOM     73  C   UNL A   1      48.266  28.300  28.967  1.00  0.00     0.031 A 
ATOM     74  C   UNL A   1      47.802  28.889  26.677  1.00  0.00     0.131 A 
ATOM     75  C   UNL A   1      49.606  28.082  28.612  1.00  0.00     0.055 A 
ATOM     76  C   UNL A   1      49.113  28.578  26.312  1.00  0.00     0.041 A 
ATOM     77  F   UNL A   1      46.985  29.356  25.719  1.00  0.00    -0.206 F 
ATOM     78  C   UNL A   1      50.029  28.192  27.287  1.00  0.00     0.022 A 
BRANCH  75  79
ATOM     79  S   UNL A   1      50.820  27.845  29.940  1.00  0.00     0.124 S 
ATOM     80  O   UNL A   1      49.954  27.654  31.100  1.00  0.00    -0.237 OA
ATOM     81  O   UNL A   1      51.555  26.668  29.489  1.00  0.00    -0.237 OA
ATOM     82  O   UNL A   1      51.579  29.094  29.936  1.00  0.00    -0.744 OA
ENDBRANCH  75  79
ENDBRANCH  58  72
BRANCH  59  83
ATOM     83  C   UNL A   1      37.888  31.131  30.348  1.00  0.00     0.023 A 
ATOM     84  C   UNL A   1      37.083  31.891  29.482  1.00  0.00     0.031 A 
ATOM     85  C   UNL A   1      37.361  30.797  31.608  1.00  0.00     0.131 A 
ATOM     86  C   UNL A   1      35.815  32.325  29.902  1.00  0.00     0.055 A 
ATOM     87  C   UNL A   1      36.078  31.188  32.002  1.00  0.00     0.041 A 
ATOM     88  F   UNL A   1      38.088  30.082  32.481  1.00  0.00    -0.206 F 
ATOM     89  C   UNL A   1      35.303  31.968  31.150  1.00  0.00     0.022 A 
BRANCH  86  90
ATOM     90  S   UNL A   1      34.874  33.441  28.822  1.00  0.00     0.124 S 
ATOM     91  O   UNL A   1      33.656  33.646  29.598  1.00  0.00    -0.237 OA
ATOM     92  O   UNL A   1      35.771  34.588  28.718  1.00  0.00    -0.237 OA
ATOM     93  O   UNL A   1      34.710  32.667  27.593  1.00  0.00    -0.744 OA
ENDBRANCH  86  90
ENDBRANCH  59  83
BRANCH  71  94
ATOM     94  C   UNL A   1      43.982  34.527  30.788  1.00  0.00     0.023 A 
ATOM     95  C   UNL A   1      43.816  35.632  29.937  1.00  0.00     0.031 A 
ATOM     96  C   UNL A   1      44.441  34.759  32.098  1.00  0.00     0.131 A 
ATOM     97  C   UNL A   1      44.133  36.920  30.400  1.00  0.00     0.055 A 
ATOM     98  C   UNL A   1      44.706  36.045  32.568  1.00  0.00     0.041 A 
ATOM     99  F   UNL A   1      44.613  33.737  32.952  1.00  0.00    -0.206 F 
ATOM    100  C   UNL A   1      44.558  37.134  31.716  1.00  0.00     0.022 A 
BRANCH  97 101
ATOM    101  S   UNL A   1      44.019  38.318  29.251  1.00  0.00     0.124 S 
ATOM    102  O   UNL A   1      42.749  38.058  28.581  1.00  0.00    -0.237 OA
ATOM    103  O   UNL A   1      44.043  39.467  30.150  1.00  0.00    -0.237 OA
ATOM    104  O   UNL A   1      45.205  38.168  28.409  1.00  0.00    -0.744 OA
ENDBRANCH  97 101
ENDBRANCH  71  94
ENDBRANCH  45  46
ENDBRANCH  38  40
ENDBRANCH  37  38
ENDBRANCH  36  37
ENDBRANCH  35  36
ENDBRANCH  34  35
ENDBRANCH  33  34
ENDBRANCH  32  33
ENDBRANCH   1  32
TORSDOF 28
ENDMDL
