MODEL 1
REMARK VINA RESULT:      -8.4      0.000      0.000
REMARK SMILES N#CCCn1cc(C(=O)OCCOCCOCCOCCOC(=O)c2ccc(-c3c4nc(c(-c5cc(S(=O)(=O)[O-])ccc5F)c5ccc([nH]5)c(-c5cc(S(=O)(=O)[O-])ccc5F)c5nc(c(-c6cc(S(=O)(=O)[O-])ccc6F)c6ccc3[nH]6)C=C5)C=C4)cc2)c(-c2cccc([N+](=O)[O-])c2)n1
REMARK SMILES IDX 16 1 15 2 14 3 13 4 12 5 11 6 10 7 8 8 9 9 7 10 5 11 6 12
REMARK SMILES IDX 98 13 88 14 4 15 3 16 2 17 1 18 89 19 90 20 97 21 91 22
REMARK SMILES IDX 93 23 92 24 94 25 95 26 96 27 17 28 18 29 19 30 20 31 21 32
REMARK SMILES IDX 22 33 23 34 24 35 25 36 26 37 87 38 27 39 86 40 28 41 29 42
REMARK SMILES IDX 30 43 80 44 31 45 85 46 79 47 81 48 32 49 84 50 78 51 77 52
REMARK SMILES IDX 33 54 65 55 45 56 64 57 46 58 49 59 63 60 82 61 47 62 48 63
REMARK SMILES IDX 62 65 83 66 50 67 34 68 35 69 43 70 36 71 42 72 44 73 41 74
REMARK SMILES IDX 37 75 38 76 39 77 40 78 66 79 67 80 75 81 68 82 74 83 76 84
REMARK SMILES IDX 73 85 69 86 70 87 71 88 72 89 51 90 52 91 60 92 53 93 59 94
REMARK SMILES IDX 61 95 58 96 54 97 55 98 56 99 57 100
REMARK H PARENT 81 53 49 64
REMARK Flexibility Score: inf
ROOT
ATOM      1  O   UNL A   1      34.096  24.068  26.396  1.00  0.00    -0.377 OA
ENDROOT
BRANCH   1   2
ATOM      2  C   UNL A   1      33.803  24.877  25.266  1.00  0.00     0.188 C 
BRANCH   2   3
ATOM      3  C   UNL A   1      33.316  26.284  25.666  1.00  0.00     0.188 C 
BRANCH   3   4
ATOM      4  O   UNL A   1      32.474  26.279  26.802  1.00  0.00    -0.376 OA
BRANCH   4   5
ATOM      5  C   UNL A   1      32.240  27.461  27.537  1.00  0.00     0.202 C 
BRANCH   5   6
ATOM      6  C   UNL A   1      32.305  28.888  26.961  1.00  0.00     0.261 C 
BRANCH   6   7
ATOM      7  O   UNL A   1      31.329  29.300  26.004  1.00  0.00    -0.460 OA
BRANCH   7   8
ATOM      8  C   UNL A   1      31.715  29.439  24.708  1.00  0.00     0.342 C 
ATOM      9  O   UNL A   1      32.865  29.470  24.317  1.00  0.00    -0.246 OA
BRANCH   8  10
ATOM     10  C   UNL A   1      30.553  29.415  23.835  1.00  0.00     0.106 A 
ATOM     11  N   UNL A   1      28.733  29.983  22.759  1.00  0.00    -0.270 N 
ATOM     12  C   UNL A   1      29.660  30.451  23.636  1.00  0.00     0.125 A 
ATOM     13  N   UNL A   1      28.920  28.701  22.418  1.00  0.00    -0.172 NA
ATOM     14  C   UNL A   1      30.007  28.323  23.101  1.00  0.00     0.107 A 
BRANCH  11  15
ATOM     15  C   UNL A   1      27.651  30.749  22.168  1.00  0.00     0.159 C 
BRANCH  15  16
ATOM     16  C   UNL A   1      28.125  31.964  21.387  1.00  0.00     0.144 C 
BRANCH  16  17
ATOM     17  C   UNL A   1      28.483  33.095  22.337  1.00  0.00     0.064 C 
ATOM     18  N   UNL A   1      28.780  34.034  23.125  1.00  0.00    -0.198 NA
ENDBRANCH  16  17
ENDBRANCH  15  16
ENDBRANCH  11  15
BRANCH  14  19
ATOM     19  C   UNL A   1      30.429  26.932  23.077  1.00  0.00     0.010 A 
ATOM     20  C   UNL A   1      29.821  25.992  23.923  1.00  0.00     0.011 A 
ATOM     21  C   UNL A   1      31.439  26.529  22.205  1.00  0.00     0.096 A 
ATOM     22  C   UNL A   1      30.285  24.675  23.975  1.00  0.00     0.008 A 
ATOM     23  C   UNL A   1      31.869  25.197  22.231  1.00  0.00     0.270 A 
ATOM     24  C   UNL A   1      31.318  24.273  23.131  1.00  0.00     0.085 A 
BRANCH  23  25
ATOM     25  N   UNL A   1      32.902  24.761  21.288  1.00  0.00     0.062 N 
ATOM     26  O   UNL A   1      32.987  25.358  20.205  1.00  0.00    -0.258 OA
ATOM     27  O   UNL A   1      33.641  23.827  21.632  1.00  0.00    -0.258 OA
ENDBRANCH  23  25
ENDBRANCH  14  19
ENDBRANCH   8  10
ENDBRANCH   7   8
ENDBRANCH   6   7
ENDBRANCH   5   6
ENDBRANCH   4   5
ENDBRANCH   3   4
ENDBRANCH   2   3
ENDBRANCH   1   2
BRANCH   1  28
ATOM     28  C   UNL A   1      34.574  22.745  26.139  1.00  0.00     0.188 C 
BRANCH  28  29
ATOM     29  C   UNL A   1      36.049  22.446  25.734  1.00  0.00     0.188 C 
BRANCH  29  30
ATOM     30  O   UNL A   1      36.509  21.120  25.992  1.00  0.00    -0.376 OA
BRANCH  30  31
ATOM     31  C   UNL A   1      37.720  20.651  25.425  1.00  0.00     0.202 C 
BRANCH  31  32
ATOM     32  C   UNL A   1      38.808  21.716  25.356  1.00  0.00     0.261 C 
BRANCH  32  33
ATOM     33  O   UNL A   1      39.499  21.857  26.584  1.00  0.00    -0.460 OA
BRANCH  33  34
ATOM     34  C   UNL A   1      39.634  23.131  27.001  1.00  0.00     0.338 C 
ATOM     35  O   UNL A   1      38.839  23.789  27.647  1.00  0.00    -0.246 OA
BRANCH  34  36
ATOM     36  C   UNL A   1      40.885  23.657  26.462  1.00  0.00     0.060 A 
ATOM     37  C   UNL A   1      42.012  22.893  26.756  1.00  0.00     0.016 A 
ATOM     38  C   UNL A   1      40.941  25.016  26.119  1.00  0.00     0.016 A 
ATOM     39  C   UNL A   1      43.157  23.576  27.053  1.00  0.00     0.010 A 
ATOM     40  C   UNL A   1      42.078  25.699  26.443  1.00  0.00     0.010 A 
ATOM     41  C   UNL A   1      43.118  24.974  27.013  1.00  0.00    -0.014 A 
BRANCH  41  42
ATOM     42  C   UNL A   1      44.246  25.670  27.569  1.00  0.00     0.031 A 
ATOM     43  C   UNL A   1      44.258  25.605  29.034  1.00  0.00     0.074 A 
ATOM     44  C   UNL A   1      45.183  26.239  26.795  1.00  0.00     0.049 A 
ATOM     45  N   UNL A   1      43.982  26.548  29.868  1.00  0.00    -0.248 NA
ATOM     46  C   UNL A   1      44.339  24.264  29.633  1.00  0.00     0.031 C 
ATOM     47  C   UNL A   1      45.386  26.073  25.353  1.00  0.00     0.029 A 
ATOM     48  N   UNL A   1      46.241  26.999  27.175  1.00  0.00    -0.354 N 
ATOM     49  C   UNL A   1      44.123  25.963  31.117  1.00  0.00     0.074 A 
ATOM     50  C   UNL A   1      44.054  24.547  30.902  1.00  0.00     0.031 C 
ATOM     51  C   UNL A   1      46.624  26.515  25.033  1.00  0.00     0.029 A 
ATOM     52  C   UNL A   1      47.235  27.101  26.216  1.00  0.00     0.049 A 
ATOM     53  H   UNL A   1      46.295  27.439  28.055  1.00  0.00     0.167 HD
ATOM     54  C   UNL A   1      44.617  26.681  32.161  1.00  0.00     0.034 A 
ATOM     55  C   UNL A   1      48.507  27.525  26.430  1.00  0.00     0.034 A 
ATOM     56  C   UNL A   1      44.479  28.104  31.912  1.00  0.00     0.049 A 
ATOM     57  C   UNL A   1      48.500  28.310  27.694  1.00  0.00     0.074 A 
ATOM     58  C   UNL A   1      43.406  28.931  31.638  1.00  0.00     0.029 A 
ATOM     59  N   UNL A   1      45.601  28.815  31.538  1.00  0.00    -0.354 N 
ATOM     60  N   UNL A   1      47.858  29.439  27.842  1.00  0.00    -0.248 NA
ATOM     61  C   UNL A   1      48.809  27.618  28.939  1.00  0.00     0.031 C 
ATOM     62  C   UNL A   1      43.896  29.889  30.703  1.00  0.00     0.029 A 
ATOM     63  C   UNL A   1      45.256  29.645  30.499  1.00  0.00     0.049 A 
ATOM     64  H   UNL A   1      46.494  28.739  31.944  1.00  0.00     0.167 HD
ATOM     65  C   UNL A   1      47.321  29.391  29.122  1.00  0.00     0.074 A 
ATOM     66  C   UNL A   1      48.031  28.301  29.785  1.00  0.00     0.031 C 
ATOM     67  C   UNL A   1      46.161  30.045  29.431  1.00  0.00     0.034 A 
BRANCH  54  68
ATOM     68  C   UNL A   1      45.599  26.108  33.165  1.00  0.00     0.023 A 
ATOM     69  C   UNL A   1      45.214  26.183  34.515  1.00  0.00     0.031 A 
ATOM     70  C   UNL A   1      46.958  25.776  32.941  1.00  0.00     0.131 A 
ATOM     71  C   UNL A   1      46.166  26.102  35.543  1.00  0.00     0.055 A 
ATOM     72  C   UNL A   1      47.891  25.634  33.972  1.00  0.00     0.041 A 
ATOM     73  F   UNL A   1      47.498  25.636  31.727  1.00  0.00    -0.206 F 
ATOM     74  C   UNL A   1      47.507  25.841  35.281  1.00  0.00     0.022 A 
BRANCH  71  75
ATOM     75  S   UNL A   1      45.639  26.546  37.212  1.00  0.00     0.124 S 
ATOM     76  O   UNL A   1      45.592  25.237  37.855  1.00  0.00    -0.237 OA
ATOM     77  O   UNL A   1      46.716  27.435  37.634  1.00  0.00    -0.237 OA
ATOM     78  O   UNL A   1      44.345  27.187  36.996  1.00  0.00    -0.744 OA
ENDBRANCH  71  75
ENDBRANCH  54  68
BRANCH  55  79
ATOM     79  C   UNL A   1      49.726  26.932  25.817  1.00  0.00     0.023 A 
ATOM     80  C   UNL A   1      50.500  27.604  24.851  1.00  0.00     0.031 A 
ATOM     81  C   UNL A   1      50.271  25.736  26.345  1.00  0.00     0.131 A 
ATOM     82  C   UNL A   1      51.747  27.072  24.445  1.00  0.00     0.055 A 
ATOM     83  C   UNL A   1      51.492  25.207  25.928  1.00  0.00     0.041 A 
ATOM     84  F   UNL A   1      49.668  25.079  27.348  1.00  0.00    -0.206 F 
ATOM     85  C   UNL A   1      52.241  25.879  24.977  1.00  0.00     0.022 A 
BRANCH  82  86
ATOM     86  S   UNL A   1      52.792  27.982  23.263  1.00  0.00     0.124 S 
ATOM     87  O   UNL A   1      53.809  28.564  24.129  1.00  0.00    -0.237 OA
ATOM     88  O   UNL A   1      53.232  26.924  22.362  1.00  0.00    -0.237 OA
ATOM     89  O   UNL A   1      51.869  28.948  22.666  1.00  0.00    -0.744 OA
ENDBRANCH  82  86
ENDBRANCH  55  79
BRANCH  67  90
ATOM     90  C   UNL A   1      45.665  31.123  28.487  1.00  0.00     0.023 A 
ATOM     91  C   UNL A   1      46.097  32.468  28.490  1.00  0.00     0.031 A 
ATOM     92  C   UNL A   1      44.793  30.720  27.458  1.00  0.00     0.131 A 
ATOM     93  C   UNL A   1      45.649  33.352  27.486  1.00  0.00     0.055 A 
ATOM     94  C   UNL A   1      44.367  31.592  26.458  1.00  0.00     0.041 A 
ATOM     95  F   UNL A   1      44.368  29.447  27.385  1.00  0.00    -0.206 F 
ATOM     96  C   UNL A   1      44.790  32.916  26.472  1.00  0.00     0.022 A 
BRANCH  93  97
ATOM     97  S   UNL A   1      46.168  35.099  27.484  1.00  0.00     0.124 S 
ATOM     98  O   UNL A   1      46.090  35.482  28.889  1.00  0.00    -0.237 OA
ATOM     99  O   UNL A   1      47.511  35.027  26.914  1.00  0.00    -0.237 OA
ATOM    100  O   UNL A   1      45.178  35.747  26.621  1.00  0.00    -0.744 OA
ENDBRANCH  93  97
ENDBRANCH  67  90
ENDBRANCH  41  42
ENDBRANCH  34  36
ENDBRANCH  33  34
ENDBRANCH  32  33
ENDBRANCH  31  32
ENDBRANCH  30  31
ENDBRANCH  29  30
ENDBRANCH  28  29
ENDBRANCH   1  28
TORSDOF 28
ENDMDL
MODEL 2
REMARK VINA RESULT:      -7.5      6.344     11.579
REMARK SMILES N#CCCn1cc(C(=O)OCCOCCOCCOCCOC(=O)c2ccc(-c3c4nc(c(-c5cc(S(=O)(=O)[O-])ccc5F)c5ccc([nH]5)c(-c5cc(S(=O)(=O)[O-])ccc5F)c5nc(c(-c6cc(S(=O)(=O)[O-])ccc6F)c6ccc3[nH]6)C=C5)C=C4)cc2)c(-c2cccc([N+](=O)[O-])c2)n1
REMARK SMILES IDX 16 1 15 2 14 3 13 4 12 5 11 6 10 7 8 8 9 9 7 10 5 11 6 12
REMARK SMILES IDX 98 13 88 14 4 15 3 16 2 17 1 18 89 19 90 20 97 21 91 22
REMARK SMILES IDX 93 23 92 24 94 25 95 26 96 27 17 28 18 29 19 30 20 31 21 32
REMARK SMILES IDX 22 33 23 34 24 35 25 36 26 37 87 38 27 39 86 40 28 41 29 42
REMARK SMILES IDX 30 43 80 44 31 45 85 46 79 47 81 48 32 49 84 50 78 51 77 52
REMARK SMILES IDX 33 54 65 55 45 56 64 57 46 58 49 59 63 60 82 61 47 62 48 63
REMARK SMILES IDX 62 65 83 66 50 67 34 68 35 69 43 70 36 71 42 72 44 73 41 74
REMARK SMILES IDX 37 75 38 76 39 77 40 78 66 79 67 80 75 81 68 82 74 83 76 84
REMARK SMILES IDX 73 85 69 86 70 87 71 88 72 89 51 90 52 91 60 92 53 93 59 94
REMARK SMILES IDX 61 95 58 96 54 97 55 98 56 99 57 100
REMARK H PARENT 81 53 49 64
REMARK Flexibility Score: inf
ROOT
ATOM      1  O   UNL A   1      44.785  25.091  31.258  1.00  0.00    -0.377 OA
ENDROOT
BRANCH   1   2
ATOM      2  C   UNL A   1      46.058  25.616  31.602  1.00  0.00     0.188 C 
BRANCH   2   3
ATOM      3  C   UNL A   1      46.540  26.683  30.600  1.00  0.00     0.188 C 
BRANCH   3   4
ATOM      4  O   UNL A   1      46.143  26.416  29.270  1.00  0.00    -0.376 OA
BRANCH   4   5
ATOM      5  C   UNL A   1      47.090  26.054  28.288  1.00  0.00     0.202 C 
BRANCH   5   6
ATOM      6  C   UNL A   1      47.286  24.631  27.731  1.00  0.00     0.261 C 
BRANCH   6   7
ATOM      7  O   UNL A   1      47.090  24.395  26.337  1.00  0.00    -0.460 OA
BRANCH   7   8
ATOM      8  C   UNL A   1      45.974  24.901  25.747  1.00  0.00     0.342 C 
ATOM      9  O   UNL A   1      45.956  25.822  24.955  1.00  0.00    -0.246 OA
BRANCH   8  10
ATOM     10  C   UNL A   1      44.815  24.100  26.100  1.00  0.00     0.106 A 
ATOM     11  N   UNL A   1      43.372  22.459  26.249  1.00  0.00    -0.270 N 
ATOM     12  C   UNL A   1      44.568  22.800  25.700  1.00  0.00     0.125 A 
ATOM     13  N   UNL A   1      42.791  23.460  26.926  1.00  0.00    -0.172 NA
ATOM     14  C   UNL A   1      43.641  24.486  26.809  1.00  0.00     0.107 A 
BRANCH  11  15
ATOM     15  C   UNL A   1      42.747  21.151  26.194  1.00  0.00     0.159 C 
BRANCH  15  16
ATOM     16  C   UNL A   1      43.553  20.127  25.412  1.00  0.00     0.144 C 
BRANCH  16  17
ATOM     17  C   UNL A   1      43.032  18.725  25.684  1.00  0.00     0.064 C 
ATOM     18  N   UNL A   1      42.600  17.562  25.910  1.00  0.00    -0.198 NA
ENDBRANCH  16  17
ENDBRANCH  15  16
ENDBRANCH  11  15
BRANCH  14  19
ATOM     19  C   UNL A   1      43.266  25.796  27.315  1.00  0.00     0.010 A 
ATOM     20  C   UNL A   1      43.022  25.983  28.684  1.00  0.00     0.011 A 
ATOM     21  C   UNL A   1      43.152  26.873  26.438  1.00  0.00     0.096 A 
ATOM     22  C   UNL A   1      42.568  27.214  29.166  1.00  0.00     0.008 A 
ATOM     23  C   UNL A   1      42.740  28.116  26.934  1.00  0.00     0.270 A 
ATOM     24  C   UNL A   1      42.419  28.286  28.288  1.00  0.00     0.085 A 
BRANCH  23  25
ATOM     25  N   UNL A   1      42.658  29.259  26.022  1.00  0.00     0.062 N 
ATOM     26  O   UNL A   1      43.201  30.318  26.370  1.00  0.00    -0.258 OA
ATOM     27  O   UNL A   1      42.060  29.099  24.947  1.00  0.00    -0.258 OA
ENDBRANCH  23  25
ENDBRANCH  14  19
ENDBRANCH   8  10
ENDBRANCH   7   8
ENDBRANCH   6   7
ENDBRANCH   5   6
ENDBRANCH   4   5
ENDBRANCH   3   4
ENDBRANCH   2   3
ENDBRANCH   1   2
BRANCH   1  28
ATOM     28  C   UNL A   1      44.427  23.829  31.830  1.00  0.00     0.188 C 
BRANCH  28  29
ATOM     29  C   UNL A   1      45.022  23.315  33.176  1.00  0.00     0.188 C 
BRANCH  29  30
ATOM     30  O   UNL A   1      44.074  22.883  34.150  1.00  0.00    -0.376 OA
BRANCH  30  31
ATOM     31  C   UNL A   1      44.348  23.011  35.534  1.00  0.00     0.202 C 
BRANCH  31  32
ATOM     32  C   UNL A   1      45.439  24.030  35.842  1.00  0.00     0.261 C 
BRANCH  32  33
ATOM     33  O   UNL A   1      45.095  24.873  36.926  1.00  0.00    -0.460 OA
BRANCH  33  34
ATOM     34  C   UNL A   1      43.944  25.553  36.757  1.00  0.00     0.338 C 
ATOM     35  O   UNL A   1      42.933  25.481  37.432  1.00  0.00    -0.246 OA
BRANCH  34  36
ATOM     36  C   UNL A   1      44.060  26.349  35.539  1.00  0.00     0.060 A 
ATOM     37  C   UNL A   1      44.963  27.407  35.618  1.00  0.00     0.016 A 
ATOM     38  C   UNL A   1      43.010  26.299  34.609  1.00  0.00     0.016 A 
ATOM     39  C   UNL A   1      44.599  28.573  35.008  1.00  0.00     0.010 A 
ATOM     40  C   UNL A   1      42.634  27.473  34.022  1.00  0.00     0.010 A 
ATOM     41  C   UNL A   1      43.375  28.608  34.332  1.00  0.00    -0.014 A 
BRANCH  41  42
ATOM     42  C   UNL A   1      42.899  29.899  33.919  1.00  0.00     0.031 A 
ATOM     43  C   UNL A   1      42.302  30.642  35.034  1.00  0.00     0.074 A 
ATOM     44  C   UNL A   1      43.063  30.351  32.666  1.00  0.00     0.049 A 
ATOM     45  N   UNL A   1      41.053  30.876  35.248  1.00  0.00    -0.248 NA
ATOM     46  C   UNL A   1      43.184  30.938  36.175  1.00  0.00     0.031 C 
ATOM     47  C   UNL A   1      43.909  29.792  31.609  1.00  0.00     0.029 A 
ATOM     48  N   UNL A   1      42.589  31.496  32.116  1.00  0.00    -0.354 N 
ATOM     49  C   UNL A   1      41.029  31.593  36.435  1.00  0.00     0.074 A 
ATOM     50  C   UNL A   1      42.290  31.346  37.072  1.00  0.00     0.031 C 
ATOM     51  C   UNL A   1      44.071  30.723  30.641  1.00  0.00     0.029 A 
ATOM     52  C   UNL A   1      43.245  31.878  30.957  1.00  0.00     0.049 A 
ATOM     53  H   UNL A   1      41.845  32.010  32.506  1.00  0.00     0.167 HD
ATOM     54  C   UNL A   1      40.118  32.584  36.622  1.00  0.00     0.034 A 
ATOM     55  C   UNL A   1      43.194  33.107  30.381  1.00  0.00     0.034 A 
ATOM     56  C   UNL A   1      38.993  32.420  35.719  1.00  0.00     0.049 A 
ATOM     57  C   UNL A   1      41.970  33.780  30.893  1.00  0.00     0.074 A 
ATOM     58  C   UNL A   1      38.085  31.403  35.491  1.00  0.00     0.029 A 
ATOM     59  N   UNL A   1      38.918  33.239  34.612  1.00  0.00    -0.354 N 
ATOM     60  N   UNL A   1      40.757  33.364  30.644  1.00  0.00    -0.248 NA
ATOM     61  C   UNL A   1      42.091  34.633  32.068  1.00  0.00     0.031 C 
ATOM     62  C   UNL A   1      37.855  31.410  34.084  1.00  0.00     0.029 A 
ATOM     63  C   UNL A   1      38.578  32.467  33.528  1.00  0.00     0.049 A 
ATOM     64  H   UNL A   1      39.082  34.210  34.600  1.00  0.00     0.167 HD
ATOM     65  C   UNL A   1      40.056  33.542  31.829  1.00  0.00     0.074 A 
ATOM     66  C   UNL A   1      40.897  34.426  32.631  1.00  0.00     0.031 C 
ATOM     67  C   UNL A   1      39.005  32.733  32.162  1.00  0.00     0.034 A 
BRANCH  54  68
ATOM     68  C   UNL A   1      40.458  33.904  37.288  1.00  0.00     0.023 A 
ATOM     69  C   UNL A   1      41.533  34.616  36.732  1.00  0.00     0.031 A 
ATOM     70  C   UNL A   1      40.022  34.359  38.557  1.00  0.00     0.131 A 
ATOM     71  C   UNL A   1      42.217  35.589  37.476  1.00  0.00     0.055 A 
ATOM     72  C   UNL A   1      40.668  35.374  39.269  1.00  0.00     0.041 A 
ATOM     73  F   UNL A   1      38.999  33.823  39.228  1.00  0.00    -0.206 F 
ATOM     74  C   UNL A   1      41.801  35.966  38.748  1.00  0.00     0.022 A 
BRANCH  71  75
ATOM     75  S   UNL A   1      43.781  36.206  36.817  1.00  0.00     0.124 S 
ATOM     76  O   UNL A   1      43.589  37.648  36.923  1.00  0.00    -0.237 OA
ATOM     77  O   UNL A   1      44.744  35.612  37.738  1.00  0.00    -0.237 OA
ATOM     78  O   UNL A   1      43.805  35.673  35.457  1.00  0.00    -0.744 OA
ENDBRANCH  71  75
ENDBRANCH  54  68
BRANCH  55  79
ATOM     79  C   UNL A   1      44.349  33.817  29.767  1.00  0.00     0.023 A 
ATOM     80  C   UNL A   1      45.395  34.376  30.528  1.00  0.00     0.031 A 
ATOM     81  C   UNL A   1      44.541  33.771  28.365  1.00  0.00     0.131 A 
ATOM     82  C   UNL A   1      46.555  34.868  29.885  1.00  0.00     0.055 A 
ATOM     83  C   UNL A   1      45.679  34.275  27.735  1.00  0.00     0.041 A 
ATOM     84  F   UNL A   1      43.658  33.159  27.560  1.00  0.00    -0.206 F 
ATOM     85  C   UNL A   1      46.697  34.822  28.496  1.00  0.00     0.022 A 
BRANCH  82  86
ATOM     86  S   UNL A   1      47.946  35.511  30.870  1.00  0.00     0.124 S 
ATOM     87  O   UNL A   1      47.690  34.937  32.184  1.00  0.00    -0.237 OA
ATOM     88  O   UNL A   1      49.101  34.992  30.147  1.00  0.00    -0.237 OA
ATOM     89  O   UNL A   1      47.777  36.963  30.790  1.00  0.00    -0.744 OA
ENDBRANCH  82  86
ENDBRANCH  55  79
BRANCH  67  90
ATOM     90  C   UNL A   1      38.367  31.891  31.074  1.00  0.00     0.023 A 
ATOM     91  C   UNL A   1      37.260  32.281  30.288  1.00  0.00     0.031 A 
ATOM     92  C   UNL A   1      39.004  30.678  30.749  1.00  0.00     0.131 A 
ATOM     93  C   UNL A   1      36.829  31.460  29.225  1.00  0.00     0.055 A 
ATOM     94  C   UNL A   1      38.585  29.879  29.686  1.00  0.00     0.041 A 
ATOM     95  F   UNL A   1      40.079  30.266  31.441  1.00  0.00    -0.206 F 
ATOM     96  C   UNL A   1      37.490  30.265  28.923  1.00  0.00     0.022 A 
BRANCH  93  97
ATOM     97  S   UNL A   1      35.385  31.926  28.215  1.00  0.00     0.124 S 
ATOM     98  O   UNL A   1      35.185  30.770  27.349  1.00  0.00    -0.237 OA
ATOM     99  O   UNL A   1      34.357  32.156  29.225  1.00  0.00    -0.237 OA
ATOM    100  O   UNL A   1      35.833  33.135  27.520  1.00  0.00    -0.744 OA
ENDBRANCH  93  97
ENDBRANCH  67  90
ENDBRANCH  41  42
ENDBRANCH  34  36
ENDBRANCH  33  34
ENDBRANCH  32  33
ENDBRANCH  31  32
ENDBRANCH  30  31
ENDBRANCH  29  30
ENDBRANCH  28  29
ENDBRANCH   1  28
TORSDOF 28
ENDMDL
MODEL 3
REMARK VINA RESULT:      -7.4      6.343     14.073
REMARK SMILES N#CCCn1cc(C(=O)OCCOCCOCCOCCOC(=O)c2ccc(-c3c4nc(c(-c5cc(S(=O)(=O)[O-])ccc5F)c5ccc([nH]5)c(-c5cc(S(=O)(=O)[O-])ccc5F)c5nc(c(-c6cc(S(=O)(=O)[O-])ccc6F)c6ccc3[nH]6)C=C5)C=C4)cc2)c(-c2cccc([N+](=O)[O-])c2)n1
REMARK SMILES IDX 16 1 15 2 14 3 13 4 12 5 11 6 10 7 8 8 9 9 7 10 5 11 6 12
REMARK SMILES IDX 98 13 88 14 4 15 3 16 2 17 1 18 89 19 90 20 97 21 91 22
REMARK SMILES IDX 93 23 92 24 94 25 95 26 96 27 17 28 18 29 19 30 20 31 21 32
REMARK SMILES IDX 22 33 23 34 24 35 25 36 26 37 87 38 27 39 86 40 28 41 29 42
REMARK SMILES IDX 30 43 80 44 31 45 85 46 79 47 81 48 32 49 84 50 78 51 77 52
REMARK SMILES IDX 33 54 65 55 45 56 64 57 46 58 49 59 63 60 82 61 47 62 48 63
REMARK SMILES IDX 62 65 83 66 50 67 34 68 35 69 43 70 36 71 42 72 44 73 41 74
REMARK SMILES IDX 37 75 38 76 39 77 40 78 66 79 67 80 75 81 68 82 74 83 76 84
REMARK SMILES IDX 73 85 69 86 70 87 71 88 72 89 51 90 52 91 60 92 53 93 59 94
REMARK SMILES IDX 61 95 58 96 54 97 55 98 56 99 57 100
REMARK H PARENT 81 53 49 64
REMARK Flexibility Score: inf
ROOT
ATOM      1  O   UNL A   1      49.497  32.018  32.193  1.00  0.00    -0.377 OA
ENDROOT
BRANCH   1   2
ATOM      2  C   UNL A   1      49.456  33.149  31.337  1.00  0.00     0.188 C 
BRANCH   2   3
ATOM      3  C   UNL A   1      48.839  32.820  29.963  1.00  0.00     0.188 C 
BRANCH   3   4
ATOM      4  O   UNL A   1      47.427  32.891  29.956  1.00  0.00    -0.376 OA
BRANCH   4   5
ATOM      5  C   UNL A   1      46.710  32.956  28.743  1.00  0.00     0.202 C 
BRANCH   5   6
ATOM      6  C   UNL A   1      47.004  32.103  27.494  1.00  0.00     0.261 C 
BRANCH   6   7
ATOM      7  O   UNL A   1      46.698  30.709  27.513  1.00  0.00    -0.460 OA
BRANCH   7   8
ATOM      8  C   UNL A   1      45.937  30.202  26.506  1.00  0.00     0.342 C 
ATOM      9  O   UNL A   1      46.228  30.226  25.326  1.00  0.00    -0.246 OA
BRANCH   8  10
ATOM     10  C   UNL A   1      44.783  29.509  27.052  1.00  0.00     0.106 A 
ATOM     11  N   UNL A   1      42.835  29.078  27.954  1.00  0.00    -0.270 N 
ATOM     12  C   UNL A   1      43.630  30.098  27.535  1.00  0.00     0.125 A 
ATOM     13  N   UNL A   1      43.407  27.873  27.836  1.00  0.00    -0.172 NA
ATOM     14  C   UNL A   1      44.619  28.121  27.326  1.00  0.00     0.107 A 
BRANCH  11  15
ATOM     15  C   UNL A   1      41.474  29.200  28.442  1.00  0.00     0.159 C 
BRANCH  15  16
ATOM     16  C   UNL A   1      41.297  28.715  29.872  1.00  0.00     0.144 C 
BRANCH  16  17
ATOM     17  C   UNL A   1      40.024  27.893  29.997  1.00  0.00     0.064 C 
ATOM     18  N   UNL A   1      38.969  27.211  30.101  1.00  0.00    -0.198 NA
ENDBRANCH  16  17
ENDBRANCH  15  16
ENDBRANCH  11  15
BRANCH  14  19
ATOM     19  C   UNL A   1      45.580  27.039  27.188  1.00  0.00     0.010 A 
ATOM     20  C   UNL A   1      46.538  26.811  28.188  1.00  0.00     0.011 A 
ATOM     21  C   UNL A   1      45.548  26.222  26.059  1.00  0.00     0.096 A 
ATOM     22  C   UNL A   1      47.525  25.836  28.020  1.00  0.00     0.008 A 
ATOM     23  C   UNL A   1      46.514  25.218  25.918  1.00  0.00     0.270 A 
ATOM     24  C   UNL A   1      47.520  25.039  26.878  1.00  0.00     0.085 A 
BRANCH  23  25
ATOM     25  N   UNL A   1      46.458  24.331  24.753  1.00  0.00     0.062 N 
ATOM     26  O   UNL A   1      45.544  23.495  24.705  1.00  0.00    -0.258 OA
ATOM     27  O   UNL A   1      47.323  24.475  23.876  1.00  0.00    -0.258 OA
ENDBRANCH  23  25
ENDBRANCH  14  19
ENDBRANCH   8  10
ENDBRANCH   7   8
ENDBRANCH   6   7
ENDBRANCH   5   6
ENDBRANCH   4   5
ENDBRANCH   3   4
ENDBRANCH   2   3
ENDBRANCH   1   2
BRANCH   1  28
ATOM     28  C   UNL A   1      49.103  32.219  33.554  1.00  0.00     0.188 C 
BRANCH  28  29
ATOM     29  C   UNL A   1      49.013  33.633  34.204  1.00  0.00     0.188 C 
BRANCH  29  30
ATOM     30  O   UNL A   1      47.695  34.133  34.426  1.00  0.00    -0.376 OA
BRANCH  30  31
ATOM     31  C   UNL A   1      47.293  34.567  35.714  1.00  0.00     0.202 C 
BRANCH  31  32
ATOM     32  C   UNL A   1      46.956  36.052  35.773  1.00  0.00     0.261 C 
BRANCH  32  33
ATOM     33  O   UNL A   1      47.076  36.680  34.510  1.00  0.00    -0.460 OA
BRANCH  33  34
ATOM     34  C   UNL A   1      46.231  37.713  34.321  1.00  0.00     0.338 C 
ATOM     35  O   UNL A   1      46.333  38.845  34.759  1.00  0.00    -0.246 OA
BRANCH  34  36
ATOM     36  C   UNL A   1      45.082  37.229  33.563  1.00  0.00     0.060 A 
ATOM     37  C   UNL A   1      43.853  37.393  34.200  1.00  0.00     0.016 A 
ATOM     38  C   UNL A   1      45.305  36.289  32.545  1.00  0.00     0.016 A 
ATOM     39  C   UNL A   1      42.951  36.375  34.066  1.00  0.00     0.010 A 
ATOM     40  C   UNL A   1      44.413  35.261  32.434  1.00  0.00     0.010 A 
ATOM     41  C   UNL A   1      43.314  35.273  33.286  1.00  0.00    -0.014 A 
BRANCH  41  42
ATOM     42  C   UNL A   1      42.465  34.116  33.364  1.00  0.00     0.031 A 
ATOM     43  C   UNL A   1      41.359  34.187  32.404  1.00  0.00     0.074 A 
ATOM     44  C   UNL A   1      42.733  33.092  34.188  1.00  0.00     0.049 A 
ATOM     45  N   UNL A   1      40.115  34.418  32.649  1.00  0.00    -0.248 NA
ATOM     46  C   UNL A   1      41.725  34.262  30.980  1.00  0.00     0.031 C 
ATOM     47  C   UNL A   1      43.967  32.830  34.932  1.00  0.00     0.029 A 
ATOM     48  N   UNL A   1      41.980  31.990  34.432  1.00  0.00    -0.354 N 
ATOM     49  C   UNL A   1      39.503  34.397  31.405  1.00  0.00     0.074 A 
ATOM     50  C   UNL A   1      40.551  34.585  30.444  1.00  0.00     0.031 C 
ATOM     51  C   UNL A   1      43.964  31.542  35.345  1.00  0.00     0.029 A 
ATOM     52  C   UNL A   1      42.683  30.942  35.002  1.00  0.00     0.049 A 
ATOM     53  H   UNL A   1      41.018  31.941  34.223  1.00  0.00     0.167 HD
ATOM     54  C   UNL A   1      38.248  33.894  31.263  1.00  0.00     0.034 A 
ATOM     55  C   UNL A   1      42.273  29.649  35.066  1.00  0.00     0.034 A 
ATOM     56  C   UNL A   1      37.555  33.887  32.538  1.00  0.00     0.049 A 
ATOM     57  C   UNL A   1      40.795  29.650  34.893  1.00  0.00     0.074 A 
ATOM     58  C   UNL A   1      37.237  34.863  33.464  1.00  0.00     0.029 A 
ATOM     59  N   UNL A   1      37.424  32.686  33.206  1.00  0.00    -0.354 N 
ATOM     60  N   UNL A   1      39.967  30.191  35.746  1.00  0.00    -0.248 NA
ATOM     61  C   UNL A   1      40.256  29.471  33.551  1.00  0.00     0.031 C 
ATOM     62  C   UNL A   1      37.381  34.238  34.737  1.00  0.00     0.029 A 
ATOM     63  C   UNL A   1      37.715  32.898  34.531  1.00  0.00     0.049 A 
ATOM     64  H   UNL A   1      37.169  31.826  32.801  1.00  0.00     0.167 HD
ATOM     65  C   UNL A   1      38.986  30.796  34.971  1.00  0.00     0.074 A 
ATOM     66  C   UNL A   1      39.157  30.225  33.639  1.00  0.00     0.031 C 
ATOM     67  C   UNL A   1      38.317  31.906  35.410  1.00  0.00     0.034 A 
BRANCH  54  68
ATOM     68  C   UNL A   1      37.834  33.023  30.092  1.00  0.00     0.023 A 
ATOM     69  C   UNL A   1      36.625  33.367  29.465  1.00  0.00     0.031 A 
ATOM     70  C   UNL A   1      38.358  31.754  29.741  1.00  0.00     0.131 A 
ATOM     71  C   UNL A   1      35.922  32.432  28.690  1.00  0.00     0.055 A 
ATOM     72  C   UNL A   1      37.684  30.850  28.916  1.00  0.00     0.041 A 
ATOM     73  F   UNL A   1      39.509  31.269  30.216  1.00  0.00    -0.206 F 
ATOM     74  C   UNL A   1      36.437  31.169  28.419  1.00  0.00     0.022 A 
BRANCH  71  75
ATOM     75  S   UNL A   1      34.230  32.841  28.210  1.00  0.00     0.124 S 
ATOM     76  O   UNL A   1      33.741  31.546  27.749  1.00  0.00    -0.237 OA
ATOM     77  O   UNL A   1      33.677  33.331  29.468  1.00  0.00    -0.237 OA
ATOM     78  O   UNL A   1      34.411  33.851  27.170  1.00  0.00    -0.744 OA
ENDBRANCH  71  75
ENDBRANCH  54  68
BRANCH  55  79
ATOM     79  C   UNL A   1      43.143  28.459  34.857  1.00  0.00     0.023 A 
ATOM     80  C   UNL A   1      42.998  27.268  35.595  1.00  0.00     0.031 A 
ATOM     81  C   UNL A   1      44.024  28.416  33.749  1.00  0.00     0.131 A 
ATOM     82  C   UNL A   1      43.725  26.112  35.224  1.00  0.00     0.055 A 
ATOM     83  C   UNL A   1      44.751  27.278  33.400  1.00  0.00     0.041 A 
ATOM     84  F   UNL A   1      44.148  29.461  32.915  1.00  0.00    -0.206 F 
ATOM     85  C   UNL A   1      44.599  26.115  34.134  1.00  0.00     0.022 A 
BRANCH  82  86
ATOM     86  S   UNL A   1      43.476  24.546  36.120  1.00  0.00     0.124 S 
ATOM     87  O   UNL A   1      44.809  23.958  36.099  1.00  0.00    -0.237 OA
ATOM     88  O   UNL A   1      42.988  25.005  37.415  1.00  0.00    -0.237 OA
ATOM     89  O   UNL A   1      42.483  23.842  35.307  1.00  0.00    -0.744 OA
ENDBRANCH  82  86
ENDBRANCH  55  79
BRANCH  67  90
ATOM     90  C   UNL A   1      38.377  32.250  36.885  1.00  0.00     0.023 A 
ATOM     91  C   UNL A   1      37.436  31.839  37.856  1.00  0.00     0.031 A 
ATOM     92  C   UNL A   1      39.522  32.934  37.336  1.00  0.00     0.131 A 
ATOM     93  C   UNL A   1      37.661  32.124  39.218  1.00  0.00     0.055 A 
ATOM     94  C   UNL A   1      39.749  33.198  38.685  1.00  0.00     0.041 A 
ATOM     95  F   UNL A   1      40.467  33.328  36.466  1.00  0.00    -0.206 F 
ATOM     96  C   UNL A   1      38.814  32.797  39.633  1.00  0.00     0.022 A 
BRANCH  93  97
ATOM     97  S   UNL A   1      36.448  31.631  40.485  1.00  0.00     0.124 S 
ATOM     98  O   UNL A   1      35.339  31.091  39.707  1.00  0.00    -0.237 OA
ATOM     99  O   UNL A   1      37.201  30.666  41.282  1.00  0.00    -0.237 OA
ATOM    100  O   UNL A   1      36.150  32.887  41.177  1.00  0.00    -0.744 OA
ENDBRANCH  93  97
ENDBRANCH  67  90
ENDBRANCH  41  42
ENDBRANCH  34  36
ENDBRANCH  33  34
ENDBRANCH  32  33
ENDBRANCH  31  32
ENDBRANCH  30  31
ENDBRANCH  29  30
ENDBRANCH  28  29
ENDBRANCH   1  28
TORSDOF 28
ENDMDL
