MODEL 1
REMARK VINA RESULT:     -10.6      0.000      0.000
REMARK SMILES O=C(CCc1nc(-c2ccccc2)c(-c2ccccc2)o1)OCCOCCOCCOCCOC(=O)c1ccc(-c2c3nc(c(-c4cc(S(=O)(=O)[O-])ccc4F)c4ccc([nH]4)c(-c4cc(S(=O)(=O)[O-])ccc4F)c4nc(c(-c5cc(S(=O)(=O)[O-])ccc5F)c5ccc2[nH]5)C=C4)C=C3)cc1
REMARK SMILES IDX 28 1 27 2 26 3 25 4 24 5 23 6 22 7 2 8 1 9 3 10 4 11 5 12
REMARK SMILES IDX 6 13 21 14 7 15 14 16 8 17 9 18 13 19 10 20 12 21 11 22
REMARK SMILES IDX 15 23 16 24 20 25 17 26 19 27 18 28 29 29 30 30 31 31 32 32
REMARK SMILES IDX 33 33 34 34 35 35 36 36 37 37 38 38 99 39 39 40 98 41 40 42
REMARK SMILES IDX 41 43 42 44 92 45 43 46 97 47 91 48 93 49 44 50 96 51 90 52
REMARK SMILES IDX 89 53 45 55 77 56 57 57 76 58 58 59 61 60 75 61 94 62 59 63
REMARK SMILES IDX 60 64 74 66 95 67 62 68 46 69 47 70 55 71 48 72 54 73 56 74
REMARK SMILES IDX 53 75 49 76 50 77 51 78 52 79 78 80 79 81 87 82 80 83 86 84
REMARK SMILES IDX 88 85 85 86 81 87 82 88 83 89 84 90 63 91 64 92 72 93 65 94
REMARK SMILES IDX 71 95 73 96 70 97 66 98 67 99 68 100 69 101
REMARK H PARENT 93 54 61 65
REMARK Flexibility Score: inf
ROOT
ATOM      1  O   UNL A   1      36.286  23.296  26.103  1.00  0.00    -0.377 OA
ENDROOT
BRANCH   1   2
ATOM      2  C   UNL A   1      35.095  22.557  26.346  1.00  0.00     0.188 C 
BRANCH   2   3
ATOM      3  C   UNL A   1      33.991  23.388  27.012  1.00  0.00     0.188 C 
BRANCH   3   4
ATOM      4  O   UNL A   1      32.792  22.728  27.379  1.00  0.00    -0.376 OA
BRANCH   4   5
ATOM      5  C   UNL A   1      31.562  23.237  26.882  1.00  0.00     0.202 C 
BRANCH   5   6
ATOM      6  C   UNL A   1      30.888  22.528  25.707  1.00  0.00     0.261 C 
BRANCH   6   7
ATOM      7  O   UNL A   1      31.472  21.295  25.271  1.00  0.00    -0.463 OA
BRANCH   7   8
ATOM      8  C   UNL A   1      32.301  21.123  24.232  1.00  0.00     0.306 C 
ATOM      9  O   UNL A   1      33.366  20.530  24.406  1.00  0.00    -0.252 OA
BRANCH   8  10
ATOM     10  C   UNL A   1      31.980  21.715  22.888  1.00  0.00     0.132 C 
BRANCH  10  11
ATOM     11  C   UNL A   1      32.837  22.897  22.455  1.00  0.00     0.109 C 
BRANCH  11  12
ATOM     12  C   UNL A   1      32.574  24.216  23.104  1.00  0.00     0.196 A 
ATOM     13  N   UNL A   1      33.312  24.933  23.936  1.00  0.00    -0.213 NA
ATOM     14  O   UNL A   1      31.376  24.800  22.793  1.00  0.00    -0.440 OA
ATOM     15  C   UNL A   1      32.480  25.956  24.338  1.00  0.00     0.117 A 
ATOM     16  C   UNL A   1      31.351  25.942  23.546  1.00  0.00     0.162 A 
BRANCH  15  17
ATOM     17  C   UNL A   1      32.695  26.835  25.482  1.00  0.00     0.004 A 
ATOM     18  C   UNL A   1      31.671  27.002  26.433  1.00  0.00     0.010 A 
ATOM     19  C   UNL A   1      33.893  27.531  25.668  1.00  0.00     0.010 A 
ATOM     20  C   UNL A   1      31.807  27.892  27.499  1.00  0.00     0.001 A 
ATOM     21  C   UNL A   1      34.031  28.426  26.742  1.00  0.00     0.001 A 
ATOM     22  C   UNL A   1      32.985  28.615  27.647  1.00  0.00     0.000 A 
ENDBRANCH  15  17
BRANCH  16  23
ATOM     23  C   UNL A   1      30.235  26.836  23.345  1.00  0.00     0.020 A 
ATOM     24  C   UNL A   1      30.380  28.040  22.651  1.00  0.00     0.012 A 
ATOM     25  C   UNL A   1      28.975  26.470  23.842  1.00  0.00     0.012 A 
ATOM     26  C   UNL A   1      29.274  28.868  22.460  1.00  0.00     0.001 A 
ATOM     27  C   UNL A   1      27.875  27.300  23.658  1.00  0.00     0.001 A 
ATOM     28  C   UNL A   1      28.026  28.501  22.968  1.00  0.00     0.000 A 
ENDBRANCH  16  23
ENDBRANCH  11  12
ENDBRANCH  10  11
ENDBRANCH   8  10
ENDBRANCH   7   8
ENDBRANCH   6   7
ENDBRANCH   5   6
ENDBRANCH   4   5
ENDBRANCH   3   4
ENDBRANCH   2   3
ENDBRANCH   1   2
BRANCH   1  29
ATOM     29  C   UNL A   1      37.247  22.641  25.270  1.00  0.00     0.188 C 
BRANCH  29  30
ATOM     30  C   UNL A   1      36.799  21.327  24.583  1.00  0.00     0.188 C 
BRANCH  30  31
ATOM     31  O   UNL A   1      37.684  20.258  24.875  1.00  0.00    -0.376 OA
BRANCH  31  32
ATOM     32  C   UNL A   1      38.876  20.540  25.582  1.00  0.00     0.202 C 
BRANCH  32  33
ATOM     33  C   UNL A   1      39.840  19.384  25.911  1.00  0.00     0.261 C 
BRANCH  33  34
ATOM     34  O   UNL A   1      41.201  19.517  25.474  1.00  0.00    -0.460 OA
BRANCH  34  35
ATOM     35  C   UNL A   1      42.151  19.747  26.409  1.00  0.00     0.338 C 
ATOM     36  O   UNL A   1      43.040  18.977  26.731  1.00  0.00    -0.246 OA
BRANCH  35  37
ATOM     37  C   UNL A   1      42.092  21.192  26.773  1.00  0.00     0.060 A 
ATOM     38  C   UNL A   1      41.871  22.133  25.757  1.00  0.00     0.016 A 
ATOM     39  C   UNL A   1      42.174  21.614  28.105  1.00  0.00     0.016 A 
ATOM     40  C   UNL A   1      41.781  23.495  26.060  1.00  0.00     0.010 A 
ATOM     41  C   UNL A   1      42.108  22.981  28.406  1.00  0.00     0.010 A 
ATOM     42  C   UNL A   1      41.954  23.931  27.379  1.00  0.00    -0.014 A 
BRANCH  42  43
ATOM     43  C   UNL A   1      42.259  25.363  27.642  1.00  0.00     0.031 A 
ATOM     44  C   UNL A   1      43.609  25.871  27.201  1.00  0.00     0.074 A 
ATOM     45  C   UNL A   1      41.376  26.202  28.214  1.00  0.00     0.049 A 
ATOM     46  N   UNL A   1      44.153  27.050  27.359  1.00  0.00    -0.248 NA
ATOM     47  C   UNL A   1      44.460  24.905  26.488  1.00  0.00     0.031 C 
ATOM     48  C   UNL A   1      40.020  25.849  28.629  1.00  0.00     0.029 A 
ATOM     49  N   UNL A   1      41.499  27.528  28.553  1.00  0.00    -0.354 N 
ATOM     50  C   UNL A   1      45.411  26.965  26.769  1.00  0.00     0.074 A 
ATOM     51  C   UNL A   1      45.563  25.609  26.289  1.00  0.00     0.031 C 
ATOM     52  C   UNL A   1      39.439  26.932  29.180  1.00  0.00     0.029 A 
ATOM     53  C   UNL A   1      40.394  28.041  29.194  1.00  0.00     0.049 A 
ATOM     54  H   UNL A   1      42.301  28.061  28.354  1.00  0.00     0.167 HD
ATOM     55  C   UNL A   1      46.351  27.930  26.631  1.00  0.00     0.034 A 
ATOM     56  C   UNL A   1      40.194  29.255  29.753  1.00  0.00     0.034 A 
ATOM     57  C   UNL A   1      46.197  29.272  27.134  1.00  0.00     0.049 A 
ATOM     58  C   UNL A   1      41.301  30.286  29.686  1.00  0.00     0.074 A 
ATOM     59  C   UNL A   1      47.085  30.329  27.053  1.00  0.00     0.029 A 
ATOM     60  N   UNL A   1      45.086  29.737  27.826  1.00  0.00    -0.354 N 
ATOM     61  N   UNL A   1      42.486  30.195  29.126  1.00  0.00    -0.248 NA
ATOM     62  C   UNL A   1      41.039  31.584  30.323  1.00  0.00     0.031 C 
ATOM     63  C   UNL A   1      46.548  31.407  27.764  1.00  0.00     0.029 A 
ATOM     64  C   UNL A   1      45.283  31.054  28.209  1.00  0.00     0.049 A 
ATOM     65  H   UNL A   1      44.278  29.210  28.016  1.00  0.00     0.167 HD
ATOM     66  C   UNL A   1      43.093  31.439  29.312  1.00  0.00     0.074 A 
ATOM     67  C   UNL A   1      42.139  32.261  30.023  1.00  0.00     0.031 C 
ATOM     68  C   UNL A   1      44.323  31.864  28.923  1.00  0.00     0.034 A 
BRANCH  55  69
ATOM     69  C   UNL A   1      47.650  27.540  25.965  1.00  0.00     0.023 A 
ATOM     70  C   UNL A   1      47.858  27.718  24.586  1.00  0.00     0.031 A 
ATOM     71  C   UNL A   1      48.677  26.939  26.714  1.00  0.00     0.131 A 
ATOM     72  C   UNL A   1      49.030  27.233  23.986  1.00  0.00     0.055 A 
ATOM     73  C   UNL A   1      49.878  26.537  26.126  1.00  0.00     0.041 A 
ATOM     74  F   UNL A   1      48.524  26.715  28.028  1.00  0.00    -0.206 F 
ATOM     75  C   UNL A   1      50.053  26.668  24.752  1.00  0.00     0.022 A 
BRANCH  72  76
ATOM     76  S   UNL A   1      49.130  27.205  22.176  1.00  0.00     0.124 S 
ATOM     77  O   UNL A   1      48.364  28.397  21.820  1.00  0.00    -0.237 OA
ATOM     78  O   UNL A   1      50.566  27.276  21.939  1.00  0.00    -0.237 OA
ATOM     79  O   UNL A   1      48.498  25.937  21.817  1.00  0.00    -0.744 OA
ENDBRANCH  72  76
ENDBRANCH  55  69
BRANCH  56  80
ATOM     80  C   UNL A   1      38.920  29.565  30.470  1.00  0.00     0.023 A 
ATOM     81  C   UNL A   1      37.938  30.388  29.894  1.00  0.00     0.031 A 
ATOM     82  C   UNL A   1      38.701  29.103  31.781  1.00  0.00     0.131 A 
ATOM     83  C   UNL A   1      36.809  30.763  30.642  1.00  0.00     0.055 A 
ATOM     84  C   UNL A   1      37.548  29.429  32.498  1.00  0.00     0.041 A 
ATOM     85  F   UNL A   1      39.610  28.321  32.387  1.00  0.00    -0.206 F 
ATOM     86  C   UNL A   1      36.600  30.276  31.934  1.00  0.00     0.022 A 
BRANCH  83  87
ATOM     87  S   UNL A   1      35.661  31.979  29.935  1.00  0.00     0.124 S 
ATOM     88  O   UNL A   1      36.562  33.075  29.601  1.00  0.00    -0.237 OA
ATOM     89  O   UNL A   1      35.097  31.243  28.809  1.00  0.00    -0.237 OA
ATOM     90  O   UNL A   1      34.731  32.245  31.031  1.00  0.00    -0.744 OA
ENDBRANCH  83  87
ENDBRANCH  56  80
BRANCH  68  91
ATOM     91  C   UNL A   1      44.684  33.304  29.210  1.00  0.00     0.023 A 
ATOM     92  C   UNL A   1      44.238  34.361  28.398  1.00  0.00     0.031 A 
ATOM     93  C   UNL A   1      45.489  33.620  30.320  1.00  0.00     0.131 A 
ATOM     94  C   UNL A   1      44.647  35.676  28.675  1.00  0.00     0.055 A 
ATOM     95  C   UNL A   1      45.836  34.935  30.629  1.00  0.00     0.041 A 
ATOM     96  F   UNL A   1      45.948  32.652  31.130  1.00  0.00    -0.206 F 
ATOM     97  C   UNL A   1      45.426  35.971  29.796  1.00  0.00     0.022 A 
BRANCH  94  98
ATOM     98  S   UNL A   1      44.230  36.985  27.490  1.00  0.00     0.124 S 
ATOM     99  O   UNL A   1      45.535  37.303  26.920  1.00  0.00    -0.237 OA
ATOM    100  O   UNL A   1      43.292  36.313  26.599  1.00  0.00    -0.237 OA
ATOM    101  O   UNL A   1      43.647  38.032  28.329  1.00  0.00    -0.744 OA
ENDBRANCH  94  98
ENDBRANCH  68  91
ENDBRANCH  42  43
ENDBRANCH  35  37
ENDBRANCH  34  35
ENDBRANCH  33  34
ENDBRANCH  32  33
ENDBRANCH  31  32
ENDBRANCH  30  31
ENDBRANCH  29  30
ENDBRANCH   1  29
TORSDOF 27
ENDMDL
MODEL 2
REMARK VINA RESULT:     -10.4      1.849      2.846
REMARK SMILES O=C(CCc1nc(-c2ccccc2)c(-c2ccccc2)o1)OCCOCCOCCOCCOC(=O)c1ccc(-c2c3nc(c(-c4cc(S(=O)(=O)[O-])ccc4F)c4ccc([nH]4)c(-c4cc(S(=O)(=O)[O-])ccc4F)c4nc(c(-c5cc(S(=O)(=O)[O-])ccc5F)c5ccc2[nH]5)C=C4)C=C3)cc1
REMARK SMILES IDX 28 1 27 2 26 3 25 4 24 5 23 6 22 7 2 8 1 9 3 10 4 11 5 12
REMARK SMILES IDX 6 13 21 14 7 15 14 16 8 17 9 18 13 19 10 20 12 21 11 22
REMARK SMILES IDX 15 23 16 24 20 25 17 26 19 27 18 28 29 29 30 30 31 31 32 32
REMARK SMILES IDX 33 33 34 34 35 35 36 36 37 37 38 38 99 39 39 40 98 41 40 42
REMARK SMILES IDX 41 43 42 44 92 45 43 46 97 47 91 48 93 49 44 50 96 51 90 52
REMARK SMILES IDX 89 53 45 55 77 56 57 57 76 58 58 59 61 60 75 61 94 62 59 63
REMARK SMILES IDX 60 64 74 66 95 67 62 68 46 69 47 70 55 71 48 72 54 73 56 74
REMARK SMILES IDX 53 75 49 76 50 77 51 78 52 79 78 80 79 81 87 82 80 83 86 84
REMARK SMILES IDX 88 85 85 86 81 87 82 88 83 89 84 90 63 91 64 92 72 93 65 94
REMARK SMILES IDX 71 95 73 96 70 97 66 98 67 99 68 100 69 101
REMARK H PARENT 93 54 61 65
REMARK Flexibility Score: inf
ROOT
ATOM      1  O   UNL A   1      36.383  23.580  26.225  1.00  0.00    -0.377 OA
ENDROOT
BRANCH   1   2
ATOM      2  C   UNL A   1      35.204  22.785  26.271  1.00  0.00     0.188 C 
BRANCH   2   3
ATOM      3  C   UNL A   1      33.944  23.588  26.613  1.00  0.00     0.188 C 
BRANCH   3   4
ATOM      4  O   UNL A   1      32.860  22.901  27.213  1.00  0.00    -0.376 OA
BRANCH   4   5
ATOM      5  C   UNL A   1      31.544  23.197  26.767  1.00  0.00     0.202 C 
BRANCH   5   6
ATOM      6  C   UNL A   1      30.844  22.221  25.822  1.00  0.00     0.261 C 
BRANCH   6   7
ATOM      7  O   UNL A   1      31.630  21.139  25.307  1.00  0.00    -0.463 OA
BRANCH   7   8
ATOM      8  C   UNL A   1      32.399  21.157  24.210  1.00  0.00     0.306 C 
ATOM      9  O   UNL A   1      33.502  20.612  24.241  1.00  0.00    -0.252 OA
BRANCH   8  10
ATOM     10  C   UNL A   1      31.962  21.900  22.978  1.00  0.00     0.132 C 
BRANCH  10  11
ATOM     11  C   UNL A   1      32.684  23.210  22.696  1.00  0.00     0.109 C 
BRANCH  11  12
ATOM     12  C   UNL A   1      32.035  24.472  23.162  1.00  0.00     0.196 A 
ATOM     13  N   UNL A   1      30.912  25.058  22.783  1.00  0.00    -0.213 NA
ATOM     14  O   UNL A   1      32.699  25.147  24.151  1.00  0.00    -0.440 OA
ATOM     15  C   UNL A   1      30.926  26.277  23.427  1.00  0.00     0.117 A 
ATOM     16  C   UNL A   1      31.948  26.273  24.352  1.00  0.00     0.162 A 
BRANCH  15  17
ATOM     17  C   UNL A   1      30.082  27.424  23.107  1.00  0.00     0.004 A 
ATOM     18  C   UNL A   1      28.717  27.399  23.448  1.00  0.00     0.010 A 
ATOM     19  C   UNL A   1      30.585  28.557  22.462  1.00  0.00     0.010 A 
ATOM     20  C   UNL A   1      27.860  28.442  23.092  1.00  0.00     0.001 A 
ATOM     21  C   UNL A   1      29.723  29.607  22.105  1.00  0.00     0.001 A 
ATOM     22  C   UNL A   1      28.362  29.542  22.407  1.00  0.00     0.000 A 
ENDBRANCH  15  17
BRANCH  16  23
ATOM     23  C   UNL A   1      32.350  27.144  25.432  1.00  0.00     0.020 A 
ATOM     24  C   UNL A   1      31.501  27.408  26.510  1.00  0.00     0.012 A 
ATOM     25  C   UNL A   1      33.630  27.717  25.401  1.00  0.00     0.012 A 
ATOM     26  C   UNL A   1      31.932  28.239  27.544  1.00  0.00     0.001 A 
ATOM     27  C   UNL A   1      34.055  28.552  26.429  1.00  0.00     0.001 A 
ATOM     28  C   UNL A   1      33.204  28.813  27.500  1.00  0.00     0.000 A 
ENDBRANCH  16  23
ENDBRANCH  11  12
ENDBRANCH  10  11
ENDBRANCH   8  10
ENDBRANCH   7   8
ENDBRANCH   6   7
ENDBRANCH   5   6
ENDBRANCH   4   5
ENDBRANCH   3   4
ENDBRANCH   2   3
ENDBRANCH   1   2
BRANCH   1  29
ATOM     29  C   UNL A   1      37.399  23.109  25.335  1.00  0.00     0.188 C 
BRANCH  29  30
ATOM     30  C   UNL A   1      36.954  22.133  24.217  1.00  0.00     0.188 C 
BRANCH  30  31
ATOM     31  O   UNL A   1      37.560  20.859  24.366  1.00  0.00    -0.376 OA
BRANCH  31  32
ATOM     32  C   UNL A   1      38.200  20.552  25.590  1.00  0.00     0.202 C 
BRANCH  32  33
ATOM     33  C   UNL A   1      39.239  19.415  25.625  1.00  0.00     0.261 C 
BRANCH  33  34
ATOM     34  O   UNL A   1      40.614  19.774  25.417  1.00  0.00    -0.460 OA
BRANCH  34  35
ATOM     35  C   UNL A   1      41.421  19.854  26.499  1.00  0.00     0.338 C 
ATOM     36  O   UNL A   1      42.148  18.970  26.918  1.00  0.00    -0.246 OA
BRANCH  35  37
ATOM     37  C   UNL A   1      41.478  21.284  26.920  1.00  0.00     0.060 A 
ATOM     38  C   UNL A   1      40.987  22.263  26.043  1.00  0.00     0.016 A 
ATOM     39  C   UNL A   1      41.934  21.655  28.189  1.00  0.00     0.016 A 
ATOM     40  C   UNL A   1      40.997  23.612  26.411  1.00  0.00     0.010 A 
ATOM     41  C   UNL A   1      41.966  23.009  28.549  1.00  0.00     0.010 A 
ATOM     42  C   UNL A   1      41.537  23.997  27.644  1.00  0.00    -0.014 A 
BRANCH  42  43
ATOM     43  C   UNL A   1      41.914  25.419  27.864  1.00  0.00     0.031 A 
ATOM     44  C   UNL A   1      43.285  25.846  27.404  1.00  0.00     0.074 A 
ATOM     45  C   UNL A   1      41.078  26.316  28.417  1.00  0.00     0.049 A 
ATOM     46  N   UNL A   1      43.888  27.000  27.525  1.00  0.00    -0.248 NA
ATOM     47  C   UNL A   1      44.083  24.820  26.714  1.00  0.00     0.031 C 
ATOM     48  C   UNL A   1      39.708  26.044  28.847  1.00  0.00     0.029 A 
ATOM     49  N   UNL A   1      41.268  27.644  28.717  1.00  0.00    -0.354 N 
ATOM     50  C   UNL A   1      45.137  26.836  26.933  1.00  0.00     0.074 A 
ATOM     51  C   UNL A   1      45.218  25.461  26.491  1.00  0.00     0.031 C 
ATOM     52  C   UNL A   1      39.185  27.170  29.369  1.00  0.00     0.029 A 
ATOM     53  C   UNL A   1      40.194  28.230  29.347  1.00  0.00     0.049 A 
ATOM     54  H   UNL A   1      42.094  28.131  28.499  1.00  0.00     0.167 HD
ATOM     55  C   UNL A   1      46.123  27.749  26.763  1.00  0.00     0.034 A 
ATOM     56  C   UNL A   1      40.058  29.468  29.872  1.00  0.00     0.034 A 
ATOM     57  C   UNL A   1      46.039  29.110  27.228  1.00  0.00     0.049 A 
ATOM     58  C   UNL A   1      41.214  30.440  29.771  1.00  0.00     0.074 A 
ATOM     59  C   UNL A   1      46.979  30.119  27.113  1.00  0.00     0.029 A 
ATOM     60  N   UNL A   1      44.957  29.650  27.911  1.00  0.00    -0.354 N 
ATOM     61  N   UNL A   1      42.390  30.274  29.209  1.00  0.00    -0.248 NA
ATOM     62  C   UNL A   1      41.022  31.767  30.372  1.00  0.00     0.031 C 
ATOM     63  C   UNL A   1      46.500  31.242  27.796  1.00  0.00     0.029 A 
ATOM     64  C   UNL A   1      45.222  30.966  28.256  1.00  0.00     0.049 A 
ATOM     65  H   UNL A   1      44.124  29.169  28.120  1.00  0.00     0.167 HD
ATOM     66  C   UNL A   1      43.059  31.490  29.357  1.00  0.00     0.074 A 
ATOM     67  C   UNL A   1      42.152  32.379  30.049  1.00  0.00     0.031 C 
ATOM     68  C   UNL A   1      44.307  31.842  28.951  1.00  0.00     0.034 A 
BRANCH  55  69
ATOM     69  C   UNL A   1      47.397  27.276  26.103  1.00  0.00     0.023 A 
ATOM     70  C   UNL A   1      48.424  26.651  26.834  1.00  0.00     0.031 A 
ATOM     71  C   UNL A   1      47.606  27.494  24.730  1.00  0.00     0.131 A 
ATOM     72  C   UNL A   1      49.639  26.338  26.207  1.00  0.00     0.055 A 
ATOM     73  C   UNL A   1      48.784  27.099  24.093  1.00  0.00     0.041 A 
ATOM     74  F   UNL A   1      46.676  28.112  23.987  1.00  0.00    -0.206 F 
ATOM     75  C   UNL A   1      49.815  26.532  24.835  1.00  0.00     0.022 A 
BRANCH  72  76
ATOM     76  S   UNL A   1      51.038  25.820  27.238  1.00  0.00     0.124 S 
ATOM     77  O   UNL A   1      51.703  24.852  26.368  1.00  0.00    -0.237 OA
ATOM     78  O   UNL A   1      51.749  27.073  27.457  1.00  0.00    -0.237 OA
ATOM     79  O   UNL A   1      50.399  25.248  28.421  1.00  0.00    -0.744 OA
ENDBRANCH  72  76
ENDBRANCH  55  69
BRANCH  56  80
ATOM     80  C   UNL A   1      38.806  29.861  30.586  1.00  0.00     0.023 A 
ATOM     81  C   UNL A   1      37.811  30.623  29.952  1.00  0.00     0.031 A 
ATOM     82  C   UNL A   1      38.620  29.543  31.944  1.00  0.00     0.131 A 
ATOM     83  C   UNL A   1      36.704  31.083  30.685  1.00  0.00     0.055 A 
ATOM     84  C   UNL A   1      37.489  29.952  32.653  1.00  0.00     0.041 A 
ATOM     85  F   UNL A   1      39.543  28.826  32.607  1.00  0.00    -0.206 F 
ATOM     86  C   UNL A   1      36.529  30.740  32.027  1.00  0.00     0.022 A 
BRANCH  83  87
ATOM     87  S   UNL A   1      35.541  32.223  29.883  1.00  0.00     0.124 S 
ATOM     88  O   UNL A   1      34.471  32.296  30.870  1.00  0.00    -0.237 OA
ATOM     89  O   UNL A   1      36.355  33.424  29.727  1.00  0.00    -0.237 OA
ATOM     90  O   UNL A   1      35.199  31.540  28.637  1.00  0.00    -0.744 OA
ENDBRANCH  83  87
ENDBRANCH  56  80
BRANCH  68  91
ATOM     91  C   UNL A   1      44.741  33.270  29.195  1.00  0.00     0.023 A 
ATOM     92  C   UNL A   1      45.428  33.653  30.359  1.00  0.00     0.031 A 
ATOM     93  C   UNL A   1      44.461  34.263  28.238  1.00  0.00     0.131 A 
ATOM     94  C   UNL A   1      45.761  35.002  30.563  1.00  0.00     0.055 A 
ATOM     95  C   UNL A   1      44.854  35.590  28.415  1.00  0.00     0.041 A 
ATOM     96  F   UNL A   1      43.804  33.957  27.107  1.00  0.00    -0.206 F 
ATOM     97  C   UNL A   1      45.496  35.968  29.590  1.00  0.00     0.022 A 
BRANCH  94  98
ATOM     98  S   UNL A   1      46.454  35.496  32.165  1.00  0.00     0.124 S 
ATOM     99  O   UNL A   1      45.258  35.877  32.908  1.00  0.00    -0.237 OA
ATOM    100  O   UNL A   1      47.117  34.275  32.608  1.00  0.00    -0.237 OA
ATOM    101  O   UNL A   1      47.351  36.600  31.824  1.00  0.00    -0.744 OA
ENDBRANCH  94  98
ENDBRANCH  68  91
ENDBRANCH  42  43
ENDBRANCH  35  37
ENDBRANCH  34  35
ENDBRANCH  33  34
ENDBRANCH  32  33
ENDBRANCH  31  32
ENDBRANCH  30  31
ENDBRANCH  29  30
ENDBRANCH   1  29
TORSDOF 27
ENDMDL
MODEL 3
REMARK VINA RESULT:      -9.9      2.858      3.903
REMARK SMILES O=C(CCc1nc(-c2ccccc2)c(-c2ccccc2)o1)OCCOCCOCCOCCOC(=O)c1ccc(-c2c3nc(c(-c4cc(S(=O)(=O)[O-])ccc4F)c4ccc([nH]4)c(-c4cc(S(=O)(=O)[O-])ccc4F)c4nc(c(-c5cc(S(=O)(=O)[O-])ccc5F)c5ccc2[nH]5)C=C4)C=C3)cc1
REMARK SMILES IDX 28 1 27 2 26 3 25 4 24 5 23 6 22 7 2 8 1 9 3 10 4 11 5 12
REMARK SMILES IDX 6 13 21 14 7 15 14 16 8 17 9 18 13 19 10 20 12 21 11 22
REMARK SMILES IDX 15 23 16 24 20 25 17 26 19 27 18 28 29 29 30 30 31 31 32 32
REMARK SMILES IDX 33 33 34 34 35 35 36 36 37 37 38 38 99 39 39 40 98 41 40 42
REMARK SMILES IDX 41 43 42 44 92 45 43 46 97 47 91 48 93 49 44 50 96 51 90 52
REMARK SMILES IDX 89 53 45 55 77 56 57 57 76 58 58 59 61 60 75 61 94 62 59 63
REMARK SMILES IDX 60 64 74 66 95 67 62 68 46 69 47 70 55 71 48 72 54 73 56 74
REMARK SMILES IDX 53 75 49 76 50 77 51 78 52 79 78 80 79 81 87 82 80 83 86 84
REMARK SMILES IDX 88 85 85 86 81 87 82 88 83 89 84 90 63 91 64 92 72 93 65 94
REMARK SMILES IDX 71 95 73 96 70 97 66 98 67 99 68 100 69 101
REMARK H PARENT 93 54 61 65
REMARK Flexibility Score: inf
ROOT
ATOM      1  O   UNL A   1      35.243  23.655  25.243  1.00  0.00    -0.377 OA
ENDROOT
BRANCH   1   2
ATOM      2  C   UNL A   1      34.808  23.161  26.504  1.00  0.00     0.188 C 
BRANCH   2   3
ATOM      3  C   UNL A   1      33.499  23.797  26.986  1.00  0.00     0.188 C 
BRANCH   3   4
ATOM      4  O   UNL A   1      32.464  22.936  27.426  1.00  0.00    -0.376 OA
BRANCH   4   5
ATOM      5  C   UNL A   1      31.167  23.101  26.870  1.00  0.00     0.202 C 
BRANCH   5   6
ATOM      6  C   UNL A   1      30.738  22.204  25.708  1.00  0.00     0.261 C 
BRANCH   6   7
ATOM      7  O   UNL A   1      31.646  21.164  25.322  1.00  0.00    -0.463 OA
BRANCH   7   8
ATOM      8  C   UNL A   1      32.503  21.188  24.293  1.00  0.00     0.306 C 
ATOM      9  O   UNL A   1      33.624  20.701  24.435  1.00  0.00    -0.252 OA
BRANCH   8  10
ATOM     10  C   UNL A   1      32.136  21.871  23.005  1.00  0.00     0.132 C 
BRANCH  10  11
ATOM     11  C   UNL A   1      32.813  23.209  22.740  1.00  0.00     0.109 C 
BRANCH  11  12
ATOM     12  C   UNL A   1      32.110  24.443  23.201  1.00  0.00     0.196 A 
ATOM     13  N   UNL A   1      30.927  24.936  22.875  1.00  0.00    -0.213 NA
ATOM     14  O   UNL A   1      32.787  25.201  24.117  1.00  0.00    -0.440 OA
ATOM     15  C   UNL A   1      30.897  26.180  23.471  1.00  0.00     0.117 A 
ATOM     16  C   UNL A   1      31.975  26.283  24.325  1.00  0.00     0.162 A 
BRANCH  15  17
ATOM     17  C   UNL A   1      29.958  27.253  23.165  1.00  0.00     0.004 A 
ATOM     18  C   UNL A   1      30.418  28.415  22.518  1.00  0.00     0.010 A 
ATOM     19  C   UNL A   1      28.604  27.172  23.502  1.00  0.00     0.010 A 
ATOM     20  C   UNL A   1      29.569  29.497  22.277  1.00  0.00     0.001 A 
ATOM     21  C   UNL A   1      27.749  28.260  23.258  1.00  0.00     0.001 A 
ATOM     22  C   UNL A   1      28.235  29.424  22.660  1.00  0.00     0.000 A 
ENDBRANCH  15  17
BRANCH  16  23
ATOM     23  C   UNL A   1      32.383  27.224  25.343  1.00  0.00     0.020 A 
ATOM     24  C   UNL A   1      31.612  27.440  26.488  1.00  0.00     0.012 A 
ATOM     25  C   UNL A   1      33.593  27.915  25.181  1.00  0.00     0.012 A 
ATOM     26  C   UNL A   1      32.050  28.342  27.458  1.00  0.00     0.001 A 
ATOM     27  C   UNL A   1      34.024  28.820  26.145  1.00  0.00     0.001 A 
ATOM     28  C   UNL A   1      33.250  29.034  27.283  1.00  0.00     0.000 A 
ENDBRANCH  16  23
ENDBRANCH  11  12
ENDBRANCH  10  11
ENDBRANCH   8  10
ENDBRANCH   7   8
ENDBRANCH   6   7
ENDBRANCH   5   6
ENDBRANCH   4   5
ENDBRANCH   3   4
ENDBRANCH   2   3
ENDBRANCH   1   2
BRANCH   1  29
ATOM     29  C   UNL A   1      36.630  23.459  24.959  1.00  0.00     0.188 C 
BRANCH  29  30
ATOM     30  C   UNL A   1      37.021  22.136  24.251  1.00  0.00     0.188 C 
BRANCH  30  31
ATOM     31  O   UNL A   1      37.889  21.353  25.054  1.00  0.00    -0.376 OA
BRANCH  31  32
ATOM     32  C   UNL A   1      38.648  21.997  26.059  1.00  0.00     0.202 C 
BRANCH  32  33
ATOM     33  C   UNL A   1      39.995  21.384  26.485  1.00  0.00     0.261 C 
BRANCH  33  34
ATOM     34  O   UNL A   1      41.162  21.784  25.751  1.00  0.00    -0.460 OA
BRANCH  34  35
ATOM     35  C   UNL A   1      42.273  22.113  26.451  1.00  0.00     0.338 C 
ATOM     36  O   UNL A   1      43.323  21.493  26.460  1.00  0.00    -0.246 OA
BRANCH  35  37
ATOM     37  C   UNL A   1      42.086  23.495  26.979  1.00  0.00     0.060 A 
ATOM     38  C   UNL A   1      41.794  24.526  26.074  1.00  0.00     0.016 A 
ATOM     39  C   UNL A   1      42.120  23.763  28.352  1.00  0.00     0.016 A 
ATOM     40  C   UNL A   1      41.584  25.831  26.532  1.00  0.00     0.010 A 
ATOM     41  C   UNL A   1      41.933  25.074  28.808  1.00  0.00     0.010 A 
ATOM     42  C   UNL A   1      41.707  26.122  27.897  1.00  0.00    -0.014 A 
BRANCH  42  43
ATOM     43  C   UNL A   1      41.885  27.534  28.329  1.00  0.00     0.031 A 
ATOM     44  C   UNL A   1      43.290  28.081  28.331  1.00  0.00     0.074 A 
ATOM     45  C   UNL A   1      40.852  28.324  28.677  1.00  0.00     0.049 A 
ATOM     46  N   UNL A   1      43.733  29.250  28.716  1.00  0.00    -0.248 NA
ATOM     47  C   UNL A   1      44.336  27.175  27.832  1.00  0.00     0.031 C 
ATOM     48  C   UNL A   1      39.444  27.933  28.659  1.00  0.00     0.029 A 
ATOM     49  N   UNL A   1      40.836  29.623  29.123  1.00  0.00    -0.354 N 
ATOM     50  C   UNL A   1      45.109  29.216  28.510  1.00  0.00     0.074 A 
ATOM     51  C   UNL A   1      45.430  27.898  28.006  1.00  0.00     0.031 C 
ATOM     52  C   UNL A   1      38.701  28.970  29.089  1.00  0.00     0.029 A 
ATOM     53  C   UNL A   1      39.580  30.082  29.450  1.00  0.00     0.049 A 
ATOM     54  H   UNL A   1      41.647  30.175  29.200  1.00  0.00     0.167 HD
ATOM     55  C   UNL A   1      46.023  30.194  28.713  1.00  0.00     0.034 A 
ATOM     56  C   UNL A   1      39.195  31.252  30.006  1.00  0.00     0.034 A 
ATOM     57  C   UNL A   1      45.695  31.496  29.236  1.00  0.00     0.049 A 
ATOM     58  C   UNL A   1      40.247  32.293  30.330  1.00  0.00     0.074 A 
ATOM     59  C   UNL A   1      46.540  32.563  29.485  1.00  0.00     0.029 A 
ATOM     60  N   UNL A   1      44.420  31.904  29.608  1.00  0.00    -0.354 N 
ATOM     61  N   UNL A   1      41.545  32.251  30.130  1.00  0.00    -0.248 NA
ATOM     62  C   UNL A   1      39.778  33.541  30.948  1.00  0.00     0.031 C 
ATOM     63  C   UNL A   1      45.792  33.584  30.081  1.00  0.00     0.029 A 
ATOM     64  C   UNL A   1      44.463  33.192  30.118  1.00  0.00     0.049 A 
ATOM     65  H   UNL A   1      43.606  31.359  29.522  1.00  0.00     0.167 HD
ATOM     66  C   UNL A   1      42.038  33.482  30.565  1.00  0.00     0.074 A 
ATOM     67  C   UNL A   1      40.898  34.245  31.024  1.00  0.00     0.031 C 
ATOM     68  C   UNL A   1      43.317  33.942  30.577  1.00  0.00     0.034 A 
BRANCH  55  69
ATOM     69  C   UNL A   1      47.469  29.862  28.426  1.00  0.00     0.023 A 
ATOM     70  C   UNL A   1      48.311  29.306  29.406  1.00  0.00     0.031 A 
ATOM     71  C   UNL A   1      48.024  30.148  27.166  1.00  0.00     0.131 A 
ATOM     72  C   UNL A   1      49.675  29.125  29.135  1.00  0.00     0.055 A 
ATOM     73  C   UNL A   1      49.364  29.884  26.875  1.00  0.00     0.041 A 
ATOM     74  F   UNL A   1      47.278  30.707  26.201  1.00  0.00    -0.206 F 
ATOM     75  C   UNL A   1      50.201  29.384  27.868  1.00  0.00     0.022 A 
BRANCH  72  76
ATOM     76  S   UNL A   1      50.781  28.697  30.507  1.00  0.00     0.124 S 
ATOM     77  O   UNL A   1      50.359  29.647  31.534  1.00  0.00    -0.237 OA
ATOM     78  O   UNL A   1      50.449  27.300  30.756  1.00  0.00    -0.237 OA
ATOM     79  O   UNL A   1      52.115  28.934  29.959  1.00  0.00    -0.744 OA
ENDBRANCH  72  76
ENDBRANCH  55  69
BRANCH  56  80
ATOM     80  C   UNL A   1      37.762  31.502  30.345  1.00  0.00     0.023 A 
ATOM     81  C   UNL A   1      36.899  32.146  29.443  1.00  0.00     0.031 A 
ATOM     82  C   UNL A   1      37.252  31.166  31.613  1.00  0.00     0.131 A 
ATOM     83  C   UNL A   1      35.592  32.478  29.837  1.00  0.00     0.055 A 
ATOM     84  C   UNL A   1      35.933  31.444  31.979  1.00  0.00     0.041 A 
ATOM     85  F   UNL A   1      38.033  30.558  32.521  1.00  0.00    -0.206 F 
ATOM     86  C   UNL A   1      35.098  32.118  31.093  1.00  0.00     0.022 A 
BRANCH  83  87
ATOM     87  S   UNL A   1      34.572  33.479  28.717  1.00  0.00     0.124 S 
ATOM     88  O   UNL A   1      33.448  33.830  29.576  1.00  0.00    -0.237 OA
ATOM     89  O   UNL A   1      35.482  34.566  28.372  1.00  0.00    -0.237 OA
ATOM     90  O   UNL A   1      34.263  32.559  27.625  1.00  0.00    -0.744 OA
ENDBRANCH  83  87
ENDBRANCH  56  80
BRANCH  68  91
ATOM     91  C   UNL A   1      43.541  35.361  31.049  1.00  0.00     0.023 A 
ATOM     92  C   UNL A   1      43.577  35.697  32.413  1.00  0.00     0.031 A 
ATOM     93  C   UNL A   1      43.725  36.393  30.111  1.00  0.00     0.131 A 
ATOM     94  C   UNL A   1      43.733  37.038  32.799  1.00  0.00     0.055 A 
ATOM     95  C   UNL A   1      43.949  37.714  30.502  1.00  0.00     0.041 A 
ATOM     96  F   UNL A   1      43.698  36.134  28.793  1.00  0.00    -0.206 F 
ATOM     97  C   UNL A   1      43.940  38.045  31.853  1.00  0.00     0.022 A 
BRANCH  94  98
ATOM     98  S   UNL A   1      43.562  37.465  34.554  1.00  0.00     0.124 S 
ATOM     99  O   UNL A   1      44.822  36.980  35.107  1.00  0.00    -0.237 OA
ATOM    100  O   UNL A   1      43.401  38.914  34.509  1.00  0.00    -0.237 OA
ATOM    101  O   UNL A   1      42.374  36.722  34.973  1.00  0.00    -0.744 OA
ENDBRANCH  94  98
ENDBRANCH  68  91
ENDBRANCH  42  43
ENDBRANCH  35  37
ENDBRANCH  34  35
ENDBRANCH  33  34
ENDBRANCH  32  33
ENDBRANCH  31  32
ENDBRANCH  30  31
ENDBRANCH  29  30
ENDBRANCH   1  29
TORSDOF 27
ENDMDL
