MODEL 1
REMARK VINA RESULT:     -10.5      0.000      0.000
REMARK SMILES CC1=C(C)C[C@@H](C(=O)OCCOCCOCCOCCOC(=O)c2ccc(-c3c4nc(c(-c5cc(S(=O)(=O)[O-])ccc5F)c5ccc([nH]5)c(-c5cc(S(=O)(=O)[O-])ccc5F)c5nc(c(-c6cc(S(=O)(=O)[O-])ccc6F)c6ccc3[nH]6)C=C5)C=C4)cc2)[C@H](C(=O)NCc2cccnc2)C1
REMARK SMILES IDX 15 1 14 2 13 3 12 4 11 5 10 6 9 7 7 8 8 9 6 10 1 11 2 12
REMARK SMILES IDX 3 13 98 14 4 15 5 16 87 17 88 18 89 19 90 20 91 22 92 23
REMARK SMILES IDX 93 24 97 25 94 26 96 27 95 28 16 29 17 30 18 31 19 32 20 33
REMARK SMILES IDX 21 34 22 35 23 36 24 37 25 38 86 39 26 40 85 41 27 42 28 43
REMARK SMILES IDX 29 44 79 45 30 46 84 47 78 48 80 49 31 50 83 51 77 52 76 53
REMARK SMILES IDX 32 55 64 56 44 57 63 58 45 59 48 60 62 61 81 62 46 63 47 64
REMARK SMILES IDX 61 66 82 67 49 68 33 69 34 70 42 71 35 72 41 73 43 74 40 75
REMARK SMILES IDX 36 76 37 77 38 78 39 79 65 80 66 81 74 82 67 83 73 84 75 85
REMARK SMILES IDX 72 86 68 87 69 88 70 89 71 90 50 91 51 92 59 93 52 94 58 95
REMARK SMILES IDX 60 96 57 97 53 98 54 99 55 100 56 101
REMARK H PARENT 90 21 80 54 48 65
REMARK Flexibility Score: inf
ROOT
ATOM      1  O   UNL A   1      34.055  33.877  29.985  1.00  0.00    -0.377 OA
ENDROOT
BRANCH   1   2
ATOM      2  C   UNL A   1      35.223  33.803  29.196  1.00  0.00     0.188 C 
BRANCH   2   3
ATOM      3  C   UNL A   1      35.298  32.623  28.221  1.00  0.00     0.188 C 
BRANCH   3   4
ATOM      4  O   UNL A   1      34.502  31.457  28.364  1.00  0.00    -0.376 OA
BRANCH   4   5
ATOM      5  C   UNL A   1      34.618  30.342  27.494  1.00  0.00     0.202 C 
BRANCH   5   6
ATOM      6  C   UNL A   1      33.371  29.588  26.998  1.00  0.00     0.261 C 
BRANCH   6   7
ATOM      7  O   UNL A   1      33.525  28.192  26.662  1.00  0.00    -0.463 OA
BRANCH   7   8
ATOM      8  C   UNL A   1      33.509  27.913  25.341  1.00  0.00     0.310 C 
ATOM      9  O   UNL A   1      33.813  28.720  24.463  1.00  0.00    -0.252 OA
BRANCH   8  10
ATOM     10  C   UNL A   1      32.973  26.536  24.967  1.00  0.00     0.116 C 
ATOM     11  C   UNL A   1      35.176  23.063  23.191  1.00  0.00     0.039 C 
ATOM     12  C   UNL A   1      34.426  24.192  23.851  1.00  0.00    -0.074 C 
ATOM     13  C   UNL A   1      34.485  24.437  25.174  1.00  0.00    -0.073 C 
ATOM     14  C   UNL A   1      33.594  25.004  22.904  1.00  0.00     0.045 C 
ATOM     15  C   UNL A   1      35.316  23.640  26.144  1.00  0.00     0.039 C 
ATOM     16  C   UNL A   1      33.708  25.532  25.850  1.00  0.00     0.046 C 
ATOM     17  C   UNL A   1      32.785  26.164  23.485  1.00  0.00     0.097 C 
BRANCH  17  18
ATOM     18  C   UNL A   1      31.292  26.003  23.137  1.00  0.00     0.224 C 
ATOM     19  O   UNL A   1      30.755  24.890  23.161  1.00  0.00    -0.275 OA
ATOM     20  N   UNL A   1      30.497  27.042  22.766  1.00  0.00    -0.352 N 
ATOM     21  H   UNL A   1      29.610  26.777  22.431  1.00  0.00     0.163 HD
BRANCH  20  22
ATOM     22  C   UNL A   1      30.728  28.468  22.779  1.00  0.00     0.153 C 
BRANCH  22  23
ATOM     23  C   UNL A   1      29.524  29.300  23.126  1.00  0.00    -0.010 A 
ATOM     24  C   UNL A   1      29.697  30.623  23.552  1.00  0.00     0.009 A 
ATOM     25  C   UNL A   1      28.213  28.871  22.947  1.00  0.00     0.116 A 
ATOM     26  C   UNL A   1      28.591  31.444  23.758  1.00  0.00     0.020 A 
ATOM     27  N   UNL A   1      27.120  29.648  23.133  1.00  0.00    -0.264 NA
ATOM     28  C   UNL A   1      27.333  30.919  23.523  1.00  0.00     0.111 A 
ENDBRANCH  22  23
ENDBRANCH  20  22
ENDBRANCH  17  18
ENDBRANCH   8  10
ENDBRANCH   7   8
ENDBRANCH   6   7
ENDBRANCH   5   6
ENDBRANCH   4   5
ENDBRANCH   3   4
ENDBRANCH   2   3
ENDBRANCH   1   2
BRANCH   1  29
ATOM     29  C   UNL A   1      33.410  35.139  30.108  1.00  0.00     0.188 C 
BRANCH  29  30
ATOM     30  C   UNL A   1      33.459  35.820  31.483  1.00  0.00     0.188 C 
BRANCH  30  31
ATOM     31  O   UNL A   1      32.777  35.089  32.493  1.00  0.00    -0.376 OA
BRANCH  31  32
ATOM     32  C   UNL A   1      33.282  33.816  32.877  1.00  0.00     0.202 C 
BRANCH  32  33
ATOM     33  C   UNL A   1      34.671  33.729  33.537  1.00  0.00     0.261 C 
BRANCH  33  34
ATOM     34  O   UNL A   1      35.332  32.450  33.540  1.00  0.00    -0.460 OA
BRANCH  34  35
ATOM     35  C   UNL A   1      36.588  32.368  34.027  1.00  0.00     0.338 C 
ATOM     36  O   UNL A   1      36.965  32.710  35.129  1.00  0.00    -0.246 OA
BRANCH  35  37
ATOM     37  C   UNL A   1      37.402  31.593  33.064  1.00  0.00     0.060 A 
ATOM     38  C   UNL A   1      38.222  30.569  33.555  1.00  0.00     0.016 A 
ATOM     39  C   UNL A   1      37.388  31.890  31.698  1.00  0.00     0.016 A 
ATOM     40  C   UNL A   1      39.075  29.883  32.691  1.00  0.00     0.010 A 
ATOM     41  C   UNL A   1      38.258  31.211  30.836  1.00  0.00     0.010 A 
ATOM     42  C   UNL A   1      39.138  30.237  31.337  1.00  0.00    -0.014 A 
BRANCH  42  43
ATOM     43  C   UNL A   1      40.269  29.730  30.517  1.00  0.00     0.031 A 
ATOM     44  C   UNL A   1      41.522  30.562  30.435  1.00  0.00     0.074 A 
ATOM     45  C   UNL A   1      40.217  28.521  29.929  1.00  0.00     0.049 A 
ATOM     46  N   UNL A   1      42.645  30.318  29.808  1.00  0.00    -0.248 NA
ATOM     47  C   UNL A   1      41.507  31.842  31.162  1.00  0.00     0.031 C 
ATOM     48  C   UNL A   1      39.080  27.602  29.987  1.00  0.00     0.029 A 
ATOM     49  N   UNL A   1      41.150  27.850  29.177  1.00  0.00    -0.354 N 
ATOM     50  C   UNL A   1      43.471  31.406  30.073  1.00  0.00     0.074 A 
ATOM     51  C   UNL A   1      42.702  32.334  30.874  1.00  0.00     0.031 C 
ATOM     52  C   UNL A   1      39.386  26.485  29.305  1.00  0.00     0.029 A 
ATOM     53  C   UNL A   1      40.723  26.622  28.730  1.00  0.00     0.049 A 
ATOM     54  H   UNL A   1      42.042  28.216  28.978  1.00  0.00     0.167 HD
ATOM     55  C   UNL A   1      44.759  31.606  29.699  1.00  0.00     0.034 A 
ATOM     56  C   UNL A   1      41.337  25.721  27.935  1.00  0.00     0.034 A 
ATOM     57  C   UNL A   1      45.510  30.679  28.889  1.00  0.00     0.049 A 
ATOM     58  C   UNL A   1      42.737  26.018  27.443  1.00  0.00     0.074 A 
ATOM     59  C   UNL A   1      46.815  30.787  28.442  1.00  0.00     0.029 A 
ATOM     60  N   UNL A   1      45.021  29.476  28.395  1.00  0.00    -0.354 N 
ATOM     61  N   UNL A   1      43.507  27.051  27.703  1.00  0.00    -0.248 NA
ATOM     62  C   UNL A   1      43.354  25.018  26.562  1.00  0.00     0.031 C 
ATOM     63  C   UNL A   1      47.090  29.691  27.618  1.00  0.00     0.029 A 
ATOM     64  C   UNL A   1      45.987  28.850  27.623  1.00  0.00     0.049 A 
ATOM     65  H   UNL A   1      44.120  29.120  28.568  1.00  0.00     0.167 HD
ATOM     66  C   UNL A   1      44.711  26.802  27.048  1.00  0.00     0.074 A 
ATOM     67  C   UNL A   1      44.572  25.512  26.406  1.00  0.00     0.031 C 
ATOM     68  C   UNL A   1      45.833  27.566  26.980  1.00  0.00     0.034 A 
BRANCH  55  69
ATOM     69  C   UNL A   1      45.416  32.897  30.127  1.00  0.00     0.023 A 
ATOM     70  C   UNL A   1      45.368  34.053  29.328  1.00  0.00     0.031 A 
ATOM     71  C   UNL A   1      46.111  32.970  31.348  1.00  0.00     0.131 A 
ATOM     72  C   UNL A   1      46.050  35.212  29.731  1.00  0.00     0.055 A 
ATOM     73  C   UNL A   1      46.721  34.150  31.780  1.00  0.00     0.041 A 
ATOM     74  F   UNL A   1      46.214  31.891  32.140  1.00  0.00    -0.206 F 
ATOM     75  C   UNL A   1      46.703  35.276  30.964  1.00  0.00     0.022 A 
BRANCH  72  76
ATOM     76  S   UNL A   1      46.185  36.593  28.562  1.00  0.00     0.124 S 
ATOM     77  O   UNL A   1      44.918  37.286  28.779  1.00  0.00    -0.237 OA
ATOM     78  O   UNL A   1      47.380  37.285  29.028  1.00  0.00    -0.237 OA
ATOM     79  O   UNL A   1      46.311  35.933  27.264  1.00  0.00    -0.744 OA
ENDBRANCH  72  76
ENDBRANCH  55  69
BRANCH  56  80
ATOM     80  C   UNL A   1      40.641  24.469  27.512  1.00  0.00     0.023 A 
ATOM     81  C   UNL A   1      41.220  23.206  27.723  1.00  0.00     0.031 A 
ATOM     82  C   UNL A   1      39.428  24.521  26.800  1.00  0.00     0.131 A 
ATOM     83  C   UNL A   1      40.625  22.061  27.171  1.00  0.00     0.055 A 
ATOM     84  C   UNL A   1      38.804  23.372  26.313  1.00  0.00     0.041 A 
ATOM     85  F   UNL A   1      38.832  25.700  26.558  1.00  0.00    -0.206 F 
ATOM     86  C   UNL A   1      39.413  22.132  26.482  1.00  0.00     0.022 A 
BRANCH  83  87
ATOM     87  S   UNL A   1      41.527  20.488  27.256  1.00  0.00     0.124 S 
ATOM     88  O   UNL A   1      41.430  20.018  25.879  1.00  0.00    -0.237 OA
ATOM     89  O   UNL A   1      42.848  20.921  27.696  1.00  0.00    -0.237 OA
ATOM     90  O   UNL A   1      40.768  19.713  28.235  1.00  0.00    -0.744 OA
ENDBRANCH  83  87
ENDBRANCH  56  80
BRANCH  68  91
ATOM     91  C   UNL A   1      47.010  26.993  26.224  1.00  0.00     0.023 A 
ATOM     92  C   UNL A   1      48.063  26.333  26.880  1.00  0.00     0.031 A 
ATOM     93  C   UNL A   1      47.097  27.143  24.828  1.00  0.00     0.131 A 
ATOM     94  C   UNL A   1      49.193  25.923  26.155  1.00  0.00     0.055 A 
ATOM     95  C   UNL A   1      48.186  26.662  24.101  1.00  0.00     0.041 A 
ATOM     96  F   UNL A   1      46.123  27.766  24.144  1.00  0.00    -0.206 F 
ATOM     97  C   UNL A   1      49.252  26.065  24.767  1.00  0.00     0.022 A 
BRANCH  94  98
ATOM     98  S   UNL A   1      50.639  25.322  27.070  1.00  0.00     0.124 S 
ATOM     99  O   UNL A   1      51.039  26.509  27.818  1.00  0.00    -0.237 OA
ATOM    100  O   UNL A   1      50.078  24.232  27.860  1.00  0.00    -0.237 OA
ATOM    101  O   UNL A   1      51.565  24.911  26.016  1.00  0.00    -0.744 OA
ENDBRANCH  94  98
ENDBRANCH  68  91
ENDBRANCH  42  43
ENDBRANCH  35  37
ENDBRANCH  34  35
ENDBRANCH  33  34
ENDBRANCH  32  33
ENDBRANCH  31  32
ENDBRANCH  30  31
ENDBRANCH  29  30
ENDBRANCH   1  29
TORSDOF 26
ENDMDL
MODEL 2
REMARK VINA RESULT:     -10.1      4.015      5.993
REMARK SMILES CC1=C(C)C[C@@H](C(=O)OCCOCCOCCOCCOC(=O)c2ccc(-c3c4nc(c(-c5cc(S(=O)(=O)[O-])ccc5F)c5ccc([nH]5)c(-c5cc(S(=O)(=O)[O-])ccc5F)c5nc(c(-c6cc(S(=O)(=O)[O-])ccc6F)c6ccc3[nH]6)C=C5)C=C4)cc2)[C@H](C(=O)NCc2cccnc2)C1
REMARK SMILES IDX 15 1 14 2 13 3 12 4 11 5 10 6 9 7 7 8 8 9 6 10 1 11 2 12
REMARK SMILES IDX 3 13 98 14 4 15 5 16 87 17 88 18 89 19 90 20 91 22 92 23
REMARK SMILES IDX 93 24 97 25 94 26 96 27 95 28 16 29 17 30 18 31 19 32 20 33
REMARK SMILES IDX 21 34 22 35 23 36 24 37 25 38 86 39 26 40 85 41 27 42 28 43
REMARK SMILES IDX 29 44 79 45 30 46 84 47 78 48 80 49 31 50 83 51 77 52 76 53
REMARK SMILES IDX 32 55 64 56 44 57 63 58 45 59 48 60 62 61 81 62 46 63 47 64
REMARK SMILES IDX 61 66 82 67 49 68 33 69 34 70 42 71 35 72 41 73 43 74 40 75
REMARK SMILES IDX 36 76 37 77 38 78 39 79 65 80 66 81 74 82 67 83 73 84 75 85
REMARK SMILES IDX 72 86 68 87 69 88 70 89 71 90 50 91 51 92 59 93 52 94 58 95
REMARK SMILES IDX 60 96 57 97 53 98 54 99 55 100 56 101
REMARK H PARENT 90 21 80 54 48 65
REMARK Flexibility Score: inf
ROOT
ATOM      1  O   UNL A   1      34.171  32.313  27.726  1.00  0.00    -0.377 OA
ENDROOT
BRANCH   1   2
ATOM      2  C   UNL A   1      33.723  30.977  27.644  1.00  0.00     0.188 C 
BRANCH   2   3
ATOM      3  C   UNL A   1      34.811  29.917  27.442  1.00  0.00     0.188 C 
BRANCH   3   4
ATOM      4  O   UNL A   1      34.552  28.653  26.852  1.00  0.00    -0.376 OA
BRANCH   4   5
ATOM      5  C   UNL A   1      33.289  28.312  26.300  1.00  0.00     0.202 C 
BRANCH   5   6
ATOM      6  C   UNL A   1      33.035  26.919  25.698  1.00  0.00     0.261 C 
BRANCH   6   7
ATOM      7  O   UNL A   1      34.107  26.311  24.946  1.00  0.00    -0.463 OA
BRANCH   7   8
ATOM      8  C   UNL A   1      33.845  25.078  24.464  1.00  0.00     0.310 C 
ATOM      9  O   UNL A   1      33.238  24.864  23.415  1.00  0.00    -0.252 OA
BRANCH   8  10
ATOM     10  C   UNL A   1      34.254  23.919  25.366  1.00  0.00     0.116 C 
ATOM     11  C   UNL A   1      37.648  21.041  24.857  1.00  0.00     0.039 C 
ATOM     12  C   UNL A   1      36.541  22.037  25.088  1.00  0.00    -0.074 C 
ATOM     13  C   UNL A   1      36.753  23.262  25.608  1.00  0.00    -0.073 C 
ATOM     14  C   UNL A   1      35.181  21.533  24.705  1.00  0.00     0.045 C 
ATOM     15  C   UNL A   1      38.107  23.791  25.996  1.00  0.00     0.039 C 
ATOM     16  C   UNL A   1      35.651  24.246  25.883  1.00  0.00     0.046 C 
ATOM     17  C   UNL A   1      33.992  22.470  24.917  1.00  0.00     0.097 C 
BRANCH  17  18
ATOM     18  C   UNL A   1      32.931  21.795  25.808  1.00  0.00     0.224 C 
ATOM     19  O   UNL A   1      32.533  22.343  26.842  1.00  0.00    -0.275 OA
ATOM     20  N   UNL A   1      32.397  20.574  25.537  1.00  0.00    -0.352 N 
ATOM     21  H   UNL A   1      31.846  20.200  26.261  1.00  0.00     0.163 HD
BRANCH  20  22
ATOM     22  C   UNL A   1      32.498  19.730  24.367  1.00  0.00     0.153 C 
BRANCH  22  23
ATOM     23  C   UNL A   1      33.013  18.342  24.632  1.00  0.00    -0.010 A 
ATOM     24  C   UNL A   1      34.300  17.990  24.208  1.00  0.00     0.009 A 
ATOM     25  C   UNL A   1      32.324  17.394  25.382  1.00  0.00     0.116 A 
ATOM     26  C   UNL A   1      34.838  16.752  24.552  1.00  0.00     0.020 A 
ATOM     27  N   UNL A   1      32.823  16.187  25.737  1.00  0.00    -0.264 NA
ATOM     28  C   UNL A   1      34.072  15.898  25.324  1.00  0.00     0.111 A 
ENDBRANCH  22  23
ENDBRANCH  20  22
ENDBRANCH  17  18
ENDBRANCH   8  10
ENDBRANCH   7   8
ENDBRANCH   6   7
ENDBRANCH   5   6
ENDBRANCH   4   5
ENDBRANCH   3   4
ENDBRANCH   2   3
ENDBRANCH   1   2
BRANCH   1  29
ATOM     29  C   UNL A   1      33.207  33.327  27.980  1.00  0.00     0.188 C 
BRANCH  29  30
ATOM     30  C   UNL A   1      33.681  34.565  28.755  1.00  0.00     0.188 C 
BRANCH  30  31
ATOM     31  O   UNL A   1      32.831  34.900  29.845  1.00  0.00    -0.376 OA
BRANCH  31  32
ATOM     32  C   UNL A   1      33.258  35.895  30.766  1.00  0.00     0.202 C 
BRANCH  32  33
ATOM     33  C   UNL A   1      33.990  35.463  32.051  1.00  0.00     0.261 C 
BRANCH  33  34
ATOM     34  O   UNL A   1      35.047  34.495  31.926  1.00  0.00    -0.460 OA
BRANCH  34  35
ATOM     35  C   UNL A   1      34.782  33.202  32.209  1.00  0.00     0.338 C 
ATOM     36  O   UNL A   1      33.706  32.729  32.515  1.00  0.00    -0.246 OA
BRANCH  35  37
ATOM     37  C   UNL A   1      35.986  32.406  31.882  1.00  0.00     0.060 A 
ATOM     38  C   UNL A   1      36.221  31.225  32.598  1.00  0.00     0.016 A 
ATOM     39  C   UNL A   1      36.894  32.831  30.908  1.00  0.00     0.016 A 
ATOM     40  C   UNL A   1      37.394  30.501  32.386  1.00  0.00     0.010 A 
ATOM     41  C   UNL A   1      38.079  32.111  30.708  1.00  0.00     0.010 A 
ATOM     42  C   UNL A   1      38.354  30.969  31.479  1.00  0.00    -0.014 A 
BRANCH  42  43
ATOM     43  C   UNL A   1      39.716  30.374  31.509  1.00  0.00     0.031 A 
ATOM     44  C   UNL A   1      40.683  30.853  32.560  1.00  0.00     0.074 A 
ATOM     45  C   UNL A   1      40.057  29.372  30.678  1.00  0.00     0.049 A 
ATOM     46  N   UNL A   1      41.909  30.467  32.802  1.00  0.00    -0.248 NA
ATOM     47  C   UNL A   1      40.198  31.909  33.463  1.00  0.00     0.031 C 
ATOM     48  C   UNL A   1      39.186  28.786  29.660  1.00  0.00     0.029 A 
ATOM     49  N   UNL A   1      41.226  28.659  30.569  1.00  0.00    -0.354 N 
ATOM     50  C   UNL A   1      42.338  31.224  33.889  1.00  0.00     0.074 A 
ATOM     51  C   UNL A   1      41.258  32.126  34.225  1.00  0.00     0.031 C 
ATOM     52  C   UNL A   1      39.849  27.798  29.034  1.00  0.00     0.029 A 
ATOM     53  C   UNL A   1      41.203  27.705  29.578  1.00  0.00     0.049 A 
ATOM     54  H   UNL A   1      42.007  28.816  31.147  1.00  0.00     0.167 HD
ATOM     55  C   UNL A   1      43.516  31.160  34.556  1.00  0.00     0.034 A 
ATOM     56  C   UNL A   1      42.170  26.867  29.152  1.00  0.00     0.034 A 
ATOM     57  C   UNL A   1      44.590  30.265  34.202  1.00  0.00     0.049 A 
ATOM     58  C   UNL A   1      43.514  26.890  29.847  1.00  0.00     0.074 A 
ATOM     59  C   UNL A   1      45.829  30.125  34.802  1.00  0.00     0.029 A 
ATOM     60  N   UNL A   1      44.557  29.361  33.147  1.00  0.00    -0.354 N 
ATOM     61  N   UNL A   1      43.904  27.611  30.874  1.00  0.00    -0.248 NA
ATOM     62  C   UNL A   1      44.541  25.975  29.333  1.00  0.00     0.031 C 
ATOM     63  C   UNL A   1      46.572  29.196  34.066  1.00  0.00     0.029 A 
ATOM     64  C   UNL A   1      45.765  28.686  33.061  1.00  0.00     0.049 A 
ATOM     65  H   UNL A   1      43.788  29.221  32.549  1.00  0.00     0.167 HD
ATOM     66  C   UNL A   1      45.209  27.205  31.149  1.00  0.00     0.074 A 
ATOM     67  C   UNL A   1      45.525  26.161  30.198  1.00  0.00     0.031 C 
ATOM     68  C   UNL A   1      46.071  27.651  32.101  1.00  0.00     0.034 A 
BRANCH  55  69
ATOM     69  C   UNL A   1      43.717  32.118  35.707  1.00  0.00     0.023 A 
ATOM     70  C   UNL A   1      43.339  31.789  37.020  1.00  0.00     0.031 A 
ATOM     71  C   UNL A   1      44.288  33.384  35.485  1.00  0.00     0.131 A 
ATOM     72  C   UNL A   1      43.480  32.734  38.048  1.00  0.00     0.055 A 
ATOM     73  C   UNL A   1      44.499  34.291  36.527  1.00  0.00     0.041 A 
ATOM     74  F   UNL A   1      44.644  33.765  34.249  1.00  0.00    -0.206 F 
ATOM     75  C   UNL A   1      44.083  33.972  37.815  1.00  0.00     0.022 A 
BRANCH  72  76
ATOM     76  S   UNL A   1      42.746  32.375  39.668  1.00  0.00     0.124 S 
ATOM     77  O   UNL A   1      42.847  33.672  40.331  1.00  0.00    -0.237 OA
ATOM     78  O   UNL A   1      41.400  31.941  39.315  1.00  0.00    -0.237 OA
ATOM     79  O   UNL A   1      43.615  31.335  40.215  1.00  0.00    -0.744 OA
ENDBRANCH  72  76
ENDBRANCH  55  69
BRANCH  56  80
ATOM     80  C   UNL A   1      41.940  25.955  27.991  1.00  0.00     0.023 A 
ATOM     81  C   UNL A   1      41.738  24.577  28.175  1.00  0.00     0.031 A 
ATOM     82  C   UNL A   1      42.017  26.434  26.670  1.00  0.00     0.131 A 
ATOM     83  C   UNL A   1      41.688  23.721  27.064  1.00  0.00     0.055 A 
ATOM     84  C   UNL A   1      41.897  25.587  25.567  1.00  0.00     0.041 A 
ATOM     85  F   UNL A   1      42.219  27.740  26.430  1.00  0.00    -0.206 F 
ATOM     86  C   UNL A   1      41.751  24.217  25.761  1.00  0.00     0.022 A 
BRANCH  83  87
ATOM     87  S   UNL A   1      41.673  21.928  27.350  1.00  0.00     0.124 S 
ATOM     88  O   UNL A   1      42.612  21.798  28.457  1.00  0.00    -0.237 OA
ATOM     89  O   UNL A   1      40.269  21.686  27.665  1.00  0.00    -0.237 OA
ATOM     90  O   UNL A   1      42.128  21.377  26.076  1.00  0.00    -0.744 OA
ENDBRANCH  83  87
ENDBRANCH  56  80
BRANCH  68  91
ATOM     91  C   UNL A   1      47.417  26.969  32.182  1.00  0.00     0.023 A 
ATOM     92  C   UNL A   1      48.492  27.349  31.361  1.00  0.00     0.031 A 
ATOM     93  C   UNL A   1      47.616  25.897  33.072  1.00  0.00     0.131 A 
ATOM     94  C   UNL A   1      49.686  26.611  31.384  1.00  0.00     0.055 A 
ATOM     95  C   UNL A   1      48.833  25.218  33.147  1.00  0.00     0.041 A 
ATOM     96  F   UNL A   1      46.627  25.486  33.882  1.00  0.00    -0.206 F 
ATOM     97  C   UNL A   1      49.870  25.561  32.286  1.00  0.00     0.022 A 
BRANCH  94  98
ATOM     98  S   UNL A   1      50.946  26.961  30.125  1.00  0.00     0.124 S 
ATOM     99  O   UNL A   1      50.429  28.180  29.512  1.00  0.00    -0.237 OA
ATOM    100  O   UNL A   1      52.154  27.115  30.927  1.00  0.00    -0.237 OA
ATOM    101  O   UNL A   1      50.915  25.775  29.271  1.00  0.00    -0.744 OA
ENDBRANCH  94  98
ENDBRANCH  68  91
ENDBRANCH  42  43
ENDBRANCH  35  37
ENDBRANCH  34  35
ENDBRANCH  33  34
ENDBRANCH  32  33
ENDBRANCH  31  32
ENDBRANCH  30  31
ENDBRANCH  29  30
ENDBRANCH   1  29
TORSDOF 26
ENDMDL
MODEL 3
REMARK VINA RESULT:      -9.7      3.829      6.139
REMARK SMILES CC1=C(C)C[C@@H](C(=O)OCCOCCOCCOCCOC(=O)c2ccc(-c3c4nc(c(-c5cc(S(=O)(=O)[O-])ccc5F)c5ccc([nH]5)c(-c5cc(S(=O)(=O)[O-])ccc5F)c5nc(c(-c6cc(S(=O)(=O)[O-])ccc6F)c6ccc3[nH]6)C=C5)C=C4)cc2)[C@H](C(=O)NCc2cccnc2)C1
REMARK SMILES IDX 15 1 14 2 13 3 12 4 11 5 10 6 9 7 7 8 8 9 6 10 1 11 2 12
REMARK SMILES IDX 3 13 98 14 4 15 5 16 87 17 88 18 89 19 90 20 91 22 92 23
REMARK SMILES IDX 93 24 97 25 94 26 96 27 95 28 16 29 17 30 18 31 19 32 20 33
REMARK SMILES IDX 21 34 22 35 23 36 24 37 25 38 86 39 26 40 85 41 27 42 28 43
REMARK SMILES IDX 29 44 79 45 30 46 84 47 78 48 80 49 31 50 83 51 77 52 76 53
REMARK SMILES IDX 32 55 64 56 44 57 63 58 45 59 48 60 62 61 81 62 46 63 47 64
REMARK SMILES IDX 61 66 82 67 49 68 33 69 34 70 42 71 35 72 41 73 43 74 40 75
REMARK SMILES IDX 36 76 37 77 38 78 39 79 65 80 66 81 74 82 67 83 73 84 75 85
REMARK SMILES IDX 72 86 68 87 69 88 70 89 71 90 50 91 51 92 59 93 52 94 58 95
REMARK SMILES IDX 60 96 57 97 53 98 54 99 55 100 56 101
REMARK H PARENT 90 21 80 54 48 65
REMARK Flexibility Score: inf
ROOT
ATOM      1  O   UNL A   1      34.206  32.496  27.726  1.00  0.00    -0.377 OA
ENDROOT
BRANCH   1   2
ATOM      2  C   UNL A   1      33.753  31.165  27.606  1.00  0.00     0.188 C 
BRANCH   2   3
ATOM      3  C   UNL A   1      34.837  30.083  27.635  1.00  0.00     0.188 C 
BRANCH   3   4
ATOM      4  O   UNL A   1      34.625  28.770  27.140  1.00  0.00    -0.376 OA
BRANCH   4   5
ATOM      5  C   UNL A   1      33.331  28.256  26.867  1.00  0.00     0.202 C 
BRANCH   5   6
ATOM      6  C   UNL A   1      33.141  26.836  26.304  1.00  0.00     0.261 C 
BRANCH   6   7
ATOM      7  O   UNL A   1      34.161  26.329  25.417  1.00  0.00    -0.463 OA
BRANCH   7   8
ATOM      8  C   UNL A   1      33.888  25.134  24.851  1.00  0.00     0.310 C 
ATOM      9  O   UNL A   1      33.264  24.997  23.800  1.00  0.00    -0.252 OA
BRANCH   8  10
ATOM     10  C   UNL A   1      34.308  23.912  25.662  1.00  0.00     0.116 C 
ATOM     11  C   UNL A   1      37.613  21.005  24.830  1.00  0.00     0.039 C 
ATOM     12  C   UNL A   1      36.539  22.007  25.170  1.00  0.00    -0.074 C 
ATOM     13  C   UNL A   1      36.799  23.192  25.755  1.00  0.00    -0.073 C 
ATOM     14  C   UNL A   1      35.154  21.555  24.814  1.00  0.00     0.045 C 
ATOM     15  C   UNL A   1      38.180  23.669  26.117  1.00  0.00     0.039 C 
ATOM     16  C   UNL A   1      35.732  24.179  26.138  1.00  0.00     0.046 C 
ATOM     17  C   UNL A   1      33.996  22.500  25.134  1.00  0.00     0.097 C 
BRANCH  17  18
ATOM     18  C   UNL A   1      32.957  21.791  26.027  1.00  0.00     0.224 C 
ATOM     19  O   UNL A   1      32.669  22.242  27.141  1.00  0.00    -0.275 OA
ATOM     20  N   UNL A   1      32.327  20.641  25.667  1.00  0.00    -0.352 N 
ATOM     21  H   UNL A   1      31.805  20.220  26.388  1.00  0.00     0.163 HD
BRANCH  20  22
ATOM     22  C   UNL A   1      32.291  19.929  24.410  1.00  0.00     0.153 C 
BRANCH  22  23
ATOM     23  C   UNL A   1      32.756  18.501  24.479  1.00  0.00    -0.010 A 
ATOM     24  C   UNL A   1      33.445  17.945  23.394  1.00  0.00     0.009 A 
ATOM     25  C   UNL A   1      32.641  17.706  25.615  1.00  0.00     0.116 A 
ATOM     26  C   UNL A   1      33.989  16.666  23.489  1.00  0.00     0.020 A 
ATOM     27  N   UNL A   1      33.165  16.464  25.738  1.00  0.00    -0.264 NA
ATOM     28  C   UNL A   1      33.836  15.977  24.678  1.00  0.00     0.111 A 
ENDBRANCH  22  23
ENDBRANCH  20  22
ENDBRANCH  17  18
ENDBRANCH   8  10
ENDBRANCH   7   8
ENDBRANCH   6   7
ENDBRANCH   5   6
ENDBRANCH   4   5
ENDBRANCH   3   4
ENDBRANCH   2   3
ENDBRANCH   1   2
BRANCH   1  29
ATOM     29  C   UNL A   1      33.235  33.520  27.905  1.00  0.00     0.188 C 
BRANCH  29  30
ATOM     30  C   UNL A   1      33.632  34.717  28.780  1.00  0.00     0.188 C 
BRANCH  30  31
ATOM     31  O   UNL A   1      32.714  34.964  29.838  1.00  0.00    -0.376 OA
BRANCH  31  32
ATOM     32  C   UNL A   1      33.098  35.841  30.889  1.00  0.00     0.202 C 
BRANCH  32  33
ATOM     33  C   UNL A   1      33.791  35.258  32.136  1.00  0.00     0.261 C 
BRANCH  33  34
ATOM     34  O   UNL A   1      35.040  34.567  31.947  1.00  0.00    -0.460 OA
BRANCH  34  35
ATOM     35  C   UNL A   1      35.019  33.237  31.721  1.00  0.00     0.338 C 
ATOM     36  O   UNL A   1      34.037  32.539  31.564  1.00  0.00    -0.246 OA
BRANCH  35  37
ATOM     37  C   UNL A   1      36.411  32.792  31.483  1.00  0.00     0.060 A 
ATOM     38  C   UNL A   1      37.405  33.202  32.381  1.00  0.00     0.016 A 
ATOM     39  C   UNL A   1      36.744  32.010  30.373  1.00  0.00     0.016 A 
ATOM     40  C   UNL A   1      38.741  32.884  32.137  1.00  0.00     0.010 A 
ATOM     41  C   UNL A   1      38.087  31.707  30.121  1.00  0.00     0.010 A 
ATOM     42  C   UNL A   1      39.095  32.182  30.977  1.00  0.00    -0.014 A 
BRANCH  42  43
ATOM     43  C   UNL A   1      40.525  32.142  30.574  1.00  0.00     0.031 A 
ATOM     44  C   UNL A   1      41.153  33.402  30.039  1.00  0.00     0.074 A 
ATOM     45  C   UNL A   1      41.271  31.037  30.759  1.00  0.00     0.049 A 
ATOM     46  N   UNL A   1      42.384  33.620  29.651  1.00  0.00    -0.248 NA
ATOM     47  C   UNL A   1      40.273  34.577  29.931  1.00  0.00     0.031 C 
ATOM     48  C   UNL A   1      40.788  29.777  31.323  1.00  0.00     0.029 A 
ATOM     49  N   UNL A   1      42.600  30.802  30.506  1.00  0.00    -0.354 N 
ATOM     50  C   UNL A   1      42.428  34.957  29.263  1.00  0.00     0.074 A 
ATOM     51  C   UNL A   1      41.089  35.483  29.415  1.00  0.00     0.031 C 
ATOM     52  C   UNL A   1      41.808  28.903  31.377  1.00  0.00     0.029 A 
ATOM     53  C   UNL A   1      43.007  29.526  30.819  1.00  0.00     0.049 A 
ATOM     54  H   UNL A   1      43.205  31.484  30.133  1.00  0.00     0.167 HD
ATOM     55  C   UNL A   1      43.490  35.683  28.837  1.00  0.00     0.034 A 
ATOM     56  C   UNL A   1      44.206  28.928  30.658  1.00  0.00     0.034 A 
ATOM     57  C   UNL A   1      44.818  35.142  28.677  1.00  0.00     0.049 A 
ATOM     58  C   UNL A   1      45.349  29.732  30.080  1.00  0.00     0.074 A 
ATOM     59  C   UNL A   1      45.963  35.784  28.242  1.00  0.00     0.029 A 
ATOM     60  N   UNL A   1      45.177  33.826  28.939  1.00  0.00    -0.354 N 
ATOM     61  N   UNL A   1      45.376  30.996  29.718  1.00  0.00    -0.248 NA
ATOM     62  C   UNL A   1      46.628  29.032  29.903  1.00  0.00     0.031 C 
ATOM     63  C   UNL A   1      46.994  34.842  28.167  1.00  0.00     0.029 A 
ATOM     64  C   UNL A   1      46.517  33.630  28.643  1.00  0.00     0.049 A 
ATOM     65  H   UNL A   1      44.569  33.133  29.284  1.00  0.00     0.167 HD
ATOM     66  C   UNL A   1      46.685  31.246  29.309  1.00  0.00     0.074 A 
ATOM     67  C   UNL A   1      47.418  30.011  29.494  1.00  0.00     0.031 C 
ATOM     68  C   UNL A   1      47.235  32.390  28.824  1.00  0.00     0.034 A 
BRANCH  55  69
ATOM     69  C   UNL A   1      43.245  37.128  28.471  1.00  0.00     0.023 A 
ATOM     70  C   UNL A   1      43.427  38.168  29.398  1.00  0.00     0.031 A 
ATOM     71  C   UNL A   1      42.811  37.468  27.177  1.00  0.00     0.131 A 
ATOM     72  C   UNL A   1      43.122  39.490  29.037  1.00  0.00     0.055 A 
ATOM     73  C   UNL A   1      42.585  38.794  26.800  1.00  0.00     0.041 A 
ATOM     74  F   UNL A   1      42.592  36.515  26.258  1.00  0.00    -0.206 F 
ATOM     75  C   UNL A   1      42.729  39.813  27.736  1.00  0.00     0.022 A 
BRANCH  72  76
ATOM     76  S   UNL A   1      43.120  40.766  30.326  1.00  0.00     0.124 S 
ATOM     77  O   UNL A   1      43.898  40.120  31.381  1.00  0.00    -0.237 OA
ATOM     78  O   UNL A   1      43.762  41.892  29.658  1.00  0.00    -0.237 OA
ATOM     79  O   UNL A   1      41.702  40.945  30.630  1.00  0.00    -0.744 OA
ENDBRANCH  72  76
ENDBRANCH  55  69
BRANCH  56  80
ATOM     80  C   UNL A   1      44.399  27.488  31.006  1.00  0.00     0.023 A 
ATOM     81  C   UNL A   1      44.267  26.479  30.037  1.00  0.00     0.031 A 
ATOM     82  C   UNL A   1      44.625  27.091  32.337  1.00  0.00     0.131 A 
ATOM     83  C   UNL A   1      44.291  25.130  30.422  1.00  0.00     0.055 A 
ATOM     84  C   UNL A   1      44.718  25.748  32.704  1.00  0.00     0.041 A 
ATOM     85  F   UNL A   1      44.751  28.009  33.309  1.00  0.00    -0.206 F 
ATOM     86  C   UNL A   1      44.532  24.756  31.745  1.00  0.00     0.022 A 
BRANCH  83  87
ATOM     87  S   UNL A   1      43.873  23.867  29.187  1.00  0.00     0.124 S 
ATOM     88  O   UNL A   1      44.238  22.640  29.884  1.00  0.00    -0.237 OA
ATOM     89  O   UNL A   1      42.445  24.096  28.994  1.00  0.00    -0.237 OA
ATOM     90  O   UNL A   1      44.718  24.214  28.047  1.00  0.00    -0.744 OA
ENDBRANCH  83  87
ENDBRANCH  56  80
BRANCH  68  91
ATOM     91  C   UNL A   1      48.714  32.362  28.511  1.00  0.00     0.023 A 
ATOM     92  C   UNL A   1      49.682  32.701  29.472  1.00  0.00     0.031 A 
ATOM     93  C   UNL A   1      49.159  32.026  27.219  1.00  0.00     0.131 A 
ATOM     94  C   UNL A   1      51.035  32.778  29.106  1.00  0.00     0.055 A 
ATOM     95  C   UNL A   1      50.513  32.027  26.883  1.00  0.00     0.041 A 
ATOM     96  F   UNL A   1      48.282  31.694  26.257  1.00  0.00    -0.206 F 
ATOM     97  C   UNL A   1      51.459  32.424  27.823  1.00  0.00     0.022 A 
BRANCH  94  98
ATOM     98  S   UNL A   1      52.216  33.476  30.293  1.00  0.00     0.124 S 
ATOM     99  O   UNL A   1      52.312  32.411  31.285  1.00  0.00    -0.237 OA
ATOM    100  O   UNL A   1      53.400  33.687  29.469  1.00  0.00    -0.237 OA
ATOM    101  O   UNL A   1      51.556  34.697  30.755  1.00  0.00    -0.744 OA
ENDBRANCH  94  98
ENDBRANCH  68  91
ENDBRANCH  42  43
ENDBRANCH  35  37
ENDBRANCH  34  35
ENDBRANCH  33  34
ENDBRANCH  32  33
ENDBRANCH  31  32
ENDBRANCH  30  31
ENDBRANCH  29  30
ENDBRANCH   1  29
TORSDOF 26
ENDMDL
