MODEL 1
REMARK VINA RESULT:      -9.7      0.000      0.000
REMARK SMILES O=C(OCCOCCOCCOCCOC(=O)c1cc(-c2ccc[nH]c2=O)ccc1Cl)c1ccc(-c2c3nc(c(-c4cc(S(=O)(=O)[O-])ccc4F)c4ccc([nH]4)c(-c4cc(S(=O)(=O)[O-])ccc4F)c4nc(c(-c5cc(S(=O)(=O)[O-])ccc5F)c5ccc2[nH]5)C=C4)C=C3)cc1
REMARK SMILES IDX 8 1 7 2 6 3 5 4 4 5 3 6 2 7 1 8 32 9 33 10 94 11 34 12 93 13
REMARK SMILES IDX 35 14 36 15 37 16 87 17 38 18 92 19 86 20 88 21 39 22 91 23
REMARK SMILES IDX 85 24 84 25 40 27 72 28 52 29 71 30 53 31 56 32 70 33 89 34
REMARK SMILES IDX 54 35 55 36 69 38 90 39 57 40 41 41 42 42 50 43 43 44 49 45
REMARK SMILES IDX 51 46 48 47 44 48 45 49 46 50 47 51 73 52 74 53 82 54 75 55
REMARK SMILES IDX 81 56 83 57 80 58 76 59 77 60 78 61 79 62 58 63 59 64 67 65
REMARK SMILES IDX 60 66 66 67 68 68 65 69 61 70 62 71 63 72 64 73 9 74 10 75
REMARK SMILES IDX 11 76 12 77 13 78 14 79 15 80 16 81 17 82 18 83 19 84 30 85
REMARK SMILES IDX 20 86 29 87 31 88 28 89 21 90 22 91 26 92 23 93 25 94 27 95
REMARK SMILES IDX 24 96
REMARK H PARENT 88 26 56 37 25 97
REMARK Flexibility Score: inf
ROOT
ATOM      1  C   UNL A   1      30.704  26.623  25.735  1.00  0.00     0.188 C 
ENDROOT
BRANCH   1   2
ATOM      2  C   UNL A   1      31.451  27.654  26.579  1.00  0.00     0.188 C 
BRANCH   2   3
ATOM      3  O   UNL A   1      32.793  27.228  26.786  1.00  0.00    -0.376 OA
BRANCH   3   4
ATOM      4  C   UNL A   1      33.811  28.218  26.866  1.00  0.00     0.202 C 
BRANCH   4   5
ATOM      5  C   UNL A   1      33.376  29.669  26.648  1.00  0.00     0.261 C 
BRANCH   5   6
ATOM      6  O   UNL A   1      34.408  30.641  26.886  1.00  0.00    -0.460 OA
BRANCH   6   7
ATOM      7  C   UNL A   1      34.841  31.127  28.078  1.00  0.00     0.338 C 
ATOM      8  O   UNL A   1      34.114  31.894  28.707  1.00  0.00    -0.246 OA
BRANCH   7   9
ATOM      9  C   UNL A   1      36.154  30.759  28.670  1.00  0.00     0.060 A 
ATOM     10  C   UNL A   1      37.311  31.524  28.544  1.00  0.00     0.016 A 
ATOM     11  C   UNL A   1      36.207  29.619  29.480  1.00  0.00     0.016 A 
ATOM     12  C   UNL A   1      38.531  31.085  29.027  1.00  0.00     0.010 A 
ATOM     13  C   UNL A   1      37.415  29.216  30.058  1.00  0.00     0.010 A 
ATOM     14  C   UNL A   1      38.597  29.915  29.772  1.00  0.00    -0.014 A 
BRANCH  14  15
ATOM     15  C   UNL A   1      39.932  29.345  30.047  1.00  0.00     0.031 A 
ATOM     16  C   UNL A   1      40.689  29.897  31.220  1.00  0.00     0.074 A 
ATOM     17  C   UNL A   1      40.374  28.268  29.368  1.00  0.00     0.049 A 
ATOM     18  N   UNL A   1      41.912  29.668  31.608  1.00  0.00    -0.248 NA
ATOM     19  C   UNL A   1      39.958  30.851  32.072  1.00  0.00     0.031 C 
ATOM     20  C   UNL A   1      39.628  27.566  28.320  1.00  0.00     0.029 A 
ATOM     21  N   UNL A   1      41.531  27.547  29.489  1.00  0.00    -0.354 N 
ATOM     22  C   UNL A   1      42.120  30.502  32.702  1.00  0.00     0.074 A 
ATOM     23  C   UNL A   1      40.899  31.246  32.910  1.00  0.00     0.031 C 
ATOM     24  C   UNL A   1      40.326  26.486  27.933  1.00  0.00     0.029 A 
ATOM     25  C   UNL A   1      41.608  26.480  28.624  1.00  0.00     0.049 A 
ATOM     26  H   UNL A   1      42.241  27.772  30.132  1.00  0.00     0.167 HD
ATOM     27  C   UNL A   1      43.239  30.631  33.454  1.00  0.00     0.034 A 
ATOM     28  C   UNL A   1      42.627  25.628  28.394  1.00  0.00     0.034 A 
ATOM     29  C   UNL A   1      44.419  29.841  33.217  1.00  0.00     0.049 A 
ATOM     30  C   UNL A   1      43.897  25.848  29.179  1.00  0.00     0.074 A 
ATOM     31  C   UNL A   1      45.651  29.906  33.838  1.00  0.00     0.029 A 
ATOM     32  N   UNL A   1      44.501  28.821  32.272  1.00  0.00    -0.354 N 
ATOM     33  N   UNL A   1      44.139  26.725  30.131  1.00  0.00    -0.248 NA
ATOM     34  C   UNL A   1      45.034  24.985  28.850  1.00  0.00     0.031 C 
ATOM     35  C   UNL A   1      46.493  28.968  33.228  1.00  0.00     0.029 A 
ATOM     36  C   UNL A   1      45.766  28.263  32.278  1.00  0.00     0.049 A 
ATOM     37  H   UNL A   1      43.763  28.537  31.684  1.00  0.00     0.167 HD
ATOM     38  C   UNL A   1      45.453  26.505  30.526  1.00  0.00     0.074 A 
ATOM     39  C   UNL A   1      45.939  25.396  29.726  1.00  0.00     0.031 C 
ATOM     40  C   UNL A   1      46.202  27.156  31.455  1.00  0.00     0.034 A 
BRANCH  27  41
ATOM     41  C   UNL A   1      43.241  31.735  34.486  1.00  0.00     0.023 A 
ATOM     42  C   UNL A   1      42.648  31.582  35.753  1.00  0.00     0.031 A 
ATOM     43  C   UNL A   1      43.728  33.009  34.141  1.00  0.00     0.131 A 
ATOM     44  C   UNL A   1      42.457  32.703  36.577  1.00  0.00     0.055 A 
ATOM     45  C   UNL A   1      43.621  34.100  35.006  1.00  0.00     0.041 A 
ATOM     46  F   UNL A   1      44.275  33.228  32.935  1.00  0.00    -0.206 F 
ATOM     47  C   UNL A   1      42.962  33.957  36.223  1.00  0.00     0.022 A 
BRANCH  44  48
ATOM     48  S   UNL A   1      41.370  32.544  38.023  1.00  0.00     0.124 S 
ATOM     49  O   UNL A   1      41.209  33.940  38.426  1.00  0.00    -0.237 OA
ATOM     50  O   UNL A   1      40.187  31.903  37.462  1.00  0.00    -0.237 OA
ATOM     51  O   UNL A   1      42.147  31.723  38.950  1.00  0.00    -0.744 OA
ENDBRANCH  44  48
ENDBRANCH  27  41
BRANCH  28  52
ATOM     52  C   UNL A   1      42.526  24.565  27.349  1.00  0.00     0.023 A 
ATOM     53  C   UNL A   1      41.831  23.368  27.588  1.00  0.00     0.031 A 
ATOM     54  C   UNL A   1      43.166  24.708  26.102  1.00  0.00     0.131 A 
ATOM     55  C   UNL A   1      41.823  22.352  26.616  1.00  0.00     0.055 A 
ATOM     56  C   UNL A   1      43.104  23.721  25.116  1.00  0.00     0.041 A 
ATOM     57  F   UNL A   1      43.858  25.822  25.815  1.00  0.00    -0.206 F 
ATOM     58  C   UNL A   1      42.441  22.529  25.376  1.00  0.00     0.022 A 
BRANCH  55  59
ATOM     59  S   UNL A   1      41.069  20.754  27.029  1.00  0.00     0.124 S 
ATOM     60  O   UNL A   1      40.724  20.942  28.434  1.00  0.00    -0.237 OA
ATOM     61  O   UNL A   1      39.950  20.697  26.095  1.00  0.00    -0.237 OA
ATOM     62  O   UNL A   1      42.142  19.795  26.774  1.00  0.00    -0.744 OA
ENDBRANCH  55  59
ENDBRANCH  28  52
BRANCH  40  63
ATOM     63  C   UNL A   1      47.597  26.636  31.671  1.00  0.00     0.023 A 
ATOM     64  C   UNL A   1      47.860  25.580  32.559  1.00  0.00     0.031 A 
ATOM     65  C   UNL A   1      48.678  27.222  30.990  1.00  0.00     0.131 A 
ATOM     66  C   UNL A   1      49.183  25.184  32.793  1.00  0.00     0.055 A 
ATOM     67  C   UNL A   1      49.986  26.778  31.178  1.00  0.00     0.041 A 
ATOM     68  F   UNL A   1      48.478  28.234  30.132  1.00  0.00    -0.206 F 
ATOM     69  C   UNL A   1      50.246  25.763  32.095  1.00  0.00     0.022 A 
BRANCH  66  70
ATOM     70  S   UNL A   1      49.505  23.974  34.104  1.00  0.00     0.124 S 
ATOM     71  O   UNL A   1      48.155  23.645  34.551  1.00  0.00    -0.237 OA
ATOM     72  O   UNL A   1      50.214  22.919  33.388  1.00  0.00    -0.237 OA
ATOM     73  O   UNL A   1      50.313  24.720  35.067  1.00  0.00    -0.744 OA
ENDBRANCH  66  70
ENDBRANCH  40  63
ENDBRANCH  14  15
ENDBRANCH   7   9
ENDBRANCH   6   7
ENDBRANCH   5   6
ENDBRANCH   4   5
ENDBRANCH   3   4
ENDBRANCH   2   3
ENDBRANCH   1   2
BRANCH   1  74
ATOM     74  O   UNL A   1      30.501  25.370  26.383  1.00  0.00    -0.377 OA
BRANCH  74  75
ATOM     75  C   UNL A   1      30.643  24.217  25.560  1.00  0.00     0.188 C 
BRANCH  75  76
ATOM     76  C   UNL A   1      30.548  22.816  26.206  1.00  0.00     0.188 C 
BRANCH  76  77
ATOM     77  O   UNL A   1      31.808  22.202  26.432  1.00  0.00    -0.376 OA
BRANCH  77  78
ATOM     78  C   UNL A   1      32.637  22.861  27.383  1.00  0.00     0.202 C 
BRANCH  78  79
ATOM     79  C   UNL A   1      34.093  23.077  26.947  1.00  0.00     0.261 C 
BRANCH  79  80
ATOM     80  O   UNL A   1      34.262  23.760  25.691  1.00  0.00    -0.460 OA
BRANCH  80  81
ATOM     81  C   UNL A   1      35.045  23.223  24.728  1.00  0.00     0.339 C 
ATOM     82  O   UNL A   1      36.249  23.347  24.602  1.00  0.00    -0.246 OA
BRANCH  81  83
ATOM     83  C   UNL A   1      34.194  22.264  23.982  1.00  0.00     0.079 A 
ATOM     84  C   UNL A   1      34.348  20.886  24.255  1.00  0.00     0.026 A 
ATOM     85  C   UNL A   1      33.117  22.707  23.204  1.00  0.00     0.055 A 
ATOM     86  C   UNL A   1      33.368  19.971  23.835  1.00  0.00    -0.012 A 
ATOM     87  C   UNL A   1      32.179  21.784  22.735  1.00  0.00     0.022 A 
ATOM     88  Cl  UNL A   1      32.876  24.369  22.804  1.00  0.00    -0.083 Cl
ATOM     89  C   UNL A   1      32.293  20.431  23.064  1.00  0.00     0.010 A 
BRANCH  86  90
ATOM     90  C   UNL A   1      33.354  18.569  24.292  1.00  0.00     0.047 A 
ATOM     91  C   UNL A   1      33.848  17.593  23.503  1.00  0.00     0.016 A 
ATOM     92  C   UNL A   1      32.923  18.202  25.683  1.00  0.00     0.255 A 
ATOM     93  C   UNL A   1      33.944  16.223  23.956  1.00  0.00     0.019 A 
ATOM     94  N   UNL A   1      33.062  16.875  26.029  1.00  0.00    -0.329 N 
ATOM     95  O   UNL A   1      32.496  19.031  26.480  1.00  0.00    -0.269 OA
ATOM     96  C   UNL A   1      33.558  15.906  25.197  1.00  0.00     0.086 A 
ATOM     97  H   UNL A   1      32.787  16.604  26.936  1.00  0.00     0.169 HD
ENDBRANCH  86  90
ENDBRANCH  81  83
ENDBRANCH  80  81
ENDBRANCH  79  80
ENDBRANCH  78  79
ENDBRANCH  77  78
ENDBRANCH  76  77
ENDBRANCH  75  76
ENDBRANCH  74  75
ENDBRANCH   1  74
TORSDOF 24
ENDMDL
MODEL 2
REMARK VINA RESULT:      -9.6      3.794      5.520
REMARK SMILES O=C(OCCOCCOCCOCCOC(=O)c1cc(-c2ccc[nH]c2=O)ccc1Cl)c1ccc(-c2c3nc(c(-c4cc(S(=O)(=O)[O-])ccc4F)c4ccc([nH]4)c(-c4cc(S(=O)(=O)[O-])ccc4F)c4nc(c(-c5cc(S(=O)(=O)[O-])ccc5F)c5ccc2[nH]5)C=C4)C=C3)cc1
REMARK SMILES IDX 8 1 7 2 6 3 5 4 4 5 3 6 2 7 1 8 32 9 33 10 94 11 34 12 93 13
REMARK SMILES IDX 35 14 36 15 37 16 87 17 38 18 92 19 86 20 88 21 39 22 91 23
REMARK SMILES IDX 85 24 84 25 40 27 72 28 52 29 71 30 53 31 56 32 70 33 89 34
REMARK SMILES IDX 54 35 55 36 69 38 90 39 57 40 41 41 42 42 50 43 43 44 49 45
REMARK SMILES IDX 51 46 48 47 44 48 45 49 46 50 47 51 73 52 74 53 82 54 75 55
REMARK SMILES IDX 81 56 83 57 80 58 76 59 77 60 78 61 79 62 58 63 59 64 67 65
REMARK SMILES IDX 60 66 66 67 68 68 65 69 61 70 62 71 63 72 64 73 9 74 10 75
REMARK SMILES IDX 11 76 12 77 13 78 14 79 15 80 16 81 17 82 18 83 19 84 30 85
REMARK SMILES IDX 20 86 29 87 31 88 28 89 21 90 22 91 26 92 23 93 25 94 27 95
REMARK SMILES IDX 24 96
REMARK H PARENT 88 26 56 37 25 97
REMARK Flexibility Score: inf
ROOT
ATOM      1  C   UNL A   1      34.205  31.588  28.238  1.00  0.00     0.188 C 
ENDROOT
BRANCH   1   2
ATOM      2  C   UNL A   1      35.135  32.796  28.139  1.00  0.00     0.188 C 
BRANCH   2   3
ATOM      3  O   UNL A   1      34.422  33.914  27.619  1.00  0.00    -0.376 OA
BRANCH   3   4
ATOM      4  C   UNL A   1      33.184  34.265  28.222  1.00  0.00     0.202 C 
BRANCH   4   5
ATOM      5  C   UNL A   1      33.202  35.451  29.189  1.00  0.00     0.261 C 
BRANCH   5   6
ATOM      6  O   UNL A   1      32.442  35.250  30.392  1.00  0.00    -0.460 OA
BRANCH   6   7
ATOM      7  C   UNL A   1      32.805  35.536  31.669  1.00  0.00     0.338 C 
ATOM      8  O   UNL A   1      32.120  36.322  32.321  1.00  0.00    -0.246 OA
BRANCH   7   9
ATOM      9  C   UNL A   1      33.991  34.926  32.326  1.00  0.00     0.060 A 
ATOM     10  C   UNL A   1      35.254  35.511  32.362  1.00  0.00     0.016 A 
ATOM     11  C   UNL A   1      33.802  33.731  33.031  1.00  0.00     0.016 A 
ATOM     12  C   UNL A   1      36.347  34.854  32.898  1.00  0.00     0.010 A 
ATOM     13  C   UNL A   1      34.880  33.104  33.663  1.00  0.00     0.010 A 
ATOM     14  C   UNL A   1      36.173  33.632  33.535  1.00  0.00    -0.014 A 
BRANCH  14  15
ATOM     15  C   UNL A   1      37.379  32.844  33.861  1.00  0.00     0.031 A 
ATOM     16  C   UNL A   1      38.015  33.080  35.201  1.00  0.00     0.074 A 
ATOM     17  C   UNL A   1      37.789  31.847  33.054  1.00  0.00     0.049 A 
ATOM     18  N   UNL A   1      39.134  32.621  35.687  1.00  0.00    -0.248 NA
ATOM     19  C   UNL A   1      37.281  33.969  36.119  1.00  0.00     0.031 C 
ATOM     20  C   UNL A   1      37.128  31.443  31.809  1.00  0.00     0.029 A 
ATOM     21  N   UNL A   1      38.825  30.963  33.179  1.00  0.00    -0.354 N 
ATOM     22  C   UNL A   1      39.274  33.221  36.934  1.00  0.00     0.074 A 
ATOM     23  C   UNL A   1      38.130  34.082  37.125  1.00  0.00     0.031 C 
ATOM     24  C   UNL A   1      37.747  30.357  31.317  1.00  0.00     0.029 A 
ATOM     25  C   UNL A   1      38.905  30.057  32.147  1.00  0.00     0.049 A 
ATOM     26  H   UNL A   1      39.455  30.975  33.936  1.00  0.00     0.167 HD
ATOM     27  C   UNL A   1      40.279  33.065  37.828  1.00  0.00     0.034 A 
ATOM     28  C   UNL A   1      39.842  29.123  31.890  1.00  0.00     0.034 A 
ATOM     29  C   UNL A   1      41.383  32.170  37.596  1.00  0.00     0.049 A 
ATOM     30  C   UNL A   1      41.001  29.029  32.852  1.00  0.00     0.074 A 
ATOM     31  C   UNL A   1      42.511  31.958  38.365  1.00  0.00     0.029 A 
ATOM     32  N   UNL A   1      41.484  31.323  36.494  1.00  0.00    -0.354 N 
ATOM     33  N   UNL A   1      41.201  29.690  33.972  1.00  0.00    -0.248 NA
ATOM     34  C   UNL A   1      42.067  28.083  32.510  1.00  0.00     0.031 C 
ATOM     35  C   UNL A   1      43.319  31.028  37.698  1.00  0.00     0.029 A 
ATOM     36  C   UNL A   1      42.663  30.601  36.552  1.00  0.00     0.049 A 
ATOM     37  H   UNL A   1      40.813  31.248  35.778  1.00  0.00     0.167 HD
ATOM     38  C   UNL A   1      42.409  29.226  34.478  1.00  0.00     0.074 A 
ATOM     39  C   UNL A   1      42.876  28.211  33.552  1.00  0.00     0.031 C 
ATOM     40  C   UNL A   1      43.084  29.600  35.597  1.00  0.00     0.034 A 
BRANCH  27  41
ATOM     41  C   UNL A   1      40.257  33.967  39.041  1.00  0.00     0.023 A 
ATOM     42  C   UNL A   1      39.635  33.594  40.246  1.00  0.00     0.031 A 
ATOM     43  C   UNL A   1      40.752  35.281  38.939  1.00  0.00     0.131 A 
ATOM     44  C   UNL A   1      39.425  34.551  41.252  1.00  0.00     0.055 A 
ATOM     45  C   UNL A   1      40.624  36.201  39.982  1.00  0.00     0.041 A 
ATOM     46  F   UNL A   1      41.326  35.709  37.804  1.00  0.00    -0.206 F 
ATOM     47  C   UNL A   1      39.938  35.845  41.139  1.00  0.00     0.022 A 
BRANCH  44  48
ATOM     48  S   UNL A   1      38.305  34.141  42.622  1.00  0.00     0.124 S 
ATOM     49  O   UNL A   1      37.403  35.292  42.619  1.00  0.00    -0.237 OA
ATOM     50  O   UNL A   1      37.723  32.877  42.189  1.00  0.00    -0.237 OA
ATOM     51  O   UNL A   1      39.192  34.058  43.780  1.00  0.00    -0.744 OA
ENDBRANCH  44  48
ENDBRANCH  27  41
BRANCH  28  52
ATOM     52  C   UNL A   1      39.774  28.276  30.660  1.00  0.00     0.023 A 
ATOM     53  C   UNL A   1      40.463  28.631  29.489  1.00  0.00     0.031 A 
ATOM     54  C   UNL A   1      38.977  27.114  30.620  1.00  0.00     0.131 A 
ATOM     55  C   UNL A   1      40.314  27.859  28.323  1.00  0.00     0.055 A 
ATOM     56  C   UNL A   1      38.881  26.317  29.478  1.00  0.00     0.041 A 
ATOM     57  F   UNL A   1      38.283  26.727  31.702  1.00  0.00    -0.206 F 
ATOM     58  C   UNL A   1      39.542  26.696  28.316  1.00  0.00     0.022 A 
BRANCH  55  59
ATOM     59  S   UNL A   1      41.074  28.447  26.783  1.00  0.00     0.124 S 
ATOM     60  O   UNL A   1      42.276  29.109  27.279  1.00  0.00    -0.237 OA
ATOM     61  O   UNL A   1      41.283  27.201  26.054  1.00  0.00    -0.237 OA
ATOM     62  O   UNL A   1      40.060  29.336  26.221  1.00  0.00    -0.744 OA
ENDBRANCH  55  59
ENDBRANCH  28  52
BRANCH  40  63
ATOM     63  C   UNL A   1      44.364  28.862  35.883  1.00  0.00     0.023 A 
ATOM     64  C   UNL A   1      44.371  27.645  36.582  1.00  0.00     0.031 A 
ATOM     65  C   UNL A   1      45.592  29.400  35.462  1.00  0.00     0.131 A 
ATOM     66  C   UNL A   1      45.592  27.034  36.900  1.00  0.00     0.055 A 
ATOM     67  C   UNL A   1      46.800  28.754  35.723  1.00  0.00     0.041 A 
ATOM     68  F   UNL A   1      45.638  30.562  34.791  1.00  0.00    -0.206 F 
ATOM     69  C   UNL A   1      46.805  27.572  36.459  1.00  0.00     0.022 A 
BRANCH  66  70
ATOM     70  S   UNL A   1      45.578  25.587  37.990  1.00  0.00     0.124 S 
ATOM     71  O   UNL A   1      45.696  26.200  39.309  1.00  0.00    -0.237 OA
ATOM     72  O   UNL A   1      44.288  24.978  37.683  1.00  0.00    -0.237 OA
ATOM     73  O   UNL A   1      46.744  24.820  37.555  1.00  0.00    -0.744 OA
ENDBRANCH  66  70
ENDBRANCH  40  63
ENDBRANCH  14  15
ENDBRANCH   7   9
ENDBRANCH   6   7
ENDBRANCH   5   6
ENDBRANCH   4   5
ENDBRANCH   3   4
ENDBRANCH   2   3
ENDBRANCH   1   2
BRANCH   1  74
ATOM     74  O   UNL A   1      33.777  31.073  26.980  1.00  0.00    -0.377 OA
BRANCH  74  75
ATOM     75  C   UNL A   1      33.635  29.658  26.905  1.00  0.00     0.188 C 
BRANCH  75  76
ATOM     76  C   UNL A   1      32.287  29.061  26.444  1.00  0.00     0.188 C 
BRANCH  76  77
ATOM     77  O   UNL A   1      32.320  27.655  26.247  1.00  0.00    -0.376 OA
BRANCH  77  78
ATOM     78  C   UNL A   1      33.620  27.101  26.077  1.00  0.00     0.202 C 
BRANCH  78  79
ATOM     79  C   UNL A   1      33.837  26.325  24.770  1.00  0.00     0.261 C 
BRANCH  79  80
ATOM     80  O   UNL A   1      33.734  24.893  24.882  1.00  0.00    -0.460 OA
BRANCH  80  81
ATOM     81  C   UNL A   1      34.673  24.100  24.318  1.00  0.00     0.339 C 
ATOM     82  O   UNL A   1      35.876  24.135  24.503  1.00  0.00    -0.246 OA
BRANCH  81  83
ATOM     83  C   UNL A   1      33.941  23.026  23.603  1.00  0.00     0.079 A 
ATOM     84  C   UNL A   1      33.981  21.720  24.143  1.00  0.00     0.026 A 
ATOM     85  C   UNL A   1      33.053  23.325  22.563  1.00  0.00     0.055 A 
ATOM     86  C   UNL A   1      33.062  20.750  23.710  1.00  0.00    -0.012 A 
ATOM     87  C   UNL A   1      32.184  22.338  22.091  1.00  0.00     0.022 A 
ATOM     88  Cl  UNL A   1      32.964  24.887  21.832  1.00  0.00    -0.083 Cl
ATOM     89  C   UNL A   1      32.175  21.068  22.673  1.00  0.00     0.010 A 
BRANCH  86  90
ATOM     90  C   UNL A   1      32.901  19.456  24.399  1.00  0.00     0.047 A 
ATOM     91  C   UNL A   1      32.863  18.310  23.689  1.00  0.00     0.016 A 
ATOM     92  C   UNL A   1      32.910  19.359  25.898  1.00  0.00     0.255 A 
ATOM     93  C   UNL A   1      32.809  17.017  24.335  1.00  0.00     0.019 A 
ATOM     94  N   UNL A   1      32.867  18.085  26.421  1.00  0.00    -0.329 N 
ATOM     95  O   UNL A   1      32.980  20.348  26.621  1.00  0.00    -0.269 OA
ATOM     96  C   UNL A   1      32.818  16.941  25.670  1.00  0.00     0.086 A 
ATOM     97  H   UNL A   1      32.872  17.990  27.402  1.00  0.00     0.169 HD
ENDBRANCH  86  90
ENDBRANCH  81  83
ENDBRANCH  80  81
ENDBRANCH  79  80
ENDBRANCH  78  79
ENDBRANCH  77  78
ENDBRANCH  76  77
ENDBRANCH  75  76
ENDBRANCH  74  75
ENDBRANCH   1  74
TORSDOF 24
ENDMDL
MODEL 3
REMARK VINA RESULT:      -9.5      4.936      8.292
REMARK SMILES O=C(OCCOCCOCCOCCOC(=O)c1cc(-c2ccc[nH]c2=O)ccc1Cl)c1ccc(-c2c3nc(c(-c4cc(S(=O)(=O)[O-])ccc4F)c4ccc([nH]4)c(-c4cc(S(=O)(=O)[O-])ccc4F)c4nc(c(-c5cc(S(=O)(=O)[O-])ccc5F)c5ccc2[nH]5)C=C4)C=C3)cc1
REMARK SMILES IDX 8 1 7 2 6 3 5 4 4 5 3 6 2 7 1 8 32 9 33 10 94 11 34 12 93 13
REMARK SMILES IDX 35 14 36 15 37 16 87 17 38 18 92 19 86 20 88 21 39 22 91 23
REMARK SMILES IDX 85 24 84 25 40 27 72 28 52 29 71 30 53 31 56 32 70 33 89 34
REMARK SMILES IDX 54 35 55 36 69 38 90 39 57 40 41 41 42 42 50 43 43 44 49 45
REMARK SMILES IDX 51 46 48 47 44 48 45 49 46 50 47 51 73 52 74 53 82 54 75 55
REMARK SMILES IDX 81 56 83 57 80 58 76 59 77 60 78 61 79 62 58 63 59 64 67 65
REMARK SMILES IDX 60 66 66 67 68 68 65 69 61 70 62 71 63 72 64 73 9 74 10 75
REMARK SMILES IDX 11 76 12 77 13 78 14 79 15 80 16 81 17 82 18 83 19 84 30 85
REMARK SMILES IDX 20 86 29 87 31 88 28 89 21 90 22 91 26 92 23 93 25 94 27 95
REMARK SMILES IDX 24 96
REMARK H PARENT 88 26 56 37 25 97
REMARK Flexibility Score: inf
ROOT
ATOM      1  C   UNL A   1      34.617  34.175  33.164  1.00  0.00     0.188 C 
ENDROOT
BRANCH   1   2
ATOM      2  C   UNL A   1      34.677  35.180  32.015  1.00  0.00     0.188 C 
BRANCH   2   3
ATOM      3  O   UNL A   1      35.142  34.536  30.833  1.00  0.00    -0.376 OA
BRANCH   3   4
ATOM      4  C   UNL A   1      34.329  33.527  30.250  1.00  0.00     0.202 C 
BRANCH   4   5
ATOM      5  C   UNL A   1      33.748  33.828  28.866  1.00  0.00     0.261 C 
BRANCH   5   6
ATOM      6  O   UNL A   1      34.316  33.049  27.800  1.00  0.00    -0.460 OA
BRANCH   6   7
ATOM      7  C   UNL A   1      34.437  31.699  27.723  1.00  0.00     0.338 C 
ATOM      8  O   UNL A   1      33.462  31.032  27.379  1.00  0.00    -0.246 OA
BRANCH   7   9
ATOM      9  C   UNL A   1      35.707  30.984  28.019  1.00  0.00     0.060 A 
ATOM     10  C   UNL A   1      35.836  29.598  28.055  1.00  0.00     0.016 A 
ATOM     11  C   UNL A   1      36.864  31.754  28.182  1.00  0.00     0.016 A 
ATOM     12  C   UNL A   1      37.015  28.986  28.436  1.00  0.00     0.010 A 
ATOM     13  C   UNL A   1      38.088  31.141  28.470  1.00  0.00     0.010 A 
ATOM     14  C   UNL A   1      38.149  29.754  28.668  1.00  0.00    -0.014 A 
BRANCH  14  15
ATOM     15  C   UNL A   1      39.305  29.103  29.317  1.00  0.00     0.031 A 
ATOM     16  C   UNL A   1      39.646  29.538  30.714  1.00  0.00     0.074 A 
ATOM     17  C   UNL A   1      39.920  28.055  28.737  1.00  0.00     0.049 A 
ATOM     18  N   UNL A   1      40.667  29.225  31.460  1.00  0.00    -0.248 NA
ATOM     19  C   UNL A   1      38.697  30.466  31.353  1.00  0.00     0.031 C 
ATOM     20  C   UNL A   1      39.545  27.462  27.450  1.00  0.00     0.029 A 
ATOM     21  N   UNL A   1      40.955  27.273  29.170  1.00  0.00    -0.354 N 
ATOM     22  C   UNL A   1      40.522  29.971  32.625  1.00  0.00     0.074 A 
ATOM     23  C   UNL A   1      39.319  30.758  32.481  1.00  0.00     0.031 C 
ATOM     24  C   UNL A   1      40.306  26.378  27.227  1.00  0.00     0.029 A 
ATOM     25  C   UNL A   1      41.288  26.264  28.296  1.00  0.00     0.049 A 
ATOM     26  H   UNL A   1      41.419  27.419  30.026  1.00  0.00     0.167 HD
ATOM     27  C   UNL A   1      41.334  29.995  33.708  1.00  0.00     0.034 A 
ATOM     28  C   UNL A   1      42.306  25.382  28.345  1.00  0.00     0.034 A 
ATOM     29  C   UNL A   1      42.508  29.167  33.808  1.00  0.00     0.049 A 
ATOM     30  C   UNL A   1      43.251  25.487  29.516  1.00  0.00     0.074 A 
ATOM     31  C   UNL A   1      43.468  29.131  34.800  1.00  0.00     0.029 A 
ATOM     32  N   UNL A   1      42.872  28.210  32.863  1.00  0.00    -0.354 N 
ATOM     33  N   UNL A   1      43.187  26.284  30.561  1.00  0.00    -0.248 NA
ATOM     34  C   UNL A   1      44.413  24.593  29.508  1.00  0.00     0.031 C 
ATOM     35  C   UNL A   1      44.441  28.196  34.426  1.00  0.00     0.029 A 
ATOM     36  C   UNL A   1      44.052  27.593  33.237  1.00  0.00     0.049 A 
ATOM     37  H   UNL A   1      42.363  28.003  32.046  1.00  0.00     0.167 HD
ATOM     38  C   UNL A   1      44.293  25.975  31.345  1.00  0.00     0.074 A 
ATOM     39  C   UNL A   1      44.989  24.900  30.662  1.00  0.00     0.031 C 
ATOM     40  C   UNL A   1      44.708  26.525  32.517  1.00  0.00     0.034 A 
BRANCH  27  41
ATOM     41  C   UNL A   1      41.022  31.025  34.770  1.00  0.00     0.023 A 
ATOM     42  C   UNL A   1      39.994  30.846  35.713  1.00  0.00     0.031 A 
ATOM     43  C   UNL A   1      41.680  32.269  34.747  1.00  0.00     0.131 A 
ATOM     44  C   UNL A   1      39.581  31.925  36.513  1.00  0.00     0.055 A 
ATOM     45  C   UNL A   1      41.327  33.307  35.611  1.00  0.00     0.041 A 
ATOM     46  F   UNL A   1      42.647  32.514  33.848  1.00  0.00    -0.206 F 
ATOM     47  C   UNL A   1      40.258  33.147  36.486  1.00  0.00     0.022 A 
BRANCH  44  48
ATOM     48  S   UNL A   1      38.028  31.773  37.442  1.00  0.00     0.124 S 
ATOM     49  O   UNL A   1      37.671  30.378  37.193  1.00  0.00    -0.237 OA
ATOM     50  O   UNL A   1      38.440  32.092  38.804  1.00  0.00    -0.237 OA
ATOM     51  O   UNL A   1      37.149  32.755  36.808  1.00  0.00    -0.744 OA
ENDBRANCH  44  48
ENDBRANCH  27  41
BRANCH  28  52
ATOM     52  C   UNL A   1      42.530  24.398  27.242  1.00  0.00     0.023 A 
ATOM     53  C   UNL A   1      41.934  23.126  27.265  1.00  0.00     0.031 A 
ATOM     54  C   UNL A   1      43.388  24.695  26.164  1.00  0.00     0.131 A 
ATOM     55  C   UNL A   1      42.228  22.193  26.255  1.00  0.00     0.055 A 
ATOM     56  C   UNL A   1      43.630  23.786  25.133  1.00  0.00     0.041 A 
ATOM     57  F   UNL A   1      43.999  25.888  26.091  1.00  0.00    -0.206 F 
ATOM     58  C   UNL A   1      43.059  22.521  25.182  1.00  0.00     0.022 A 
BRANCH  55  59
ATOM     59  S   UNL A   1      41.582  20.504  26.413  1.00  0.00     0.124 S 
ATOM     60  O   UNL A   1      42.157  19.855  25.239  1.00  0.00    -0.237 OA
ATOM     61  O   UNL A   1      42.124  20.092  27.703  1.00  0.00    -0.237 OA
ATOM     62  O   UNL A   1      40.133  20.689  26.376  1.00  0.00    -0.744 OA
ENDBRANCH  55  59
ENDBRANCH  28  52
BRANCH  40  63
ATOM     63  C   UNL A   1      45.942  25.924  33.135  1.00  0.00     0.023 A 
ATOM     64  C   UNL A   1      45.872  24.803  33.976  1.00  0.00     0.031 A 
ATOM     65  C   UNL A   1      47.201  26.500  32.889  1.00  0.00     0.131 A 
ATOM     66  C   UNL A   1      47.035  24.328  34.597  1.00  0.00     0.055 A 
ATOM     67  C   UNL A   1      48.364  25.982  33.457  1.00  0.00     0.041 A 
ATOM     68  F   UNL A   1      47.319  27.573  32.092  1.00  0.00    -0.206 F 
ATOM     69  C   UNL A   1      48.283  24.899  34.328  1.00  0.00     0.022 A 
BRANCH  66  70
ATOM     70  S   UNL A   1      46.879  23.023  35.845  1.00  0.00     0.124 S 
ATOM     71  O   UNL A   1      47.860  23.439  36.842  1.00  0.00    -0.237 OA
ATOM     72  O   UNL A   1      45.480  23.136  36.241  1.00  0.00    -0.237 OA
ATOM     73  O   UNL A   1      47.219  21.806  35.110  1.00  0.00    -0.744 OA
ENDBRANCH  66  70
ENDBRANCH  40  63
ENDBRANCH  14  15
ENDBRANCH   7   9
ENDBRANCH   6   7
ENDBRANCH   5   6
ENDBRANCH   4   5
ENDBRANCH   3   4
ENDBRANCH   2   3
ENDBRANCH   1   2
BRANCH   1  74
ATOM     74  O   UNL A   1      35.885  33.653  33.554  1.00  0.00    -0.377 OA
BRANCH  74  75
ATOM     75  C   UNL A   1      36.833  34.610  34.015  1.00  0.00     0.188 C 
BRANCH  75  76
ATOM     76  C   UNL A   1      38.306  34.487  33.564  1.00  0.00     0.188 C 
BRANCH  76  77
ATOM     77  O   UNL A   1      38.466  34.345  32.160  1.00  0.00    -0.376 OA
BRANCH  77  78
ATOM     78  C   UNL A   1      39.815  34.324  31.707  1.00  0.00     0.202 C 
BRANCH  78  79
ATOM     79  C   UNL A   1      39.997  34.355  30.183  1.00  0.00     0.261 C 
BRANCH  79  80
ATOM     80  O   UNL A   1      41.246  33.824  29.702  1.00  0.00    -0.460 OA
BRANCH  80  81
ATOM     81  C   UNL A   1      42.340  34.616  29.639  1.00  0.00     0.339 C 
ATOM     82  O   UNL A   1      42.635  35.526  30.391  1.00  0.00    -0.246 OA
BRANCH  81  83
ATOM     83  C   UNL A   1      43.230  34.021  28.613  1.00  0.00     0.079 A 
ATOM     84  C   UNL A   1      43.883  32.806  28.923  1.00  0.00     0.026 A 
ATOM     85  C   UNL A   1      43.252  34.511  27.302  1.00  0.00     0.055 A 
ATOM     86  C   UNL A   1      44.466  32.038  27.901  1.00  0.00    -0.012 A 
ATOM     87  C   UNL A   1      43.887  33.774  26.300  1.00  0.00     0.022 A 
ATOM     88  Cl  UNL A   1      42.502  35.999  26.849  1.00  0.00    -0.083 Cl
ATOM     89  C   UNL A   1      44.472  32.540  26.593  1.00  0.00     0.010 A 
BRANCH  86  90
ATOM     90  C   UNL A   1      44.946  30.663  28.128  1.00  0.00     0.047 A 
ATOM     91  C   UNL A   1      46.188  30.449  28.608  1.00  0.00     0.016 A 
ATOM     92  C   UNL A   1      44.038  29.478  27.964  1.00  0.00     0.255 A 
ATOM     93  C   UNL A   1      46.658  29.121  28.938  1.00  0.00     0.019 A 
ATOM     94  N   UNL A   1      44.570  28.255  28.315  1.00  0.00    -0.329 N 
ATOM     95  O   UNL A   1      42.882  29.584  27.569  1.00  0.00    -0.269 OA
ATOM     96  C   UNL A   1      45.842  28.073  28.790  1.00  0.00     0.086 A 
ATOM     97  H   UNL A   1      43.997  27.460  28.218  1.00  0.00     0.169 HD
ENDBRANCH  86  90
ENDBRANCH  81  83
ENDBRANCH  80  81
ENDBRANCH  79  80
ENDBRANCH  78  79
ENDBRANCH  77  78
ENDBRANCH  76  77
ENDBRANCH  75  76
ENDBRANCH  74  75
ENDBRANCH   1  74
TORSDOF 24
ENDMDL
