MODEL 1
REMARK VINA RESULT:      -7.1      0.000      0.000
REMARK SMILES O=C(N[C@@H](CC1=c2ccccc2=NC1)C(=O)OCCOCCOCCOCCOC(=O)c1ccc(-c2c3nc(c(-c4cc(S(=O)(=O)[O-])ccc4F)c4ccc([nH]4)c(-c4cc(S(=O)(=O)[O-])ccc4F)c4nc(c(-c5cc(S(=O)(=O)[O-])ccc5F)c5ccc2[nH]5)C=C4)C=C3)cc1)c1ccc(N2CCCCC2=O)cc1
REMARK SMILES IDX 23 1 22 2 21 3 20 4 19 5 18 6 17 7 15 8 16 9 4 10 3 11 1 12
REMARK SMILES IDX 2 13 95 15 96 16 107 17 97 18 106 19 98 20 99 21 100 22
REMARK SMILES IDX 104 23 101 24 103 25 105 26 102 27 5 28 6 29 7 30 14 31 8 32
REMARK SMILES IDX 12 33 13 34 9 35 11 36 10 37 24 38 25 39 26 40 27 41 28 42
REMARK SMILES IDX 29 43 30 44 31 45 32 46 33 47 94 48 34 49 93 50 35 51 36 52
REMARK SMILES IDX 37 53 87 54 38 55 92 56 86 57 88 58 39 59 91 60 85 61 84 62
REMARK SMILES IDX 40 64 72 65 52 66 71 67 53 68 56 69 70 70 89 71 54 72 55 73
REMARK SMILES IDX 69 75 90 76 57 77 41 78 42 79 50 80 43 81 49 82 51 83 48 84
REMARK SMILES IDX 44 85 45 86 46 87 47 88 73 89 74 90 82 91 75 92 81 93 83 94
REMARK SMILES IDX 80 95 76 96 77 97 78 98 79 99 58 100 59 101 67 102 60 103
REMARK SMILES IDX 66 104 68 105 65 106 61 107 62 108 63 109 64 110
REMARK H PARENT 3 14 88 63 56 74
REMARK Flexibility Score: inf
ROOT
ATOM      1  O   UNL A   1      33.191  37.269  31.193  1.00  0.00    -0.377 OA
ENDROOT
BRANCH   1   2
ATOM      2  C   UNL A   1      32.778  36.070  30.560  1.00  0.00     0.188 C 
BRANCH   2   3
ATOM      3  C   UNL A   1      33.181  35.951  29.073  1.00  0.00     0.188 C 
BRANCH   3   4
ATOM      4  O   UNL A   1      34.292  35.156  28.680  1.00  0.00    -0.376 OA
BRANCH   4   5
ATOM      5  C   UNL A   1      34.319  33.798  29.093  1.00  0.00     0.202 C 
BRANCH   5   6
ATOM      6  C   UNL A   1      34.661  33.461  30.551  1.00  0.00     0.261 C 
BRANCH   6   7
ATOM      7  O   UNL A   1      36.057  33.271  30.865  1.00  0.00    -0.462 OA
BRANCH   7   8
ATOM      8  C   UNL A   1      36.440  32.024  31.246  1.00  0.00     0.329 C 
ATOM      9  O   UNL A   1      36.312  31.580  32.385  1.00  0.00    -0.250 OA
BRANCH   8  10
ATOM     10  C   UNL A   1      37.217  31.245  30.162  1.00  0.00     0.196 C 
BRANCH  10  11
ATOM     11  N   UNL A   1      36.484  30.342  29.259  1.00  0.00    -0.338 N 
ATOM     12  O   UNL A   1      36.130  29.089  27.427  1.00  0.00    -0.269 OA
ATOM     13  C   UNL A   1      36.925  29.485  28.279  1.00  0.00     0.251 C 
ATOM     14  H   UNL A   1      35.508  30.353  29.380  1.00  0.00     0.164 HD
BRANCH  13  15
ATOM     15  C   UNL A   1      38.312  28.950  28.234  1.00  0.00     0.039 A 
ATOM     16  C   UNL A   1      39.148  29.285  27.164  1.00  0.00     0.016 A 
ATOM     17  C   UNL A   1      38.725  27.949  29.108  1.00  0.00     0.016 A 
ATOM     18  C   UNL A   1      40.384  28.638  26.991  1.00  0.00     0.027 A 
ATOM     19  C   UNL A   1      39.931  27.266  28.909  1.00  0.00     0.027 A 
ATOM     20  C   UNL A   1      40.779  27.601  27.850  1.00  0.00     0.044 A 
BRANCH  20  21
ATOM     21  N   UNL A   1      42.014  26.901  27.636  1.00  0.00    -0.312 N 
ATOM     22  C   UNL A   1      43.134  27.290  28.498  1.00  0.00     0.125 C 
ATOM     23  C   UNL A   1      42.050  25.733  26.864  1.00  0.00     0.226 C 
ATOM     24  C   UNL A   1      44.494  26.857  27.981  1.00  0.00     0.022 C 
ATOM     25  C   UNL A   1      43.416  25.117  26.602  1.00  0.00     0.101 C 
ATOM     26  O   UNL A   1      41.079  25.252  26.274  1.00  0.00    -0.275 OA
ATOM     27  C   UNL A   1      44.456  25.374  27.670  1.00  0.00     0.012 C 
ENDBRANCH  20  21
ENDBRANCH  13  15
ENDBRANCH  10  11
BRANCH  10  28
ATOM     28  C   UNL A   1      38.027  32.291  29.342  1.00  0.00     0.070 C 
BRANCH  28  29
ATOM     29  C   UNL A   1      39.303  32.763  29.988  1.00  0.00    -0.037 C 
ATOM     30  C   UNL A   1      40.408  32.081  30.287  1.00  0.00     0.001 A 
ATOM     31  C   UNL A   1      39.462  34.201  30.397  1.00  0.00     0.174 C 
ATOM     32  C   UNL A   1      40.868  30.744  30.092  1.00  0.00     0.010 A 
ATOM     33  C   UNL A   1      41.201  33.059  31.056  1.00  0.00     0.065 A 
ATOM     34  N   UNL A   1      40.737  34.267  31.140  1.00  0.00    -0.280 NA
ATOM     35  C   UNL A   1      42.001  30.353  30.700  1.00  0.00     0.001 A 
ATOM     36  C   UNL A   1      42.429  32.551  31.705  1.00  0.00     0.028 A 
ATOM     37  C   UNL A   1      42.766  31.260  31.538  1.00  0.00     0.002 A 
ENDBRANCH  28  29
ENDBRANCH  10  28
ENDBRANCH   8  10
ENDBRANCH   7   8
ENDBRANCH   6   7
ENDBRANCH   5   6
ENDBRANCH   4   5
ENDBRANCH   3   4
ENDBRANCH   2   3
ENDBRANCH   1   2
BRANCH   1  38
ATOM     38  C   UNL A   1      33.213  37.201  32.616  1.00  0.00     0.188 C 
BRANCH  38  39
ATOM     39  C   UNL A   1      33.921  35.966  33.201  1.00  0.00     0.188 C 
BRANCH  39  40
ATOM     40  O   UNL A   1      35.343  36.093  33.210  1.00  0.00    -0.376 OA
BRANCH  40  41
ATOM     41  C   UNL A   1      36.101  34.963  33.628  1.00  0.00     0.202 C 
BRANCH  41  42
ATOM     42  C   UNL A   1      35.468  34.103  34.732  1.00  0.00     0.261 C 
BRANCH  42  43
ATOM     43  O   UNL A   1      36.281  33.038  35.252  1.00  0.00    -0.460 OA
BRANCH  43  44
ATOM     44  C   UNL A   1      36.935  33.234  36.417  1.00  0.00     0.338 C 
ATOM     45  O   UNL A   1      36.458  33.205  37.537  1.00  0.00    -0.246 OA
BRANCH  44  46
ATOM     46  C   UNL A   1      38.385  33.271  36.115  1.00  0.00     0.060 A 
ATOM     47  C   UNL A   1      38.861  32.896  34.857  1.00  0.00     0.016 A 
ATOM     48  C   UNL A   1      39.280  33.664  37.120  1.00  0.00     0.016 A 
ATOM     49  C   UNL A   1      40.228  32.967  34.587  1.00  0.00     0.010 A 
ATOM     50  C   UNL A   1      40.651  33.731  36.850  1.00  0.00     0.010 A 
ATOM     51  C   UNL A   1      41.129  33.419  35.569  1.00  0.00    -0.014 A 
BRANCH  51  52
ATOM     52  C   UNL A   1      42.502  33.808  35.161  1.00  0.00     0.031 A 
ATOM     53  C   UNL A   1      43.610  32.819  34.982  1.00  0.00     0.074 A 
ATOM     54  C   UNL A   1      42.725  35.119  34.947  1.00  0.00     0.049 A 
ATOM     55  N   UNL A   1      44.798  33.013  34.469  1.00  0.00    -0.248 NA
ATOM     56  C   UNL A   1      43.370  31.447  35.449  1.00  0.00     0.031 C 
ATOM     57  C   UNL A   1      41.729  36.171  35.162  1.00  0.00     0.029 A 
ATOM     58  N   UNL A   1      43.830  35.791  34.493  1.00  0.00    -0.354 N 
ATOM     59  C   UNL A   1      45.444  31.785  34.521  1.00  0.00     0.074 A 
ATOM     60  C   UNL A   1      44.533  30.865  35.173  1.00  0.00     0.031 C 
ATOM     61  C   UNL A   1      42.252  37.348  34.802  1.00  0.00     0.029 A 
ATOM     62  C   UNL A   1      43.627  37.144  34.351  1.00  0.00     0.049 A 
ATOM     63  H   UNL A   1      44.686  35.349  34.289  1.00  0.00     0.167 HD
ATOM     64  C   UNL A   1      46.673  31.463  34.046  1.00  0.00     0.034 A 
ATOM     65  C   UNL A   1      44.440  38.114  33.887  1.00  0.00     0.034 A 
ATOM     66  C   UNL A   1      47.568  32.411  33.420  1.00  0.00     0.049 A 
ATOM     67  C   UNL A   1      45.792  37.728  33.349  1.00  0.00     0.074 A 
ATOM     68  C   UNL A   1      48.808  32.169  32.853  1.00  0.00     0.029 A 
ATOM     69  N   UNL A   1      47.331  33.773  33.284  1.00  0.00    -0.354 N 
ATOM     70  N   UNL A   1      46.338  36.537  33.272  1.00  0.00    -0.248 NA
ATOM     71  C   UNL A   1      46.628  38.805  32.806  1.00  0.00     0.031 C 
ATOM     72  C   UNL A   1      49.352  33.389  32.448  1.00  0.00     0.029 A 
ATOM     73  C   UNL A   1      48.417  34.387  32.676  1.00  0.00     0.049 A 
ATOM     74  H   UNL A   1      46.513  34.236  33.576  1.00  0.00     0.167 HD
ATOM     75  C   UNL A   1      47.568  36.717  32.649  1.00  0.00     0.074 A 
ATOM     76  C   UNL A   1      47.673  38.129  32.344  1.00  0.00     0.031 C 
ATOM     77  C   UNL A   1      48.522  35.794  32.361  1.00  0.00     0.034 A 
BRANCH  64  78
ATOM     78  C   UNL A   1      47.139  30.028  34.141  1.00  0.00     0.023 A 
ATOM     79  C   UNL A   1      46.744  29.085  33.170  1.00  0.00     0.031 A 
ATOM     80  C   UNL A   1      47.833  29.560  35.271  1.00  0.00     0.131 A 
ATOM     81  C   UNL A   1      47.010  27.723  33.369  1.00  0.00     0.055 A 
ATOM     82  C   UNL A   1      48.132  28.207  35.445  1.00  0.00     0.041 A 
ATOM     83  F   UNL A   1      48.228  30.414  36.229  1.00  0.00    -0.206 F 
ATOM     84  C   UNL A   1      47.707  27.281  34.499  1.00  0.00     0.022 A 
BRANCH  81  85
ATOM     85  S   UNL A   1      46.402  26.466  32.213  1.00  0.00     0.124 S 
ATOM     86  O   UNL A   1      45.803  27.289  31.164  1.00  0.00    -0.237 OA
ATOM     87  O   UNL A   1      47.631  25.774  31.837  1.00  0.00    -0.237 OA
ATOM     88  O   UNL A   1      45.457  25.687  33.006  1.00  0.00    -0.744 OA
ENDBRANCH  81  85
ENDBRANCH  64  78
BRANCH  65  89
ATOM     89  C   UNL A   1      43.925  39.512  33.826  1.00  0.00     0.023 A 
ATOM     90  C   UNL A   1      43.305  40.002  32.661  1.00  0.00     0.031 A 
ATOM     91  C   UNL A   1      44.172  40.415  34.874  1.00  0.00     0.131 A 
ATOM     92  C   UNL A   1      43.022  41.369  32.545  1.00  0.00     0.055 A 
ATOM     93  C   UNL A   1      43.818  41.762  34.783  1.00  0.00     0.041 A 
ATOM     94  F   UNL A   1      44.781  40.000  35.995  1.00  0.00    -0.206 F 
ATOM     95  C   UNL A   1      43.258  42.249  33.607  1.00  0.00     0.022 A 
BRANCH  92  96
ATOM     96  S   UNL A   1      42.480  42.072  30.964  1.00  0.00     0.124 S 
ATOM     97  O   UNL A   1      43.519  41.608  30.051  1.00  0.00    -0.237 OA
ATOM     98  O   UNL A   1      41.168  41.452  30.795  1.00  0.00    -0.237 OA
ATOM     99  O   UNL A   1      42.457  43.510  31.215  1.00  0.00    -0.744 OA
ENDBRANCH  92  96
ENDBRANCH  65  89
BRANCH  77 100
ATOM    100  C   UNL A   1      49.787  36.254  31.670  1.00  0.00     0.023 A 
ATOM    101  C   UNL A   1      49.884  36.194  30.266  1.00  0.00     0.031 A 
ATOM    102  C   UNL A   1      50.936  36.612  32.398  1.00  0.00     0.131 A 
ATOM    103  C   UNL A   1      51.111  36.447  29.637  1.00  0.00     0.055 A 
ATOM    104  C   UNL A   1      52.141  36.916  31.763  1.00  0.00     0.041 A 
ATOM    105  F   UNL A   1      50.904  36.671  33.738  1.00  0.00    -0.206 F 
ATOM    106  C   UNL A   1      52.237  36.820  30.378  1.00  0.00     0.022 A 
BRANCH 103 107
ATOM    107  S   UNL A   1      51.318  36.210  27.851  1.00  0.00     0.124 S 
ATOM    108  O   UNL A   1      52.040  34.940  27.798  1.00  0.00    -0.237 OA
ATOM    109  O   UNL A   1      49.934  36.160  27.384  1.00  0.00    -0.237 OA
ATOM    110  O   UNL A   1      52.081  37.378  27.426  1.00  0.00    -0.744 OA
ENDBRANCH 103 107
ENDBRANCH  77 100
ENDBRANCH  51  52
ENDBRANCH  44  46
ENDBRANCH  43  44
ENDBRANCH  42  43
ENDBRANCH  41  42
ENDBRANCH  40  41
ENDBRANCH  39  40
ENDBRANCH  38  39
ENDBRANCH   1  38
TORSDOF 28
ENDMDL
MODEL 2
REMARK VINA RESULT:      -6.9      5.663     10.339
REMARK SMILES O=C(N[C@@H](CC1=c2ccccc2=NC1)C(=O)OCCOCCOCCOCCOC(=O)c1ccc(-c2c3nc(c(-c4cc(S(=O)(=O)[O-])ccc4F)c4ccc([nH]4)c(-c4cc(S(=O)(=O)[O-])ccc4F)c4nc(c(-c5cc(S(=O)(=O)[O-])ccc5F)c5ccc2[nH]5)C=C4)C=C3)cc1)c1ccc(N2CCCCC2=O)cc1
REMARK SMILES IDX 23 1 22 2 21 3 20 4 19 5 18 6 17 7 15 8 16 9 4 10 3 11 1 12
REMARK SMILES IDX 2 13 95 15 96 16 107 17 97 18 106 19 98 20 99 21 100 22
REMARK SMILES IDX 104 23 101 24 103 25 105 26 102 27 5 28 6 29 7 30 14 31 8 32
REMARK SMILES IDX 12 33 13 34 9 35 11 36 10 37 24 38 25 39 26 40 27 41 28 42
REMARK SMILES IDX 29 43 30 44 31 45 32 46 33 47 94 48 34 49 93 50 35 51 36 52
REMARK SMILES IDX 37 53 87 54 38 55 92 56 86 57 88 58 39 59 91 60 85 61 84 62
REMARK SMILES IDX 40 64 72 65 52 66 71 67 53 68 56 69 70 70 89 71 54 72 55 73
REMARK SMILES IDX 69 75 90 76 57 77 41 78 42 79 50 80 43 81 49 82 51 83 48 84
REMARK SMILES IDX 44 85 45 86 46 87 47 88 73 89 74 90 82 91 75 92 81 93 83 94
REMARK SMILES IDX 80 95 76 96 77 97 78 98 79 99 58 100 59 101 67 102 60 103
REMARK SMILES IDX 66 104 68 105 65 106 61 107 62 108 63 109 64 110
REMARK H PARENT 3 14 88 63 56 74
REMARK Flexibility Score: inf
ROOT
ATOM      1  O   UNL A   1      44.850  33.616  33.689  1.00  0.00    -0.377 OA
ENDROOT
BRANCH   1   2
ATOM      2  C   UNL A   1      43.540  34.085  33.961  1.00  0.00     0.188 C 
BRANCH   2   3
ATOM      3  C   UNL A   1      42.633  34.226  32.718  1.00  0.00     0.188 C 
BRANCH   3   4
ATOM      4  O   UNL A   1      43.093  34.893  31.551  1.00  0.00    -0.376 OA
BRANCH   4   5
ATOM      5  C   UNL A   1      42.390  34.675  30.337  1.00  0.00     0.202 C 
BRANCH   5   6
ATOM      6  C   UNL A   1      42.992  33.744  29.276  1.00  0.00     0.261 C 
BRANCH   6   7
ATOM      7  O   UNL A   1      44.386  33.937  28.954  1.00  0.00    -0.462 OA
BRANCH   7   8
ATOM      8  C   UNL A   1      44.791  33.560  27.713  1.00  0.00     0.329 C 
ATOM      9  O   UNL A   1      44.145  33.757  26.687  1.00  0.00    -0.250 OA
BRANCH   8  10
ATOM     10  C   UNL A   1      46.074  32.699  27.703  1.00  0.00     0.196 C 
BRANCH  10  11
ATOM     11  N   UNL A   1      46.411  31.923  26.499  1.00  0.00    -0.338 N 
ATOM     12  O   UNL A   1      46.804  30.085  25.267  1.00  0.00    -0.269 OA
ATOM     13  C   UNL A   1      46.143  30.619  26.156  1.00  0.00     0.251 C 
ATOM     14  H   UNL A   1      46.915  32.425  25.820  1.00  0.00     0.164 HD
BRANCH  13  15
ATOM     15  C   UNL A   1      45.035  29.833  26.763  1.00  0.00     0.039 A 
ATOM     16  C   UNL A   1      45.105  28.435  26.775  1.00  0.00     0.016 A 
ATOM     17  C   UNL A   1      43.833  30.438  27.116  1.00  0.00     0.016 A 
ATOM     18  C   UNL A   1      43.992  27.667  27.156  1.00  0.00     0.027 A 
ATOM     19  C   UNL A   1      42.707  29.673  27.444  1.00  0.00     0.027 A 
ATOM     20  C   UNL A   1      42.769  28.278  27.471  1.00  0.00     0.044 A 
BRANCH  20  21
ATOM     21  N   UNL A   1      41.616  27.488  27.800  1.00  0.00    -0.312 N 
ATOM     22  C   UNL A   1      41.822  26.429  28.792  1.00  0.00     0.125 C 
ATOM     23  C   UNL A   1      40.333  27.900  27.418  1.00  0.00     0.226 C 
ATOM     24  C   UNL A   1      40.735  25.369  28.803  1.00  0.00     0.022 C 
ATOM     25  C   UNL A   1      39.183  26.950  27.716  1.00  0.00     0.101 C 
ATOM     26  O   UNL A   1      40.091  28.904  26.742  1.00  0.00    -0.275 OA
ATOM     27  C   UNL A   1      39.384  26.046  28.912  1.00  0.00     0.012 C 
ENDBRANCH  20  21
ENDBRANCH  13  15
ENDBRANCH  10  11
BRANCH  10  28
ATOM     28  C   UNL A   1      47.254  33.638  28.091  1.00  0.00     0.070 C 
BRANCH  28  29
ATOM     29  C   UNL A   1      48.024  34.213  26.931  1.00  0.00    -0.037 C 
ATOM     30  C   UNL A   1      49.149  33.785  26.362  1.00  0.00     0.001 A 
ATOM     31  C   UNL A   1      47.538  35.455  26.237  1.00  0.00     0.174 C 
ATOM     32  C   UNL A   1      50.017  32.664  26.528  1.00  0.00     0.010 A 
ATOM     33  C   UNL A   1      49.474  34.870  25.416  1.00  0.00     0.065 A 
ATOM     34  N   UNL A   1      48.606  35.825  25.286  1.00  0.00    -0.280 NA
ATOM     35  C   UNL A   1      51.192  32.650  25.874  1.00  0.00     0.001 A 
ATOM     36  C   UNL A   1      50.789  34.791  24.743  1.00  0.00     0.028 A 
ATOM     37  C   UNL A   1      51.589  33.741  25.002  1.00  0.00     0.002 A 
ENDBRANCH  28  29
ENDBRANCH  10  28
ENDBRANCH   8  10
ENDBRANCH   7   8
ENDBRANCH   6   7
ENDBRANCH   5   6
ENDBRANCH   4   5
ENDBRANCH   3   4
ENDBRANCH   2   3
ENDBRANCH   1   2
BRANCH   1  38
ATOM     38  C   UNL A   1      45.104  32.293  34.151  1.00  0.00     0.188 C 
BRANCH  38  39
ATOM     39  C   UNL A   1      44.120  31.771  35.214  1.00  0.00     0.188 C 
BRANCH  39  40
ATOM     40  O   UNL A   1      44.755  31.465  36.456  1.00  0.00    -0.376 OA
BRANCH  40  41
ATOM     41  C   UNL A   1      44.272  30.339  37.180  1.00  0.00     0.202 C 
BRANCH  41  42
ATOM     42  C   UNL A   1      44.121  29.038  36.377  1.00  0.00     0.261 C 
BRANCH  42  43
ATOM     43  O   UNL A   1      43.379  27.983  37.009  1.00  0.00    -0.460 OA
BRANCH  43  44
ATOM     44  C   UNL A   1      42.471  27.303  36.277  1.00  0.00     0.338 C 
ATOM     45  O   UNL A   1      41.290  27.150  36.535  1.00  0.00    -0.246 OA
BRANCH  44  46
ATOM     46  C   UNL A   1      43.106  26.959  34.983  1.00  0.00     0.060 A 
ATOM     47  C   UNL A   1      42.667  27.547  33.795  1.00  0.00     0.016 A 
ATOM     48  C   UNL A   1      44.143  26.015  34.964  1.00  0.00     0.016 A 
ATOM     49  C   UNL A   1      43.301  27.228  32.593  1.00  0.00     0.010 A 
ATOM     50  C   UNL A   1      44.775  25.694  33.759  1.00  0.00     0.010 A 
ATOM     51  C   UNL A   1      44.383  26.328  32.570  1.00  0.00    -0.014 A 
BRANCH  51  52
ATOM     52  C   UNL A   1      45.246  26.272  31.364  1.00  0.00     0.031 A 
ATOM     53  C   UNL A   1      45.039  25.285  30.259  1.00  0.00     0.074 A 
ATOM     54  C   UNL A   1      46.250  27.167  31.292  1.00  0.00     0.049 A 
ATOM     55  N   UNL A   1      45.615  25.245  29.086  1.00  0.00    -0.248 NA
ATOM     56  C   UNL A   1      44.082  24.196  30.500  1.00  0.00     0.031 C 
ATOM     57  C   UNL A   1      46.579  28.126  32.348  1.00  0.00     0.029 A 
ATOM     58  N   UNL A   1      47.160  27.434  30.302  1.00  0.00    -0.354 N 
ATOM     59  C   UNL A   1      45.076  24.147  28.429  1.00  0.00     0.074 A 
ATOM     60  C   UNL A   1      44.167  23.512  29.364  1.00  0.00     0.031 C 
ATOM     61  C   UNL A   1      47.587  28.902  31.937  1.00  0.00     0.029 A 
ATOM     62  C   UNL A   1      47.994  28.487  30.596  1.00  0.00     0.049 A 
ATOM     63  H   UNL A   1      47.212  26.922  29.462  1.00  0.00     0.167 HD
ATOM     64  C   UNL A   1      45.308  23.730  27.160  1.00  0.00     0.034 A 
ATOM     65  C   UNL A   1      48.963  29.075  29.866  1.00  0.00     0.034 A 
ATOM     66  C   UNL A   1      46.239  24.374  26.260  1.00  0.00     0.049 A 
ATOM     67  C   UNL A   1      49.189  28.607  28.454  1.00  0.00     0.074 A 
ATOM     68  C   UNL A   1      46.501  24.064  24.936  1.00  0.00     0.029 A 
ATOM     69  N   UNL A   1      47.066  25.443  26.584  1.00  0.00    -0.354 N 
ATOM     70  N   UNL A   1      48.571  27.656  27.793  1.00  0.00    -0.248 NA
ATOM     71  C   UNL A   1      50.218  29.305  27.674  1.00  0.00     0.031 C 
ATOM     72  C   UNL A   1      47.533  24.889  24.486  1.00  0.00     0.029 A 
ATOM     73  C   UNL A   1      47.860  25.779  25.497  1.00  0.00     0.049 A 
ATOM     74  H   UNL A   1      47.085  25.897  27.457  1.00  0.00     0.167 HD
ATOM     75  C   UNL A   1      49.116  27.660  26.513  1.00  0.00     0.074 A 
ATOM     76  C   UNL A   1      50.094  28.728  26.485  1.00  0.00     0.031 C 
ATOM     77  C   UNL A   1      48.831  26.849  25.462  1.00  0.00     0.034 A 
BRANCH  64  78
ATOM     78  C   UNL A   1      44.536  22.546  26.627  1.00  0.00     0.023 A 
ATOM     79  C   UNL A   1      45.207  21.361  26.265  1.00  0.00     0.031 A 
ATOM     80  C   UNL A   1      43.165  22.646  26.326  1.00  0.00     0.131 A 
ATOM     81  C   UNL A   1      44.518  20.345  25.588  1.00  0.00     0.055 A 
ATOM     82  C   UNL A   1      42.473  21.614  25.688  1.00  0.00     0.041 A 
ATOM     83  F   UNL A   1      42.477  23.754  26.644  1.00  0.00    -0.206 F 
ATOM     84  C   UNL A   1      43.153  20.464  25.304  1.00  0.00     0.022 A 
BRANCH  81  85
ATOM     85  S   UNL A   1      45.375  18.865  24.985  1.00  0.00     0.124 S 
ATOM     86  O   UNL A   1      44.680  17.802  25.708  1.00  0.00    -0.237 OA
ATOM     87  O   UNL A   1      45.110  18.919  23.550  1.00  0.00    -0.237 OA
ATOM     88  O   UNL A   1      46.763  19.078  25.379  1.00  0.00    -0.744 OA
ENDBRANCH  81  85
ENDBRANCH  64  78
BRANCH  65  89
ATOM     89  C   UNL A   1      49.696  30.235  30.451  1.00  0.00     0.023 A 
ATOM     90  C   UNL A   1      51.014  30.091  30.923  1.00  0.00     0.031 A 
ATOM     91  C   UNL A   1      49.043  31.459  30.674  1.00  0.00     0.131 A 
ATOM     92  C   UNL A   1      51.607  31.125  31.658  1.00  0.00     0.055 A 
ATOM     93  C   UNL A   1      49.667  32.514  31.341  1.00  0.00     0.041 A 
ATOM     94  F   UNL A   1      47.778  31.637  30.263  1.00  0.00    -0.206 F 
ATOM     95  C   UNL A   1      50.949  32.343  31.854  1.00  0.00     0.022 A 
BRANCH  92  96
ATOM     96  S   UNL A   1      53.188  30.868  32.509  1.00  0.00     0.124 S 
ATOM     97  O   UNL A   1      52.876  29.759  33.404  1.00  0.00    -0.237 OA
ATOM     98  O   UNL A   1      54.079  30.549  31.396  1.00  0.00    -0.237 OA
ATOM     99  O   UNL A   1      53.443  32.150  33.158  1.00  0.00    -0.744 OA
ENDBRANCH  92  96
ENDBRANCH  65  89
BRANCH  77 100
ATOM    100  C   UNL A   1      49.574  27.063  24.162  1.00  0.00     0.023 A 
ATOM    101  C   UNL A   1      50.940  26.731  24.069  1.00  0.00     0.031 A 
ATOM    102  C   UNL A   1      48.978  27.721  23.071  1.00  0.00     0.131 A 
ATOM    103  C   UNL A   1      51.673  27.092  22.930  1.00  0.00     0.055 A 
ATOM    104  C   UNL A   1      49.699  28.031  21.917  1.00  0.00     0.041 A 
ATOM    105  F   UNL A   1      47.684  28.074  23.112  1.00  0.00    -0.206 F 
ATOM    106  C   UNL A   1      51.056  27.730  21.849  1.00  0.00     0.022 A 
BRANCH 103 107
ATOM    107  S   UNL A   1      53.467  26.837  22.848  1.00  0.00     0.124 S 
ATOM    108  O   UNL A   1      53.673  26.609  21.419  1.00  0.00    -0.237 OA
ATOM    109  O   UNL A   1      53.982  28.106  23.357  1.00  0.00    -0.237 OA
ATOM    110  O   UNL A   1      53.698  25.679  23.703  1.00  0.00    -0.744 OA
ENDBRANCH 103 107
ENDBRANCH  77 100
ENDBRANCH  51  52
ENDBRANCH  44  46
ENDBRANCH  43  44
ENDBRANCH  42  43
ENDBRANCH  41  42
ENDBRANCH  40  41
ENDBRANCH  39  40
ENDBRANCH  38  39
ENDBRANCH   1  38
TORSDOF 28
ENDMDL
MODEL 3
REMARK VINA RESULT:      -6.5      1.671      3.702
REMARK SMILES O=C(N[C@@H](CC1=c2ccccc2=NC1)C(=O)OCCOCCOCCOCCOC(=O)c1ccc(-c2c3nc(c(-c4cc(S(=O)(=O)[O-])ccc4F)c4ccc([nH]4)c(-c4cc(S(=O)(=O)[O-])ccc4F)c4nc(c(-c5cc(S(=O)(=O)[O-])ccc5F)c5ccc2[nH]5)C=C4)C=C3)cc1)c1ccc(N2CCCCC2=O)cc1
REMARK SMILES IDX 23 1 22 2 21 3 20 4 19 5 18 6 17 7 15 8 16 9 4 10 3 11 1 12
REMARK SMILES IDX 2 13 95 15 96 16 107 17 97 18 106 19 98 20 99 21 100 22
REMARK SMILES IDX 104 23 101 24 103 25 105 26 102 27 5 28 6 29 7 30 14 31 8 32
REMARK SMILES IDX 12 33 13 34 9 35 11 36 10 37 24 38 25 39 26 40 27 41 28 42
REMARK SMILES IDX 29 43 30 44 31 45 32 46 33 47 94 48 34 49 93 50 35 51 36 52
REMARK SMILES IDX 37 53 87 54 38 55 92 56 86 57 88 58 39 59 91 60 85 61 84 62
REMARK SMILES IDX 40 64 72 65 52 66 71 67 53 68 56 69 70 70 89 71 54 72 55 73
REMARK SMILES IDX 69 75 90 76 57 77 41 78 42 79 50 80 43 81 49 82 51 83 48 84
REMARK SMILES IDX 44 85 45 86 46 87 47 88 73 89 74 90 82 91 75 92 81 93 83 94
REMARK SMILES IDX 80 95 76 96 77 97 78 98 79 99 58 100 59 101 67 102 60 103
REMARK SMILES IDX 66 104 68 105 65 106 61 107 62 108 63 109 64 110
REMARK H PARENT 3 14 88 63 56 74
REMARK Flexibility Score: inf
ROOT
ATOM      1  O   UNL A   1      33.449  37.122  31.644  1.00  0.00    -0.377 OA
ENDROOT
BRANCH   1   2
ATOM      2  C   UNL A   1      33.047  35.979  30.908  1.00  0.00     0.188 C 
BRANCH   2   3
ATOM      3  C   UNL A   1      33.402  36.020  29.405  1.00  0.00     0.188 C 
BRANCH   3   4
ATOM      4  O   UNL A   1      34.276  35.054  28.836  1.00  0.00    -0.376 OA
BRANCH   4   5
ATOM      5  C   UNL A   1      34.008  33.683  29.086  1.00  0.00     0.202 C 
BRANCH   5   6
ATOM      6  C   UNL A   1      34.868  32.921  30.103  1.00  0.00     0.261 C 
BRANCH   6   7
ATOM      7  O   UNL A   1      35.843  31.999  29.571  1.00  0.00    -0.462 OA
BRANCH   7   8
ATOM      8  C   UNL A   1      36.895  32.533  28.896  1.00  0.00     0.329 C 
ATOM      9  O   UNL A   1      36.871  32.826  27.703  1.00  0.00    -0.250 OA
BRANCH   8  10
ATOM     10  C   UNL A   1      38.204  32.595  29.714  1.00  0.00     0.196 C 
BRANCH  10  11
ATOM     11  N   UNL A   1      38.377  33.658  30.716  1.00  0.00    -0.338 N 
ATOM     12  O   UNL A   1      39.448  34.884  32.266  1.00  0.00    -0.269 OA
ATOM     13  C   UNL A   1      39.508  34.273  31.200  1.00  0.00     0.251 C 
ATOM     14  H   UNL A   1      37.537  33.988  31.108  1.00  0.00     0.164 HD
BRANCH  13  15
ATOM     15  C   UNL A   1      40.797  34.297  30.458  1.00  0.00     0.039 A 
ATOM     16  C   UNL A   1      41.964  33.846  31.085  1.00  0.00     0.016 A 
ATOM     17  C   UNL A   1      40.915  34.963  29.242  1.00  0.00     0.016 A 
ATOM     18  C   UNL A   1      43.220  34.043  30.486  1.00  0.00     0.027 A 
ATOM     19  C   UNL A   1      42.169  35.208  28.670  1.00  0.00     0.027 A 
ATOM     20  C   UNL A   1      43.339  34.751  29.280  1.00  0.00     0.044 A 
BRANCH  20  21
ATOM     21  N   UNL A   1      44.628  35.004  28.702  1.00  0.00    -0.312 N 
ATOM     22  C   UNL A   1      45.011  34.144  27.579  1.00  0.00     0.125 C 
ATOM     23  C   UNL A   1      45.330  36.178  29.004  1.00  0.00     0.226 C 
ATOM     24  C   UNL A   1      46.499  34.145  27.276  1.00  0.00     0.022 C 
ATOM     25  C   UNL A   1      46.733  36.314  28.431  1.00  0.00     0.101 C 
ATOM     26  O   UNL A   1      44.949  37.036  29.805  1.00  0.00    -0.275 OA
ATOM     27  C   UNL A   1      46.974  35.577  27.131  1.00  0.00     0.012 C 
ENDBRANCH  20  21
ENDBRANCH  13  15
ENDBRANCH  10  11
BRANCH  10  28
ATOM     28  C   UNL A   1      38.397  31.195  30.369  1.00  0.00     0.070 C 
BRANCH  28  29
ATOM     29  C   UNL A   1      39.088  30.174  29.505  1.00  0.00    -0.037 C 
ATOM     30  C   UNL A   1      40.389  29.986  29.287  1.00  0.00     0.001 A 
ATOM     31  C   UNL A   1      38.287  29.165  28.730  1.00  0.00     0.174 C 
ATOM     32  C   UNL A   1      41.602  30.563  29.771  1.00  0.00     0.010 A 
ATOM     33  C   UNL A   1      40.400  28.965  28.222  1.00  0.00     0.065 A 
ATOM     34  N   UNL A   1      39.260  28.452  27.877  1.00  0.00    -0.280 NA
ATOM     35  C   UNL A   1      42.761  30.230  29.177  1.00  0.00     0.001 A 
ATOM     36  C   UNL A   1      41.712  28.660  27.609  1.00  0.00     0.028 A 
ATOM     37  C   UNL A   1      42.805  29.295  28.066  1.00  0.00     0.002 A 
ENDBRANCH  28  29
ENDBRANCH  10  28
ENDBRANCH   8  10
ENDBRANCH   7   8
ENDBRANCH   6   7
ENDBRANCH   5   6
ENDBRANCH   4   5
ENDBRANCH   3   4
ENDBRANCH   2   3
ENDBRANCH   1   2
BRANCH   1  38
ATOM     38  C   UNL A   1      33.547  36.907  33.048  1.00  0.00     0.188 C 
BRANCH  38  39
ATOM     39  C   UNL A   1      34.226  35.589  33.463  1.00  0.00     0.188 C 
BRANCH  39  40
ATOM     40  O   UNL A   1      35.629  35.581  33.202  1.00  0.00    -0.376 OA
BRANCH  40  41
ATOM     41  C   UNL A   1      36.278  34.316  33.136  1.00  0.00     0.202 C 
BRANCH  41  42
ATOM     42  C   UNL A   1      35.691  33.215  34.032  1.00  0.00     0.261 C 
BRANCH  42  43
ATOM     43  O   UNL A   1      36.640  32.385  34.722  1.00  0.00    -0.460 OA
BRANCH  43  44
ATOM     44  C   UNL A   1      37.226  32.864  35.840  1.00  0.00     0.338 C 
ATOM     45  O   UNL A   1      36.691  33.068  36.916  1.00  0.00    -0.246 OA
BRANCH  44  46
ATOM     46  C   UNL A   1      38.688  32.891  35.603  1.00  0.00     0.060 A 
ATOM     47  C   UNL A   1      39.232  32.339  34.441  1.00  0.00     0.016 A 
ATOM     48  C   UNL A   1      39.525  33.459  36.574  1.00  0.00     0.016 A 
ATOM     49  C   UNL A   1      40.609  32.403  34.227  1.00  0.00     0.010 A 
ATOM     50  C   UNL A   1      40.905  33.520  36.360  1.00  0.00     0.010 A 
ATOM     51  C   UNL A   1      41.452  33.025  35.166  1.00  0.00    -0.014 A 
BRANCH  51  52
ATOM     52  C   UNL A   1      42.836  33.382  34.766  1.00  0.00     0.031 A 
ATOM     53  C   UNL A   1      43.928  32.371  34.618  1.00  0.00     0.074 A 
ATOM     54  C   UNL A   1      43.083  34.685  34.527  1.00  0.00     0.049 A 
ATOM     55  N   UNL A   1      45.124  32.534  34.115  1.00  0.00    -0.248 NA
ATOM     56  C   UNL A   1      43.659  31.014  35.111  1.00  0.00     0.031 C 
ATOM     57  C   UNL A   1      42.104  35.758  34.709  1.00  0.00     0.029 A 
ATOM     58  N   UNL A   1      44.205  35.329  34.072  1.00  0.00    -0.354 N 
ATOM     59  C   UNL A   1      45.749  31.296  34.199  1.00  0.00     0.074 A 
ATOM     60  C   UNL A   1      44.815  30.406  34.860  1.00  0.00     0.031 C 
ATOM     61  C   UNL A   1      42.651  36.919  34.332  1.00  0.00     0.029 A 
ATOM     62  C   UNL A   1      44.027  36.681  33.900  1.00  0.00     0.049 A 
ATOM     63  H   UNL A   1      45.055  34.867  33.886  1.00  0.00     0.167 HD
ATOM     64  C   UNL A   1      46.977  30.944  33.745  1.00  0.00     0.034 A 
ATOM     65  C   UNL A   1      44.862  37.627  33.425  1.00  0.00     0.034 A 
ATOM     66  C   UNL A   1      47.895  31.863  33.109  1.00  0.00     0.049 A 
ATOM     67  C   UNL A   1      46.212  37.207  32.909  1.00  0.00     0.074 A 
ATOM     68  C   UNL A   1      49.137  31.589  32.561  1.00  0.00     0.029 A 
ATOM     69  N   UNL A   1      47.683  33.226  32.942  1.00  0.00    -0.354 N 
ATOM     70  N   UNL A   1      46.738  36.006  32.864  1.00  0.00    -0.248 NA
ATOM     71  C   UNL A   1      47.073  38.259  32.354  1.00  0.00     0.031 C 
ATOM     72  C   UNL A   1      49.706  32.791  32.136  1.00  0.00     0.029 A 
ATOM     73  C   UNL A   1      48.786  33.809  32.334  1.00  0.00     0.049 A 
ATOM     74  H   UNL A   1      46.870  33.709  33.216  1.00  0.00     0.167 HD
ATOM     75  C   UNL A   1      47.978  36.151  32.250  1.00  0.00     0.074 A 
ATOM     76  C   UNL A   1      48.110  37.555  31.917  1.00  0.00     0.031 C 
ATOM     77  C   UNL A   1      48.918  35.207  31.991  1.00  0.00     0.034 A 
BRANCH  64  78
ATOM     78  C   UNL A   1      47.417  29.503  33.873  1.00  0.00     0.023 A 
ATOM     79  C   UNL A   1      46.740  28.486  33.172  1.00  0.00     0.031 A 
ATOM     80  C   UNL A   1      48.394  29.121  34.810  1.00  0.00     0.131 A 
ATOM     81  C   UNL A   1      47.019  27.140  33.448  1.00  0.00     0.055 A 
ATOM     82  C   UNL A   1      48.699  27.780  35.052  1.00  0.00     0.041 A 
ATOM     83  F   UNL A   1      49.067  30.049  35.510  1.00  0.00    -0.206 F 
ATOM     84  C   UNL A   1      48.000  26.783  34.380  1.00  0.00     0.022 A 
BRANCH  81  85
ATOM     85  S   UNL A   1      46.076  25.802  32.667  1.00  0.00     0.124 S 
ATOM     86  O   UNL A   1      46.533  24.637  33.421  1.00  0.00    -0.237 OA
ATOM     87  O   UNL A   1      44.697  26.208  32.923  1.00  0.00    -0.237 OA
ATOM     88  O   UNL A   1      46.499  25.843  31.272  1.00  0.00    -0.744 OA
ENDBRANCH  81  85
ENDBRANCH  64  78
BRANCH  65  89
ATOM     89  C   UNL A   1      44.372  39.033  33.330  1.00  0.00     0.023 A 
ATOM     90  C   UNL A   1      43.733  39.496  32.164  1.00  0.00     0.031 A 
ATOM     91  C   UNL A   1      44.660  39.964  34.341  1.00  0.00     0.131 A 
ATOM     92  C   UNL A   1      43.473  40.864  32.010  1.00  0.00     0.055 A 
ATOM     93  C   UNL A   1      44.329  41.314  34.214  1.00  0.00     0.041 A 
ATOM     94  F   UNL A   1      45.288  39.574  35.462  1.00  0.00    -0.206 F 
ATOM     95  C   UNL A   1      43.750  41.773  33.036  1.00  0.00     0.022 A 
BRANCH  92  96
ATOM     96  S   UNL A   1      42.907  41.526  30.419  1.00  0.00     0.124 S 
ATOM     97  O   UNL A   1      42.745  40.314  29.624  1.00  0.00    -0.237 OA
ATOM     98  O   UNL A   1      41.669  42.200  30.800  1.00  0.00    -0.237 OA
ATOM     99  O   UNL A   1      43.992  42.411  30.007  1.00  0.00    -0.744 OA
ENDBRANCH  92  96
ENDBRANCH  65  89
BRANCH  77 100
ATOM    100  C   UNL A   1      50.198  35.631  31.305  1.00  0.00     0.023 A 
ATOM    101  C   UNL A   1      50.293  35.585  29.900  1.00  0.00     0.031 A 
ATOM    102  C   UNL A   1      51.360  35.940  32.036  1.00  0.00     0.131 A 
ATOM    103  C   UNL A   1      51.528  35.803  29.274  1.00  0.00     0.055 A 
ATOM    104  C   UNL A   1      52.575  36.209  31.405  1.00  0.00     0.041 A 
ATOM    105  F   UNL A   1      51.330  35.983  33.377  1.00  0.00    -0.206 F 
ATOM    106  C   UNL A   1      52.666  36.126  30.019  1.00  0.00     0.022 A 
BRANCH 103 107
ATOM    107  S   UNL A   1      51.725  35.580  27.484  1.00  0.00     0.124 S 
ATOM    108  O   UNL A   1      50.820  36.596  26.953  1.00  0.00    -0.237 OA
ATOM    109  O   UNL A   1      53.148  35.853  27.295  1.00  0.00    -0.237 OA
ATOM    110  O   UNL A   1      51.315  34.199  27.254  1.00  0.00    -0.744 OA
ENDBRANCH 103 107
ENDBRANCH  77 100
ENDBRANCH  51  52
ENDBRANCH  44  46
ENDBRANCH  43  44
ENDBRANCH  42  43
ENDBRANCH  41  42
ENDBRANCH  40  41
ENDBRANCH  39  40
ENDBRANCH  38  39
ENDBRANCH   1  38
TORSDOF 28
ENDMDL
