MODEL 1
REMARK VINA RESULT:      -8.8      0.000      0.000
REMARK SMILES Cc1ccc(Cl)c(Nc2ccccc2C(=O)NCC(=O)OCCOCCOCCOCCOC(=O)c2ccc(-c3c4nc(c(-c5cc(S(=O)(=O)[O-])ccc5F)c5ccc([nH]5)c(-c5cc(S(=O)(=O)[O-])ccc5F)c5nc(c(-c6cc(S(=O)(=O)[O-])ccc6F)c6ccc3[nH]6)C=C5)C=C4)cc2)c1Cl
REMARK SMILES IDX 26 1 25 2 24 3 23 4 22 5 21 6 19 7 20 8 18 9 17 10 15 11
REMARK SMILES IDX 16 12 14 14 9 15 10 16 11 17 13 18 12 19 8 20 7 22 1 23 2 24
REMARK SMILES IDX 3 25 99 26 4 27 100 28 5 29 6 30 27 31 28 32 29 33 30 34
REMARK SMILES IDX 31 35 32 36 33 37 34 38 35 39 36 40 37 41 98 42 38 43 97 44
REMARK SMILES IDX 39 45 40 46 41 47 91 48 42 49 96 50 90 51 92 52 43 53 95 54
REMARK SMILES IDX 89 55 88 56 44 58 76 59 56 60 75 61 57 62 60 63 74 64 93 65
REMARK SMILES IDX 58 66 59 67 73 69 94 70 61 71 45 72 46 73 54 74 47 75 53 76
REMARK SMILES IDX 55 77 52 78 48 79 49 80 50 81 51 82 77 83 78 84 86 85 79 86
REMARK SMILES IDX 85 87 87 88 84 89 80 90 81 91 82 92 83 93 62 94 63 95 71 96
REMARK SMILES IDX 64 97 70 98 72 99 69 100 65 101 66 102 67 103 68 104
REMARK H PARENT 17 13 8 21 92 57 60 68
REMARK Flexibility Score: inf
ROOT
ATOM      1  C   UNL A   1      33.332  30.009  26.016  1.00  0.00     0.188 C 
ENDROOT
BRANCH   1   2
ATOM      2  C   UNL A   1      31.799  30.141  26.007  1.00  0.00     0.188 C 
BRANCH   2   3
ATOM      3  O   UNL A   1      31.103  29.464  24.984  1.00  0.00    -0.376 OA
BRANCH   3   4
ATOM      4  C   UNL A   1      31.439  29.582  23.607  1.00  0.00     0.202 C 
BRANCH   4   5
ATOM      5  C   UNL A   1      31.784  28.423  22.662  1.00  0.00     0.261 C 
BRANCH   5   6
ATOM      6  O   UNL A   1      33.175  28.170  22.473  1.00  0.00    -0.462 OA
BRANCH   6   7
ATOM      7  C   UNL A   1      33.517  26.899  22.750  1.00  0.00     0.325 C 
ATOM      8  O   UNL A   1      33.676  26.014  21.909  1.00  0.00    -0.250 OA
BRANCH   7   9
ATOM      9  C   UNL A   1      33.886  26.621  24.183  1.00  0.00     0.239 C 
BRANCH   9  10
ATOM     10  N   UNL A   1      33.333  26.973  25.465  1.00  0.00    -0.341 N 
ATOM     11  C   UNL A   1      32.318  26.230  26.059  1.00  0.00     0.253 C 
ATOM     12  O   UNL A   1      32.118  26.291  27.269  1.00  0.00    -0.269 OA
ATOM     13  H   UNL A   1      33.685  27.763  25.937  1.00  0.00     0.164 HD
BRANCH  11  14
ATOM     14  C   UNL A   1      31.331  25.519  25.176  1.00  0.00     0.063 A 
ATOM     15  C   UNL A   1      31.515  24.278  24.514  1.00  0.00     0.051 A 
ATOM     16  C   UNL A   1      30.662  23.994  23.426  1.00  0.00     0.027 A 
ATOM     17  C   UNL A   1      29.629  24.854  23.050  1.00  0.00     0.002 A 
ATOM     18  C   UNL A   1      30.235  26.339  24.838  1.00  0.00     0.016 A 
ATOM     19  C   UNL A   1      29.388  26.007  23.784  1.00  0.00     0.001 A 
BRANCH  15  20
ATOM     20  N   UNL A   1      32.472  23.278  24.812  1.00  0.00    -0.352 N 
ATOM     21  H   UNL A   1      32.090  22.505  25.290  1.00  0.00     0.167 HD
BRANCH  20  22
ATOM     22  C   UNL A   1      33.863  23.150  24.568  1.00  0.00     0.077 A 
ATOM     23  C   UNL A   1      37.285  23.628  26.239  1.00  0.00     0.046 C 
ATOM     24  C   UNL A   1      36.220  23.409  25.199  1.00  0.00    -0.030 A 
ATOM     25  C   UNL A   1      36.595  23.325  23.850  1.00  0.00     0.006 A 
ATOM     26  C   UNL A   1      34.856  23.304  25.553  1.00  0.00     0.069 A 
ATOM     27  C   UNL A   1      35.642  23.066  22.873  1.00  0.00     0.023 A 
ATOM     28  Cl  UNL A   1      34.438  23.199  27.240  1.00  0.00    -0.082 Cl
ATOM     29  C   UNL A   1      34.300  22.955  23.233  1.00  0.00     0.066 A 
ATOM     30  Cl  UNL A   1      33.165  22.604  21.969  1.00  0.00    -0.082 Cl
ENDBRANCH  20  22
ENDBRANCH  15  20
ENDBRANCH  11  14
ENDBRANCH   9  10
ENDBRANCH   7   9
ENDBRANCH   6   7
ENDBRANCH   5   6
ENDBRANCH   4   5
ENDBRANCH   3   4
ENDBRANCH   2   3
ENDBRANCH   1   2
BRANCH   1  31
ATOM     31  O   UNL A   1      33.944  29.413  27.145  1.00  0.00    -0.377 OA
BRANCH  31  32
ATOM     32  C   UNL A   1      35.183  29.930  27.634  1.00  0.00     0.188 C 
BRANCH  32  33
ATOM     33  C   UNL A   1      35.262  31.252  28.431  1.00  0.00     0.188 C 
BRANCH  33  34
ATOM     34  O   UNL A   1      34.015  31.878  28.681  1.00  0.00    -0.376 OA
BRANCH  34  35
ATOM     35  C   UNL A   1      33.752  33.085  27.981  1.00  0.00     0.202 C 
BRANCH  35  36
ATOM     36  C   UNL A   1      34.730  34.237  28.249  1.00  0.00     0.261 C 
BRANCH  36  37
ATOM     37  O   UNL A   1      34.282  35.245  29.173  1.00  0.00    -0.460 OA
BRANCH  37  38
ATOM     38  C   UNL A   1      33.873  34.839  30.395  1.00  0.00     0.338 C 
ATOM     39  O   UNL A   1      32.728  34.829  30.815  1.00  0.00    -0.246 OA
BRANCH  38  40
ATOM     40  C   UNL A   1      35.020  34.192  31.066  1.00  0.00     0.060 A 
ATOM     41  C   UNL A   1      36.300  34.728  30.875  1.00  0.00     0.016 A 
ATOM     42  C   UNL A   1      34.837  33.071  31.879  1.00  0.00     0.016 A 
ATOM     43  C   UNL A   1      37.408  34.115  31.461  1.00  0.00     0.010 A 
ATOM     44  C   UNL A   1      35.952  32.443  32.446  1.00  0.00     0.010 A 
ATOM     45  C   UNL A   1      37.246  32.938  32.203  1.00  0.00    -0.014 A 
BRANCH  45  46
ATOM     46  C   UNL A   1      38.441  32.107  32.496  1.00  0.00     0.031 A 
ATOM     47  C   UNL A   1      39.183  32.368  33.781  1.00  0.00     0.074 A 
ATOM     48  C   UNL A   1      38.823  31.104  31.687  1.00  0.00     0.049 A 
ATOM     49  N   UNL A   1      40.237  31.773  34.274  1.00  0.00    -0.248 NA
ATOM     50  C   UNL A   1      38.656  33.455  34.620  1.00  0.00     0.031 C 
ATOM     51  C   UNL A   1      38.162  30.725  30.441  1.00  0.00     0.029 A 
ATOM     52  N   UNL A   1      39.865  30.217  31.801  1.00  0.00    -0.354 N 
ATOM     53  C   UNL A   1      40.495  32.407  35.485  1.00  0.00     0.074 A 
ATOM     54  C   UNL A   1      39.522  33.469  35.619  1.00  0.00     0.031 C 
ATOM     55  C   UNL A   1      38.823  29.686  29.898  1.00  0.00     0.029 A 
ATOM     56  C   UNL A   1      39.968  29.347  30.742  1.00  0.00     0.049 A 
ATOM     57  H   UNL A   1      40.481  30.206  32.569  1.00  0.00     0.167 HD
ATOM     58  C   UNL A   1      41.444  32.120  36.411  1.00  0.00     0.034 A 
ATOM     59  C   UNL A   1      40.892  28.401  30.476  1.00  0.00     0.034 A 
ATOM     60  C   UNL A   1      42.432  31.081  36.248  1.00  0.00     0.049 A 
ATOM     61  C   UNL A   1      42.001  28.158  31.473  1.00  0.00     0.074 A 
ATOM     62  C   UNL A   1      43.448  30.712  37.111  1.00  0.00     0.029 A 
ATOM     63  N   UNL A   1      42.537  30.252  35.136  1.00  0.00    -0.354 N 
ATOM     64  N   UNL A   1      42.234  28.757  32.620  1.00  0.00    -0.248 NA
ATOM     65  C   UNL A   1      42.962  27.097  31.145  1.00  0.00     0.031 C 
ATOM     66  C   UNL A   1      44.214  29.719  36.489  1.00  0.00     0.029 A 
ATOM     67  C   UNL A   1      43.622  29.398  35.278  1.00  0.00     0.049 A 
ATOM     68  H   UNL A   1      41.931  30.269  34.361  1.00  0.00     0.167 HD
ATOM     69  C   UNL A   1      43.353  28.125  33.161  1.00  0.00     0.074 A 
ATOM     70  C   UNL A   1      43.729  27.085  32.225  1.00  0.00     0.031 C 
ATOM     71  C   UNL A   1      44.006  28.377  34.327  1.00  0.00     0.034 A 
BRANCH  58  72
ATOM     72  C   UNL A   1      41.480  32.993  37.646  1.00  0.00     0.023 A 
ATOM     73  C   UNL A   1      40.792  32.637  38.822  1.00  0.00     0.031 A 
ATOM     74  C   UNL A   1      42.145  34.230  37.626  1.00  0.00     0.131 A 
ATOM     75  C   UNL A   1      40.706  33.546  39.887  1.00  0.00     0.055 A 
ATOM     76  C   UNL A   1      42.135  35.090  38.725  1.00  0.00     0.041 A 
ATOM     77  F   UNL A   1      42.795  34.639  36.525  1.00  0.00    -0.206 F 
ATOM     78  C   UNL A   1      41.396  34.760  39.858  1.00  0.00     0.022 A 
BRANCH  75  79
ATOM     79  S   UNL A   1      39.531  33.202  41.226  1.00  0.00     0.124 S 
ATOM     80  O   UNL A   1      40.418  33.128  42.384  1.00  0.00    -0.237 OA
ATOM     81  O   UNL A   1      38.644  34.359  41.171  1.00  0.00    -0.237 OA
ATOM     82  O   UNL A   1      38.926  31.931  40.833  1.00  0.00    -0.744 OA
ENDBRANCH  75  79
ENDBRANCH  58  72
BRANCH  59  83
ATOM     83  C   UNL A   1      40.840  27.638  29.194  1.00  0.00     0.023 A 
ATOM     84  C   UNL A   1      41.719  27.913  28.135  1.00  0.00     0.031 A 
ATOM     85  C   UNL A   1      39.866  26.642  29.000  1.00  0.00     0.131 A 
ATOM     86  C   UNL A   1      41.582  27.226  26.917  1.00  0.00     0.055 A 
ATOM     87  C   UNL A   1      39.768  25.926  27.806  1.00  0.00     0.041 A 
ATOM     88  F   UNL A   1      38.996  26.341  29.978  1.00  0.00    -0.206 F 
ATOM     89  C   UNL A   1      40.623  26.224  26.752  1.00  0.00     0.022 A 
BRANCH  86  90
ATOM     90  S   UNL A   1      42.636  27.709  25.520  1.00  0.00     0.124 S 
ATOM     91  O   UNL A   1      42.560  26.530  24.667  1.00  0.00    -0.237 OA
ATOM     92  O   UNL A   1      41.957  28.903  25.028  1.00  0.00    -0.237 OA
ATOM     93  O   UNL A   1      43.936  27.949  26.142  1.00  0.00    -0.744 OA
ENDBRANCH  86  90
ENDBRANCH  59  83
BRANCH  71  94
ATOM     94  C   UNL A   1      45.173  27.477  34.670  1.00  0.00     0.023 A 
ATOM     95  C   UNL A   1      46.488  27.780  34.272  1.00  0.00     0.031 A 
ATOM     96  C   UNL A   1      44.961  26.278  35.375  1.00  0.00     0.131 A 
ATOM     97  C   UNL A   1      47.521  26.859  34.507  1.00  0.00     0.055 A 
ATOM     98  C   UNL A   1      46.008  25.403  35.675  1.00  0.00     0.041 A 
ATOM     99  F   UNL A   1      43.730  25.929  35.779  1.00  0.00    -0.206 F 
ATOM    100  C   UNL A   1      47.293  25.682  35.223  1.00  0.00     0.022 A 
BRANCH  97 101
ATOM    101  S   UNL A   1      49.138  27.153  33.738  1.00  0.00     0.124 S 
ATOM    102  O   UNL A   1      49.089  26.264  32.582  1.00  0.00    -0.237 OA
ATOM    103  O   UNL A   1      49.090  28.582  33.446  1.00  0.00    -0.237 OA
ATOM    104  O   UNL A   1      50.089  26.764  34.778  1.00  0.00    -0.744 OA
ENDBRANCH  97 101
ENDBRANCH  71  94
ENDBRANCH  45  46
ENDBRANCH  38  40
ENDBRANCH  37  38
ENDBRANCH  36  37
ENDBRANCH  35  36
ENDBRANCH  34  35
ENDBRANCH  33  34
ENDBRANCH  32  33
ENDBRANCH  31  32
ENDBRANCH   1  31
TORSDOF 27
ENDMDL
MODEL 2
REMARK VINA RESULT:      -8.2      1.759      2.311
REMARK SMILES Cc1ccc(Cl)c(Nc2ccccc2C(=O)NCC(=O)OCCOCCOCCOCCOC(=O)c2ccc(-c3c4nc(c(-c5cc(S(=O)(=O)[O-])ccc5F)c5ccc([nH]5)c(-c5cc(S(=O)(=O)[O-])ccc5F)c5nc(c(-c6cc(S(=O)(=O)[O-])ccc6F)c6ccc3[nH]6)C=C5)C=C4)cc2)c1Cl
REMARK SMILES IDX 26 1 25 2 24 3 23 4 22 5 21 6 19 7 20 8 18 9 17 10 15 11
REMARK SMILES IDX 16 12 14 14 9 15 10 16 11 17 13 18 12 19 8 20 7 22 1 23 2 24
REMARK SMILES IDX 3 25 99 26 4 27 100 28 5 29 6 30 27 31 28 32 29 33 30 34
REMARK SMILES IDX 31 35 32 36 33 37 34 38 35 39 36 40 37 41 98 42 38 43 97 44
REMARK SMILES IDX 39 45 40 46 41 47 91 48 42 49 96 50 90 51 92 52 43 53 95 54
REMARK SMILES IDX 89 55 88 56 44 58 76 59 56 60 75 61 57 62 60 63 74 64 93 65
REMARK SMILES IDX 58 66 59 67 73 69 94 70 61 71 45 72 46 73 54 74 47 75 53 76
REMARK SMILES IDX 55 77 52 78 48 79 49 80 50 81 51 82 77 83 78 84 86 85 79 86
REMARK SMILES IDX 85 87 87 88 84 89 80 90 81 91 82 92 83 93 62 94 63 95 71 96
REMARK SMILES IDX 64 97 70 98 72 99 69 100 65 101 66 102 67 103 68 104
REMARK H PARENT 17 13 8 21 92 57 60 68
REMARK Flexibility Score: inf
ROOT
ATOM      1  C   UNL A   1      33.220  30.057  25.701  1.00  0.00     0.188 C 
ENDROOT
BRANCH   1   2
ATOM      2  C   UNL A   1      31.684  30.151  25.680  1.00  0.00     0.188 C 
BRANCH   2   3
ATOM      3  O   UNL A   1      30.994  29.209  24.889  1.00  0.00    -0.376 OA
BRANCH   3   4
ATOM      4  C   UNL A   1      30.942  29.278  23.469  1.00  0.00     0.202 C 
BRANCH   4   5
ATOM      5  C   UNL A   1      31.887  28.560  22.497  1.00  0.00     0.261 C 
BRANCH   5   6
ATOM      6  O   UNL A   1      33.209  28.326  22.976  1.00  0.00    -0.462 OA
BRANCH   6   7
ATOM      7  C   UNL A   1      33.535  27.021  22.996  1.00  0.00     0.325 C 
ATOM      8  O   UNL A   1      33.746  26.333  21.997  1.00  0.00    -0.250 OA
BRANCH   7   9
ATOM      9  C   UNL A   1      33.815  26.439  24.356  1.00  0.00     0.239 C 
BRANCH   9  10
ATOM     10  N   UNL A   1      33.251  26.604  25.672  1.00  0.00    -0.341 N 
ATOM     11  C   UNL A   1      32.248  25.768  26.152  1.00  0.00     0.253 C 
ATOM     12  O   UNL A   1      32.043  25.660  27.358  1.00  0.00    -0.269 OA
ATOM     13  H   UNL A   1      33.587  27.327  26.249  1.00  0.00     0.164 HD
BRANCH  11  14
ATOM     14  C   UNL A   1      31.277  25.167  25.175  1.00  0.00     0.063 A 
ATOM     15  C   UNL A   1      31.381  23.907  24.532  1.00  0.00     0.051 A 
ATOM     16  C   UNL A   1      30.613  23.713  23.364  1.00  0.00     0.027 A 
ATOM     17  C   UNL A   1      29.727  24.682  22.890  1.00  0.00     0.002 A 
ATOM     18  C   UNL A   1      30.321  26.105  24.733  1.00  0.00     0.016 A 
ATOM     19  C   UNL A   1      29.549  25.862  23.599  1.00  0.00     0.001 A 
BRANCH  15  20
ATOM     20  N   UNL A   1      32.183  22.807  24.920  1.00  0.00    -0.352 N 
ATOM     21  H   UNL A   1      31.671  21.973  25.030  1.00  0.00     0.167 HD
BRANCH  20  22
ATOM     22  C   UNL A   1      33.568  22.649  25.185  1.00  0.00     0.077 A 
ATOM     23  C   UNL A   1      36.952  22.206  23.430  1.00  0.00     0.046 C 
ATOM     24  C   UNL A   1      35.888  22.252  24.492  1.00  0.00    -0.030 A 
ATOM     25  C   UNL A   1      36.217  21.866  25.800  1.00  0.00     0.006 A 
ATOM     26  C   UNL A   1      34.568  22.658  24.194  1.00  0.00     0.069 A 
ATOM     27  C   UNL A   1      35.272  21.953  26.814  1.00  0.00     0.023 A 
ATOM     28  Cl  UNL A   1      34.237  23.330  22.623  1.00  0.00    -0.082 Cl
ATOM     29  C   UNL A   1      33.974  22.364  26.513  1.00  0.00     0.066 A 
ATOM     30  Cl  UNL A   1      32.850  22.477  27.829  1.00  0.00    -0.082 Cl
ENDBRANCH  20  22
ENDBRANCH  15  20
ENDBRANCH  11  14
ENDBRANCH   9  10
ENDBRANCH   7   9
ENDBRANCH   6   7
ENDBRANCH   5   6
ENDBRANCH   4   5
ENDBRANCH   3   4
ENDBRANCH   2   3
ENDBRANCH   1   2
BRANCH   1  31
ATOM     31  O   UNL A   1      33.823  29.185  26.639  1.00  0.00    -0.377 OA
BRANCH  31  32
ATOM     32  C   UNL A   1      35.147  29.454  27.107  1.00  0.00     0.188 C 
BRANCH  32  33
ATOM     33  C   UNL A   1      35.413  30.311  28.365  1.00  0.00     0.188 C 
BRANCH  33  34
ATOM     34  O   UNL A   1      34.333  31.135  28.770  1.00  0.00    -0.376 OA
BRANCH  34  35
ATOM     35  C   UNL A   1      34.175  32.367  28.083  1.00  0.00     0.202 C 
BRANCH  35  36
ATOM     36  C   UNL A   1      35.319  33.376  28.253  1.00  0.00     0.261 C 
BRANCH  36  37
ATOM     37  O   UNL A   1      35.039  34.515  29.087  1.00  0.00    -0.460 OA
BRANCH  37  38
ATOM     38  C   UNL A   1      34.837  34.293  30.405  1.00  0.00     0.338 C 
ATOM     39  O   UNL A   1      33.795  34.449  31.019  1.00  0.00    -0.246 OA
BRANCH  38  40
ATOM     40  C   UNL A   1      36.034  33.611  30.939  1.00  0.00     0.060 A 
ATOM     41  C   UNL A   1      37.296  34.159  30.673  1.00  0.00     0.016 A 
ATOM     42  C   UNL A   1      35.916  32.444  31.698  1.00  0.00     0.016 A 
ATOM     43  C   UNL A   1      38.447  33.515  31.128  1.00  0.00     0.010 A 
ATOM     44  C   UNL A   1      37.073  31.786  32.133  1.00  0.00     0.010 A 
ATOM     45  C   UNL A   1      38.343  32.297  31.812  1.00  0.00    -0.014 A 
BRANCH  45  46
ATOM     46  C   UNL A   1      39.556  31.453  31.955  1.00  0.00     0.031 A 
ATOM     47  C   UNL A   1      40.434  31.678  33.158  1.00  0.00     0.074 A 
ATOM     48  C   UNL A   1      39.841  30.467  31.086  1.00  0.00     0.049 A 
ATOM     49  N   UNL A   1      41.530  31.066  33.520  1.00  0.00    -0.248 NA
ATOM     50  C   UNL A   1      40.009  32.748  34.074  1.00  0.00     0.031 C 
ATOM     51  C   UNL A   1      39.047  30.121  29.910  1.00  0.00     0.029 A 
ATOM     52  N   UNL A   1      40.882  29.572  31.067  1.00  0.00    -0.354 N 
ATOM     53  C   UNL A   1      41.922  31.669  34.711  1.00  0.00     0.074 A 
ATOM     54  C   UNL A   1      40.977  32.733  34.974  1.00  0.00     0.031 C 
ATOM     55  C   UNL A   1      39.637  29.093  29.275  1.00  0.00     0.029 A 
ATOM     56  C   UNL A   1      40.864  28.727  29.982  1.00  0.00     0.049 A 
ATOM     57  H   UNL A   1      41.577  29.539  31.764  1.00  0.00     0.167 HD
ATOM     58  C   UNL A   1      42.963  31.355  35.524  1.00  0.00     0.034 A 
ATOM     59  C   UNL A   1      41.746  27.783  29.597  1.00  0.00     0.034 A 
ATOM     60  C   UNL A   1      43.918  30.314  35.231  1.00  0.00     0.049 A 
ATOM     61  C   UNL A   1      42.954  27.509  30.463  1.00  0.00     0.074 A 
ATOM     62  C   UNL A   1      45.018  29.919  35.970  1.00  0.00     0.029 A 
ATOM     63  N   UNL A   1      43.897  29.512  34.095  1.00  0.00    -0.354 N 
ATOM     64  N   UNL A   1      43.313  28.080  31.592  1.00  0.00    -0.248 NA
ATOM     65  C   UNL A   1      43.865  26.451  30.009  1.00  0.00     0.031 C 
ATOM     66  C   UNL A   1      45.705  28.937  35.247  1.00  0.00     0.029 A 
ATOM     67  C   UNL A   1      44.984  28.648  34.099  1.00  0.00     0.049 A 
ATOM     68  H   UNL A   1      43.211  29.551  33.390  1.00  0.00     0.167 HD
ATOM     69  C   UNL A   1      44.478  27.428  31.994  1.00  0.00     0.074 A 
ATOM     70  C   UNL A   1      44.744  26.409  31.000  1.00  0.00     0.031 C 
ATOM     71  C   UNL A   1      45.255  27.649  33.089  1.00  0.00     0.034 A 
BRANCH  58  72
ATOM     72  C   UNL A   1      43.137  32.197  36.767  1.00  0.00     0.023 A 
ATOM     73  C   UNL A   1      42.421  31.927  37.948  1.00  0.00     0.031 A 
ATOM     74  C   UNL A   1      43.972  33.328  36.751  1.00  0.00     0.131 A 
ATOM     75  C   UNL A   1      42.479  32.825  39.025  1.00  0.00     0.055 A 
ATOM     76  C   UNL A   1      44.099  34.166  37.860  1.00  0.00     0.041 A 
ATOM     77  F   UNL A   1      44.660  33.654  35.646  1.00  0.00    -0.206 F 
ATOM     78  C   UNL A   1      43.334  33.929  39.000  1.00  0.00     0.022 A 
BRANCH  75  79
ATOM     79  S   UNL A   1      41.283  32.635  40.376  1.00  0.00     0.124 S 
ATOM     80  O   UNL A   1      40.038  32.431  39.641  1.00  0.00    -0.237 OA
ATOM     81  O   UNL A   1      41.801  31.474  41.093  1.00  0.00    -0.237 OA
ATOM     82  O   UNL A   1      41.373  33.904  41.095  1.00  0.00    -0.744 OA
ENDBRANCH  75  79
ENDBRANCH  58  72
BRANCH  59  83
ATOM     83  C   UNL A   1      41.550  27.050  28.311  1.00  0.00     0.023 A 
ATOM     84  C   UNL A   1      41.167  25.700  28.281  1.00  0.00     0.031 A 
ATOM     85  C   UNL A   1      41.791  27.694  27.083  1.00  0.00     0.131 A 
ATOM     86  C   UNL A   1      41.072  25.028  27.051  1.00  0.00     0.055 A 
ATOM     87  C   UNL A   1      41.645  27.035  25.862  1.00  0.00     0.041 A 
ATOM     88  F   UNL A   1      42.165  28.983  27.054  1.00  0.00    -0.206 F 
ATOM     89  C   UNL A   1      41.294  25.690  25.842  1.00  0.00     0.022 A 
BRANCH  86  90
ATOM     90  S   UNL A   1      40.720  23.247  27.056  1.00  0.00     0.124 S 
ATOM     91  O   UNL A   1      41.525  22.780  25.934  1.00  0.00    -0.237 OA
ATOM     92  O   UNL A   1      41.179  22.851  28.384  1.00  0.00    -0.237 OA
ATOM     93  O   UNL A   1      39.274  23.186  26.857  1.00  0.00    -0.744 OA
ENDBRANCH  86  90
ENDBRANCH  59  83
BRANCH  71  94
ATOM     94  C   UNL A   1      46.445  26.734  33.283  1.00  0.00     0.023 A 
ATOM     95  C   UNL A   1      47.710  27.035  32.747  1.00  0.00     0.031 A 
ATOM     96  C   UNL A   1      46.302  25.523  33.986  1.00  0.00     0.131 A 
ATOM     97  C   UNL A   1      48.755  26.103  32.848  1.00  0.00     0.055 A 
ATOM     98  C   UNL A   1      47.368  24.635  34.152  1.00  0.00     0.041 A 
ATOM     99  F   UNL A   1      45.120  25.176  34.519  1.00  0.00    -0.206 F 
ATOM    100  C   UNL A   1      48.597  24.914  33.564  1.00  0.00     0.022 A 
BRANCH  97 101
ATOM    101  S   UNL A   1      50.278  26.399  31.909  1.00  0.00     0.124 S 
ATOM    102  O   UNL A   1      50.628  27.754  32.320  1.00  0.00    -0.237 OA
ATOM    103  O   UNL A   1      51.156  25.339  32.394  1.00  0.00    -0.237 OA
ATOM    104  O   UNL A   1      49.855  26.265  30.516  1.00  0.00    -0.744 OA
ENDBRANCH  97 101
ENDBRANCH  71  94
ENDBRANCH  45  46
ENDBRANCH  38  40
ENDBRANCH  37  38
ENDBRANCH  36  37
ENDBRANCH  35  36
ENDBRANCH  34  35
ENDBRANCH  33  34
ENDBRANCH  32  33
ENDBRANCH  31  32
ENDBRANCH   1  31
TORSDOF 27
ENDMDL
MODEL 3
REMARK VINA RESULT:      -7.7      4.041      9.518
REMARK SMILES Cc1ccc(Cl)c(Nc2ccccc2C(=O)NCC(=O)OCCOCCOCCOCCOC(=O)c2ccc(-c3c4nc(c(-c5cc(S(=O)(=O)[O-])ccc5F)c5ccc([nH]5)c(-c5cc(S(=O)(=O)[O-])ccc5F)c5nc(c(-c6cc(S(=O)(=O)[O-])ccc6F)c6ccc3[nH]6)C=C5)C=C4)cc2)c1Cl
REMARK SMILES IDX 26 1 25 2 24 3 23 4 22 5 21 6 19 7 20 8 18 9 17 10 15 11
REMARK SMILES IDX 16 12 14 14 9 15 10 16 11 17 13 18 12 19 8 20 7 22 1 23 2 24
REMARK SMILES IDX 3 25 99 26 4 27 100 28 5 29 6 30 27 31 28 32 29 33 30 34
REMARK SMILES IDX 31 35 32 36 33 37 34 38 35 39 36 40 37 41 98 42 38 43 97 44
REMARK SMILES IDX 39 45 40 46 41 47 91 48 42 49 96 50 90 51 92 52 43 53 95 54
REMARK SMILES IDX 89 55 88 56 44 58 76 59 56 60 75 61 57 62 60 63 74 64 93 65
REMARK SMILES IDX 58 66 59 67 73 69 94 70 61 71 45 72 46 73 54 74 47 75 53 76
REMARK SMILES IDX 55 77 52 78 48 79 49 80 50 81 51 82 77 83 78 84 86 85 79 86
REMARK SMILES IDX 85 87 87 88 84 89 80 90 81 91 82 92 83 93 62 94 63 95 71 96
REMARK SMILES IDX 64 97 70 98 72 99 69 100 65 101 66 102 67 103 68 104
REMARK H PARENT 17 13 8 21 92 57 60 68
REMARK Flexibility Score: inf
ROOT
ATOM      1  C   UNL A   1      34.255  33.789  30.690  1.00  0.00     0.188 C 
ENDROOT
BRANCH   1   2
ATOM      2  C   UNL A   1      35.031  33.756  29.362  1.00  0.00     0.188 C 
BRANCH   2   3
ATOM      3  O   UNL A   1      35.713  32.562  29.047  1.00  0.00    -0.376 OA
BRANCH   3   4
ATOM      4  C   UNL A   1      35.047  31.329  28.804  1.00  0.00     0.202 C 
BRANCH   4   5
ATOM      5  C   UNL A   1      33.917  31.099  27.791  1.00  0.00     0.261 C 
BRANCH   5   6
ATOM      6  O   UNL A   1      34.300  30.482  26.564  1.00  0.00    -0.462 OA
BRANCH   6   7
ATOM      7  C   UNL A   1      33.328  29.714  26.039  1.00  0.00     0.325 C 
ATOM      8  O   UNL A   1      32.999  29.711  24.852  1.00  0.00    -0.250 OA
BRANCH   7   9
ATOM      9  C   UNL A   1      32.740  28.683  26.963  1.00  0.00     0.239 C 
BRANCH   9  10
ATOM     10  N   UNL A   1      31.602  27.800  26.915  1.00  0.00    -0.341 N 
ATOM     11  C   UNL A   1      31.714  26.478  26.498  1.00  0.00     0.253 C 
ATOM     12  O   UNL A   1      30.865  25.646  26.808  1.00  0.00    -0.269 OA
ATOM     13  H   UNL A   1      30.720  28.142  27.187  1.00  0.00     0.164 HD
BRANCH  11  14
ATOM     14  C   UNL A   1      32.766  26.125  25.484  1.00  0.00     0.063 A 
ATOM     15  C   UNL A   1      32.702  26.326  24.081  1.00  0.00     0.051 A 
ATOM     16  C   UNL A   1      33.580  25.564  23.280  1.00  0.00     0.027 A 
ATOM     17  C   UNL A   1      34.528  24.701  23.833  1.00  0.00     0.002 A 
ATOM     18  C   UNL A   1      33.779  25.313  26.032  1.00  0.00     0.016 A 
ATOM     19  C   UNL A   1      34.656  24.608  25.212  1.00  0.00     0.001 A 
BRANCH  15  20
ATOM     20  N   UNL A   1      31.844  27.203  23.375  1.00  0.00    -0.352 N 
ATOM     21  H   UNL A   1      32.329  27.857  22.821  1.00  0.00     0.167 HD
BRANCH  20  22
ATOM     22  C   UNL A   1      30.435  27.341  23.296  1.00  0.00     0.077 A 
ATOM     23  C   UNL A   1      27.666  29.979  22.974  1.00  0.00     0.046 C 
ATOM     24  C   UNL A   1      28.377  28.674  23.206  1.00  0.00    -0.030 A 
ATOM     25  C   UNL A   1      27.633  27.560  23.624  1.00  0.00     0.006 A 
ATOM     26  C   UNL A   1      29.773  28.554  23.028  1.00  0.00     0.069 A 
ATOM     27  C   UNL A   1      28.250  26.328  23.790  1.00  0.00     0.023 A 
ATOM     28  Cl  UNL A   1      30.639  29.882  22.309  1.00  0.00    -0.082 Cl
ATOM     29  C   UNL A   1      29.627  26.217  23.603  1.00  0.00     0.066 A 
ATOM     30  Cl  UNL A   1      30.332  24.644  23.800  1.00  0.00    -0.082 Cl
ENDBRANCH  20  22
ENDBRANCH  15  20
ENDBRANCH  11  14
ENDBRANCH   9  10
ENDBRANCH   7   9
ENDBRANCH   6   7
ENDBRANCH   5   6
ENDBRANCH   4   5
ENDBRANCH   3   4
ENDBRANCH   2   3
ENDBRANCH   1   2
BRANCH   1  31
ATOM     31  O   UNL A   1      34.947  33.449  31.877  1.00  0.00    -0.377 OA
BRANCH  31  32
ATOM     32  C   UNL A   1      35.470  34.484  32.712  1.00  0.00     0.188 C 
BRANCH  32  33
ATOM     33  C   UNL A   1      36.873  34.388  33.355  1.00  0.00     0.188 C 
BRANCH  33  34
ATOM     34  O   UNL A   1      37.219  33.106  33.852  1.00  0.00    -0.376 OA
BRANCH  34  35
ATOM     35  C   UNL A   1      37.977  32.269  32.993  1.00  0.00     0.202 C 
BRANCH  35  36
ATOM     36  C   UNL A   1      37.296  30.962  32.565  1.00  0.00     0.261 C 
BRANCH  36  37
ATOM     37  O   UNL A   1      37.561  30.522  31.220  1.00  0.00    -0.460 OA
BRANCH  37  38
ATOM     38  C   UNL A   1      38.694  30.959  30.629  1.00  0.00     0.338 C 
ATOM     39  O   UNL A   1      38.795  31.883  29.839  1.00  0.00    -0.246 OA
BRANCH  38  40
ATOM     40  C   UNL A   1      39.835  30.272  31.271  1.00  0.00     0.060 A 
ATOM     41  C   UNL A   1      40.947  31.031  31.655  1.00  0.00     0.016 A 
ATOM     42  C   UNL A   1      39.807  28.893  31.495  1.00  0.00     0.016 A 
ATOM     43  C   UNL A   1      42.057  30.404  32.224  1.00  0.00     0.010 A 
ATOM     44  C   UNL A   1      40.930  28.263  32.044  1.00  0.00     0.010 A 
ATOM     45  C   UNL A   1      42.075  29.012  32.371  1.00  0.00    -0.014 A 
BRANCH  45  46
ATOM     46  C   UNL A   1      43.374  28.336  32.620  1.00  0.00     0.031 A 
ATOM     47  C   UNL A   1      44.209  27.953  31.426  1.00  0.00     0.074 A 
ATOM     48  C   UNL A   1      43.838  28.127  33.864  1.00  0.00     0.049 A 
ATOM     49  N   UNL A   1      45.379  27.373  31.375  1.00  0.00    -0.248 NA
ATOM     50  C   UNL A   1      43.634  28.269  30.109  1.00  0.00     0.031 C 
ATOM     51  C   UNL A   1      43.145  28.492  35.097  1.00  0.00     0.029 A 
ATOM     52  N   UNL A   1      45.011  27.556  34.292  1.00  0.00    -0.354 N 
ATOM     53  C   UNL A   1      45.686  27.264  30.023  1.00  0.00     0.074 A 
ATOM     54  C   UNL A   1      44.551  27.782  29.291  1.00  0.00     0.031 C 
ATOM     55  C   UNL A   1      43.903  28.126  36.146  1.00  0.00     0.029 A 
ATOM     56  C   UNL A   1      45.119  27.474  35.659  1.00  0.00     0.049 A 
ATOM     57  H   UNL A   1      45.709  27.234  33.676  1.00  0.00     0.167 HD
ATOM     58  C   UNL A   1      46.819  26.792  29.442  1.00  0.00     0.034 A 
ATOM     59  C   UNL A   1      46.079  26.920  36.427  1.00  0.00     0.034 A 
ATOM     60  C   UNL A   1      47.929  26.245  30.183  1.00  0.00     0.049 A 
ATOM     61  C   UNL A   1      47.291  26.311  35.761  1.00  0.00     0.074 A 
ATOM     62  C   UNL A   1      49.116  25.724  29.702  1.00  0.00     0.029 A 
ATOM     63  N   UNL A   1      47.981  26.131  31.568  1.00  0.00    -0.354 N 
ATOM     64  N   UNL A   1      47.577  26.217  34.482  1.00  0.00    -0.248 NA
ATOM     65  C   UNL A   1      48.318  25.748  36.648  1.00  0.00     0.031 C 
ATOM     66  C   UNL A   1      49.849  25.225  30.785  1.00  0.00     0.029 A 
ATOM     67  C   UNL A   1      49.165  25.518  31.954  1.00  0.00     0.049 A 
ATOM     68  H   UNL A   1      47.279  26.440  32.186  1.00  0.00     0.167 HD
ATOM     69  C   UNL A   1      48.830  25.609  34.414  1.00  0.00     0.074 A 
ATOM     70  C   UNL A   1      49.251  25.382  35.782  1.00  0.00     0.031 C 
ATOM     71  C   UNL A   1      49.567  25.273  33.322  1.00  0.00     0.034 A 
BRANCH  58  72
ATOM     72  C   UNL A   1      46.865  26.800  27.931  1.00  0.00     0.023 A 
ATOM     73  C   UNL A   1      46.377  25.720  27.171  1.00  0.00     0.031 A 
ATOM     74  C   UNL A   1      47.470  27.865  27.241  1.00  0.00     0.131 A 
ATOM     75  C   UNL A   1      46.589  25.685  25.784  1.00  0.00     0.055 A 
ATOM     76  C   UNL A   1      47.593  27.868  25.851  1.00  0.00     0.041 A 
ATOM     77  F   UNL A   1      47.980  28.911  27.911  1.00  0.00    -0.206 F 
ATOM     78  C   UNL A   1      47.170  26.765  25.114  1.00  0.00     0.022 A 
BRANCH  75  79
ATOM     79  S   UNL A   1      46.268  24.135  24.898  1.00  0.00     0.124 S 
ATOM     80  O   UNL A   1      44.842  24.253  24.605  1.00  0.00    -0.237 OA
ATOM     81  O   UNL A   1      47.167  24.234  23.754  1.00  0.00    -0.237 OA
ATOM     82  O   UNL A   1      46.611  23.104  25.876  1.00  0.00    -0.744 OA
ENDBRANCH  75  79
ENDBRANCH  58  72
BRANCH  59  83
ATOM     83  C   UNL A   1      45.922  26.874  37.911  1.00  0.00     0.023 A 
ATOM     84  C   UNL A   1      46.484  27.855  38.744  1.00  0.00     0.031 A 
ATOM     85  C   UNL A   1      45.236  25.808  38.521  1.00  0.00     0.131 A 
ATOM     86  C   UNL A   1      46.381  27.731  40.139  1.00  0.00     0.055 A 
ATOM     87  C   UNL A   1      45.092  25.716  39.906  1.00  0.00     0.041 A 
ATOM     88  F   UNL A   1      44.684  24.840  37.772  1.00  0.00    -0.206 F 
ATOM     89  C   UNL A   1      45.676  26.677  40.724  1.00  0.00     0.022 A 
BRANCH  86  90
ATOM     90  S   UNL A   1      47.244  28.934  41.189  1.00  0.00     0.124 S 
ATOM     91  O   UNL A   1      46.243  29.212  42.211  1.00  0.00    -0.237 OA
ATOM     92  O   UNL A   1      48.412  28.174  41.624  1.00  0.00    -0.237 OA
ATOM     93  O   UNL A   1      47.530  30.038  40.275  1.00  0.00    -0.744 OA
ENDBRANCH  86  90
ENDBRANCH  59  83
BRANCH  71  94
ATOM     94  C   UNL A   1      50.929  24.662  33.573  1.00  0.00     0.023 A 
ATOM     95  C   UNL A   1      51.116  23.270  33.654  1.00  0.00     0.031 A 
ATOM     96  C   UNL A   1      52.052  25.486  33.770  1.00  0.00     0.131 A 
ATOM     97  C   UNL A   1      52.371  22.750  34.007  1.00  0.00     0.055 A 
ATOM     98  C   UNL A   1      53.316  24.959  34.043  1.00  0.00     0.041 A 
ATOM     99  F   UNL A   1      51.940  26.822  33.709  1.00  0.00    -0.206 F 
ATOM    100  C   UNL A   1      53.476  23.585  34.183  1.00  0.00     0.022 A 
BRANCH  97 101
ATOM    101  S   UNL A   1      52.505  20.978  34.375  1.00  0.00     0.124 S 
ATOM    102  O   UNL A   1      53.945  20.759  34.284  1.00  0.00    -0.237 OA
ATOM    103  O   UNL A   1      51.930  20.893  35.714  1.00  0.00    -0.237 OA
ATOM    104  O   UNL A   1      51.714  20.347  33.320  1.00  0.00    -0.744 OA
ENDBRANCH  97 101
ENDBRANCH  71  94
ENDBRANCH  45  46
ENDBRANCH  38  40
ENDBRANCH  37  38
ENDBRANCH  36  37
ENDBRANCH  35  36
ENDBRANCH  34  35
ENDBRANCH  33  34
ENDBRANCH  32  33
ENDBRANCH  31  32
ENDBRANCH   1  31
TORSDOF 27
ENDMDL
