MODEL 1
REMARK VINA RESULT:      -8.8      0.000      0.000
REMARK SMILES Cc1cc(Cl)c(C)c2c1O[C@H](C(F)(F)F)C(C(=O)OCCOCCOCCOCCOC(=O)c1ccc(-c3c4nc(c(-c5cc(S(=O)(=O)[O-])ccc5F)c5ccc([nH]5)c(-c5cc(S(=O)(=O)[O-])ccc5F)c5nc(c(-c6cc(S(=O)(=O)[O-])ccc6F)c6ccc3[nH]6)C=C5)C=C4)cc1)=C2
REMARK SMILES IDX 26 1 25 2 24 3 23 4 22 5 21 6 20 7 19 8 17 9 18 10 16 11
REMARK SMILES IDX 1 12 2 13 3 14 9 15 4 16 8 17 10 18 5 19 6 20 97 21 11 22
REMARK SMILES IDX 7 23 12 24 13 25 14 26 15 27 27 28 28 29 29 30 30 31 31 32
REMARK SMILES IDX 32 33 33 34 34 35 35 36 96 37 36 38 95 39 37 40 38 41 39 42
REMARK SMILES IDX 89 43 40 44 94 45 88 46 90 47 41 48 93 49 87 50 86 51 42 53
REMARK SMILES IDX 74 54 54 55 73 56 55 57 58 58 72 59 91 60 56 61 57 62 71 64
REMARK SMILES IDX 92 65 59 66 43 67 44 68 52 69 45 70 51 71 53 72 50 73 46 74
REMARK SMILES IDX 47 75 48 76 49 77 75 78 76 79 84 80 77 81 83 82 85 83 82 84
REMARK SMILES IDX 78 85 79 86 80 87 81 88 60 89 61 90 69 91 62 92 68 93 70 94
REMARK SMILES IDX 67 95 63 96 64 97 65 98 66 99
REMARK H PARENT 90 52 58 63
REMARK Flexibility Score: inf
ROOT
ATOM      1  C   UNL A   1      34.426  31.178  27.595  1.00  0.00     0.188 C 
ENDROOT
BRANCH   1   2
ATOM      2  O   UNL A   1      33.757  29.932  27.401  1.00  0.00    -0.377 OA
BRANCH   2   3
ATOM      3  C   UNL A   1      32.687  29.908  26.473  1.00  0.00     0.188 C 
BRANCH   3   4
ATOM      4  C   UNL A   1      33.152  29.638  25.030  1.00  0.00     0.188 C 
BRANCH   4   5
ATOM      5  O   UNL A   1      32.264  28.890  24.224  1.00  0.00    -0.376 OA
BRANCH   5   6
ATOM      6  C   UNL A   1      32.638  28.319  22.980  1.00  0.00     0.202 C 
BRANCH   6   7
ATOM      7  C   UNL A   1      32.668  26.821  22.611  1.00  0.00     0.261 C 
BRANCH   7   8
ATOM      8  O   UNL A   1      33.474  25.949  23.399  1.00  0.00    -0.460 OA
BRANCH   8   9
ATOM      9  C   UNL A   1      32.890  25.340  24.444  1.00  0.00     0.338 C 
ATOM     10  O   UNL A   1      31.892  25.698  25.043  1.00  0.00    -0.246 OA
BRANCH   9  11
ATOM     11  C   UNL A   1      33.568  24.039  24.630  1.00  0.00     0.087 C 
ATOM     12  C   UNL A   1      34.873  19.118  24.623  1.00  0.00     0.048 C 
ATOM     13  C   UNL A   1      35.584  20.407  24.929  1.00  0.00    -0.007 A 
ATOM     14  C   UNL A   1      36.949  20.396  25.230  1.00  0.00     0.028 A 
ATOM     15  C   UNL A   1      34.899  21.630  24.929  1.00  0.00     0.131 A 
ATOM     16  C   UNL A   1      37.619  21.578  25.560  1.00  0.00     0.045 A 
ATOM     17  C   UNL A   1      35.578  22.831  25.196  1.00  0.00     0.022 A 
ATOM     18  O   UNL A   1      33.561  21.558  24.660  1.00  0.00    -0.475 OA
ATOM     19  Cl  UNL A   1      39.306  21.436  25.917  1.00  0.00    -0.084 Cl
ATOM     20  C   UNL A   1      36.944  22.812  25.575  1.00  0.00    -0.021 A 
ATOM     21  C   UNL A   1      34.851  24.084  25.006  1.00  0.00     0.027 C 
ATOM     22  C   UNL A   1      32.783  22.768  24.478  1.00  0.00     0.316 C 
ATOM     23  C   UNL A   1      37.628  24.083  26.017  1.00  0.00     0.047 C 
BRANCH  22  24
ATOM     24  C   UNL A   1      32.079  22.676  23.120  1.00  0.00     0.430 C 
ATOM     25  F   UNL A   1      30.901  23.344  23.130  1.00  0.00    -0.167 F 
ATOM     26  F   UNL A   1      32.823  23.206  22.122  1.00  0.00    -0.167 F 
ATOM     27  F   UNL A   1      31.812  21.391  22.786  1.00  0.00    -0.167 F 
ENDBRANCH  22  24
ENDBRANCH   9  11
ENDBRANCH   8   9
ENDBRANCH   7   8
ENDBRANCH   6   7
ENDBRANCH   5   6
ENDBRANCH   4   5
ENDBRANCH   3   4
ENDBRANCH   2   3
ENDBRANCH   1   2
BRANCH   1  28
ATOM     28  C   UNL A   1      33.650  32.416  28.101  1.00  0.00     0.188 C 
BRANCH  28  29
ATOM     29  O   UNL A   1      34.462  33.571  28.296  1.00  0.00    -0.376 OA
BRANCH  29  30
ATOM     30  C   UNL A   1      34.837  33.901  29.625  1.00  0.00     0.202 C 
BRANCH  30  31
ATOM     31  C   UNL A   1      34.405  32.899  30.704  1.00  0.00     0.261 C 
BRANCH  31  32
ATOM     32  O   UNL A   1      35.316  31.818  30.951  1.00  0.00    -0.460 OA
BRANCH  32  33
ATOM     33  C   UNL A   1      36.154  31.944  32.005  1.00  0.00     0.338 C 
ATOM     34  O   UNL A   1      35.843  32.012  33.181  1.00  0.00    -0.246 OA
BRANCH  33  35
ATOM     35  C   UNL A   1      37.531  31.783  31.497  1.00  0.00     0.060 A 
ATOM     36  C   UNL A   1      38.568  31.541  32.406  1.00  0.00     0.016 A 
ATOM     37  C   UNL A   1      37.789  31.854  30.126  1.00  0.00     0.016 A 
ATOM     38  C   UNL A   1      39.878  31.400  31.944  1.00  0.00     0.010 A 
ATOM     39  C   UNL A   1      39.103  31.739  29.669  1.00  0.00     0.010 A 
ATOM     40  C   UNL A   1      40.157  31.544  30.580  1.00  0.00    -0.014 A 
BRANCH  40  41
ATOM     41  C   UNL A   1      41.559  31.717  30.129  1.00  0.00     0.031 A 
ATOM     42  C   UNL A   1      42.307  30.492  29.675  1.00  0.00     0.074 A 
ATOM     43  C   UNL A   1      42.146  32.926  30.090  1.00  0.00     0.049 A 
ATOM     44  N   UNL A   1      43.553  30.373  29.301  1.00  0.00    -0.248 NA
ATOM     45  C   UNL A   1      41.541  29.235  29.638  1.00  0.00     0.031 C 
ATOM     46  C   UNL A   1      41.500  34.191  30.434  1.00  0.00     0.029 A 
ATOM     47  N   UNL A   1      43.423  33.285  29.736  1.00  0.00    -0.354 N 
ATOM     48  C   UNL A   1      43.720  29.031  28.978  1.00  0.00     0.074 A 
ATOM     49  C   UNL A   1      42.459  28.370  29.235  1.00  0.00     0.031 C 
ATOM     50  C   UNL A   1      42.387  35.190  30.272  1.00  0.00     0.029 A 
ATOM     51  C   UNL A   1      43.673  34.632  29.855  1.00  0.00     0.049 A 
ATOM     52  H   UNL A   1      44.097  32.637  29.428  1.00  0.00     0.167 HD
ATOM     53  C   UNL A   1      44.822  28.407  28.498  1.00  0.00     0.034 A 
ATOM     54  C   UNL A   1      44.815  35.326  29.668  1.00  0.00     0.034 A 
ATOM     55  C   UNL A   1      46.076  29.071  28.256  1.00  0.00     0.049 A 
ATOM     56  C   UNL A   1      46.065  34.590  29.250  1.00  0.00     0.074 A 
ATOM     57  C   UNL A   1      47.257  28.527  27.785  1.00  0.00     0.029 A 
ATOM     58  N   UNL A   1      46.314  30.422  28.470  1.00  0.00    -0.354 N 
ATOM     59  N   UNL A   1      46.223  33.313  28.987  1.00  0.00    -0.248 NA
ATOM     60  C   UNL A   1      47.293  35.387  29.111  1.00  0.00     0.031 C 
ATOM     61  C   UNL A   1      48.228  29.534  27.777  1.00  0.00     0.029 A 
ATOM     62  C   UNL A   1      47.632  30.722  28.170  1.00  0.00     0.049 A 
ATOM     63  H   UNL A   1      45.644  31.070  28.787  1.00  0.00     0.167 HD
ATOM     64  C   UNL A   1      47.559  33.161  28.626  1.00  0.00     0.074 A 
ATOM     65  C   UNL A   1      48.164  34.474  28.701  1.00  0.00     0.031 C 
ATOM     66  C   UNL A   1      48.224  32.035  28.260  1.00  0.00     0.034 A 
BRANCH  53  67
ATOM     67  C   UNL A   1      44.730  26.928  28.242  1.00  0.00     0.023 A 
ATOM     68  C   UNL A   1      44.188  26.422  27.049  1.00  0.00     0.031 A 
ATOM     69  C   UNL A   1      45.203  26.013  29.197  1.00  0.00     0.131 A 
ATOM     70  C   UNL A   1      44.101  25.035  26.856  1.00  0.00     0.055 A 
ATOM     71  C   UNL A   1      45.172  24.636  28.972  1.00  0.00     0.041 A 
ATOM     72  F   UNL A   1      45.708  26.443  30.364  1.00  0.00    -0.206 F 
ATOM     73  C   UNL A   1      44.613  24.139  27.798  1.00  0.00     0.022 A 
BRANCH  70  74
ATOM     74  S   UNL A   1      43.238  24.414  25.388  1.00  0.00     0.124 S 
ATOM     75  O   UNL A   1      44.337  23.825  24.627  1.00  0.00    -0.237 OA
ATOM     76  O   UNL A   1      42.279  23.474  25.957  1.00  0.00    -0.237 OA
ATOM     77  O   UNL A   1      42.654  25.618  24.799  1.00  0.00    -0.744 OA
ENDBRANCH  70  74
ENDBRANCH  53  67
BRANCH  54  78
ATOM     78  C   UNL A   1      44.843  36.798  29.904  1.00  0.00     0.023 A 
ATOM     79  C   UNL A   1      44.446  37.699  28.904  1.00  0.00     0.031 A 
ATOM     80  C   UNL A   1      45.290  37.324  31.129  1.00  0.00     0.131 A 
ATOM     81  C   UNL A   1      44.522  39.081  29.138  1.00  0.00     0.055 A 
ATOM     82  C   UNL A   1      45.326  38.698  31.372  1.00  0.00     0.041 A 
ATOM     83  F   UNL A   1      45.685  36.505  32.116  1.00  0.00    -0.206 F 
ATOM     84  C   UNL A   1      44.945  39.587  30.370  1.00  0.00     0.022 A 
BRANCH  81  85
ATOM     85  S   UNL A   1      44.088  40.218  27.794  1.00  0.00     0.124 S 
ATOM     86  O   UNL A   1      44.323  39.388  26.617  1.00  0.00    -0.237 OA
ATOM     87  O   UNL A   1      42.693  40.528  28.094  1.00  0.00    -0.237 OA
ATOM     88  O   UNL A   1      45.021  41.329  27.972  1.00  0.00    -0.744 OA
ENDBRANCH  81  85
ENDBRANCH  54  78
BRANCH  66  89
ATOM     89  C   UNL A   1      49.677  32.171  27.881  1.00  0.00     0.023 A 
ATOM     90  C   UNL A   1      50.066  32.595  26.600  1.00  0.00     0.031 A 
ATOM     91  C   UNL A   1      50.682  31.927  28.836  1.00  0.00     0.131 A 
ATOM     92  C   UNL A   1      51.430  32.734  26.297  1.00  0.00     0.055 A 
ATOM     93  C   UNL A   1      52.032  32.117  28.545  1.00  0.00     0.041 A 
ATOM     94  F   UNL A   1      50.361  31.526  30.076  1.00  0.00    -0.206 F 
ATOM     95  C   UNL A   1      52.414  32.517  27.267  1.00  0.00     0.022 A 
BRANCH  92  96
ATOM     96  S   UNL A   1      51.906  33.166  24.602  1.00  0.00     0.124 S 
ATOM     97  O   UNL A   1      53.306  33.544  24.769  1.00  0.00    -0.237 OA
ATOM     98  O   UNL A   1      51.664  31.922  23.881  1.00  0.00    -0.237 OA
ATOM     99  O   UNL A   1      51.004  34.265  24.261  1.00  0.00    -0.744 OA
ENDBRANCH  92  96
ENDBRANCH  66  89
ENDBRANCH  40  41
ENDBRANCH  33  35
ENDBRANCH  32  33
ENDBRANCH  31  32
ENDBRANCH  30  31
ENDBRANCH  29  30
ENDBRANCH  28  29
ENDBRANCH   1  28
TORSDOF 24
ENDMDL
MODEL 2
REMARK VINA RESULT:      -8.6      2.718      8.008
REMARK SMILES Cc1cc(Cl)c(C)c2c1O[C@H](C(F)(F)F)C(C(=O)OCCOCCOCCOCCOC(=O)c1ccc(-c3c4nc(c(-c5cc(S(=O)(=O)[O-])ccc5F)c5ccc([nH]5)c(-c5cc(S(=O)(=O)[O-])ccc5F)c5nc(c(-c6cc(S(=O)(=O)[O-])ccc6F)c6ccc3[nH]6)C=C5)C=C4)cc1)=C2
REMARK SMILES IDX 26 1 25 2 24 3 23 4 22 5 21 6 20 7 19 8 17 9 18 10 16 11
REMARK SMILES IDX 1 12 2 13 3 14 9 15 4 16 8 17 10 18 5 19 6 20 97 21 11 22
REMARK SMILES IDX 7 23 12 24 13 25 14 26 15 27 27 28 28 29 29 30 30 31 31 32
REMARK SMILES IDX 32 33 33 34 34 35 35 36 96 37 36 38 95 39 37 40 38 41 39 42
REMARK SMILES IDX 89 43 40 44 94 45 88 46 90 47 41 48 93 49 87 50 86 51 42 53
REMARK SMILES IDX 74 54 54 55 73 56 55 57 58 58 72 59 91 60 56 61 57 62 71 64
REMARK SMILES IDX 92 65 59 66 43 67 44 68 52 69 45 70 51 71 53 72 50 73 46 74
REMARK SMILES IDX 47 75 48 76 49 77 75 78 76 79 84 80 77 81 83 82 85 83 82 84
REMARK SMILES IDX 78 85 79 86 80 87 81 88 60 89 61 90 69 91 62 92 68 93 70 94
REMARK SMILES IDX 67 95 63 96 64 97 65 98 66 99
REMARK H PARENT 90 52 58 63
REMARK Flexibility Score: inf
ROOT
ATOM      1  C   UNL A   1      34.703  34.265  31.174  1.00  0.00     0.188 C 
ENDROOT
BRANCH   1   2
ATOM      2  O   UNL A   1      33.547  34.567  30.393  1.00  0.00    -0.377 OA
BRANCH   2   3
ATOM      3  C   UNL A   1      33.644  34.378  28.993  1.00  0.00     0.188 C 
BRANCH   3   4
ATOM      4  C   UNL A   1      34.370  33.074  28.613  1.00  0.00     0.188 C 
BRANCH   4   5
ATOM      5  O   UNL A   1      33.791  32.329  27.561  1.00  0.00    -0.376 OA
BRANCH   5   6
ATOM      6  C   UNL A   1      33.572  30.927  27.631  1.00  0.00     0.202 C 
BRANCH   6   7
ATOM      7  C   UNL A   1      34.405  29.817  26.958  1.00  0.00     0.261 C 
BRANCH   7   8
ATOM      8  O   UNL A   1      33.822  28.524  26.825  1.00  0.00    -0.460 OA
BRANCH   8   9
ATOM      9  C   UNL A   1      33.644  28.049  25.582  1.00  0.00     0.338 C 
ATOM     10  O   UNL A   1      33.897  28.614  24.533  1.00  0.00    -0.246 OA
BRANCH   9  11
ATOM     11  C   UNL A   1      33.255  26.627  25.705  1.00  0.00     0.087 C 
ATOM     12  C   UNL A   1      30.728  22.217  25.987  1.00  0.00     0.048 C 
ATOM     13  C   UNL A   1      32.168  22.609  25.803  1.00  0.00    -0.007 A 
ATOM     14  C   UNL A   1      33.135  21.624  25.577  1.00  0.00     0.028 A 
ATOM     15  C   UNL A   1      32.567  23.950  25.865  1.00  0.00     0.131 A 
ATOM     16  C   UNL A   1      34.485  21.963  25.448  1.00  0.00     0.045 A 
ATOM     17  C   UNL A   1      33.913  24.307  25.671  1.00  0.00     0.022 A 
ATOM     18  O   UNL A   1      31.573  24.852  26.123  1.00  0.00    -0.475 OA
ATOM     19  Cl  UNL A   1      35.587  20.658  25.176  1.00  0.00    -0.084 Cl
ATOM     20  C   UNL A   1      34.904  23.305  25.517  1.00  0.00    -0.021 A 
ATOM     21  C   UNL A   1      34.236  25.727  25.569  1.00  0.00     0.027 C 
ATOM     22  C   UNL A   1      31.837  26.275  26.054  1.00  0.00     0.316 C 
ATOM     23  C   UNL A   1      36.365  23.681  25.472  1.00  0.00     0.047 C 
BRANCH  22  24
ATOM     24  C   UNL A   1      30.827  26.896  25.083  1.00  0.00     0.430 C 
ATOM     25  F   UNL A   1      30.665  28.220  25.321  1.00  0.00    -0.167 F 
ATOM     26  F   UNL A   1      31.215  26.772  23.794  1.00  0.00    -0.167 F 
ATOM     27  F   UNL A   1      29.609  26.315  25.197  1.00  0.00    -0.167 F 
ENDBRANCH  22  24
ENDBRANCH   9  11
ENDBRANCH   8   9
ENDBRANCH   7   8
ENDBRANCH   6   7
ENDBRANCH   5   6
ENDBRANCH   4   5
ENDBRANCH   3   4
ENDBRANCH   2   3
ENDBRANCH   1   2
BRANCH   1  28
ATOM     28  C   UNL A   1      34.602  33.319  32.394  1.00  0.00     0.188 C 
BRANCH  28  29
ATOM     29  O   UNL A   1      35.063  31.994  32.140  1.00  0.00    -0.376 OA
BRANCH  29  30
ATOM     30  C   UNL A   1      36.245  31.567  32.799  1.00  0.00     0.202 C 
BRANCH  30  31
ATOM     31  C   UNL A   1      37.500  31.478  31.921  1.00  0.00     0.261 C 
BRANCH  31  32
ATOM     32  O   UNL A   1      38.167  32.722  31.660  1.00  0.00    -0.460 OA
BRANCH  32  33
ATOM     33  C   UNL A   1      39.151  33.086  32.512  1.00  0.00     0.338 C 
ATOM     34  O   UNL A   1      39.015  33.549  33.631  1.00  0.00    -0.246 OA
BRANCH  33  35
ATOM     35  C   UNL A   1      40.430  32.638  31.926  1.00  0.00     0.060 A 
ATOM     36  C   UNL A   1      40.631  32.768  30.546  1.00  0.00     0.016 A 
ATOM     37  C   UNL A   1      41.431  32.107  32.743  1.00  0.00     0.016 A 
ATOM     38  C   UNL A   1      41.829  32.336  29.974  1.00  0.00     0.010 A 
ATOM     39  C   UNL A   1      42.618  31.652  32.166  1.00  0.00     0.010 A 
ATOM     40  C   UNL A   1      42.808  31.735  30.775  1.00  0.00    -0.014 A 
BRANCH  40  41
ATOM     41  C   UNL A   1      43.924  30.992  30.139  1.00  0.00     0.031 A 
ATOM     42  C   UNL A   1      45.162  31.765  29.772  1.00  0.00     0.074 A 
ATOM     43  C   UNL A   1      43.859  29.667  29.924  1.00  0.00     0.049 A 
ATOM     44  N   UNL A   1      46.238  31.360  29.152  1.00  0.00    -0.248 NA
ATOM     45  C   UNL A   1      45.186  33.185  30.160  1.00  0.00     0.031 C 
ATOM     46  C   UNL A   1      42.745  28.801  30.303  1.00  0.00     0.029 A 
ATOM     47  N   UNL A   1      44.761  28.816  29.333  1.00  0.00    -0.354 N 
ATOM     48  C   UNL A   1      47.070  32.472  29.080  1.00  0.00     0.074 A 
ATOM     49  C   UNL A   1      46.359  33.576  29.687  1.00  0.00     0.031 C 
ATOM     50  C   UNL A   1      43.030  27.539  29.936  1.00  0.00     0.029 A 
ATOM     51  C   UNL A   1      44.327  27.514  29.258  1.00  0.00     0.049 A 
ATOM     52  H   UNL A   1      45.635  29.113  28.993  1.00  0.00     0.167 HD
ATOM     53  C   UNL A   1      48.319  32.562  28.566  1.00  0.00     0.034 A 
ATOM     54  C   UNL A   1      44.902  26.434  28.690  1.00  0.00     0.034 A 
ATOM     55  C   UNL A   1      49.014  31.460  27.955  1.00  0.00     0.049 A 
ATOM     56  C   UNL A   1      46.244  26.585  28.014  1.00  0.00     0.074 A 
ATOM     57  C   UNL A   1      50.277  31.450  27.390  1.00  0.00     0.029 A 
ATOM     58  N   UNL A   1      48.507  30.175  27.822  1.00  0.00    -0.354 N 
ATOM     59  N   UNL A   1      47.004  27.651  27.916  1.00  0.00    -0.248 NA
ATOM     60  C   UNL A   1      46.803  25.389  27.367  1.00  0.00     0.031 C 
ATOM     61  C   UNL A   1      50.506  30.178  26.857  1.00  0.00     0.029 A 
ATOM     62  C   UNL A   1      49.418  29.373  27.158  1.00  0.00     0.049 A 
ATOM     63  H   UNL A   1      47.628  29.879  28.154  1.00  0.00     0.167 HD
ATOM     64  C   UNL A   1      48.140  27.246  27.219  1.00  0.00     0.074 A 
ATOM     65  C   UNL A   1      47.970  25.839  26.925  1.00  0.00     0.031 C 
ATOM     66  C   UNL A   1      49.229  27.973  26.861  1.00  0.00     0.034 A 
BRANCH  53  67
ATOM     67  C   UNL A   1      48.996  33.905  28.609  1.00  0.00     0.023 A 
ATOM     68  C   UNL A   1      48.955  34.782  27.513  1.00  0.00     0.031 A 
ATOM     69  C   UNL A   1      49.676  34.318  29.767  1.00  0.00     0.131 A 
ATOM     70  C   UNL A   1      49.615  36.018  27.586  1.00  0.00     0.055 A 
ATOM     71  C   UNL A   1      50.277  35.575  29.855  1.00  0.00     0.041 A 
ATOM     72  F   UNL A   1      49.766  33.507  30.833  1.00  0.00    -0.206 F 
ATOM     73  C   UNL A   1      50.253  36.431  28.758  1.00  0.00     0.022 A 
BRANCH  70  74
ATOM     74  S   UNL A   1      49.694  37.050  26.097  1.00  0.00     0.124 S 
ATOM     75  O   UNL A   1      50.621  38.098  26.515  1.00  0.00    -0.237 OA
ATOM     76  O   UNL A   1      50.193  36.119  25.091  1.00  0.00    -0.237 OA
ATOM     77  O   UNL A   1      48.311  37.486  25.909  1.00  0.00    -0.744 OA
ENDBRANCH  70  74
ENDBRANCH  53  67
BRANCH  54  78
ATOM     78  C   UNL A   1      44.204  25.117  28.705  1.00  0.00     0.023 A 
ATOM     79  C   UNL A   1      43.301  24.765  27.691  1.00  0.00     0.031 A 
ATOM     80  C   UNL A   1      44.415  24.200  29.751  1.00  0.00     0.131 A 
ATOM     81  C   UNL A   1      42.626  23.535  27.752  1.00  0.00     0.055 A 
ATOM     82  C   UNL A   1      43.773  22.961  29.786  1.00  0.00     0.041 A 
ATOM     83  F   UNL A   1      45.266  24.491  30.747  1.00  0.00    -0.206 F 
ATOM     84  C   UNL A   1      42.867  22.625  28.784  1.00  0.00     0.022 A 
BRANCH  81  85
ATOM     85  S   UNL A   1      41.399  23.150  26.473  1.00  0.00     0.124 S 
ATOM     86  O   UNL A   1      40.480  22.278  27.197  1.00  0.00    -0.237 OA
ATOM     87  O   UNL A   1      40.892  24.475  26.128  1.00  0.00    -0.237 OA
ATOM     88  O   UNL A   1      42.188  22.498  25.430  1.00  0.00    -0.744 OA
ENDBRANCH  81  85
ENDBRANCH  54  78
BRANCH  66  89
ATOM     89  C   UNL A   1      50.341  27.259  26.135  1.00  0.00     0.023 A 
ATOM     90  C   UNL A   1      50.609  27.505  24.779  1.00  0.00     0.031 A 
ATOM     91  C   UNL A   1      51.176  26.363  26.827  1.00  0.00     0.131 A 
ATOM     92  C   UNL A   1      51.671  26.839  24.147  1.00  0.00     0.055 A 
ATOM     93  C   UNL A   1      52.261  25.744  26.208  1.00  0.00     0.041 A 
ATOM     94  F   UNL A   1      50.965  26.099  28.126  1.00  0.00    -0.206 F 
ATOM     95  C   UNL A   1      52.510  25.975  24.858  1.00  0.00     0.022 A 
BRANCH  92  96
ATOM     96  S   UNL A   1      51.920  27.084  22.368  1.00  0.00     0.124 S 
ATOM     97  O   UNL A   1      50.553  27.017  21.860  1.00  0.00    -0.237 OA
ATOM     98  O   UNL A   1      52.554  28.397  22.317  1.00  0.00    -0.237 OA
ATOM     99  O   UNL A   1      52.780  25.967  21.983  1.00  0.00    -0.744 OA
ENDBRANCH  92  96
ENDBRANCH  66  89
ENDBRANCH  40  41
ENDBRANCH  33  35
ENDBRANCH  32  33
ENDBRANCH  31  32
ENDBRANCH  30  31
ENDBRANCH  29  30
ENDBRANCH  28  29
ENDBRANCH   1  28
TORSDOF 24
ENDMDL
MODEL 3
REMARK VINA RESULT:      -8.6      3.244      4.567
REMARK SMILES Cc1cc(Cl)c(C)c2c1O[C@H](C(F)(F)F)C(C(=O)OCCOCCOCCOCCOC(=O)c1ccc(-c3c4nc(c(-c5cc(S(=O)(=O)[O-])ccc5F)c5ccc([nH]5)c(-c5cc(S(=O)(=O)[O-])ccc5F)c5nc(c(-c6cc(S(=O)(=O)[O-])ccc6F)c6ccc3[nH]6)C=C5)C=C4)cc1)=C2
REMARK SMILES IDX 26 1 25 2 24 3 23 4 22 5 21 6 20 7 19 8 17 9 18 10 16 11
REMARK SMILES IDX 1 12 2 13 3 14 9 15 4 16 8 17 10 18 5 19 6 20 97 21 11 22
REMARK SMILES IDX 7 23 12 24 13 25 14 26 15 27 27 28 28 29 29 30 30 31 31 32
REMARK SMILES IDX 32 33 33 34 34 35 35 36 96 37 36 38 95 39 37 40 38 41 39 42
REMARK SMILES IDX 89 43 40 44 94 45 88 46 90 47 41 48 93 49 87 50 86 51 42 53
REMARK SMILES IDX 74 54 54 55 73 56 55 57 58 58 72 59 91 60 56 61 57 62 71 64
REMARK SMILES IDX 92 65 59 66 43 67 44 68 52 69 45 70 51 71 53 72 50 73 46 74
REMARK SMILES IDX 47 75 48 76 49 77 75 78 76 79 84 80 77 81 83 82 85 83 82 84
REMARK SMILES IDX 78 85 79 86 80 87 81 88 60 89 61 90 69 91 62 92 68 93 70 94
REMARK SMILES IDX 67 95 63 96 64 97 65 98 66 99
REMARK H PARENT 90 52 58 63
REMARK Flexibility Score: inf
ROOT
ATOM      1  C   UNL A   1      34.322  33.098  32.826  1.00  0.00     0.188 C 
ENDROOT
BRANCH   1   2
ATOM      2  O   UNL A   1      33.949  33.734  31.603  1.00  0.00    -0.377 OA
BRANCH   2   3
ATOM      3  C   UNL A   1      34.902  33.733  30.555  1.00  0.00     0.188 C 
BRANCH   3   4
ATOM      4  C   UNL A   1      34.975  32.384  29.814  1.00  0.00     0.188 C 
BRANCH   4   5
ATOM      5  O   UNL A   1      34.620  32.411  28.446  1.00  0.00    -0.376 OA
BRANCH   5   6
ATOM      6  C   UNL A   1      34.038  31.304  27.774  1.00  0.00     0.202 C 
BRANCH   6   7
ATOM      7  C   UNL A   1      34.640  29.894  27.601  1.00  0.00     0.261 C 
BRANCH   7   8
ATOM      8  O   UNL A   1      34.231  29.120  26.476  1.00  0.00    -0.460 OA
BRANCH   8   9
ATOM      9  C   UNL A   1      33.079  28.437  26.580  1.00  0.00     0.338 C 
ATOM     10  O   UNL A   1      32.107  28.729  27.253  1.00  0.00    -0.246 OA
BRANCH   9  11
ATOM     11  C   UNL A   1      33.119  27.351  25.577  1.00  0.00     0.087 C 
ATOM     12  C   UNL A   1      32.545  24.446  21.436  1.00  0.00     0.048 C 
ATOM     13  C   UNL A   1      33.432  24.406  22.650  1.00  0.00    -0.007 A 
ATOM     14  C   UNL A   1      34.425  23.428  22.756  1.00  0.00     0.028 A 
ATOM     15  C   UNL A   1      33.277  25.331  23.691  1.00  0.00     0.131 A 
ATOM     16  C   UNL A   1      35.230  23.346  23.895  1.00  0.00     0.045 A 
ATOM     17  C   UNL A   1      34.125  25.297  24.812  1.00  0.00     0.022 A 
ATOM     18  O   UNL A   1      32.264  26.235  23.533  1.00  0.00    -0.475 OA
ATOM     19  Cl  UNL A   1      36.420  22.090  23.912  1.00  0.00    -0.084 Cl
ATOM     20  C   UNL A   1      35.080  24.260  24.955  1.00  0.00    -0.021 A 
ATOM     21  C   UNL A   1      34.029  26.391  25.774  1.00  0.00     0.027 C 
ATOM     22  C   UNL A   1      32.108  27.333  24.466  1.00  0.00     0.316 C 
ATOM     23  C   UNL A   1      35.877  24.131  26.230  1.00  0.00     0.047 C 
BRANCH  22  24
ATOM     24  C   UNL A   1      32.102  28.638  23.662  1.00  0.00     0.430 C 
ATOM     25  F   UNL A   1      31.331  29.579  24.257  1.00  0.00    -0.167 F 
ATOM     26  F   UNL A   1      33.341  29.167  23.536  1.00  0.00    -0.167 F 
ATOM     27  F   UNL A   1      31.615  28.448  22.413  1.00  0.00    -0.167 F 
ENDBRANCH  22  24
ENDBRANCH   9  11
ENDBRANCH   8   9
ENDBRANCH   7   8
ENDBRANCH   6   7
ENDBRANCH   5   6
ENDBRANCH   4   5
ENDBRANCH   3   4
ENDBRANCH   2   3
ENDBRANCH   1   2
BRANCH   1  28
ATOM     28  C   UNL A   1      35.517  33.626  33.653  1.00  0.00     0.188 C 
BRANCH  28  29
ATOM     29  O   UNL A   1      36.515  32.645  33.924  1.00  0.00    -0.376 OA
BRANCH  29  30
ATOM     30  C   UNL A   1      36.711  31.618  32.965  1.00  0.00     0.202 C 
BRANCH  30  31
ATOM     31  C   UNL A   1      37.415  30.355  33.479  1.00  0.00     0.261 C 
BRANCH  31  32
ATOM     32  O   UNL A   1      37.556  29.290  32.527  1.00  0.00    -0.460 OA
BRANCH  32  33
ATOM     33  C   UNL A   1      38.760  28.679  32.457  1.00  0.00     0.338 C 
ATOM     34  O   UNL A   1      39.001  27.510  32.704  1.00  0.00    -0.246 OA
BRANCH  33  35
ATOM     35  C   UNL A   1      39.703  29.629  31.834  1.00  0.00     0.060 A 
ATOM     36  C   UNL A   1      39.628  29.857  30.454  1.00  0.00     0.016 A 
ATOM     37  C   UNL A   1      40.645  30.302  32.616  1.00  0.00     0.016 A 
ATOM     38  C   UNL A   1      40.521  30.742  29.847  1.00  0.00     0.010 A 
ATOM     39  C   UNL A   1      41.554  31.167  32.003  1.00  0.00     0.010 A 
ATOM     40  C   UNL A   1      41.516  31.364  30.611  1.00  0.00    -0.014 A 
BRANCH  40  41
ATOM     41  C   UNL A   1      42.650  32.038  29.933  1.00  0.00     0.031 A 
ATOM     42  C   UNL A   1      43.833  31.196  29.537  1.00  0.00     0.074 A 
ATOM     43  C   UNL A   1      42.622  33.352  29.645  1.00  0.00     0.049 A 
ATOM     44  N   UNL A   1      44.966  31.559  28.997  1.00  0.00    -0.248 NA
ATOM     45  C   UNL A   1      43.717  29.749  29.785  1.00  0.00     0.031 C 
ATOM     46  C   UNL A   1      41.503  34.253  29.911  1.00  0.00     0.029 A 
ATOM     47  N   UNL A   1      43.568  34.154  29.056  1.00  0.00    -0.354 N 
ATOM     48  C   UNL A   1      45.695  30.387  28.834  1.00  0.00     0.074 A 
ATOM     49  C   UNL A   1      44.893  29.308  29.366  1.00  0.00     0.031 C 
ATOM     50  C   UNL A   1      41.828  35.487  29.486  1.00  0.00     0.029 A 
ATOM     51  C   UNL A   1      43.192  35.472  28.956  1.00  0.00     0.049 A 
ATOM     52  H   UNL A   1      44.436  33.815  28.738  1.00  0.00     0.167 HD
ATOM     53  C   UNL A   1      46.920  30.224  28.280  1.00  0.00     0.034 A 
ATOM     54  C   UNL A   1      43.878  36.543  28.507  1.00  0.00     0.034 A 
ATOM     55  C   UNL A   1      47.716  31.306  27.764  1.00  0.00     0.049 A 
ATOM     56  C   UNL A   1      45.289  36.356  28.005  1.00  0.00     0.074 A 
ATOM     57  C   UNL A   1      48.975  31.249  27.195  1.00  0.00     0.029 A 
ATOM     58  N   UNL A   1      47.334  32.640  27.757  1.00  0.00    -0.354 N 
ATOM     59  N   UNL A   1      45.986  35.249  27.893  1.00  0.00    -0.248 NA
ATOM     60  C   UNL A   1      46.011  37.563  27.575  1.00  0.00     0.031 C 
ATOM     61  C   UNL A   1      49.383  32.555  26.906  1.00  0.00     0.029 A 
ATOM     62  C   UNL A   1      48.346  33.419  27.222  1.00  0.00     0.049 A 
ATOM     63  H   UNL A   1      46.470  32.982  28.083  1.00  0.00     0.167 HD
ATOM     64  C   UNL A   1      47.216  35.624  27.356  1.00  0.00     0.074 A 
ATOM     65  C   UNL A   1      47.165  37.058  27.163  1.00  0.00     0.031 C 
ATOM     66  C   UNL A   1      48.286  34.850  27.046  1.00  0.00     0.034 A 
BRANCH  53  67
ATOM     67  C   UNL A   1      47.486  28.831  28.240  1.00  0.00     0.023 A 
ATOM     68  C   UNL A   1      48.302  28.340  29.273  1.00  0.00     0.031 A 
ATOM     69  C   UNL A   1      47.195  27.978  27.161  1.00  0.00     0.131 A 
ATOM     70  C   UNL A   1      48.826  27.042  29.189  1.00  0.00     0.055 A 
ATOM     71  C   UNL A   1      47.668  26.666  27.115  1.00  0.00     0.041 A 
ATOM     72  F   UNL A   1      46.441  28.407  26.137  1.00  0.00    -0.206 F 
ATOM     73  C   UNL A   1      48.494  26.193  28.130  1.00  0.00     0.022 A 
BRANCH  70  74
ATOM     74  S   UNL A   1      50.014  26.502  30.448  1.00  0.00     0.124 S 
ATOM     75  O   UNL A   1      49.293  26.801  31.682  1.00  0.00    -0.237 OA
ATOM     76  O   UNL A   1      50.186  25.087  30.136  1.00  0.00    -0.237 OA
ATOM     77  O   UNL A   1      51.185  27.341  30.196  1.00  0.00    -0.744 OA
ENDBRANCH  70  74
ENDBRANCH  53  67
BRANCH  54  78
ATOM     78  C   UNL A   1      43.257  37.898  28.537  1.00  0.00     0.023 A 
ATOM     79  C   UNL A   1      43.489  38.778  29.605  1.00  0.00     0.031 A 
ATOM     80  C   UNL A   1      42.402  38.323  27.504  1.00  0.00     0.131 A 
ATOM     81  C   UNL A   1      42.858  40.032  29.627  1.00  0.00     0.055 A 
ATOM     82  C   UNL A   1      41.809  39.587  27.510  1.00  0.00     0.041 A 
ATOM     83  F   UNL A   1      42.144  37.518  26.461  1.00  0.00    -0.206 F 
ATOM     84  C   UNL A   1      42.033  40.448  28.581  1.00  0.00     0.022 A 
BRANCH  81  85
ATOM     85  S   UNL A   1      43.109  41.107  31.066  1.00  0.00     0.124 S 
ATOM     86  O   UNL A   1      44.218  40.443  31.743  1.00  0.00    -0.237 OA
ATOM     87  O   UNL A   1      43.413  42.390  30.440  1.00  0.00    -0.237 OA
ATOM     88  O   UNL A   1      41.825  41.047  31.763  1.00  0.00    -0.744 OA
ENDBRANCH  81  85
ENDBRANCH  54  78
BRANCH  66  89
ATOM     89  C   UNL A   1      49.488  35.527  26.436  1.00  0.00     0.023 A 
ATOM     90  C   UNL A   1      50.576  35.940  27.221  1.00  0.00     0.031 A 
ATOM     91  C   UNL A   1      49.565  35.709  25.043  1.00  0.00     0.131 A 
ATOM     92  C   UNL A   1      51.687  36.543  26.610  1.00  0.00     0.055 A 
ATOM     93  C   UNL A   1      50.693  36.260  24.437  1.00  0.00     0.041 A 
ATOM     94  F   UNL A   1      48.554  35.326  24.248  1.00  0.00    -0.206 F 
ATOM     95  C   UNL A   1      51.760  36.687  25.221  1.00  0.00     0.022 A 
BRANCH  92  96
ATOM     96  S   UNL A   1      53.024  37.174  27.661  1.00  0.00     0.124 S 
ATOM     97  O   UNL A   1      53.228  38.513  27.116  1.00  0.00    -0.237 OA
ATOM     98  O   UNL A   1      52.433  37.112  28.993  1.00  0.00    -0.237 OA
ATOM     99  O   UNL A   1      54.118  36.235  27.425  1.00  0.00    -0.744 OA
ENDBRANCH  92  96
ENDBRANCH  66  89
ENDBRANCH  40  41
ENDBRANCH  33  35
ENDBRANCH  32  33
ENDBRANCH  31  32
ENDBRANCH  30  31
ENDBRANCH  29  30
ENDBRANCH  28  29
ENDBRANCH   1  28
TORSDOF 24
ENDMDL
