MODEL 1
REMARK VINA RESULT:      -6.5      0.000      0.000
REMARK SMILES COc1ccc(CNC(=O)[C@H]2CC(C)=C(C)C[C@@H]2C(=O)OCCOCCOCCOCCOC(=O)c2ccc(-c3c4nc(c(-c5cc(S(=O)(=O)[O-])ccc5F)c5ccc([nH]5)c(-c5cc(S(=O)(=O)[O-])ccc5F)c5nc(c(-c6cc(S(=O)(=O)[O-])ccc6F)c6ccc3[nH]6)C=C5)C=C4)cc2)cc1OC
REMARK SMILES IDX 26 1 25 2 24 3 23 4 22 5 21 6 19 7 20 8 18 9 11 10 12 11
REMARK SMILES IDX 13 12 17 13 14 14 15 15 16 16 9 17 8 18 10 20 7 21 6 22 3 23
REMARK SMILES IDX 4 24 100 25 5 26 99 27 2 28 1 29 101 30 102 31 27 32 28 33
REMARK SMILES IDX 29 34 30 35 31 36 32 37 33 38 34 39 35 40 36 41 37 42 98 43
REMARK SMILES IDX 38 44 97 45 39 46 40 47 41 48 91 49 42 50 96 51 90 52 92 53
REMARK SMILES IDX 43 54 95 55 89 56 88 57 44 59 76 60 56 61 75 62 57 63 60 64
REMARK SMILES IDX 74 65 93 66 58 67 59 68 73 70 94 71 61 72 45 73 46 74 54 75
REMARK SMILES IDX 47 76 53 77 55 78 52 79 48 80 49 81 50 82 51 83 77 84 78 85
REMARK SMILES IDX 86 86 79 87 85 88 87 89 84 90 80 91 81 92 82 93 83 94 62 95
REMARK SMILES IDX 63 96 71 97 64 98 70 99 72 100 69 101 65 102 66 103 67 104
REMARK SMILES IDX 68 105
REMARK H PARENT 8 19 92 58 60 69
REMARK Flexibility Score: inf
ROOT
ATOM      1  C   UNL A   1      39.878  35.876  36.261  1.00  0.00     0.188 C 
ENDROOT
BRANCH   1   2
ATOM      2  C   UNL A   1      38.972  34.628  36.390  1.00  0.00     0.188 C 
BRANCH   2   3
ATOM      3  O   UNL A   1      37.708  34.589  35.749  1.00  0.00    -0.376 OA
BRANCH   3   4
ATOM      4  C   UNL A   1      37.109  33.333  35.483  1.00  0.00     0.202 C 
BRANCH   4   5
ATOM      5  C   UNL A   1      36.919  32.814  34.041  1.00  0.00     0.261 C 
BRANCH   5   6
ATOM      6  O   UNL A   1      38.078  32.648  33.205  1.00  0.00    -0.463 OA
BRANCH   6   7
ATOM      7  C   UNL A   1      38.436  33.688  32.405  1.00  0.00     0.310 C 
ATOM      8  O   UNL A   1      38.646  34.822  32.810  1.00  0.00    -0.252 OA
BRANCH   7   9
ATOM      9  C   UNL A   1      38.489  33.244  30.931  1.00  0.00     0.116 C 
ATOM     10  C   UNL A   1      38.994  31.803  30.733  1.00  0.00     0.097 C 
ATOM     11  C   UNL A   1      40.507  31.626  30.704  1.00  0.00     0.045 C 
ATOM     12  C   UNL A   1      41.298  32.760  30.119  1.00  0.00    -0.074 C 
ATOM     13  C   UNL A   1      39.283  34.267  30.110  1.00  0.00     0.046 C 
ATOM     14  C   UNL A   1      42.727  32.381  29.816  1.00  0.00     0.039 C 
ATOM     15  C   UNL A   1      40.754  33.974  29.897  1.00  0.00    -0.073 C 
ATOM     16  C   UNL A   1      41.560  35.155  29.429  1.00  0.00     0.039 C 
BRANCH  10  17
ATOM     17  C   UNL A   1      38.104  30.954  29.825  1.00  0.00     0.224 C 
ATOM     18  N   UNL A   1      36.778  31.168  29.654  1.00  0.00    -0.352 N 
ATOM     19  H   UNL A   1      36.438  31.025  28.741  1.00  0.00     0.163 HD
ATOM     20  O   UNL A   1      38.620  30.094  29.103  1.00  0.00    -0.275 OA
BRANCH  18  21
ATOM     21  C   UNL A   1      35.799  31.575  30.630  1.00  0.00     0.151 C 
BRANCH  21  22
ATOM     22  C   UNL A   1      34.944  32.741  30.199  1.00  0.00    -0.025 A 
ATOM     23  C   UNL A   1      33.438  35.040  29.533  1.00  0.00     0.160 A 
ATOM     24  C   UNL A   1      33.650  34.024  28.589  1.00  0.00     0.051 A 
ATOM     25  C   UNL A   1      33.968  34.911  30.821  1.00  0.00     0.161 A 
ATOM     26  C   UNL A   1      34.399  32.885  28.919  1.00  0.00     0.009 A 
ATOM     27  C   UNL A   1      34.728  33.773  31.125  1.00  0.00     0.056 A 
BRANCH  23  28
ATOM     28  O   UNL A   1      32.603  36.066  29.184  1.00  0.00    -0.493 OA
ATOM     29  C   UNL A   1      33.318  37.204  28.704  1.00  0.00     0.278 C 
ENDBRANCH  23  28
BRANCH  25  30
ATOM     30  O   UNL A   1      33.848  35.743  31.898  1.00  0.00    -0.493 OA
ATOM     31  C   UNL A   1      34.739  35.601  32.986  1.00  0.00     0.278 C 
ENDBRANCH  25  30
ENDBRANCH  21  22
ENDBRANCH  18  21
ENDBRANCH  10  17
ENDBRANCH   7   9
ENDBRANCH   6   7
ENDBRANCH   5   6
ENDBRANCH   4   5
ENDBRANCH   3   4
ENDBRANCH   2   3
ENDBRANCH   1   2
BRANCH   1  32
ATOM     32  O   UNL A   1      39.840  36.702  37.411  1.00  0.00    -0.377 OA
BRANCH  32  33
ATOM     33  C   UNL A   1      39.933  35.991  38.628  1.00  0.00     0.188 C 
BRANCH  33  34
ATOM     34  C   UNL A   1      39.054  36.533  39.767  1.00  0.00     0.188 C 
BRANCH  34  35
ATOM     35  O   UNL A   1      38.719  35.538  40.732  1.00  0.00    -0.376 OA
BRANCH  35  36
ATOM     36  C   UNL A   1      38.666  34.181  40.334  1.00  0.00     0.202 C 
BRANCH  36  37
ATOM     37  C   UNL A   1      39.670  33.229  41.002  1.00  0.00     0.261 C 
BRANCH  37  38
ATOM     38  O   UNL A   1      41.053  33.451  40.703  1.00  0.00    -0.460 OA
BRANCH  38  39
ATOM     39  C   UNL A   1      41.811  32.360  40.457  1.00  0.00     0.338 C 
ATOM     40  O   UNL A   1      41.847  31.338  41.121  1.00  0.00    -0.246 OA
BRANCH  39  41
ATOM     41  C   UNL A   1      42.413  32.527  39.115  1.00  0.00     0.060 A 
ATOM     42  C   UNL A   1      43.810  32.537  39.007  1.00  0.00     0.016 A 
ATOM     43  C   UNL A   1      41.614  32.596  37.969  1.00  0.00     0.016 A 
ATOM     44  C   UNL A   1      44.414  32.632  37.755  1.00  0.00     0.010 A 
ATOM     45  C   UNL A   1      42.221  32.737  36.717  1.00  0.00     0.010 A 
ATOM     46  C   UNL A   1      43.622  32.787  36.610  1.00  0.00    -0.014 A 
BRANCH  46  47
ATOM     47  C   UNL A   1      44.256  33.283  35.364  1.00  0.00     0.031 A 
ATOM     48  C   UNL A   1      44.428  34.771  35.226  1.00  0.00     0.074 A 
ATOM     49  C   UNL A   1      44.705  32.449  34.410  1.00  0.00     0.049 A 
ATOM     50  N   UNL A   1      44.919  35.467  34.237  1.00  0.00    -0.248 NA
ATOM     51  C   UNL A   1      43.978  35.582  36.371  1.00  0.00     0.031 C 
ATOM     52  C   UNL A   1      44.649  30.990  34.464  1.00  0.00     0.029 A 
ATOM     53  N   UNL A   1      45.298  32.720  33.202  1.00  0.00    -0.354 N 
ATOM     54  C   UNL A   1      44.840  36.797  34.638  1.00  0.00     0.074 A 
ATOM     55  C   UNL A   1      44.216  36.811  35.942  1.00  0.00     0.031 C 
ATOM     56  C   UNL A   1      45.177  30.493  33.331  1.00  0.00     0.029 A 
ATOM     57  C   UNL A   1      45.573  31.597  32.456  1.00  0.00     0.049 A 
ATOM     58  H   UNL A   1      45.508  33.632  32.897  1.00  0.00     0.167 HD
ATOM     59  C   UNL A   1      45.256  37.905  33.980  1.00  0.00     0.034 A 
ATOM     60  C   UNL A   1      46.059  31.482  31.204  1.00  0.00     0.034 A 
ATOM     61  C   UNL A   1      45.852  37.874  32.668  1.00  0.00     0.049 A 
ATOM     62  C   UNL A   1      46.415  32.740  30.441  1.00  0.00     0.074 A 
ATOM     63  C   UNL A   1      46.306  38.932  31.903  1.00  0.00     0.029 A 
ATOM     64  N   UNL A   1      46.058  36.722  31.918  1.00  0.00    -0.354 N 
ATOM     65  N   UNL A   1      46.338  33.994  30.828  1.00  0.00    -0.248 NA
ATOM     66  C   UNL A   1      46.931  32.566  29.077  1.00  0.00     0.031 C 
ATOM     67  C   UNL A   1      46.710  38.431  30.661  1.00  0.00     0.029 A 
ATOM     68  C   UNL A   1      46.598  37.048  30.685  1.00  0.00     0.049 A 
ATOM     69  H   UNL A   1      45.850  35.808  32.218  1.00  0.00     0.167 HD
ATOM     70  C   UNL A   1      46.832  34.752  29.767  1.00  0.00     0.074 A 
ATOM     71  C   UNL A   1      47.212  33.814  28.731  1.00  0.00     0.031 C 
ATOM     72  C   UNL A   1      46.968  36.100  29.659  1.00  0.00     0.034 A 
BRANCH  59  73
ATOM     73  C   UNL A   1      45.015  39.236  34.650  1.00  0.00     0.023 A 
ATOM     74  C   UNL A   1      43.929  40.058  34.301  1.00  0.00     0.031 A 
ATOM     75  C   UNL A   1      45.916  39.711  35.620  1.00  0.00     0.131 A 
ATOM     76  C   UNL A   1      43.813  41.339  34.862  1.00  0.00     0.055 A 
ATOM     77  C   UNL A   1      45.746  40.950  36.238  1.00  0.00     0.041 A 
ATOM     78  F   UNL A   1      46.988  38.984  35.972  1.00  0.00    -0.206 F 
ATOM     79  C   UNL A   1      44.699  41.781  35.848  1.00  0.00     0.022 A 
BRANCH  76  80
ATOM     80  S   UNL A   1      42.584  42.480  34.172  1.00  0.00     0.124 S 
ATOM     81  O   UNL A   1      43.418  43.345  33.340  1.00  0.00    -0.237 OA
ATOM     82  O   UNL A   1      41.685  41.582  33.458  1.00  0.00    -0.237 OA
ATOM     83  O   UNL A   1      42.015  43.127  35.352  1.00  0.00    -0.744 OA
ENDBRANCH  76  80
ENDBRANCH  59  73
BRANCH  60  84
ATOM     84  C   UNL A   1      46.201  30.142  30.561  1.00  0.00     0.023 A 
ATOM     85  C   UNL A   1      45.129  29.540  29.883  1.00  0.00     0.031 A 
ATOM     86  C   UNL A   1      47.397  29.410  30.677  1.00  0.00     0.131 A 
ATOM     87  C   UNL A   1      45.257  28.229  29.392  1.00  0.00     0.055 A 
ATOM     88  C   UNL A   1      47.539  28.132  30.136  1.00  0.00     0.041 A 
ATOM     89  F   UNL A   1      48.452  29.932  31.324  1.00  0.00    -0.206 F 
ATOM     90  C   UNL A   1      46.459  27.527  29.500  1.00  0.00     0.022 A 
BRANCH  87  91
ATOM     91  S   UNL A   1      43.793  27.414  28.694  1.00  0.00     0.124 S 
ATOM     92  O   UNL A   1      44.381  26.237  28.065  1.00  0.00    -0.237 OA
ATOM     93  O   UNL A   1      42.985  27.170  29.884  1.00  0.00    -0.237 OA
ATOM     94  O   UNL A   1      43.255  28.413  27.772  1.00  0.00    -0.744 OA
ENDBRANCH  87  91
ENDBRANCH  60  84
BRANCH  72  95
ATOM     95  C   UNL A   1      47.609  36.635  28.400  1.00  0.00     0.023 A 
ATOM     96  C   UNL A   1      49.005  36.692  28.239  1.00  0.00     0.031 A 
ATOM     97  C   UNL A   1      46.805  37.092  27.341  1.00  0.00     0.131 A 
ATOM     98  C   UNL A   1      49.551  37.247  27.072  1.00  0.00     0.055 A 
ATOM     99  C   UNL A   1      47.354  37.580  26.155  1.00  0.00     0.041 A 
ATOM    100  F   UNL A   1      45.465  37.063  27.438  1.00  0.00    -0.206 F 
ATOM    101  C   UNL A   1      48.735  37.672  26.020  1.00  0.00     0.022 A 
BRANCH  98 102
ATOM    102  S   UNL A   1      51.346  37.500  26.983  1.00  0.00     0.124 S 
ATOM    103  O   UNL A   1      51.690  36.796  25.752  1.00  0.00    -0.237 OA
ATOM    104  O   UNL A   1      51.455  38.955  26.937  1.00  0.00    -0.237 OA
ATOM    105  O   UNL A   1      51.841  36.881  28.211  1.00  0.00    -0.744 OA
ENDBRANCH  98 102
ENDBRANCH  72  95
ENDBRANCH  46  47
ENDBRANCH  39  41
ENDBRANCH  38  39
ENDBRANCH  37  38
ENDBRANCH  36  37
ENDBRANCH  35  36
ENDBRANCH  34  35
ENDBRANCH  33  34
ENDBRANCH  32  33
ENDBRANCH   1  32
TORSDOF 28
ENDMDL
MODEL 2
REMARK VINA RESULT:      -6.5      5.022     11.744
REMARK SMILES COc1ccc(CNC(=O)[C@H]2CC(C)=C(C)C[C@@H]2C(=O)OCCOCCOCCOCCOC(=O)c2ccc(-c3c4nc(c(-c5cc(S(=O)(=O)[O-])ccc5F)c5ccc([nH]5)c(-c5cc(S(=O)(=O)[O-])ccc5F)c5nc(c(-c6cc(S(=O)(=O)[O-])ccc6F)c6ccc3[nH]6)C=C5)C=C4)cc2)cc1OC
REMARK SMILES IDX 26 1 25 2 24 3 23 4 22 5 21 6 19 7 20 8 18 9 11 10 12 11
REMARK SMILES IDX 13 12 17 13 14 14 15 15 16 16 9 17 8 18 10 20 7 21 6 22 3 23
REMARK SMILES IDX 4 24 100 25 5 26 99 27 2 28 1 29 101 30 102 31 27 32 28 33
REMARK SMILES IDX 29 34 30 35 31 36 32 37 33 38 34 39 35 40 36 41 37 42 98 43
REMARK SMILES IDX 38 44 97 45 39 46 40 47 41 48 91 49 42 50 96 51 90 52 92 53
REMARK SMILES IDX 43 54 95 55 89 56 88 57 44 59 76 60 56 61 75 62 57 63 60 64
REMARK SMILES IDX 74 65 93 66 58 67 59 68 73 70 94 71 61 72 45 73 46 74 54 75
REMARK SMILES IDX 47 76 53 77 55 78 52 79 48 80 49 81 50 82 51 83 77 84 78 85
REMARK SMILES IDX 86 86 79 87 85 88 87 89 84 90 80 91 81 92 82 93 83 94 62 95
REMARK SMILES IDX 63 96 71 97 64 98 70 99 72 100 69 101 65 102 66 103 67 104
REMARK SMILES IDX 68 105
REMARK H PARENT 8 19 92 58 60 69
REMARK Flexibility Score: inf
ROOT
ATOM      1  C   UNL A   1      41.287  34.538  29.531  1.00  0.00     0.188 C 
ENDROOT
BRANCH   1   2
ATOM      2  C   UNL A   1      42.419  33.485  29.469  1.00  0.00     0.188 C 
BRANCH   2   3
ATOM      3  O   UNL A   1      43.490  33.636  28.553  1.00  0.00    -0.376 OA
BRANCH   3   4
ATOM      4  C   UNL A   1      44.128  32.478  28.042  1.00  0.00     0.202 C 
BRANCH   4   5
ATOM      5  C   UNL A   1      43.393  31.124  27.945  1.00  0.00     0.261 C 
BRANCH   5   6
ATOM      6  O   UNL A   1      43.460  30.385  26.712  1.00  0.00    -0.463 OA
BRANCH   6   7
ATOM      7  C   UNL A   1      44.170  29.225  26.707  1.00  0.00     0.310 C 
ATOM      8  O   UNL A   1      45.385  29.165  26.831  1.00  0.00    -0.252 OA
BRANCH   7   9
ATOM      9  C   UNL A   1      43.238  28.020  26.475  1.00  0.00     0.116 C 
ATOM     10  C   UNL A   1      42.761  27.344  27.773  1.00  0.00     0.097 C 
ATOM     11  C   UNL A   1      43.714  26.322  28.381  1.00  0.00     0.045 C 
ATOM     12  C   UNL A   1      44.547  25.532  27.414  1.00  0.00    -0.074 C 
ATOM     13  C   UNL A   1      43.898  27.035  25.503  1.00  0.00     0.046 C 
ATOM     14  C   UNL A   1      45.200  24.331  28.051  1.00  0.00     0.039 C 
ATOM     15  C   UNL A   1      44.670  25.886  26.118  1.00  0.00    -0.073 C 
ATOM     16  C   UNL A   1      45.596  25.180  25.165  1.00  0.00     0.039 C 
BRANCH  10  17
ATOM     17  C   UNL A   1      41.250  27.115  27.833  1.00  0.00     0.224 C 
ATOM     18  N   UNL A   1      40.678  25.943  28.196  1.00  0.00    -0.352 N 
ATOM     19  H   UNL A   1      39.858  26.019  28.736  1.00  0.00     0.163 HD
ATOM     20  O   UNL A   1      40.485  28.070  27.660  1.00  0.00    -0.275 OA
BRANCH  18  21
ATOM     21  C   UNL A   1      41.108  24.600  27.898  1.00  0.00     0.151 C 
BRANCH  21  22
ATOM     22  C   UNL A   1      40.102  23.785  27.123  1.00  0.00    -0.025 A 
ATOM     23  C   UNL A   1      38.287  22.093  25.768  1.00  0.00     0.160 A 
ATOM     24  C   UNL A   1      37.995  23.453  25.956  1.00  0.00     0.051 A 
ATOM     25  C   UNL A   1      39.492  21.570  26.247  1.00  0.00     0.161 A 
ATOM     26  C   UNL A   1      38.894  24.291  26.630  1.00  0.00     0.009 A 
ATOM     27  C   UNL A   1      40.369  22.421  26.933  1.00  0.00     0.056 A 
BRANCH  23  28
ATOM     28  O   UNL A   1      37.423  21.359  25.003  1.00  0.00    -0.493 OA
ATOM     29  C   UNL A   1      36.132  21.249  25.601  1.00  0.00     0.278 C 
ENDBRANCH  23  28
BRANCH  25  30
ATOM     30  O   UNL A   1      39.996  20.305  26.136  1.00  0.00    -0.493 OA
ATOM     31  C   UNL A   1      41.099  19.926  26.936  1.00  0.00     0.278 C 
ENDBRANCH  25  30
ENDBRANCH  21  22
ENDBRANCH  18  21
ENDBRANCH  10  17
ENDBRANCH   7   9
ENDBRANCH   6   7
ENDBRANCH   5   6
ENDBRANCH   4   5
ENDBRANCH   3   4
ENDBRANCH   2   3
ENDBRANCH   1   2
BRANCH   1  32
ATOM     32  O   UNL A   1      40.501  34.431  30.705  1.00  0.00    -0.377 OA
BRANCH  32  33
ATOM     33  C   UNL A   1      39.113  34.555  30.475  1.00  0.00     0.188 C 
BRANCH  33  34
ATOM     34  C   UNL A   1      38.574  33.735  29.291  1.00  0.00     0.188 C 
BRANCH  34  35
ATOM     35  O   UNL A   1      38.173  32.417  29.664  1.00  0.00    -0.376 OA
BRANCH  35  36
ATOM     36  C   UNL A   1      39.161  31.478  30.045  1.00  0.00     0.202 C 
BRANCH  36  37
ATOM     37  C   UNL A   1      38.809  29.995  29.854  1.00  0.00     0.261 C 
BRANCH  37  38
ATOM     38  O   UNL A   1      38.117  29.362  30.936  1.00  0.00    -0.460 OA
BRANCH  38  39
ATOM     39  C   UNL A   1      37.075  30.033  31.475  1.00  0.00     0.338 C 
ATOM     40  O   UNL A   1      35.903  29.930  31.154  1.00  0.00    -0.246 OA
BRANCH  39  41
ATOM     41  C   UNL A   1      37.571  30.739  32.677  1.00  0.00     0.060 A 
ATOM     42  C   UNL A   1      36.973  31.957  33.030  1.00  0.00     0.016 A 
ATOM     43  C   UNL A   1      38.560  30.175  33.490  1.00  0.00     0.016 A 
ATOM     44  C   UNL A   1      37.372  32.622  34.188  1.00  0.00     0.010 A 
ATOM     45  C   UNL A   1      38.991  30.865  34.626  1.00  0.00     0.010 A 
ATOM     46  C   UNL A   1      38.420  32.106  34.961  1.00  0.00    -0.014 A 
BRANCH  46  47
ATOM     47  C   UNL A   1      39.095  32.998  35.934  1.00  0.00     0.031 A 
ATOM     48  C   UNL A   1      38.611  32.953  37.359  1.00  0.00     0.074 A 
ATOM     49  C   UNL A   1      40.129  33.784  35.586  1.00  0.00     0.049 A 
ATOM     50  N   UNL A   1      39.002  33.643  38.396  1.00  0.00    -0.248 NA
ATOM     51  C   UNL A   1      37.533  31.991  37.644  1.00  0.00     0.031 C 
ATOM     52  C   UNL A   1      40.722  33.863  34.253  1.00  0.00     0.029 A 
ATOM     53  N   UNL A   1      40.860  34.673  36.335  1.00  0.00    -0.354 N 
ATOM     54  C   UNL A   1      38.219  33.200  39.457  1.00  0.00     0.074 A 
ATOM     55  C   UNL A   1      37.305  32.212  38.928  1.00  0.00     0.031 C 
ATOM     56  C   UNL A   1      41.722  34.763  34.276  1.00  0.00     0.029 A 
ATOM     57  C   UNL A   1      41.815  35.350  35.613  1.00  0.00     0.049 A 
ATOM     58  H   UNL A   1      40.715  34.813  37.299  1.00  0.00     0.167 HD
ATOM     59  C   UNL A   1      38.263  33.578  40.757  1.00  0.00     0.034 A 
ATOM     60  C   UNL A   1      42.642  36.348  35.986  1.00  0.00     0.034 A 
ATOM     61  C   UNL A   1      39.162  34.585  41.261  1.00  0.00     0.049 A 
ATOM     62  C   UNL A   1      42.599  36.834  37.419  1.00  0.00     0.074 A 
ATOM     63  C   UNL A   1      39.293  35.053  42.555  1.00  0.00     0.029 A 
ATOM     64  N   UNL A   1      40.074  35.294  40.487  1.00  0.00    -0.354 N 
ATOM     65  N   UNL A   1      41.857  36.409  38.417  1.00  0.00    -0.248 NA
ATOM     66  C   UNL A   1      43.511  37.929  37.776  1.00  0.00     0.031 C 
ATOM     67  C   UNL A   1      40.222  36.099  42.550  1.00  0.00     0.029 A 
ATOM     68  C   UNL A   1      40.743  36.220  41.270  1.00  0.00     0.049 A 
ATOM     69  H   UNL A   1      40.223  35.157  39.523  1.00  0.00     0.167 HD
ATOM     70  C   UNL A   1      42.242  37.160  39.527  1.00  0.00     0.074 A 
ATOM     71  C   UNL A   1      43.287  38.056  39.076  1.00  0.00     0.031 C 
ATOM     72  C   UNL A   1      41.781  37.111  40.804  1.00  0.00     0.034 A 
BRANCH  59  73
ATOM     73  C   UNL A   1      37.265  32.943  41.694  1.00  0.00     0.023 A 
ATOM     74  C   UNL A   1      35.992  33.500  41.914  1.00  0.00     0.031 A 
ATOM     75  C   UNL A   1      37.612  31.787  42.416  1.00  0.00     0.131 A 
ATOM     76  C   UNL A   1      35.145  32.945  42.884  1.00  0.00     0.055 A 
ATOM     77  C   UNL A   1      36.729  31.190  43.317  1.00  0.00     0.041 A 
ATOM     78  F   UNL A   1      38.824  31.228  42.272  1.00  0.00    -0.206 F 
ATOM     79  C   UNL A   1      35.493  31.778  43.569  1.00  0.00     0.022 A 
BRANCH  76  80
ATOM     80  S   UNL A   1      33.649  33.859  43.354  1.00  0.00     0.124 S 
ATOM     81  O   UNL A   1      33.127  34.260  42.049  1.00  0.00    -0.237 OA
ATOM     82  O   UNL A   1      32.875  32.851  44.068  1.00  0.00    -0.237 OA
ATOM     83  O   UNL A   1      34.159  34.954  44.175  1.00  0.00    -0.744 OA
ENDBRANCH  76  80
ENDBRANCH  59  73
BRANCH  60  84
ATOM     84  C   UNL A   1      43.553  36.994  34.995  1.00  0.00     0.023 A 
ATOM     85  C   UNL A   1      43.225  38.219  34.392  1.00  0.00     0.031 A 
ATOM     86  C   UNL A   1      44.737  36.357  34.583  1.00  0.00     0.131 A 
ATOM     87  C   UNL A   1      44.043  38.742  33.376  1.00  0.00     0.055 A 
ATOM     88  C   UNL A   1      45.578  36.910  33.616  1.00  0.00     0.041 A 
ATOM     89  F   UNL A   1      45.095  35.178  35.118  1.00  0.00    -0.206 F 
ATOM     90  C   UNL A   1      45.226  38.104  32.996  1.00  0.00     0.022 A 
BRANCH  87  91
ATOM     91  S   UNL A   1      43.488  40.224  32.488  1.00  0.00     0.124 S 
ATOM     92  O   UNL A   1      44.680  41.063  32.536  1.00  0.00    -0.237 OA
ATOM     93  O   UNL A   1      43.138  39.681  31.180  1.00  0.00    -0.237 OA
ATOM     94  O   UNL A   1      42.359  40.697  33.286  1.00  0.00    -0.744 OA
ENDBRANCH  87  91
ENDBRANCH  60  84
BRANCH  72  95
ATOM     95  C   UNL A   1      42.449  38.009  41.818  1.00  0.00     0.023 A 
ATOM     96  C   UNL A   1      41.997  39.316  42.071  1.00  0.00     0.031 A 
ATOM     97  C   UNL A   1      43.558  37.543  42.547  1.00  0.00     0.131 A 
ATOM     98  C   UNL A   1      42.686  40.129  42.985  1.00  0.00     0.055 A 
ATOM     99  C   UNL A   1      44.196  38.332  43.505  1.00  0.00     0.041 A 
ATOM    100  F   UNL A   1      44.036  36.303  42.348  1.00  0.00    -0.206 F 
ATOM    101  C   UNL A   1      43.769  39.638  43.719  1.00  0.00     0.022 A 
BRANCH  98 102
ATOM    102  S   UNL A   1      42.208  41.873  43.134  1.00  0.00     0.124 S 
ATOM    103  O   UNL A   1      43.472  42.503  43.502  1.00  0.00    -0.237 OA
ATOM    104  O   UNL A   1      41.710  42.176  41.796  1.00  0.00    -0.237 OA
ATOM    105  O   UNL A   1      41.191  41.862  44.185  1.00  0.00    -0.744 OA
ENDBRANCH  98 102
ENDBRANCH  72  95
ENDBRANCH  46  47
ENDBRANCH  39  41
ENDBRANCH  38  39
ENDBRANCH  37  38
ENDBRANCH  36  37
ENDBRANCH  35  36
ENDBRANCH  34  35
ENDBRANCH  33  34
ENDBRANCH  32  33
ENDBRANCH   1  32
TORSDOF 28
ENDMDL
MODEL 3
REMARK VINA RESULT:      -6.3      5.999     14.013
REMARK SMILES COc1ccc(CNC(=O)[C@H]2CC(C)=C(C)C[C@@H]2C(=O)OCCOCCOCCOCCOC(=O)c2ccc(-c3c4nc(c(-c5cc(S(=O)(=O)[O-])ccc5F)c5ccc([nH]5)c(-c5cc(S(=O)(=O)[O-])ccc5F)c5nc(c(-c6cc(S(=O)(=O)[O-])ccc6F)c6ccc3[nH]6)C=C5)C=C4)cc2)cc1OC
REMARK SMILES IDX 26 1 25 2 24 3 23 4 22 5 21 6 19 7 20 8 18 9 11 10 12 11
REMARK SMILES IDX 13 12 17 13 14 14 15 15 16 16 9 17 8 18 10 20 7 21 6 22 3 23
REMARK SMILES IDX 4 24 100 25 5 26 99 27 2 28 1 29 101 30 102 31 27 32 28 33
REMARK SMILES IDX 29 34 30 35 31 36 32 37 33 38 34 39 35 40 36 41 37 42 98 43
REMARK SMILES IDX 38 44 97 45 39 46 40 47 41 48 91 49 42 50 96 51 90 52 92 53
REMARK SMILES IDX 43 54 95 55 89 56 88 57 44 59 76 60 56 61 75 62 57 63 60 64
REMARK SMILES IDX 74 65 93 66 58 67 59 68 73 70 94 71 61 72 45 73 46 74 54 75
REMARK SMILES IDX 47 76 53 77 55 78 52 79 48 80 49 81 50 82 51 83 77 84 78 85
REMARK SMILES IDX 86 86 79 87 85 88 87 89 84 90 80 91 81 92 82 93 83 94 62 95
REMARK SMILES IDX 63 96 71 97 64 98 70 99 72 100 69 101 65 102 66 103 67 104
REMARK SMILES IDX 68 105
REMARK H PARENT 8 19 92 58 60 69
REMARK Flexibility Score: inf
ROOT
ATOM      1  C   UNL A   1      51.546  26.622  28.110  1.00  0.00     0.188 C 
ENDROOT
BRANCH   1   2
ATOM      2  C   UNL A   1      51.864  26.797  29.614  1.00  0.00     0.188 C 
BRANCH   2   3
ATOM      3  O   UNL A   1      51.278  27.855  30.354  1.00  0.00    -0.376 OA
BRANCH   3   4
ATOM      4  C   UNL A   1      50.794  27.597  31.660  1.00  0.00     0.202 C 
BRANCH   4   5
ATOM      5  C   UNL A   1      50.176  28.713  32.531  1.00  0.00     0.261 C 
BRANCH   5   6
ATOM      6  O   UNL A   1      48.876  29.224  32.184  1.00  0.00    -0.463 OA
BRANCH   6   7
ATOM      7  C   UNL A   1      48.028  28.398  31.517  1.00  0.00     0.310 C 
ATOM      8  O   UNL A   1      47.882  28.400  30.303  1.00  0.00    -0.252 OA
BRANCH   7   9
ATOM      9  C   UNL A   1      47.251  27.507  32.506  1.00  0.00     0.116 C 
ATOM     10  C   UNL A   1      47.380  26.000  32.217  1.00  0.00     0.097 C 
ATOM     11  C   UNL A   1      46.428  25.439  31.168  1.00  0.00     0.045 C 
ATOM     12  C   UNL A   1      45.074  26.081  31.087  1.00  0.00    -0.074 C 
ATOM     13  C   UNL A   1      45.792  27.971  32.585  1.00  0.00     0.046 C 
ATOM     14  C   UNL A   1      44.090  25.270  30.281  1.00  0.00     0.039 C 
ATOM     15  C   UNL A   1      44.800  27.256  31.689  1.00  0.00    -0.073 C 
ATOM     16  C   UNL A   1      43.490  27.975  31.517  1.00  0.00     0.039 C 
BRANCH  10  17
ATOM     17  C   UNL A   1      47.749  25.165  33.444  1.00  0.00     0.224 C 
ATOM     18  N   UNL A   1      49.005  24.742  33.719  1.00  0.00    -0.352 N 
ATOM     19  H   UNL A   1      49.258  24.750  34.671  1.00  0.00     0.163 HD
ATOM     20  O   UNL A   1      46.895  24.950  34.310  1.00  0.00    -0.275 OA
BRANCH  18  21
ATOM     21  C   UNL A   1      50.021  24.281  32.806  1.00  0.00     0.151 C 
BRANCH  21  22
ATOM     22  C   UNL A   1      50.631  22.953  33.178  1.00  0.00    -0.025 A 
ATOM     23  C   UNL A   1      51.586  20.388  33.887  1.00  0.00     0.160 A 
ATOM     24  C   UNL A   1      52.387  21.270  33.146  1.00  0.00     0.051 A 
ATOM     25  C   UNL A   1      50.307  20.782  34.288  1.00  0.00     0.161 A 
ATOM     26  C   UNL A   1      51.912  22.541  32.792  1.00  0.00     0.009 A 
ATOM     27  C   UNL A   1      49.845  22.050  33.910  1.00  0.00     0.056 A 
BRANCH  23  28
ATOM     28  O   UNL A   1      52.152  19.211  34.298  1.00  0.00    -0.493 OA
ATOM     29  C   UNL A   1      53.066  19.399  35.377  1.00  0.00     0.278 C 
ENDBRANCH  23  28
BRANCH  25  30
ATOM     30  O   UNL A   1      49.387  20.113  35.045  1.00  0.00    -0.493 OA
ATOM     31  C   UNL A   1      49.345  20.333  36.441  1.00  0.00     0.278 C 
ENDBRANCH  25  30
ENDBRANCH  21  22
ENDBRANCH  18  21
ENDBRANCH  10  17
ENDBRANCH   7   9
ENDBRANCH   6   7
ENDBRANCH   5   6
ENDBRANCH   4   5
ENDBRANCH   3   4
ENDBRANCH   2   3
ENDBRANCH   1   2
BRANCH   1  32
ATOM     32  O   UNL A   1      51.573  27.845  27.397  1.00  0.00    -0.377 OA
BRANCH  32  33
ATOM     33  C   UNL A   1      50.880  27.804  26.166  1.00  0.00     0.188 C 
BRANCH  33  34
ATOM     34  C   UNL A   1      51.410  28.765  25.089  1.00  0.00     0.188 C 
BRANCH  34  35
ATOM     35  O   UNL A   1      52.601  28.293  24.461  1.00  0.00    -0.376 OA
BRANCH  35  36
ATOM     36  C   UNL A   1      52.515  27.696  23.181  1.00  0.00     0.202 C 
BRANCH  36  37
ATOM     37  C   UNL A   1      51.310  26.775  22.932  1.00  0.00     0.261 C 
BRANCH  37  38
ATOM     38  O   UNL A   1      50.351  27.230  21.970  1.00  0.00    -0.460 OA
BRANCH  38  39
ATOM     39  C   UNL A   1      49.222  26.500  21.837  1.00  0.00     0.338 C 
ATOM     40  O   UNL A   1      49.080  25.506  21.144  1.00  0.00    -0.246 OA
BRANCH  39  41
ATOM     41  C   UNL A   1      48.259  26.975  22.855  1.00  0.00     0.060 A 
ATOM     42  C   UNL A   1      48.134  26.246  24.046  1.00  0.00     0.016 A 
ATOM     43  C   UNL A   1      47.545  28.164  22.675  1.00  0.00     0.016 A 
ATOM     44  C   UNL A   1      47.282  26.695  25.054  1.00  0.00     0.010 A 
ATOM     45  C   UNL A   1      46.657  28.589  23.668  1.00  0.00     0.010 A 
ATOM     46  C   UNL A   1      46.499  27.838  24.846  1.00  0.00    -0.014 A 
BRANCH  46  47
ATOM     47  C   UNL A   1      45.331  28.074  25.728  1.00  0.00     0.031 A 
ATOM     48  C   UNL A   1      45.285  29.379  26.475  1.00  0.00     0.074 A 
ATOM     49  C   UNL A   1      44.323  27.190  25.831  1.00  0.00     0.049 A 
ATOM     50  N   UNL A   1      44.402  29.823  27.328  1.00  0.00    -0.248 NA
ATOM     51  C   UNL A   1      46.399  30.309  26.219  1.00  0.00     0.031 C 
ATOM     52  C   UNL A   1      44.230  25.923  25.109  1.00  0.00     0.029 A 
ATOM     53  N   UNL A   1      43.183  27.228  26.594  1.00  0.00    -0.354 N 
ATOM     54  C   UNL A   1      44.851  31.084  27.710  1.00  0.00     0.074 A 
ATOM     55  C   UNL A   1      46.105  31.313  27.027  1.00  0.00     0.031 C 
ATOM     56  C   UNL A   1      43.095  25.298  25.473  1.00  0.00     0.029 A 
ATOM     57  C   UNL A   1      42.403  26.100  26.481  1.00  0.00     0.049 A 
ATOM     58  H   UNL A   1      42.945  27.991  27.170  1.00  0.00     0.167 HD
ATOM     59  C   UNL A   1      44.266  31.971  28.550  1.00  0.00     0.034 A 
ATOM     60  C   UNL A   1      41.279  25.750  27.140  1.00  0.00     0.034 A 
ATOM     61  C   UNL A   1      43.029  31.713  29.243  1.00  0.00     0.049 A 
ATOM     62  C   UNL A   1      40.701  26.710  28.157  1.00  0.00     0.074 A 
ATOM     63  C   UNL A   1      42.347  32.534  30.121  1.00  0.00     0.029 A 
ATOM     64  N   UNL A   1      42.299  30.534  29.150  1.00  0.00    -0.354 N 
ATOM     65  N   UNL A   1      41.131  27.900  28.512  1.00  0.00    -0.248 NA
ATOM     66  C   UNL A   1      39.482  26.281  28.857  1.00  0.00     0.031 C 
ATOM     67  C   UNL A   1      41.251  31.824  30.621  1.00  0.00     0.029 A 
ATOM     68  C   UNL A   1      41.194  30.593  29.983  1.00  0.00     0.049 A 
ATOM     69  H   UNL A   1      42.533  29.769  28.576  1.00  0.00     0.167 HD
ATOM     70  C   UNL A   1      40.212  28.375  29.448  1.00  0.00     0.074 A 
ATOM     71  C   UNL A   1      39.203  27.347  29.593  1.00  0.00     0.031 C 
ATOM     72  C   UNL A   1      40.197  29.556  30.120  1.00  0.00     0.034 A 
BRANCH  59  73
ATOM     73  C   UNL A   1      45.000  33.265  28.804  1.00  0.00     0.023 A 
ATOM     74  C   UNL A   1      45.917  33.404  29.862  1.00  0.00     0.031 A 
ATOM     75  C   UNL A   1      44.741  34.393  28.005  1.00  0.00     0.131 A 
ATOM     76  C   UNL A   1      46.482  34.658  30.137  1.00  0.00     0.055 A 
ATOM     77  C   UNL A   1      45.374  35.615  28.231  1.00  0.00     0.041 A 
ATOM     78  F   UNL A   1      43.852  34.329  27.001  1.00  0.00    -0.206 F 
ATOM     79  C   UNL A   1      46.239  35.759  29.312  1.00  0.00     0.022 A 
BRANCH  76  80
ATOM     80  S   UNL A   1      47.417  34.870  31.677  1.00  0.00     0.124 S 
ATOM     81  O   UNL A   1      47.047  36.230  32.061  1.00  0.00    -0.237 OA
ATOM     82  O   UNL A   1      46.887  33.803  32.517  1.00  0.00    -0.237 OA
ATOM     83  O   UNL A   1      48.808  34.706  31.260  1.00  0.00    -0.744 OA
ENDBRANCH  76  80
ENDBRANCH  59  73
BRANCH  60  84
ATOM     84  C   UNL A   1      40.641  24.421  26.905  1.00  0.00     0.023 A 
ATOM     85  C   UNL A   1      39.399  24.311  26.258  1.00  0.00     0.031 A 
ATOM     86  C   UNL A   1      41.234  23.241  27.389  1.00  0.00     0.131 A 
ATOM     87  C   UNL A   1      38.769  23.059  26.158  1.00  0.00     0.055 A 
ATOM     88  C   UNL A   1      40.633  21.992  27.235  1.00  0.00     0.041 A 
ATOM     89  F   UNL A   1      42.417  23.288  28.025  1.00  0.00    -0.206 F 
ATOM     90  C   UNL A   1      39.385  21.897  26.628  1.00  0.00     0.022 A 
BRANCH  87  91
ATOM     91  S   UNL A   1      37.083  22.983  25.491  1.00  0.00     0.124 S 
ATOM     92  O   UNL A   1      36.410  24.017  26.269  1.00  0.00    -0.237 OA
ATOM     93  O   UNL A   1      37.302  23.283  24.079  1.00  0.00    -0.237 OA
ATOM     94  O   UNL A   1      36.664  21.613  25.777  1.00  0.00    -0.744 OA
ENDBRANCH  87  91
ENDBRANCH  60  84
BRANCH  72  95
ATOM     95  C   UNL A   1      39.019  29.823  31.028  1.00  0.00     0.023 A 
ATOM     96  C   UNL A   1      37.966  30.676  30.653  1.00  0.00     0.031 A 
ATOM     97  C   UNL A   1      38.951  29.208  32.291  1.00  0.00     0.131 A 
ATOM     98  C   UNL A   1      36.921  30.933  31.554  1.00  0.00     0.055 A 
ATOM     99  C   UNL A   1      37.875  29.414  33.155  1.00  0.00     0.041 A 
ATOM    100  F   UNL A   1      39.929  28.385  32.704  1.00  0.00    -0.206 F 
ATOM    101  C   UNL A   1      36.858  30.291  32.794  1.00  0.00     0.022 A 
BRANCH  98 102
ATOM    102  S   UNL A   1      35.690  32.195  31.125  1.00  0.00     0.124 S 
ATOM    103  O   UNL A   1      34.746  32.087  32.233  1.00  0.00    -0.237 OA
ATOM    104  O   UNL A   1      36.493  33.414  31.088  1.00  0.00    -0.237 OA
ATOM    105  O   UNL A   1      35.180  31.751  29.829  1.00  0.00    -0.744 OA
ENDBRANCH  98 102
ENDBRANCH  72  95
ENDBRANCH  46  47
ENDBRANCH  39  41
ENDBRANCH  38  39
ENDBRANCH  37  38
ENDBRANCH  36  37
ENDBRANCH  35  36
ENDBRANCH  34  35
ENDBRANCH  33  34
ENDBRANCH  32  33
ENDBRANCH   1  32
TORSDOF 28
ENDMDL
