MODEL 1
REMARK VINA RESULT:      -8.2      0.000      0.000
REMARK SMILES C[NH2+][C@@]1(C(=O)OCCOCCOCCOCCOC(=O)c2ccc(-c3c4nc(c(-c5cc(S(=O)(=O)[O-])ccc5F)c5ccc([nH]5)c(-c5cc(S(=O)(=O)[O-])ccc5F)c5nc(c(-c6cc(S(=O)(=O)[O-])ccc6F)c6ccc3[nH]6)C=C5)C=C4)cc2)CCC[C@H]1CCSc1nccs1
REMARK SMILES IDX 11 1 10 2 9 3 8 4 7 5 6 6 4 7 5 8 3 9 84 10 87 11 85 12
REMARK SMILES IDX 86 13 2 14 1 15 88 18 89 19 90 20 91 21 92 22 95 23 93 24
REMARK SMILES IDX 94 25 12 26 13 27 14 28 15 29 16 30 17 31 18 32 19 33 20 34
REMARK SMILES IDX 21 35 22 36 83 37 23 38 82 39 24 40 25 41 26 42 76 43 27 44
REMARK SMILES IDX 81 45 75 46 77 47 28 48 80 49 74 50 73 51 29 53 61 54 41 55
REMARK SMILES IDX 60 56 42 57 45 58 59 59 78 60 43 61 44 62 58 64 79 65 46 66
REMARK SMILES IDX 30 67 31 68 39 69 32 70 38 71 40 72 37 73 33 74 34 75 35 76
REMARK SMILES IDX 36 77 62 78 63 79 71 80 64 81 70 82 72 83 69 84 65 85 66 86
REMARK SMILES IDX 67 87 68 88 47 89 48 90 56 91 49 92 55 93 57 94 54 95 50 96
REMARK SMILES IDX 51 97 52 98 53 99
REMARK H PARENT 2 16 2 17 77 52 45 63
REMARK Flexibility Score: inf
ROOT
ATOM      1  C   UNL A   1      39.807  23.976  27.295  1.00  0.00     0.188 C 
ENDROOT
BRANCH   1   2
ATOM      2  C   UNL A   1      38.643  23.984  26.295  1.00  0.00     0.188 C 
BRANCH   2   3
ATOM      3  O   UNL A   1      37.772  22.873  26.136  1.00  0.00    -0.376 OA
BRANCH   3   4
ATOM      4  C   UNL A   1      38.212  21.680  25.504  1.00  0.00     0.202 C 
BRANCH   4   5
ATOM      5  C   UNL A   1      37.207  20.914  24.638  1.00  0.00     0.261 C 
BRANCH   5   6
ATOM      6  O   UNL A   1      35.836  21.356  24.747  1.00  0.00    -0.459 OA
BRANCH   6   7
ATOM      7  C   UNL A   1      34.920  20.371  24.933  1.00  0.00     0.368 C 
ATOM      8  O   UNL A   1      35.169  19.177  24.757  1.00  0.00    -0.245 OA
BRANCH   7   9
ATOM      9  C   UNL A   1      33.466  20.866  25.334  1.00  0.00     0.197 C 
ATOM     10  C   UNL A   1      32.532  19.986  24.478  1.00  0.00     0.081 C 
ATOM     11  C   UNL A   1      32.983  22.292  24.913  1.00  0.00     0.063 C 
ATOM     12  C   UNL A   1      32.517  20.685  23.114  1.00  0.00     0.008 C 
ATOM     13  C   UNL A   1      32.814  22.162  23.382  1.00  0.00     0.011 C 
BRANCH   9  14
ATOM     14  N   UNL A   1      33.441  20.699  26.787  1.00  0.00    -0.334 N 
ATOM     15  C   UNL A   1      34.085  21.654  27.642  1.00  0.00     0.331 C 
ATOM     16  H   UNL A   1      32.458  20.677  27.063  1.00  0.00     0.347 HD
ATOM     17  H   UNL A   1      33.993  19.854  26.931  1.00  0.00     0.347 HD
ENDBRANCH   9  14
BRANCH  11  18
ATOM     18  C   UNL A   1      31.597  22.787  25.471  1.00  0.00     0.022 C 
BRANCH  18  19
ATOM     19  C   UNL A   1      30.774  23.762  24.619  1.00  0.00     0.078 C 
BRANCH  19  20
ATOM     20  S   UNL A   1      30.817  25.490  25.229  1.00  0.00    -0.096 SA
BRANCH  20  21
ATOM     21  C   UNL A   1      32.088  26.001  24.148  1.00  0.00     0.149 A 
ATOM     22  N   UNL A   1      33.032  26.798  24.588  1.00  0.00    -0.238 NA
ATOM     23  S   UNL A   1      31.995  25.791  22.450  1.00  0.00    -0.116 S 
ATOM     24  C   UNL A   1      33.655  27.384  23.514  1.00  0.00     0.124 A 
ATOM     25  C   UNL A   1      33.196  26.995  22.272  1.00  0.00     0.087 A 
ENDBRANCH  20  21
ENDBRANCH  19  20
ENDBRANCH  18  19
ENDBRANCH  11  18
ENDBRANCH   7   9
ENDBRANCH   6   7
ENDBRANCH   5   6
ENDBRANCH   4   5
ENDBRANCH   3   4
ENDBRANCH   2   3
ENDBRANCH   1   2
BRANCH   1  26
ATOM     26  O   UNL A   1      40.313  25.242  27.649  1.00  0.00    -0.377 OA
BRANCH  26  27
ATOM     27  C   UNL A   1      39.442  26.360  27.739  1.00  0.00     0.188 C 
BRANCH  27  28
ATOM     28  C   UNL A   1      39.352  27.105  29.071  1.00  0.00     0.188 C 
BRANCH  28  29
ATOM     29  O   UNL A   1      39.421  28.525  28.860  1.00  0.00    -0.376 OA
BRANCH  29  30
ATOM     30  C   UNL A   1      38.270  29.091  28.226  1.00  0.00     0.202 C 
BRANCH  30  31
ATOM     31  C   UNL A   1      37.182  29.507  29.232  1.00  0.00     0.261 C 
BRANCH  31  32
ATOM     32  O   UNL A   1      37.634  30.461  30.202  1.00  0.00    -0.460 OA
BRANCH  32  33
ATOM     33  C   UNL A   1      37.421  30.081  31.479  1.00  0.00     0.338 C 
ATOM     34  O   UNL A   1      36.333  30.014  32.037  1.00  0.00    -0.246 OA
BRANCH  33  35
ATOM     35  C   UNL A   1      38.666  29.577  32.075  1.00  0.00     0.060 A 
ATOM     36  C   UNL A   1      39.735  30.475  32.165  1.00  0.00     0.016 A 
ATOM     37  C   UNL A   1      38.821  28.237  32.449  1.00  0.00     0.016 A 
ATOM     38  C   UNL A   1      40.992  30.017  32.545  1.00  0.00     0.010 A 
ATOM     39  C   UNL A   1      40.087  27.778  32.820  1.00  0.00     0.010 A 
ATOM     40  C   UNL A   1      41.185  28.656  32.810  1.00  0.00    -0.014 A 
BRANCH  40  41
ATOM     41  C   UNL A   1      42.573  28.138  32.832  1.00  0.00     0.031 A 
ATOM     42  C   UNL A   1      43.219  27.899  34.171  1.00  0.00     0.074 A 
ATOM     43  C   UNL A   1      43.204  27.805  31.693  1.00  0.00     0.049 A 
ATOM     44  N   UNL A   1      44.401  27.419  34.452  1.00  0.00    -0.248 NA
ATOM     45  C   UNL A   1      42.414  28.247  35.354  1.00  0.00     0.031 C 
ATOM     46  C   UNL A   1      42.644  27.940  30.350  1.00  0.00     0.029 A 
ATOM     47  N   UNL A   1      44.453  27.278  31.490  1.00  0.00    -0.354 N 
ATOM     48  C   UNL A   1      44.482  27.399  35.841  1.00  0.00     0.074 A 
ATOM     49  C   UNL A   1      43.245  27.957  36.343  1.00  0.00     0.031 C 
ATOM     50  C   UNL A   1      43.552  27.508  29.457  1.00  0.00     0.029 A 
ATOM     51  C   UNL A   1      44.765  27.099  30.162  1.00  0.00     0.049 A 
ATOM     52  H   UNL A   1      45.067  27.048  32.223  1.00  0.00     0.167 HD
ATOM     53  C   UNL A   1      45.490  26.946  36.624  1.00  0.00     0.034 A 
ATOM     54  C   UNL A   1      45.908  26.673  29.591  1.00  0.00     0.034 A 
ATOM     55  C   UNL A   1      46.725  26.414  36.102  1.00  0.00     0.049 A 
ATOM     56  C   UNL A   1      47.059  26.267  30.481  1.00  0.00     0.074 A 
ATOM     57  C   UNL A   1      47.821  25.934  36.797  1.00  0.00     0.029 A 
ATOM     58  N   UNL A   1      47.032  26.310  34.751  1.00  0.00    -0.354 N 
ATOM     59  N   UNL A   1      47.122  26.249  31.795  1.00  0.00    -0.248 NA
ATOM     60  C   UNL A   1      48.286  25.815  29.814  1.00  0.00     0.031 C 
ATOM     61  C   UNL A   1      48.815  25.606  35.869  1.00  0.00     0.029 A 
ATOM     62  C   UNL A   1      48.313  25.805  34.592  1.00  0.00     0.049 A 
ATOM     63  H   UNL A   1      46.429  26.557  34.014  1.00  0.00     0.167 HD
ATOM     64  C   UNL A   1      48.387  25.756  32.107  1.00  0.00     0.074 A 
ATOM     65  C   UNL A   1      49.044  25.477  30.846  1.00  0.00     0.031 C 
ATOM     66  C   UNL A   1      48.955  25.546  33.324  1.00  0.00     0.034 A 
BRANCH  53  67
ATOM     67  C   UNL A   1      45.313  27.070  38.118  1.00  0.00     0.023 A 
ATOM     68  C   UNL A   1      45.731  28.214  38.823  1.00  0.00     0.031 A 
ATOM     69  C   UNL A   1      44.761  26.009  38.856  1.00  0.00     0.131 A 
ATOM     70  C   UNL A   1      45.656  28.239  40.225  1.00  0.00     0.055 A 
ATOM     71  C   UNL A   1      44.618  26.072  40.244  1.00  0.00     0.041 A 
ATOM     72  F   UNL A   1      44.370  24.881  38.243  1.00  0.00    -0.206 F 
ATOM     73  C   UNL A   1      45.080  27.186  40.938  1.00  0.00     0.022 A 
BRANCH  70  74
ATOM     74  S   UNL A   1      46.454  29.606  41.113  1.00  0.00     0.124 S 
ATOM     75  O   UNL A   1      46.804  28.970  42.381  1.00  0.00    -0.237 OA
ATOM     76  O   UNL A   1      47.570  29.943  40.237  1.00  0.00    -0.237 OA
ATOM     77  O   UNL A   1      45.403  30.618  41.202  1.00  0.00    -0.744 OA
ENDBRANCH  70  74
ENDBRANCH  53  67
BRANCH  54  78
ATOM     78  C   UNL A   1      46.046  26.647  28.105  1.00  0.00     0.023 A 
ATOM     79  C   UNL A   1      45.825  25.473  27.370  1.00  0.00     0.031 A 
ATOM     80  C   UNL A   1      46.455  27.797  27.405  1.00  0.00     0.131 A 
ATOM     81  C   UNL A   1      46.056  25.460  25.985  1.00  0.00     0.055 A 
ATOM     82  C   UNL A   1      46.633  27.793  26.021  1.00  0.00     0.041 A 
ATOM     83  F   UNL A   1      46.682  28.946  28.059  1.00  0.00    -0.206 F 
ATOM     84  C   UNL A   1      46.447  26.616  25.304  1.00  0.00     0.022 A 
BRANCH  81  85
ATOM     85  S   UNL A   1      45.920  23.887  25.093  1.00  0.00     0.124 S 
ATOM     86  O   UNL A   1      46.450  22.944  26.072  1.00  0.00    -0.237 OA
ATOM     87  O   UNL A   1      44.486  23.809  24.836  1.00  0.00    -0.237 OA
ATOM     88  O   UNL A   1      46.753  24.093  23.910  1.00  0.00    -0.744 OA
ENDBRANCH  81  85
ENDBRANCH  54  78
BRANCH  66  89
ATOM     89  C   UNL A   1      50.339  24.947  33.339  1.00  0.00     0.023 A 
ATOM     90  C   UNL A   1      50.550  23.567  33.177  1.00  0.00     0.031 A 
ATOM     91  C   UNL A   1      51.463  25.772  33.524  1.00  0.00     0.131 A 
ATOM     92  C   UNL A   1      51.850  23.045  33.257  1.00  0.00     0.055 A 
ATOM     93  C   UNL A   1      52.759  25.255  33.542  1.00  0.00     0.041 A 
ATOM     94  F   UNL A   1      51.319  27.097  33.683  1.00  0.00    -0.206 F 
ATOM     95  C   UNL A   1      52.956  23.883  33.422  1.00  0.00     0.022 A 
BRANCH  92  96
ATOM     96  S   UNL A   1      52.070  21.245  33.235  1.00  0.00     0.124 S 
ATOM     97  O   UNL A   1      52.772  21.010  34.493  1.00  0.00    -0.237 OA
ATOM     98  O   UNL A   1      50.694  20.764  33.173  1.00  0.00    -0.237 OA
ATOM     99  O   UNL A   1      52.862  21.011  32.030  1.00  0.00    -0.744 OA
ENDBRANCH  92  96
ENDBRANCH  66  89
ENDBRANCH  40  41
ENDBRANCH  33  35
ENDBRANCH  32  33
ENDBRANCH  31  32
ENDBRANCH  30  31
ENDBRANCH  29  30
ENDBRANCH  28  29
ENDBRANCH  27  28
ENDBRANCH  26  27
ENDBRANCH   1  26
TORSDOF 28
ENDMDL
MODEL 2
REMARK VINA RESULT:      -7.8      6.052      8.878
REMARK SMILES C[NH2+][C@@]1(C(=O)OCCOCCOCCOCCOC(=O)c2ccc(-c3c4nc(c(-c5cc(S(=O)(=O)[O-])ccc5F)c5ccc([nH]5)c(-c5cc(S(=O)(=O)[O-])ccc5F)c5nc(c(-c6cc(S(=O)(=O)[O-])ccc6F)c6ccc3[nH]6)C=C5)C=C4)cc2)CCC[C@H]1CCSc1nccs1
REMARK SMILES IDX 11 1 10 2 9 3 8 4 7 5 6 6 4 7 5 8 3 9 84 10 87 11 85 12
REMARK SMILES IDX 86 13 2 14 1 15 88 18 89 19 90 20 91 21 92 22 95 23 93 24
REMARK SMILES IDX 94 25 12 26 13 27 14 28 15 29 16 30 17 31 18 32 19 33 20 34
REMARK SMILES IDX 21 35 22 36 83 37 23 38 82 39 24 40 25 41 26 42 76 43 27 44
REMARK SMILES IDX 81 45 75 46 77 47 28 48 80 49 74 50 73 51 29 53 61 54 41 55
REMARK SMILES IDX 60 56 42 57 45 58 59 59 78 60 43 61 44 62 58 64 79 65 46 66
REMARK SMILES IDX 30 67 31 68 39 69 32 70 38 71 40 72 37 73 33 74 34 75 35 76
REMARK SMILES IDX 36 77 62 78 63 79 71 80 64 81 70 82 72 83 69 84 65 85 66 86
REMARK SMILES IDX 67 87 68 88 47 89 48 90 56 91 49 92 55 93 57 94 54 95 50 96
REMARK SMILES IDX 51 97 52 98 53 99
REMARK H PARENT 2 16 2 17 77 52 45 63
REMARK Flexibility Score: inf
ROOT
ATOM      1  C   UNL A   1      37.858  24.061  26.029  1.00  0.00     0.188 C 
ENDROOT
BRANCH   1   2
ATOM      2  C   UNL A   1      37.379  23.210  24.845  1.00  0.00     0.188 C 
BRANCH   2   3
ATOM      3  O   UNL A   1      36.201  22.418  24.908  1.00  0.00    -0.376 OA
BRANCH   3   4
ATOM      4  C   UNL A   1      36.274  21.003  24.997  1.00  0.00     0.202 C 
BRANCH   4   5
ATOM      5  C   UNL A   1      34.964  20.211  24.918  1.00  0.00     0.261 C 
BRANCH   5   6
ATOM      6  O   UNL A   1      33.903  20.688  25.773  1.00  0.00    -0.459 OA
BRANCH   6   7
ATOM      7  C   UNL A   1      32.832  21.221  25.130  1.00  0.00     0.368 C 
ATOM      8  O   UNL A   1      32.070  20.557  24.424  1.00  0.00    -0.245 OA
BRANCH   7   9
ATOM      9  C   UNL A   1      32.656  22.790  25.295  1.00  0.00     0.197 C 
ATOM     10  C   UNL A   1      33.265  23.081  26.682  1.00  0.00     0.081 C 
ATOM     11  C   UNL A   1      31.228  23.400  25.473  1.00  0.00     0.063 C 
ATOM     12  C   UNL A   1      32.136  22.738  27.659  1.00  0.00     0.008 C 
ATOM     13  C   UNL A   1      30.826  22.931  26.890  1.00  0.00     0.011 C 
BRANCH   9  14
ATOM     14  N   UNL A   1      33.326  23.331  24.112  1.00  0.00    -0.334 N 
ATOM     15  C   UNL A   1      32.601  23.532  22.891  1.00  0.00     0.331 C 
ATOM     16  H   UNL A   1      33.703  24.241  24.380  1.00  0.00     0.347 HD
ATOM     17  H   UNL A   1      33.989  22.596  23.867  1.00  0.00     0.347 HD
ENDBRANCH   9  14
BRANCH  11  18
ATOM     18  C   UNL A   1      31.100  24.970  25.475  1.00  0.00     0.022 C 
BRANCH  18  19
ATOM     19  C   UNL A   1      32.262  25.795  26.041  1.00  0.00     0.078 C 
BRANCH  19  20
ATOM     20  S   UNL A   1      31.905  27.590  26.152  1.00  0.00    -0.096 SA
BRANCH  20  21
ATOM     21  C   UNL A   1      31.589  27.788  24.447  1.00  0.00     0.149 A 
ATOM     22  N   UNL A   1      30.364  28.010  24.037  1.00  0.00    -0.238 NA
ATOM     23  S   UNL A   1      32.736  27.378  23.244  1.00  0.00    -0.116 S 
ATOM     24  C   UNL A   1      30.285  27.721  22.697  1.00  0.00     0.124 A 
ATOM     25  C   UNL A   1      31.463  27.318  22.103  1.00  0.00     0.087 A 
ENDBRANCH  20  21
ENDBRANCH  19  20
ENDBRANCH  18  19
ENDBRANCH  11  18
ENDBRANCH   7   9
ENDBRANCH   6   7
ENDBRANCH   5   6
ENDBRANCH   4   5
ENDBRANCH   3   4
ENDBRANCH   2   3
ENDBRANCH   1   2
BRANCH   1  26
ATOM     26  O   UNL A   1      38.705  23.406  26.945  1.00  0.00    -0.377 OA
BRANCH  26  27
ATOM     27  C   UNL A   1      39.984  22.950  26.533  1.00  0.00     0.188 C 
BRANCH  27  28
ATOM     28  C   UNL A   1      40.460  21.581  27.023  1.00  0.00     0.188 C 
BRANCH  28  29
ATOM     29  O   UNL A   1      39.801  20.529  26.299  1.00  0.00    -0.376 OA
BRANCH  29  30
ATOM     30  C   UNL A   1      40.654  19.453  25.900  1.00  0.00     0.202 C 
BRANCH  30  31
ATOM     31  C   UNL A   1      42.147  19.781  26.079  1.00  0.00     0.261 C 
BRANCH  31  32
ATOM     32  O   UNL A   1      42.987  19.184  25.082  1.00  0.00    -0.460 OA
BRANCH  32  33
ATOM     33  C   UNL A   1      44.098  19.899  24.807  1.00  0.00     0.338 C 
ATOM     34  O   UNL A   1      45.018  19.547  24.080  1.00  0.00    -0.246 OA
BRANCH  33  35
ATOM     35  C   UNL A   1      43.979  21.256  25.361  1.00  0.00     0.060 A 
ATOM     36  C   UNL A   1      43.704  22.287  24.457  1.00  0.00     0.016 A 
ATOM     37  C   UNL A   1      44.225  21.530  26.711  1.00  0.00     0.016 A 
ATOM     38  C   UNL A   1      43.762  23.610  24.882  1.00  0.00     0.010 A 
ATOM     39  C   UNL A   1      44.294  22.861  27.131  1.00  0.00     0.010 A 
ATOM     40  C   UNL A   1      44.120  23.902  26.203  1.00  0.00    -0.014 A 
BRANCH  40  41
ATOM     41  C   UNL A   1      44.545  25.285  26.523  1.00  0.00     0.031 A 
ATOM     42  C   UNL A   1      43.526  26.218  27.124  1.00  0.00     0.074 A 
ATOM     43  C   UNL A   1      45.823  25.668  26.367  1.00  0.00     0.049 A 
ATOM     44  N   UNL A   1      43.663  27.454  27.523  1.00  0.00    -0.248 NA
ATOM     45  C   UNL A   1      42.170  25.674  27.302  1.00  0.00     0.031 C 
ATOM     46  C   UNL A   1      46.899  24.824  25.851  1.00  0.00     0.029 A 
ATOM     47  N   UNL A   1      46.431  26.867  26.636  1.00  0.00    -0.354 N 
ATOM     48  C   UNL A   1      42.415  27.836  28.005  1.00  0.00     0.074 A 
ATOM     49  C   UNL A   1      41.525  26.713  27.808  1.00  0.00     0.031 C 
ATOM     50  C   UNL A   1      48.039  25.536  25.837  1.00  0.00     0.029 A 
ATOM     51  C   UNL A   1      47.767  26.892  26.311  1.00  0.00     0.049 A 
ATOM     52  H   UNL A   1      45.958  27.637  27.026  1.00  0.00     0.167 HD
ATOM     53  C   UNL A   1      42.049  29.011  28.572  1.00  0.00     0.034 A 
ATOM     54  C   UNL A   1      48.656  27.902  26.373  1.00  0.00     0.034 A 
ATOM     55  C   UNL A   1      42.947  30.127  28.738  1.00  0.00     0.049 A 
ATOM     56  C   UNL A   1      48.202  29.237  26.914  1.00  0.00     0.074 A 
ATOM     57  C   UNL A   1      42.689  31.370  29.288  1.00  0.00     0.029 A 
ATOM     58  N   UNL A   1      44.277  30.138  28.336  1.00  0.00    -0.354 N 
ATOM     59  N   UNL A   1      47.020  29.586  27.372  1.00  0.00    -0.248 NA
ATOM     60  C   UNL A   1      49.203  30.310  26.957  1.00  0.00     0.031 C 
ATOM     61  C   UNL A   1      43.841  32.154  29.155  1.00  0.00     0.029 A 
ATOM     62  C   UNL A   1      44.843  31.377  28.595  1.00  0.00     0.049 A 
ATOM     63  H   UNL A   1      44.750  29.377  27.928  1.00  0.00     0.167 HD
ATOM     64  C   UNL A   1      47.146  30.910  27.783  1.00  0.00     0.074 A 
ATOM     65  C   UNL A   1      48.522  31.291  27.532  1.00  0.00     0.031 C 
ATOM     66  C   UNL A   1      46.215  31.738  28.324  1.00  0.00     0.034 A 
BRANCH  53  67
ATOM     67  C   UNL A   1      40.606  29.157  28.988  1.00  0.00     0.023 A 
ATOM     68  C   UNL A   1      40.210  29.068  30.336  1.00  0.00     0.031 A 
ATOM     69  C   UNL A   1      39.604  29.342  28.020  1.00  0.00     0.131 A 
ATOM     70  C   UNL A   1      38.846  29.091  30.668  1.00  0.00     0.055 A 
ATOM     71  C   UNL A   1      38.254  29.442  28.366  1.00  0.00     0.041 A 
ATOM     72  F   UNL A   1      39.917  29.407  26.717  1.00  0.00    -0.206 F 
ATOM     73  C   UNL A   1      37.867  29.302  29.694  1.00  0.00     0.022 A 
BRANCH  70  74
ATOM     74  S   UNL A   1      38.359  28.696  32.372  1.00  0.00     0.124 S 
ATOM     75  O   UNL A   1      39.136  29.671  33.134  1.00  0.00    -0.237 OA
ATOM     76  O   UNL A   1      36.917  28.907  32.345  1.00  0.00    -0.237 OA
ATOM     77  O   UNL A   1      38.784  27.307  32.536  1.00  0.00    -0.744 OA
ENDBRANCH  70  74
ENDBRANCH  53  67
BRANCH  54  78
ATOM     78  C   UNL A   1      50.050  27.715  25.872  1.00  0.00     0.023 A 
ATOM     79  C   UNL A   1      50.341  27.722  24.501  1.00  0.00     0.031 A 
ATOM     80  C   UNL A   1      51.105  27.474  26.771  1.00  0.00     0.131 A 
ATOM     81  C   UNL A   1      51.648  27.449  24.062  1.00  0.00     0.055 A 
ATOM     82  C   UNL A   1      52.412  27.254  26.332  1.00  0.00     0.041 A 
ATOM     83  F   UNL A   1      50.881  27.455  28.094  1.00  0.00    -0.206 F 
ATOM     84  C   UNL A   1      52.686  27.227  24.969  1.00  0.00     0.022 A 
BRANCH  81  85
ATOM     85  S   UNL A   1      51.955  27.303  22.280  1.00  0.00     0.124 S 
ATOM     86  O   UNL A   1      50.616  27.033  21.769  1.00  0.00    -0.237 OA
ATOM     87  O   UNL A   1      52.513  28.613  21.962  1.00  0.00    -0.237 OA
ATOM     88  O   UNL A   1      52.896  26.188  22.187  1.00  0.00    -0.744 OA
ENDBRANCH  81  85
ENDBRANCH  54  78
BRANCH  66  89
ATOM     89  C   UNL A   1      46.674  33.121  28.718  1.00  0.00     0.023 A 
ATOM     90  C   UNL A   1      46.579  34.211  27.837  1.00  0.00     0.031 A 
ATOM     91  C   UNL A   1      47.219  33.346  29.995  1.00  0.00     0.131 A 
ATOM     92  C   UNL A   1      47.072  35.467  28.224  1.00  0.00     0.055 A 
ATOM     93  C   UNL A   1      47.652  34.610  30.396  1.00  0.00     0.041 A 
ATOM     94  F   UNL A   1      47.333  32.340  30.877  1.00  0.00    -0.206 F 
ATOM     95  C   UNL A   1      47.592  35.676  29.504  1.00  0.00     0.022 A 
BRANCH  92  96
ATOM     96  S   UNL A   1      47.109  36.804  26.999  1.00  0.00     0.124 S 
ATOM     97  O   UNL A   1      46.532  36.156  25.825  1.00  0.00    -0.237 OA
ATOM     98  O   UNL A   1      46.284  37.828  27.631  1.00  0.00    -0.237 OA
ATOM     99  O   UNL A   1      48.529  37.131  26.891  1.00  0.00    -0.744 OA
ENDBRANCH  92  96
ENDBRANCH  66  89
ENDBRANCH  40  41
ENDBRANCH  33  35
ENDBRANCH  32  33
ENDBRANCH  31  32
ENDBRANCH  30  31
ENDBRANCH  29  30
ENDBRANCH  28  29
ENDBRANCH  27  28
ENDBRANCH  26  27
ENDBRANCH   1  26
TORSDOF 28
ENDMDL
MODEL 3
REMARK VINA RESULT:      -7.8      6.002      8.884
REMARK SMILES C[NH2+][C@@]1(C(=O)OCCOCCOCCOCCOC(=O)c2ccc(-c3c4nc(c(-c5cc(S(=O)(=O)[O-])ccc5F)c5ccc([nH]5)c(-c5cc(S(=O)(=O)[O-])ccc5F)c5nc(c(-c6cc(S(=O)(=O)[O-])ccc6F)c6ccc3[nH]6)C=C5)C=C4)cc2)CCC[C@H]1CCSc1nccs1
REMARK SMILES IDX 11 1 10 2 9 3 8 4 7 5 6 6 4 7 5 8 3 9 84 10 87 11 85 12
REMARK SMILES IDX 86 13 2 14 1 15 88 18 89 19 90 20 91 21 92 22 95 23 93 24
REMARK SMILES IDX 94 25 12 26 13 27 14 28 15 29 16 30 17 31 18 32 19 33 20 34
REMARK SMILES IDX 21 35 22 36 83 37 23 38 82 39 24 40 25 41 26 42 76 43 27 44
REMARK SMILES IDX 81 45 75 46 77 47 28 48 80 49 74 50 73 51 29 53 61 54 41 55
REMARK SMILES IDX 60 56 42 57 45 58 59 59 78 60 43 61 44 62 58 64 79 65 46 66
REMARK SMILES IDX 30 67 31 68 39 69 32 70 38 71 40 72 37 73 33 74 34 75 35 76
REMARK SMILES IDX 36 77 62 78 63 79 71 80 64 81 70 82 72 83 69 84 65 85 66 86
REMARK SMILES IDX 67 87 68 88 47 89 48 90 56 91 49 92 55 93 57 94 54 95 50 96
REMARK SMILES IDX 51 97 52 98 53 99
REMARK H PARENT 2 16 2 17 77 52 45 63
REMARK Flexibility Score: inf
ROOT
ATOM      1  C   UNL A   1      36.805  23.490  25.708  1.00  0.00     0.188 C 
ENDROOT
BRANCH   1   2
ATOM      2  C   UNL A   1      36.419  22.107  25.166  1.00  0.00     0.188 C 
BRANCH   2   3
ATOM      3  O   UNL A   1      35.517  21.249  25.850  1.00  0.00    -0.376 OA
BRANCH   3   4
ATOM      4  C   UNL A   1      34.635  20.395  25.137  1.00  0.00     0.202 C 
BRANCH   4   5
ATOM      5  C   UNL A   1      33.348  21.004  24.571  1.00  0.00     0.261 C 
BRANCH   5   6
ATOM      6  O   UNL A   1      33.208  22.430  24.754  1.00  0.00    -0.459 OA
BRANCH   6   7
ATOM      7  C   UNL A   1      32.555  23.084  23.759  1.00  0.00     0.368 C 
ATOM      8  O   UNL A   1      32.380  22.604  22.639  1.00  0.00    -0.245 OA
BRANCH   7   9
ATOM      9  C   UNL A   1      32.079  24.556  24.116  1.00  0.00     0.197 C 
ATOM     10  C   UNL A   1      31.703  25.158  22.747  1.00  0.00     0.081 C 
ATOM     11  C   UNL A   1      33.116  25.611  24.620  1.00  0.00     0.063 C 
ATOM     12  C   UNL A   1      33.045  25.613  22.164  1.00  0.00     0.008 C 
ATOM     13  C   UNL A   1      33.960  25.896  23.357  1.00  0.00     0.011 C 
BRANCH   9  14
ATOM     14  N   UNL A   1      31.015  24.338  25.097  1.00  0.00    -0.334 N 
ATOM     15  C   UNL A   1      31.330  24.146  26.483  1.00  0.00     0.331 C 
ATOM     16  H   UNL A   1      30.401  25.153  25.048  1.00  0.00     0.347 HD
ATOM     17  H   UNL A   1      30.629  23.436  24.821  1.00  0.00     0.347 HD
ENDBRANCH   9  14
BRANCH  11  18
ATOM     18  C   UNL A   1      32.563  27.003  25.106  1.00  0.00     0.022 C 
BRANCH  18  19
ATOM     19  C   UNL A   1      33.565  28.138  25.356  1.00  0.00     0.078 C 
BRANCH  19  20
ATOM     20  S   UNL A   1      33.712  28.616  27.120  1.00  0.00    -0.096 SA
BRANCH  20  21
ATOM     21  C   UNL A   1      33.163  30.255  26.879  1.00  0.00     0.149 A 
ATOM     22  N   UNL A   1      33.737  31.233  27.536  1.00  0.00    -0.238 NA
ATOM     23  S   UNL A   1      31.695  30.628  26.081  1.00  0.00    -0.116 S 
ATOM     24  C   UNL A   1      32.908  32.327  27.518  1.00  0.00     0.124 A 
ATOM     25  C   UNL A   1      31.731  32.172  26.815  1.00  0.00     0.087 A 
ENDBRANCH  20  21
ENDBRANCH  19  20
ENDBRANCH  18  19
ENDBRANCH  11  18
ENDBRANCH   7   9
ENDBRANCH   6   7
ENDBRANCH   5   6
ENDBRANCH   4   5
ENDBRANCH   3   4
ENDBRANCH   2   3
ENDBRANCH   1   2
BRANCH   1  26
ATOM     26  O   UNL A   1      37.904  23.512  26.590  1.00  0.00    -0.377 OA
BRANCH  26  27
ATOM     27  C   UNL A   1      39.194  23.136  26.133  1.00  0.00     0.188 C 
BRANCH  27  28
ATOM     28  C   UNL A   1      39.750  21.777  26.561  1.00  0.00     0.188 C 
BRANCH  28  29
ATOM     29  O   UNL A   1      39.050  20.714  25.894  1.00  0.00    -0.376 OA
BRANCH  29  30
ATOM     30  C   UNL A   1      39.827  19.533  25.673  1.00  0.00     0.202 C 
BRANCH  30  31
ATOM     31  C   UNL A   1      41.267  19.661  26.203  1.00  0.00     0.261 C 
BRANCH  31  32
ATOM     32  O   UNL A   1      42.252  19.105  25.323  1.00  0.00    -0.460 OA
BRANCH  32  33
ATOM     33  C   UNL A   1      43.477  19.652  25.463  1.00  0.00     0.338 C 
ATOM     34  O   UNL A   1      44.542  19.109  25.195  1.00  0.00    -0.246 OA
BRANCH  33  35
ATOM     35  C   UNL A   1      43.363  21.074  25.817  1.00  0.00     0.060 A 
ATOM     36  C   UNL A   1      43.546  22.001  24.785  1.00  0.00     0.016 A 
ATOM     37  C   UNL A   1      43.175  21.497  27.137  1.00  0.00     0.016 A 
ATOM     38  C   UNL A   1      43.635  23.356  25.082  1.00  0.00     0.010 A 
ATOM     39  C   UNL A   1      43.277  22.859  27.434  1.00  0.00     0.010 A 
ATOM     40  C   UNL A   1      43.565  23.782  26.414  1.00  0.00    -0.014 A 
BRANCH  40  41
ATOM     41  C   UNL A   1      44.039  25.148  26.737  1.00  0.00     0.031 A 
ATOM     42  C   UNL A   1      43.058  26.111  27.353  1.00  0.00     0.074 A 
ATOM     43  C   UNL A   1      45.327  25.490  26.569  1.00  0.00     0.049 A 
ATOM     44  N   UNL A   1      43.239  27.341  27.757  1.00  0.00    -0.248 NA
ATOM     45  C   UNL A   1      41.686  25.612  27.542  1.00  0.00     0.031 C 
ATOM     46  C   UNL A   1      46.369  24.614  26.038  1.00  0.00     0.029 A 
ATOM     47  N   UNL A   1      45.978  26.667  26.838  1.00  0.00    -0.354 N 
ATOM     48  C   UNL A   1      42.010  27.761  28.254  1.00  0.00     0.074 A 
ATOM     49  C   UNL A   1      41.081  26.669  28.060  1.00  0.00     0.031 C 
ATOM     50  C   UNL A   1      47.533  25.287  26.016  1.00  0.00     0.029 A 
ATOM     51  C   UNL A   1      47.310  26.649  26.500  1.00  0.00     0.049 A 
ATOM     52  H   UNL A   1      45.534  27.449  27.237  1.00  0.00     0.167 HD
ATOM     53  C   UNL A   1      41.689  28.944  28.830  1.00  0.00     0.034 A 
ATOM     54  C   UNL A   1      48.233  27.629  26.558  1.00  0.00     0.034 A 
ATOM     55  C   UNL A   1      42.625  30.029  28.993  1.00  0.00     0.049 A 
ATOM     56  C   UNL A   1      47.829  28.975  27.110  1.00  0.00     0.074 A 
ATOM     57  C   UNL A   1      42.414  31.276  29.552  1.00  0.00     0.029 A 
ATOM     58  N   UNL A   1      43.951  29.998  28.578  1.00  0.00    -0.354 N 
ATOM     59  N   UNL A   1      46.664  29.360  27.582  1.00  0.00    -0.248 NA
ATOM     60  C   UNL A   1      48.865  30.014  27.149  1.00  0.00     0.031 C 
ATOM     61  C   UNL A   1      43.590  32.022  29.411  1.00  0.00     0.029 A 
ATOM     62  C   UNL A   1      44.561  31.216  28.837  1.00  0.00     0.049 A 
ATOM     63  H   UNL A   1      44.394  29.224  28.160  1.00  0.00     0.167 HD
ATOM     64  C   UNL A   1      46.838  30.677  27.999  1.00  0.00     0.074 A 
ATOM     65  C   UNL A   1      48.223  31.013  27.736  1.00  0.00     0.031 C 
ATOM     66  C   UNL A   1      45.941  31.533  28.554  1.00  0.00     0.034 A 
BRANCH  53  67
ATOM     67  C   UNL A   1      40.255  29.136  29.262  1.00  0.00     0.023 A 
ATOM     68  C   UNL A   1      39.872  29.063  30.615  1.00  0.00     0.031 A 
ATOM     69  C   UNL A   1      39.249  29.348  28.305  1.00  0.00     0.131 A 
ATOM     70  C   UNL A   1      38.513  29.130  30.962  1.00  0.00     0.055 A 
ATOM     71  C   UNL A   1      37.907  29.491  28.665  1.00  0.00     0.041 A 
ATOM     72  F   UNL A   1      39.549  29.399  26.998  1.00  0.00    -0.206 F 
ATOM     73  C   UNL A   1      37.530  29.367  29.998  1.00  0.00     0.022 A 
BRANCH  70  74
ATOM     74  S   UNL A   1      38.034  28.756  32.672  1.00  0.00     0.124 S 
ATOM     75  O   UNL A   1      38.146  27.300  32.698  1.00  0.00    -0.237 OA
ATOM     76  O   UNL A   1      39.029  29.489  33.446  1.00  0.00    -0.237 OA
ATOM     77  O   UNL A   1      36.669  29.270  32.766  1.00  0.00    -0.744 OA
ENDBRANCH  70  74
ENDBRANCH  53  67
BRANCH  54  78
ATOM     78  C   UNL A   1      49.614  27.398  26.042  1.00  0.00     0.023 A 
ATOM     79  C   UNL A   1      50.000  27.831  24.765  1.00  0.00     0.031 A 
ATOM     80  C   UNL A   1      50.556  26.690  26.812  1.00  0.00     0.131 A 
ATOM     81  C   UNL A   1      51.278  27.514  24.275  1.00  0.00     0.055 A 
ATOM     82  C   UNL A   1      51.842  26.422  26.341  1.00  0.00     0.041 A 
ATOM     83  F   UNL A   1      50.238  26.251  28.040  1.00  0.00    -0.206 F 
ATOM     84  C   UNL A   1      52.205  26.824  25.060  1.00  0.00     0.022 A 
BRANCH  81  85
ATOM     85  S   UNL A   1      51.686  27.945  22.561  1.00  0.00     0.124 S 
ATOM     86  O   UNL A   1      52.807  28.860  22.744  1.00  0.00    -0.237 OA
ATOM     87  O   UNL A   1      52.006  26.641  21.991  1.00  0.00    -0.237 OA
ATOM     88  O   UNL A   1      50.455  28.556  22.063  1.00  0.00    -0.744 OA
ENDBRANCH  81  85
ENDBRANCH  54  78
BRANCH  66  89
ATOM     89  C   UNL A   1      46.449  32.897  28.950  1.00  0.00     0.023 A 
ATOM     90  C   UNL A   1      46.390  33.993  28.072  1.00  0.00     0.031 A 
ATOM     91  C   UNL A   1      47.006  33.099  30.226  1.00  0.00     0.131 A 
ATOM     92  C   UNL A   1      46.928  35.229  28.461  1.00  0.00     0.055 A 
ATOM     93  C   UNL A   1      47.485  34.347  30.629  1.00  0.00     0.041 A 
ATOM     94  F   UNL A   1      47.087  32.087  31.104  1.00  0.00    -0.206 F 
ATOM     95  C   UNL A   1      47.459  35.417  29.740  1.00  0.00     0.022 A 
BRANCH  92  96
ATOM     96  S   UNL A   1      47.008  36.568  27.240  1.00  0.00     0.124 S 
ATOM     97  O   UNL A   1      48.429  36.902  27.249  1.00  0.00    -0.237 OA
ATOM     98  O   UNL A   1      46.514  35.918  26.031  1.00  0.00    -0.237 OA
ATOM     99  O   UNL A   1      46.127  37.593  27.797  1.00  0.00    -0.744 OA
ENDBRANCH  92  96
ENDBRANCH  66  89
ENDBRANCH  40  41
ENDBRANCH  33  35
ENDBRANCH  32  33
ENDBRANCH  31  32
ENDBRANCH  30  31
ENDBRANCH  29  30
ENDBRANCH  28  29
ENDBRANCH  27  28
ENDBRANCH  26  27
ENDBRANCH   1  26
TORSDOF 28
ENDMDL
