MODEL 1
REMARK VINA RESULT:     -12.3      0.000      0.000
REMARK SMILES Cc1ccc(CNc2ccc(C(=O)OCCOCCOCCOCCOC(=O)c3ccc(-c4c5nc(c(-c6cc(S(=O)(=O)[O-])ccc6F)c6ccc([nH]6)c(-c6cc(S(=O)(=O)[O-])ccc6F)c6nc(c(-c7cc(S(=O)(=O)[O-])ccc7F)c7ccc4[nH]7)C=C6)C=C5)cc3)cc2Br)cc1
REMARK SMILES IDX 20 1 19 2 18 3 17 4 16 5 15 6 14 7 12 8 13 9 11 10 8 11 9 12
REMARK SMILES IDX 93 13 10 14 92 15 94 16 7 17 6 19 5 20 1 21 2 22 3 23 96 24
REMARK SMILES IDX 4 25 95 26 21 27 22 28 23 29 24 30 25 31 26 32 27 33 28 34
REMARK SMILES IDX 29 35 30 36 91 37 31 38 90 39 32 40 33 41 34 42 84 43 35 44
REMARK SMILES IDX 89 45 83 46 85 47 36 48 88 49 82 50 81 51 37 53 69 54 49 55
REMARK SMILES IDX 68 56 50 57 53 58 67 59 86 60 51 61 52 62 66 64 87 65 54 66
REMARK SMILES IDX 38 67 39 68 47 69 40 70 46 71 48 72 45 73 41 74 42 75 43 76
REMARK SMILES IDX 44 77 70 78 71 79 79 80 72 81 78 82 80 83 77 84 73 85 74 86
REMARK SMILES IDX 75 87 76 88 55 89 56 90 64 91 57 92 63 93 65 94 62 95 58 96
REMARK SMILES IDX 59 97 60 98 61 99
REMARK H PARENT 7 18 85 52 53 63
REMARK Flexibility Score: inf
ROOT
ATOM      1  O   UNL A   1      32.776  36.552  30.489  1.00  0.00    -0.377 OA
ENDROOT
BRANCH   1   2
ATOM      2  C   UNL A   1      33.093  36.988  29.165  1.00  0.00     0.188 C 
BRANCH   2   3
ATOM      3  C   UNL A   1      34.157  36.377  28.043  1.00  0.00     0.188 C 
BRANCH   3   4
ATOM      4  O   UNL A   1      34.600  34.797  27.395  1.00  0.00    -0.376 OA
BRANCH   4   5
ATOM      5  C   UNL A   1      35.168  33.266  28.045  1.00  0.00     0.202 C 
BRANCH   5   6
ATOM      6  C   UNL A   1      34.235  31.631  28.230  1.00  0.00     0.261 C 
BRANCH   6   7
ATOM      7  O   UNL A   1      33.804  30.515  26.845  1.00  0.00    -0.460 OA
BRANCH   7   8
ATOM      8  C   UNL A   1      33.844  29.122  26.290  1.00  0.00     0.338 C 
ATOM      9  O   UNL A   1      34.233  28.127  26.914  1.00  0.00    -0.246 OA
BRANCH   8  10
ATOM     10  C   UNL A   1      33.367  28.600  24.858  1.00  0.00     0.061 A 
ATOM     11  C   UNL A   1      32.246  27.407  22.450  1.00  0.00     0.049 A 
ATOM     12  C   UNL A   1      33.563  27.797  22.512  1.00  0.00     0.028 A 
ATOM     13  C   UNL A   1      31.440  27.777  23.534  1.00  0.00     0.042 A 
ATOM     14  C   UNL A   1      34.040  28.499  23.629  1.00  0.00     0.018 A 
ATOM     15  C   UNL A   1      31.997  28.296  24.725  1.00  0.00     0.033 A 
ATOM     16  Br  UNL A   1      29.546  27.641  23.413  1.00  0.00    -0.049 Br
BRANCH  11  17
ATOM     17  N   UNL A   1      31.800  26.633  21.378  1.00  0.00    -0.380 N 
ATOM     18  H   UNL A   1      30.997  26.880  20.863  1.00  0.00     0.160 HD
BRANCH  17  19
ATOM     19  C   UNL A   1      32.580  25.435  21.053  1.00  0.00     0.148 C 
BRANCH  19  20
ATOM     20  C   UNL A   1      32.417  24.431  22.174  1.00  0.00    -0.029 A 
ATOM     21  C   UNL A   1      32.186  21.992  25.723  1.00  0.00     0.044 C 
ATOM     22  C   UNL A   1      32.236  22.789  24.455  1.00  0.00    -0.051 A 
ATOM     23  C   UNL A   1      33.452  22.933  23.785  1.00  0.00     0.004 A 
ATOM     24  C   UNL A   1      31.098  23.428  23.947  1.00  0.00     0.004 A 
ATOM     25  C   UNL A   1      33.533  23.722  22.640  1.00  0.00     0.006 A 
ATOM     26  C   UNL A   1      31.188  24.247  22.817  1.00  0.00     0.006 A 
ENDBRANCH  19  20
ENDBRANCH  17  19
ENDBRANCH  11  17
ENDBRANCH   8  10
ENDBRANCH   7   8
ENDBRANCH   6   7
ENDBRANCH   5   6
ENDBRANCH   4   5
ENDBRANCH   3   4
ENDBRANCH   2   3
ENDBRANCH   1   2
BRANCH   1  27
ATOM     27  C   UNL A   1      33.488  36.770  31.695  1.00  0.00     0.188 C 
BRANCH  27  28
ATOM     28  C   UNL A   1      33.397  35.849  32.886  1.00  0.00     0.188 C 
BRANCH  28  29
ATOM     29  O   UNL A   1      33.434  34.485  32.510  1.00  0.00    -0.376 OA
BRANCH  29  30
ATOM     30  C   UNL A   1      34.568  34.163  31.722  1.00  0.00     0.202 C 
BRANCH  30  31
ATOM     31  C   UNL A   1      34.936  32.668  31.751  1.00  0.00     0.261 C 
BRANCH  31  32
ATOM     32  O   UNL A   1      36.351  32.511  31.978  1.00  0.00    -0.460 OA
BRANCH  32  33
ATOM     33  C   UNL A   1      36.772  31.233  32.299  1.00  0.00     0.338 C 
ATOM     34  O   UNL A   1      36.955  30.821  33.399  1.00  0.00    -0.246 OA
BRANCH  33  35
ATOM     35  C   UNL A   1      37.116  30.558  31.004  1.00  0.00     0.060 A 
ATOM     36  C   UNL A   1      37.302  29.192  30.854  1.00  0.00     0.016 A 
ATOM     37  C   UNL A   1      37.518  31.317  29.962  1.00  0.00     0.016 A 
ATOM     38  C   UNL A   1      38.262  28.665  29.909  1.00  0.00     0.010 A 
ATOM     39  C   UNL A   1      38.439  30.751  29.075  1.00  0.00     0.010 A 
ATOM     40  C   UNL A   1      39.143  29.464  29.166  1.00  0.00    -0.014 A 
BRANCH  40  41
ATOM     41  C   UNL A   1      40.794  28.909  28.489  1.00  0.00     0.031 A 
ATOM     42  C   UNL A   1      41.101  27.138  27.620  1.00  0.00     0.074 A 
ATOM     43  C   UNL A   1      41.812  29.845  28.972  1.00  0.00     0.049 A 
ATOM     44  N   UNL A   1      41.741  26.120  28.279  1.00  0.00    -0.248 NA
ATOM     45  C   UNL A   1      40.409  26.137  26.556  1.00  0.00     0.031 C 
ATOM     46  C   UNL A   1      43.332  29.924  28.946  1.00  0.00     0.029 A 
ATOM     47  N   UNL A   1      41.665  30.972  29.826  1.00  0.00    -0.354 N 
ATOM     48  C   UNL A   1      41.833  24.870  27.784  1.00  0.00     0.074 A 
ATOM     49  C   UNL A   1      40.801  24.869  26.821  1.00  0.00     0.031 C 
ATOM     50  C   UNL A   1      43.906  30.881  29.655  1.00  0.00     0.029 A 
ATOM     51  C   UNL A   1      42.870  31.303  30.489  1.00  0.00     0.049 A 
ATOM     52  H   UNL A   1      40.821  31.465  29.944  1.00  0.00     0.167 HD
ATOM     53  C   UNL A   1      42.809  24.000  28.189  1.00  0.00     0.034 A 
ATOM     54  C   UNL A   1      43.047  31.231  31.826  1.00  0.00     0.034 A 
ATOM     55  C   UNL A   1      43.942  24.649  28.892  1.00  0.00     0.049 A 
ATOM     56  C   UNL A   1      43.848  29.967  32.223  1.00  0.00     0.074 A 
ATOM     57  C   UNL A   1      45.103  25.215  28.381  1.00  0.00     0.029 A 
ATOM     58  N   UNL A   1      43.910  25.058  30.229  1.00  0.00    -0.354 N 
ATOM     59  N   UNL A   1      43.879  28.808  31.580  1.00  0.00    -0.248 NA
ATOM     60  C   UNL A   1      44.857  30.030  33.274  1.00  0.00     0.031 C 
ATOM     61  C   UNL A   1      45.603  26.162  29.323  1.00  0.00     0.029 A 
ATOM     62  C   UNL A   1      44.839  26.090  30.482  1.00  0.00     0.049 A 
ATOM     63  H   UNL A   1      43.313  24.675  30.911  1.00  0.00     0.167 HD
ATOM     64  C   UNL A   1      44.828  27.966  32.144  1.00  0.00     0.074 A 
ATOM     65  C   UNL A   1      45.446  28.829  33.155  1.00  0.00     0.031 C 
ATOM     66  C   UNL A   1      45.102  26.641  31.826  1.00  0.00     0.034 A 
BRANCH  53  67
ATOM     67  C   UNL A   1      42.876  22.676  27.469  1.00  0.00     0.023 A 
ATOM     68  C   UNL A   1      43.833  22.440  26.468  1.00  0.00     0.031 A 
ATOM     69  C   UNL A   1      41.916  21.661  27.673  1.00  0.00     0.131 A 
ATOM     70  C   UNL A   1      43.735  21.310  25.634  1.00  0.00     0.055 A 
ATOM     71  C   UNL A   1      41.790  20.562  26.814  1.00  0.00     0.041 A 
ATOM     72  F   UNL A   1      41.040  21.740  28.690  1.00  0.00    -0.206 F 
ATOM     73  C   UNL A   1      42.689  20.396  25.770  1.00  0.00     0.022 A 
BRANCH  70  74
ATOM     74  S   UNL A   1      44.994  21.049  24.352  1.00  0.00     0.124 S 
ATOM     75  O   UNL A   1      44.648  22.056  23.356  1.00  0.00    -0.237 OA
ATOM     76  O   UNL A   1      46.234  21.269  25.088  1.00  0.00    -0.237 OA
ATOM     77  O   UNL A   1      44.769  19.665  23.930  1.00  0.00    -0.744 OA
ENDBRANCH  70  74
ENDBRANCH  53  67
BRANCH  54  78
ATOM     78  C   UNL A   1      42.007  32.083  32.457  1.00  0.00     0.023 A 
ATOM     79  C   UNL A   1      41.106  31.379  33.322  1.00  0.00     0.031 A 
ATOM     80  C   UNL A   1      42.171  33.448  32.663  1.00  0.00     0.131 A 
ATOM     81  C   UNL A   1      40.669  31.966  34.513  1.00  0.00     0.055 A 
ATOM     82  C   UNL A   1      41.588  34.072  33.777  1.00  0.00     0.041 A 
ATOM     83  F   UNL A   1      43.022  34.151  31.904  1.00  0.00    -0.206 F 
ATOM     84  C   UNL A   1      40.882  33.322  34.732  1.00  0.00     0.022 A 
BRANCH  81  85
ATOM     85  S   UNL A   1      40.268  30.877  35.935  1.00  0.00     0.124 S 
ATOM     86  O   UNL A   1      39.257  29.991  35.373  1.00  0.00    -0.237 OA
ATOM     87  O   UNL A   1      41.554  30.260  36.257  1.00  0.00    -0.237 OA
ATOM     88  O   UNL A   1      39.804  31.821  36.949  1.00  0.00    -0.744 OA
ENDBRANCH  81  85
ENDBRANCH  54  78
BRANCH  66  89
ATOM     89  C   UNL A   1      45.831  25.703  32.792  1.00  0.00     0.023 A 
ATOM     90  C   UNL A   1      45.159  24.745  33.558  1.00  0.00     0.031 A 
ATOM     91  C   UNL A   1      47.248  25.658  32.889  1.00  0.00     0.131 A 
ATOM     92  C   UNL A   1      45.840  23.906  34.452  1.00  0.00     0.055 A 
ATOM     93  C   UNL A   1      47.933  24.730  33.678  1.00  0.00     0.041 A 
ATOM     94  F   UNL A   1      48.043  26.497  32.212  1.00  0.00    -0.206 F 
ATOM     95  C   UNL A   1      47.228  23.859  34.490  1.00  0.00     0.022 A 
BRANCH  92  96
ATOM     96  S   UNL A   1      44.848  22.971  35.638  1.00  0.00     0.124 S 
ATOM     97  O   UNL A   1      43.868  22.332  34.762  1.00  0.00    -0.237 OA
ATOM     98  O   UNL A   1      45.833  22.078  36.238  1.00  0.00    -0.237 OA
ATOM     99  O   UNL A   1      44.312  23.999  36.526  1.00  0.00    -0.744 OA
ENDBRANCH  92  96
ENDBRANCH  66  89
ENDBRANCH  40  41
ENDBRANCH  33  35
ENDBRANCH  32  33
ENDBRANCH  31  32
ENDBRANCH  30  31
ENDBRANCH  29  30
ENDBRANCH  28  29
ENDBRANCH  27  28
ENDBRANCH   1  27
TORSDOF 26
ENDMDL
MODEL 2
REMARK VINA RESULT:     -10.1      2.673      4.017
REMARK SMILES Cc1ccc(CNc2ccc(C(=O)OCCOCCOCCOCCOC(=O)c3ccc(-c4c5nc(c(-c6cc(S(=O)(=O)[O-])ccc6F)c6ccc([nH]6)c(-c6cc(S(=O)(=O)[O-])ccc6F)c6nc(c(-c7cc(S(=O)(=O)[O-])ccc7F)c7ccc4[nH]7)C=C6)C=C5)cc3)cc2Br)cc1
REMARK SMILES IDX 20 1 19 2 18 3 17 4 16 5 15 6 14 7 12 8 13 9 11 10 8 11 9 12
REMARK SMILES IDX 93 13 10 14 92 15 94 16 7 17 6 19 5 20 1 21 2 22 3 23 96 24
REMARK SMILES IDX 4 25 95 26 21 27 22 28 23 29 24 30 25 31 26 32 27 33 28 34
REMARK SMILES IDX 29 35 30 36 91 37 31 38 90 39 32 40 33 41 34 42 84 43 35 44
REMARK SMILES IDX 89 45 83 46 85 47 36 48 88 49 82 50 81 51 37 53 69 54 49 55
REMARK SMILES IDX 68 56 50 57 53 58 67 59 86 60 51 61 52 62 66 64 87 65 54 66
REMARK SMILES IDX 38 67 39 68 47 69 40 70 46 71 48 72 45 73 41 74 42 75 43 76
REMARK SMILES IDX 44 77 70 78 71 79 79 80 72 81 78 82 80 83 77 84 73 85 74 86
REMARK SMILES IDX 75 87 76 88 55 89 56 90 64 91 57 92 63 93 65 94 62 95 58 96
REMARK SMILES IDX 59 97 60 98 61 99
REMARK H PARENT 7 18 85 52 53 63
REMARK Flexibility Score: inf
ROOT
ATOM      1  O   UNL A   1      38.863  29.158  33.633  1.00  0.00    -0.377 OA
ENDROOT
BRANCH   1   2
ATOM      2  C   UNL A   1      39.077  28.675  32.305  1.00  0.00     0.188 C 
BRANCH   2   3
ATOM      3  C   UNL A   1      38.083  28.680  30.972  1.00  0.00     0.188 C 
BRANCH   3   4
ATOM      4  O   UNL A   1      37.361  29.873  29.892  1.00  0.00    -0.376 OA
BRANCH   4   5
ATOM      5  C   UNL A   1      36.271  29.851  28.514  1.00  0.00     0.202 C 
BRANCH   5   6
ATOM      6  C   UNL A   1      34.953  31.114  28.016  1.00  0.00     0.261 C 
BRANCH   6   7
ATOM      7  O   UNL A   1      33.757  30.889  26.649  1.00  0.00    -0.460 OA
BRANCH   7   8
ATOM      8  C   UNL A   1      32.665  30.050  26.055  1.00  0.00     0.338 C 
ATOM      9  O   UNL A   1      31.535  30.466  25.769  1.00  0.00    -0.246 OA
BRANCH   8  10
ATOM     10  C   UNL A   1      32.706  28.515  25.617  1.00  0.00     0.061 A 
ATOM     11  C   UNL A   1      32.513  25.653  25.114  1.00  0.00     0.049 A 
ATOM     12  C   UNL A   1      33.691  26.338  24.923  1.00  0.00     0.028 A 
ATOM     13  C   UNL A   1      31.382  26.432  25.386  1.00  0.00     0.042 A 
ATOM     14  C   UNL A   1      33.720  27.736  25.033  1.00  0.00     0.018 A 
ATOM     15  C   UNL A   1      31.488  27.808  25.693  1.00  0.00     0.033 A 
ATOM     16  Br  UNL A   1      29.643  25.664  25.296  1.00  0.00    -0.049 Br
BRANCH  11  17
ATOM     17  N   UNL A   1      32.510  24.258  25.090  1.00  0.00    -0.380 N 
ATOM     18  H   UNL A   1      32.161  23.730  25.845  1.00  0.00     0.160 HD
BRANCH  17  19
ATOM     19  C   UNL A   1      33.050  23.612  23.889  1.00  0.00     0.148 C 
BRANCH  19  20
ATOM     20  C   UNL A   1      34.384  22.988  24.233  1.00  0.00    -0.029 A 
ATOM     21  C   UNL A   1      37.974  20.710  24.958  1.00  0.00     0.044 C 
ATOM     22  C   UNL A   1      36.758  21.556  24.733  1.00  0.00    -0.051 A 
ATOM     23  C   UNL A   1      35.649  21.396  25.566  1.00  0.00     0.004 A 
ATOM     24  C   UNL A   1      36.692  22.477  23.680  1.00  0.00     0.004 A 
ATOM     25  C   UNL A   1      34.486  22.126  25.334  1.00  0.00     0.006 A 
ATOM     26  C   UNL A   1      35.512  23.185  23.428  1.00  0.00     0.006 A 
ENDBRANCH  19  20
ENDBRANCH  17  19
ENDBRANCH  11  17
ENDBRANCH   8  10
ENDBRANCH   7   8
ENDBRANCH   6   7
ENDBRANCH   5   6
ENDBRANCH   4   5
ENDBRANCH   3   4
ENDBRANCH   2   3
ENDBRANCH   1   2
BRANCH   1  27
ATOM     27  C   UNL A   1      38.086  30.261  34.068  1.00  0.00     0.188 C 
BRANCH  27  28
ATOM     28  C   UNL A   1      38.207  30.865  35.445  1.00  0.00     0.188 C 
BRANCH  28  29
ATOM     29  O   UNL A   1      37.418  32.032  35.587  1.00  0.00    -0.376 OA
BRANCH  29  30
ATOM     30  C   UNL A   1      37.613  32.958  34.530  1.00  0.00     0.202 C 
BRANCH  30  31
ATOM     31  C   UNL A   1      38.874  33.825  34.692  1.00  0.00     0.261 C 
BRANCH  31  32
ATOM     32  O   UNL A   1      39.965  33.257  33.940  1.00  0.00    -0.460 OA
BRANCH  32  33
ATOM     33  C   UNL A   1      40.663  34.138  33.132  1.00  0.00     0.338 C 
ATOM     34  O   UNL A   1      40.876  35.281  33.378  1.00  0.00    -0.246 OA
BRANCH  33  35
ATOM     35  C   UNL A   1      40.925  33.420  31.841  1.00  0.00     0.060 A 
ATOM     36  C   UNL A   1      40.557  32.109  31.581  1.00  0.00     0.016 A 
ATOM     37  C   UNL A   1      41.782  33.971  30.954  1.00  0.00     0.016 A 
ATOM     38  C   UNL A   1      41.369  31.255  30.741  1.00  0.00     0.010 A 
ATOM     39  C   UNL A   1      42.531  33.096  30.161  1.00  0.00     0.010 A 
ATOM     40  C   UNL A   1      42.617  31.630  30.224  1.00  0.00    -0.014 A 
BRANCH  40  41
ATOM     41  C   UNL A   1      43.987  30.452  29.747  1.00  0.00     0.031 A 
ATOM     42  C   UNL A   1      43.733  28.881  28.541  1.00  0.00     0.074 A 
ATOM     43  C   UNL A   1      45.129  30.717  30.626  1.00  0.00     0.049 A 
ATOM     44  N   UNL A   1      43.664  27.604  29.036  1.00  0.00    -0.248 NA
ATOM     45  C   UNL A   1      43.005  28.481  27.155  1.00  0.00     0.031 C 
ATOM     46  C   UNL A   1      46.477  30.065  30.900  1.00  0.00     0.029 A 
ATOM     47  N   UNL A   1      45.248  31.653  31.689  1.00  0.00    -0.354 N 
ATOM     48  C   UNL A   1      43.345  26.539  28.274  1.00  0.00     0.074 A 
ATOM     49  C   UNL A   1      42.725  27.157  27.167  1.00  0.00     0.031 C 
ATOM     50  C   UNL A   1      47.184  30.530  31.917  1.00  0.00     0.029 A 
ATOM     51  C   UNL A   1      46.242  31.279  32.623  1.00  0.00     0.049 A 
ATOM     52  H   UNL A   1      44.701  32.468  31.766  1.00  0.00     0.167 HD
ATOM     53  C   UNL A   1      43.699  25.264  28.625  1.00  0.00     0.034 A 
ATOM     54  C   UNL A   1      45.992  30.955  33.910  1.00  0.00     0.034 A 
ATOM     55  C   UNL A   1      44.756  25.196  29.663  1.00  0.00     0.049 A 
ATOM     56  C   UNL A   1      46.030  29.422  34.124  1.00  0.00     0.074 A 
ATOM     57  C   UNL A   1      46.139  25.203  29.531  1.00  0.00     0.029 A 
ATOM     58  N   UNL A   1      44.533  25.390  31.030  1.00  0.00    -0.354 N 
ATOM     59  N   UNL A   1      45.738  28.485  33.233  1.00  0.00    -0.248 NA
ATOM     60  C   UNL A   1      46.632  28.857  35.326  1.00  0.00     0.031 C 
ATOM     61  C   UNL A   1      46.714  25.664  30.752  1.00  0.00     0.029 A 
ATOM     62  C   UNL A   1      45.704  25.811  31.696  1.00  0.00     0.049 A 
ATOM     63  H   UNL A   1      43.666  25.250  31.475  1.00  0.00     0.167 HD
ATOM     64  C   UNL A   1      46.037  27.226  33.738  1.00  0.00     0.074 A 
ATOM     65  C   UNL A   1      46.657  27.549  35.026  1.00  0.00     0.031 C 
ATOM     66  C   UNL A   1      45.793  25.987  33.159  1.00  0.00     0.034 A 
BRANCH  53  67
ATOM     67  C   UNL A   1      43.390  24.177  27.627  1.00  0.00     0.023 A 
ATOM     68  C   UNL A   1      44.353  23.745  26.700  1.00  0.00     0.031 A 
ATOM     69  C   UNL A   1      42.096  23.630  27.490  1.00  0.00     0.131 A 
ATOM     70  C   UNL A   1      43.989  22.918  25.619  1.00  0.00     0.055 A 
ATOM     71  C   UNL A   1      41.723  22.847  26.391  1.00  0.00     0.041 A 
ATOM     72  F   UNL A   1      41.143  23.885  28.403  1.00  0.00    -0.206 F 
ATOM     73  C   UNL A   1      42.668  22.509  25.432  1.00  0.00     0.022 A 
BRANCH  70  74
ATOM     74  S   UNL A   1      45.268  22.388  24.446  1.00  0.00     0.124 S 
ATOM     75  O   UNL A   1      44.506  21.613  23.472  1.00  0.00    -0.237 OA
ATOM     76  O   UNL A   1      45.805  23.661  23.978  1.00  0.00    -0.237 OA
ATOM     77  O   UNL A   1      46.185  21.602  25.273  1.00  0.00    -0.744 OA
ENDBRANCH  70  74
ENDBRANCH  53  67
BRANCH  54  78
ATOM     78  C   UNL A   1      45.288  32.107  34.529  1.00  0.00     0.023 A 
ATOM     79  C   UNL A   1      44.034  31.778  35.142  1.00  0.00     0.031 A 
ATOM     80  C   UNL A   1      45.948  33.247  34.972  1.00  0.00     0.131 A 
ATOM     81  C   UNL A   1      43.657  32.383  36.344  1.00  0.00     0.055 A 
ATOM     82  C   UNL A   1      45.470  33.954  36.087  1.00  0.00     0.041 A 
ATOM     83  F   UNL A   1      47.137  33.587  34.457  1.00  0.00    -0.206 F 
ATOM     84  C   UNL A   1      44.356  33.493  36.806  1.00  0.00     0.022 A 
BRANCH  81  85
ATOM     85  S   UNL A   1      42.592  31.443  37.506  1.00  0.00     0.124 S 
ATOM     86  O   UNL A   1      42.216  32.462  38.477  1.00  0.00    -0.237 OA
ATOM     87  O   UNL A   1      41.517  30.947  36.648  1.00  0.00    -0.237 OA
ATOM     88  O   UNL A   1      43.484  30.391  37.989  1.00  0.00    -0.744 OA
ENDBRANCH  81  85
ENDBRANCH  54  78
BRANCH  66  89
ATOM     89  C   UNL A   1      45.750  24.696  33.982  1.00  0.00     0.023 A 
ATOM     90  C   UNL A   1      46.909  24.044  34.417  1.00  0.00     0.031 A 
ATOM     91  C   UNL A   1      44.535  24.136  34.460  1.00  0.00     0.131 A 
ATOM     92  C   UNL A   1      46.852  22.853  35.153  1.00  0.00     0.055 A 
ATOM     93  C   UNL A   1      44.485  23.025  35.308  1.00  0.00     0.041 A 
ATOM     94  F   UNL A   1      43.335  24.644  34.149  1.00  0.00    -0.206 F 
ATOM     95  C   UNL A   1      45.650  22.356  35.642  1.00  0.00     0.022 A 
BRANCH  92  96
ATOM     96  S   UNL A   1      48.387  21.920  35.348  1.00  0.00     0.124 S 
ATOM     97  O   UNL A   1      48.951  22.528  36.551  1.00  0.00    -0.237 OA
ATOM     98  O   UNL A   1      47.907  20.550  35.500  1.00  0.00    -0.237 OA
ATOM     99  O   UNL A   1      49.116  22.193  34.112  1.00  0.00    -0.744 OA
ENDBRANCH  92  96
ENDBRANCH  66  89
ENDBRANCH  40  41
ENDBRANCH  33  35
ENDBRANCH  32  33
ENDBRANCH  31  32
ENDBRANCH  30  31
ENDBRANCH  29  30
ENDBRANCH  28  29
ENDBRANCH  27  28
ENDBRANCH   1  27
TORSDOF 26
ENDMDL
MODEL 3
REMARK VINA RESULT:      -9.9      3.043      4.560
REMARK SMILES Cc1ccc(CNc2ccc(C(=O)OCCOCCOCCOCCOC(=O)c3ccc(-c4c5nc(c(-c6cc(S(=O)(=O)[O-])ccc6F)c6ccc([nH]6)c(-c6cc(S(=O)(=O)[O-])ccc6F)c6nc(c(-c7cc(S(=O)(=O)[O-])ccc7F)c7ccc4[nH]7)C=C6)C=C5)cc3)cc2Br)cc1
REMARK SMILES IDX 20 1 19 2 18 3 17 4 16 5 15 6 14 7 12 8 13 9 11 10 8 11 9 12
REMARK SMILES IDX 93 13 10 14 92 15 94 16 7 17 6 19 5 20 1 21 2 22 3 23 96 24
REMARK SMILES IDX 4 25 95 26 21 27 22 28 23 29 24 30 25 31 26 32 27 33 28 34
REMARK SMILES IDX 29 35 30 36 91 37 31 38 90 39 32 40 33 41 34 42 84 43 35 44
REMARK SMILES IDX 89 45 83 46 85 47 36 48 88 49 82 50 81 51 37 53 69 54 49 55
REMARK SMILES IDX 68 56 50 57 53 58 67 59 86 60 51 61 52 62 66 64 87 65 54 66
REMARK SMILES IDX 38 67 39 68 47 69 40 70 46 71 48 72 45 73 41 74 42 75 43 76
REMARK SMILES IDX 44 77 70 78 71 79 79 80 72 81 78 82 80 83 77 84 73 85 74 86
REMARK SMILES IDX 75 87 76 88 55 89 56 90 64 91 57 92 63 93 65 94 62 95 58 96
REMARK SMILES IDX 59 97 60 98 61 99
REMARK H PARENT 7 18 85 52 53 63
REMARK Flexibility Score: inf
ROOT
ATOM      1  O   UNL A   1      38.982  29.407  33.658  1.00  0.00    -0.377 OA
ENDROOT
BRANCH   1   2
ATOM      2  C   UNL A   1      38.984  28.964  32.299  1.00  0.00     0.188 C 
BRANCH   2   3
ATOM      3  C   UNL A   1      37.781  28.969  31.151  1.00  0.00     0.188 C 
BRANCH   3   4
ATOM      4  O   UNL A   1      37.640  29.253  29.415  1.00  0.00    -0.376 OA
BRANCH   4   5
ATOM      5  C   UNL A   1      36.420  29.890  28.323  1.00  0.00     0.202 C 
BRANCH   5   6
ATOM      6  C   UNL A   1      35.195  31.305  28.599  1.00  0.00     0.261 C 
BRANCH   6   7
ATOM      7  O   UNL A   1      33.707  31.609  27.579  1.00  0.00    -0.460 OA
BRANCH   7   8
ATOM      8  C   UNL A   1      32.474  31.036  26.945  1.00  0.00     0.338 C 
ATOM      9  O   UNL A   1      31.473  31.693  26.634  1.00  0.00    -0.246 OA
BRANCH   8  10
ATOM     10  C   UNL A   1      32.189  29.533  26.488  1.00  0.00     0.061 A 
ATOM     11  C   UNL A   1      31.559  26.950  25.300  1.00  0.00     0.049 A 
ATOM     12  C   UNL A   1      31.358  27.193  26.640  1.00  0.00     0.028 A 
ATOM     13  C   UNL A   1      32.243  27.941  24.588  1.00  0.00     0.042 A 
ATOM     14  C   UNL A   1      31.804  28.392  27.214  1.00  0.00     0.018 A 
ATOM     15  C   UNL A   1      32.489  29.216  25.147  1.00  0.00     0.033 A 
ATOM     16  Br  UNL A   1      32.916  27.581  22.845  1.00  0.00    -0.049 Br
BRANCH  11  17
ATOM     17  N   UNL A   1      31.036  25.794  24.718  1.00  0.00    -0.380 N 
ATOM     18  H   UNL A   1      30.538  25.825  23.869  1.00  0.00     0.160 HD
BRANCH  17  19
ATOM     19  C   UNL A   1      31.260  24.531  25.430  1.00  0.00     0.148 C 
BRANCH  19  20
ATOM     20  C   UNL A   1      32.678  24.074  25.171  1.00  0.00    -0.029 A 
ATOM     21  C   UNL A   1      36.836  23.340  24.291  1.00  0.00     0.044 C 
ATOM     22  C   UNL A   1      35.385  23.530  24.615  1.00  0.00    -0.051 A 
ATOM     23  C   UNL A   1      34.461  23.642  23.575  1.00  0.00     0.004 A 
ATOM     24  C   UNL A   1      34.939  23.637  25.938  1.00  0.00     0.004 A 
ATOM     25  C   UNL A   1      33.118  23.883  23.853  1.00  0.00     0.006 A 
ATOM     26  C   UNL A   1      33.596  23.911  26.215  1.00  0.00     0.006 A 
ENDBRANCH  19  20
ENDBRANCH  17  19
ENDBRANCH  11  17
ENDBRANCH   8  10
ENDBRANCH   7   8
ENDBRANCH   6   7
ENDBRANCH   5   6
ENDBRANCH   4   5
ENDBRANCH   3   4
ENDBRANCH   2   3
ENDBRANCH   1   2
BRANCH   1  27
ATOM     27  C   UNL A   1      38.085  30.291  34.308  1.00  0.00     0.188 C 
BRANCH  27  28
ATOM     28  C   UNL A   1      38.261  30.745  35.735  1.00  0.00     0.188 C 
BRANCH  28  29
ATOM     29  O   UNL A   1      37.562  31.946  36.004  1.00  0.00    -0.376 OA
BRANCH  29  30
ATOM     30  C   UNL A   1      37.717  32.912  34.977  1.00  0.00     0.202 C 
BRANCH  30  31
ATOM     31  C   UNL A   1      39.043  33.690  35.055  1.00  0.00     0.261 C 
BRANCH  31  32
ATOM     32  O   UNL A   1      39.959  33.208  34.052  1.00  0.00    -0.460 OA
BRANCH  32  33
ATOM     33  C   UNL A   1      40.655  34.179  33.355  1.00  0.00     0.338 C 
ATOM     34  O   UNL A   1      40.826  35.299  33.714  1.00  0.00    -0.246 OA
BRANCH  33  35
ATOM     35  C   UNL A   1      40.979  33.594  32.012  1.00  0.00     0.060 A 
ATOM     36  C   UNL A   1      40.561  32.346  31.576  1.00  0.00     0.016 A 
ATOM     37  C   UNL A   1      41.935  34.183  31.260  1.00  0.00     0.016 A 
ATOM     38  C   UNL A   1      41.388  31.540  30.704  1.00  0.00     0.010 A 
ATOM     39  C   UNL A   1      42.695  33.355  30.428  1.00  0.00     0.010 A 
ATOM     40  C   UNL A   1      42.693  31.889  30.327  1.00  0.00    -0.014 A 
BRANCH  40  41
ATOM     41  C   UNL A   1      44.028  30.684  29.819  1.00  0.00     0.031 A 
ATOM     42  C   UNL A   1      43.752  29.208  28.503  1.00  0.00     0.074 A 
ATOM     43  C   UNL A   1      45.148  30.841  30.750  1.00  0.00     0.049 A 
ATOM     44  N   UNL A   1      43.612  27.906  28.910  1.00  0.00    -0.248 NA
ATOM     45  C   UNL A   1      43.057  28.930  27.071  1.00  0.00     0.031 C 
ATOM     46  C   UNL A   1      46.457  30.114  31.025  1.00  0.00     0.029 A 
ATOM     47  N   UNL A   1      45.268  31.701  31.875  1.00  0.00    -0.354 N 
ATOM     48  C   UNL A   1      43.275  26.907  28.070  1.00  0.00     0.074 A 
ATOM     49  C   UNL A   1      42.721  27.622  26.986  1.00  0.00     0.031 C 
ATOM     50  C   UNL A   1      47.146  30.481  32.092  1.00  0.00     0.029 A 
ATOM     51  C   UNL A   1      46.212  31.223  32.815  1.00  0.00     0.049 A 
ATOM     52  H   UNL A   1      44.753  32.532  31.988  1.00  0.00     0.167 HD
ATOM     53  C   UNL A   1      43.563  25.598  28.347  1.00  0.00     0.034 A 
ATOM     54  C   UNL A   1      45.903  30.828  34.069  1.00  0.00     0.034 A 
ATOM     55  C   UNL A   1      44.578  25.416  29.413  1.00  0.00     0.049 A 
ATOM     56  C   UNL A   1      45.868  29.285  34.183  1.00  0.00     0.074 A 
ATOM     57  C   UNL A   1      45.964  25.371  29.326  1.00  0.00     0.029 A 
ATOM     58  N   UNL A   1      44.315  25.531  30.781  1.00  0.00    -0.354 N 
ATOM     59  N   UNL A   1      45.569  28.421  33.223  1.00  0.00    -0.248 NA
ATOM     60  C   UNL A   1      46.403  28.617  35.364  1.00  0.00     0.031 C 
ATOM     61  C   UNL A   1      46.514  25.725  30.594  1.00  0.00     0.029 A 
ATOM     62  C   UNL A   1      45.478  25.856  31.512  1.00  0.00     0.049 A 
ATOM     63  H   UNL A   1      43.427  25.401  31.187  1.00  0.00     0.167 HD
ATOM     64  C   UNL A   1      45.797  27.120  33.652  1.00  0.00     0.074 A 
ATOM     65  C   UNL A   1      46.384  27.331  34.978  1.00  0.00     0.031 C 
ATOM     66  C   UNL A   1      45.522  25.932  32.985  1.00  0.00     0.034 A 
BRANCH  53  67
ATOM     67  C   UNL A   1      43.244  24.592  27.269  1.00  0.00     0.023 A 
ATOM     68  C   UNL A   1      42.196  23.670  27.422  1.00  0.00     0.031 A 
ATOM     69  C   UNL A   1      44.047  24.446  26.118  1.00  0.00     0.131 A 
ATOM     70  C   UNL A   1      42.061  22.583  26.537  1.00  0.00     0.055 A 
ATOM     71  C   UNL A   1      43.944  23.340  25.265  1.00  0.00     0.041 A 
ATOM     72  F   UNL A   1      44.992  25.355  25.820  1.00  0.00    -0.206 F 
ATOM     73  C   UNL A   1      42.961  22.386  25.489  1.00  0.00     0.022 A 
BRANCH  70  74
ATOM     74  S   UNL A   1      40.694  21.414  26.777  1.00  0.00     0.124 S 
ATOM     75  O   UNL A   1      41.152  20.234  26.053  1.00  0.00    -0.237 OA
ATOM     76  O   UNL A   1      40.638  21.298  28.231  1.00  0.00    -0.237 OA
ATOM     77  O   UNL A   1      39.550  22.099  26.173  1.00  0.00    -0.744 OA
ENDBRANCH  70  74
ENDBRANCH  53  67
BRANCH  54  78
ATOM     78  C   UNL A   1      45.226  31.968  34.740  1.00  0.00     0.023 A 
ATOM     79  C   UNL A   1      46.108  33.018  35.161  1.00  0.00     0.031 A 
ATOM     80  C   UNL A   1      43.892  32.289  34.522  1.00  0.00     0.131 A 
ATOM     81  C   UNL A   1      45.719  34.355  35.041  1.00  0.00     0.055 A 
ATOM     82  C   UNL A   1      43.468  33.627  34.567  1.00  0.00     0.041 A 
ATOM     83  F   UNL A   1      43.029  31.355  34.099  1.00  0.00    -0.206 F 
ATOM     84  C   UNL A   1      44.390  34.665  34.773  1.00  0.00     0.022 A 
BRANCH  81  85
ATOM     85  S   UNL A   1      47.014  35.626  34.762  1.00  0.00     0.124 S 
ATOM     86  O   UNL A   1      47.780  35.053  33.663  1.00  0.00    -0.237 OA
ATOM     87  O   UNL A   1      46.242  36.827  34.449  1.00  0.00    -0.237 OA
ATOM     88  O   UNL A   1      47.693  35.690  36.055  1.00  0.00    -0.744 OA
ENDBRANCH  81  85
ENDBRANCH  54  78
BRANCH  66  89
ATOM     89  C   UNL A   1      45.395  24.594  33.719  1.00  0.00     0.023 A 
ATOM     90  C   UNL A   1      46.510  23.867  34.151  1.00  0.00     0.031 A 
ATOM     91  C   UNL A   1      44.142  24.057  34.115  1.00  0.00     0.131 A 
ATOM     92  C   UNL A   1      46.377  22.634  34.805  1.00  0.00     0.055 A 
ATOM     93  C   UNL A   1      44.014  22.897  34.885  1.00  0.00     0.041 A 
ATOM     94  F   UNL A   1      42.976  24.635  33.796  1.00  0.00    -0.206 F 
ATOM     95  C   UNL A   1      45.138  22.159  35.216  1.00  0.00     0.022 A 
BRANCH  92  96
ATOM     96  S   UNL A   1      47.865  21.626  34.992  1.00  0.00     0.124 S 
ATOM     97  O   UNL A   1      48.072  21.674  36.438  1.00  0.00    -0.237 OA
ATOM     98  O   UNL A   1      47.440  20.336  34.460  1.00  0.00    -0.237 OA
ATOM     99  O   UNL A   1      48.863  22.334  34.196  1.00  0.00    -0.744 OA
ENDBRANCH  92  96
ENDBRANCH  66  89
ENDBRANCH  40  41
ENDBRANCH  33  35
ENDBRANCH  32  33
ENDBRANCH  31  32
ENDBRANCH  30  31
ENDBRANCH  29  30
ENDBRANCH  28  29
ENDBRANCH  27  28
ENDBRANCH   1  27
TORSDOF 26
ENDMDL
