MODEL 1
REMARK VINA RESULT:      -9.3      0.000      0.000
REMARK SMILES O=C(OCCOCCOCCOCCOC(=O)[C@H]1C[C@H]2CCCC[C@@H]2[N@@H+]1CCn1ccnc1)c1ccc(-c2c3nc(c(-c4cc(S(=O)(=O)[O-])ccc4F)c4ccc([nH]4)c(-c4cc(S(=O)(=O)[O-])ccc4F)c4nc(c(-c5cc(S(=O)(=O)[O-])ccc5F)c5ccc2[nH]5)C=C4)C=C3)cc1
REMARK SMILES IDX 9 1 8 2 7 3 6 4 5 5 4 6 3 7 2 8 1 9 34 10 35 11 96 12 36 13
REMARK SMILES IDX 95 14 37 15 38 16 39 17 89 18 40 19 94 20 88 21 90 22 41 23
REMARK SMILES IDX 93 24 87 25 86 26 42 28 74 29 54 30 73 31 55 32 58 33 72 34
REMARK SMILES IDX 91 35 56 36 57 37 71 39 92 40 59 41 43 42 44 43 52 44 45 45
REMARK SMILES IDX 51 46 53 47 50 48 46 49 47 50 48 51 49 52 75 53 76 54 84 55
REMARK SMILES IDX 77 56 83 57 85 58 82 59 78 60 79 61 80 62 81 63 60 64 61 65
REMARK SMILES IDX 69 66 62 67 68 68 70 69 67 70 63 71 64 72 65 73 66 74 10 75
REMARK SMILES IDX 11 76 12 77 13 78 14 79 15 80 16 81 17 82 18 83 19 84 26 85
REMARK SMILES IDX 20 86 25 87 21 89 24 90 22 91 23 92 27 93 28 94 29 95 30 96
REMARK SMILES IDX 33 97 31 98 32 99
REMARK H PARENT 90 27 58 38 26 88
REMARK Flexibility Score: inf
ROOT
ATOM      1  O   UNL A   1      34.161  33.090  32.282  1.00  0.00    -0.377 OA
ENDROOT
BRANCH   1   2
ATOM      2  C   UNL A   1      34.214  33.797  33.517  1.00  0.00     0.188 C 
BRANCH   2   3
ATOM      3  C   UNL A   1      35.638  34.049  34.045  1.00  0.00     0.188 C 
BRANCH   3   4
ATOM      4  O   UNL A   1      36.251  32.895  34.589  1.00  0.00    -0.376 OA
BRANCH   4   5
ATOM      5  C   UNL A   1      37.484  32.366  34.153  1.00  0.00     0.202 C 
BRANCH   5   6
ATOM      6  C   UNL A   1      37.727  31.907  32.709  1.00  0.00     0.261 C 
BRANCH   6   7
ATOM      7  O   UNL A   1      38.308  32.834  31.791  1.00  0.00    -0.460 OA
BRANCH   7   8
ATOM      8  C   UNL A   1      38.945  32.647  30.618  1.00  0.00     0.338 C 
ATOM      9  O   UNL A   1      38.623  31.685  29.923  1.00  0.00    -0.246 OA
BRANCH   8  10
ATOM     10  C   UNL A   1      40.150  33.421  30.236  1.00  0.00     0.060 A 
ATOM     11  C   UNL A   1      41.466  33.014  30.447  1.00  0.00     0.016 A 
ATOM     12  C   UNL A   1      39.905  34.669  29.627  1.00  0.00     0.016 A 
ATOM     13  C   UNL A   1      42.515  33.854  30.119  1.00  0.00     0.010 A 
ATOM     14  C   UNL A   1      40.951  35.523  29.315  1.00  0.00     0.010 A 
ATOM     15  C   UNL A   1      42.248  35.129  29.626  1.00  0.00    -0.014 A 
BRANCH  15  16
ATOM     16  C   UNL A   1      43.368  36.054  29.609  1.00  0.00     0.031 A 
ATOM     17  C   UNL A   1      43.616  36.842  30.841  1.00  0.00     0.074 A 
ATOM     18  C   UNL A   1      44.100  36.218  28.492  1.00  0.00     0.049 A 
ATOM     19  N   UNL A   1      43.562  38.126  30.990  1.00  0.00    -0.248 NA
ATOM     20  C   UNL A   1      43.877  36.105  32.083  1.00  0.00     0.031 C 
ATOM     21  C   UNL A   1      44.102  35.390  27.281  1.00  0.00     0.029 A 
ATOM     22  N   UNL A   1      45.074  37.135  28.246  1.00  0.00    -0.354 N 
ATOM     23  C   UNL A   1      43.966  38.383  32.297  1.00  0.00     0.074 A 
ATOM     24  C   UNL A   1      44.029  37.103  32.954  1.00  0.00     0.031 C 
ATOM     25  C   UNL A   1      45.183  35.701  26.534  1.00  0.00     0.029 A 
ATOM     26  C   UNL A   1      45.854  36.838  27.139  1.00  0.00     0.049 A 
ATOM     27  H   UNL A   1      45.214  37.935  28.802  1.00  0.00     0.167 HD
ATOM     28  C   UNL A   1      44.380  39.618  32.696  1.00  0.00     0.034 A 
ATOM     29  C   UNL A   1      47.020  37.429  26.783  1.00  0.00     0.034 A 
ATOM     30  C   UNL A   1      43.886  40.653  31.823  1.00  0.00     0.049 A 
ATOM     31  C   UNL A   1      47.029  38.782  27.390  1.00  0.00     0.074 A 
ATOM     32  C   UNL A   1      42.624  41.089  31.467  1.00  0.00     0.029 A 
ATOM     33  N   UNL A   1      44.735  41.199  30.889  1.00  0.00    -0.354 N 
ATOM     34  N   UNL A   1      46.194  39.725  27.047  1.00  0.00    -0.248 NA
ATOM     35  C   UNL A   1      47.653  38.957  28.692  1.00  0.00     0.031 C 
ATOM     36  C   UNL A   1      42.724  41.425  30.086  1.00  0.00     0.029 A 
ATOM     37  C   UNL A   1      44.050  41.228  29.696  1.00  0.00     0.049 A 
ATOM     38  H   UNL A   1      45.656  41.509  31.044  1.00  0.00     0.167 HD
ATOM     39  C   UNL A   1      45.864  40.366  28.231  1.00  0.00     0.074 A 
ATOM     40  C   UNL A   1      46.875  39.925  29.189  1.00  0.00     0.031 C 
ATOM     41  C   UNL A   1      44.652  40.976  28.399  1.00  0.00     0.034 A 
BRANCH  28  42
ATOM     42  C   UNL A   1      45.445  39.865  33.739  1.00  0.00     0.023 A 
ATOM     43  C   UNL A   1      45.239  40.885  34.689  1.00  0.00     0.031 A 
ATOM     44  C   UNL A   1      46.753  39.331  33.684  1.00  0.00     0.131 A 
ATOM     45  C   UNL A   1      46.300  41.357  35.486  1.00  0.00     0.055 A 
ATOM     46  C   UNL A   1      47.787  39.757  34.523  1.00  0.00     0.041 A 
ATOM     47  F   UNL A   1      47.128  38.443  32.755  1.00  0.00    -0.206 F 
ATOM     48  C   UNL A   1      47.570  40.792  35.415  1.00  0.00     0.022 A 
BRANCH  45  49
ATOM     49  S   UNL A   1      46.043  42.842  36.494  1.00  0.00     0.124 S 
ATOM     50  O   UNL A   1      47.356  43.475  36.438  1.00  0.00    -0.237 OA
ATOM     51  O   UNL A   1      44.971  43.516  35.768  1.00  0.00    -0.237 OA
ATOM     52  O   UNL A   1      45.668  42.304  37.800  1.00  0.00    -0.744 OA
ENDBRANCH  45  49
ENDBRANCH  28  42
BRANCH  29  53
ATOM     53  C   UNL A   1      48.221  36.711  26.291  1.00  0.00     0.023 A 
ATOM     54  C   UNL A   1      48.655  35.494  26.844  1.00  0.00     0.031 A 
ATOM     55  C   UNL A   1      48.850  37.130  25.094  1.00  0.00     0.131 A 
ATOM     56  C   UNL A   1      49.685  34.761  26.213  1.00  0.00     0.055 A 
ATOM     57  C   UNL A   1      49.875  36.411  24.484  1.00  0.00     0.041 A 
ATOM     58  F   UNL A   1      48.430  38.221  24.430  1.00  0.00    -0.206 F 
ATOM     59  C   UNL A   1      50.294  35.214  25.040  1.00  0.00     0.022 A 
BRANCH  56  60
ATOM     60  S   UNL A   1      50.178  33.137  26.869  1.00  0.00     0.124 S 
ATOM     61  O   UNL A   1      49.154  32.257  26.319  1.00  0.00    -0.237 OA
ATOM     62  O   UNL A   1      51.526  32.980  26.333  1.00  0.00    -0.237 OA
ATOM     63  O   UNL A   1      50.116  33.323  28.319  1.00  0.00    -0.744 OA
ENDBRANCH  56  60
ENDBRANCH  29  53
BRANCH  41  64
ATOM     64  C   UNL A   1      43.769  41.176  27.179  1.00  0.00     0.023 A 
ATOM     65  C   UNL A   1      44.088  42.025  26.095  1.00  0.00     0.031 A 
ATOM     66  C   UNL A   1      42.623  40.371  27.057  1.00  0.00     0.131 A 
ATOM     67  C   UNL A   1      43.265  42.055  24.952  1.00  0.00     0.055 A 
ATOM     68  C   UNL A   1      41.819  40.389  25.916  1.00  0.00     0.041 A 
ATOM     69  F   UNL A   1      42.284  39.514  28.035  1.00  0.00    -0.206 F 
ATOM     70  C   UNL A   1      42.134  41.238  24.861  1.00  0.00     0.022 A 
BRANCH  67  71
ATOM     71  S   UNL A   1      43.653  43.162  23.558  1.00  0.00     0.124 S 
ATOM     72  O   UNL A   1      42.754  44.292  23.756  1.00  0.00    -0.237 OA
ATOM     73  O   UNL A   1      45.075  43.431  23.757  1.00  0.00    -0.237 OA
ATOM     74  O   UNL A   1      43.352  42.344  22.381  1.00  0.00    -0.744 OA
ENDBRANCH  67  71
ENDBRANCH  41  64
ENDBRANCH  15  16
ENDBRANCH   8  10
ENDBRANCH   7   8
ENDBRANCH   6   7
ENDBRANCH   5   6
ENDBRANCH   4   5
ENDBRANCH   3   4
ENDBRANCH   2   3
ENDBRANCH   1   2
BRANCH   1  75
ATOM     75  C   UNL A   1      34.452  33.888  31.142  1.00  0.00     0.188 C 
BRANCH  75  76
ATOM     76  C   UNL A   1      34.858  33.104  29.872  1.00  0.00     0.188 C 
BRANCH  76  77
ATOM     77  O   UNL A   1      33.898  32.576  28.969  1.00  0.00    -0.376 OA
BRANCH  77  78
ATOM     78  C   UNL A   1      34.284  31.648  27.977  1.00  0.00     0.202 C 
BRANCH  78  79
ATOM     79  C   UNL A   1      33.236  30.976  27.069  1.00  0.00     0.261 C 
BRANCH  79  80
ATOM     80  O   UNL A   1      32.978  29.576  27.260  1.00  0.00    -0.459 OA
BRANCH  80  81
ATOM     81  C   UNL A   1      33.911  28.734  26.722  1.00  0.00     0.365 C 
ATOM     82  O   UNL A   1      35.007  28.539  27.203  1.00  0.00    -0.245 OA
BRANCH  81  83
ATOM     83  C   UNL A   1      33.388  28.106  25.395  1.00  0.00     0.295 C 
ATOM     84  C   UNL A   1      33.906  26.657  25.306  1.00  0.00     0.087 C 
ATOM     85  N   UNL A   1      31.900  27.999  25.369  1.00  0.00    -0.319 N 
ATOM     86  C   UNL A   1      32.660  25.790  25.363  1.00  0.00     0.054 C 
ATOM     87  C   UNL A   1      31.579  26.686  25.934  1.00  0.00     0.188 C 
ATOM     88  H   UNL A   1      31.479  28.721  25.954  1.00  0.00     0.349 HD
ATOM     89  C   UNL A   1      32.715  24.489  26.141  1.00  0.00     0.010 C 
ATOM     90  C   UNL A   1      30.195  26.061  25.771  1.00  0.00     0.065 C 
ATOM     91  C   UNL A   1      31.376  23.768  25.938  1.00  0.00     0.001 C 
ATOM     92  C   UNL A   1      30.163  24.627  26.326  1.00  0.00     0.006 C 
BRANCH  85  93
ATOM     93  C   UNL A   1      31.203  28.443  24.153  1.00  0.00     0.285 C 
BRANCH  93  94
ATOM     94  C   UNL A   1      30.794  29.908  23.882  1.00  0.00     0.184 C 
BRANCH  94  95
ATOM     95  N   UNL A   1      29.403  30.179  23.600  1.00  0.00    -0.332 N 
ATOM     96  C   UNL A   1      28.761  31.370  23.813  1.00  0.00     0.107 A 
ATOM     97  C   UNL A   1      28.470  29.291  23.146  1.00  0.00     0.199 A 
ATOM     98  C   UNL A   1      27.491  31.179  23.320  1.00  0.00     0.130 A 
ATOM     99  N   UNL A   1      27.316  29.880  22.923  1.00  0.00    -0.245 NA
ENDBRANCH  94  95
ENDBRANCH  93  94
ENDBRANCH  85  93
ENDBRANCH  81  83
ENDBRANCH  80  81
ENDBRANCH  79  80
ENDBRANCH  78  79
ENDBRANCH  77  78
ENDBRANCH  76  77
ENDBRANCH  75  76
ENDBRANCH   1  75
TORSDOF 26
ENDMDL
MODEL 2
REMARK VINA RESULT:      -8.8      6.461     12.174
REMARK SMILES O=C(OCCOCCOCCOCCOC(=O)[C@H]1C[C@H]2CCCC[C@@H]2[N@@H+]1CCn1ccnc1)c1ccc(-c2c3nc(c(-c4cc(S(=O)(=O)[O-])ccc4F)c4ccc([nH]4)c(-c4cc(S(=O)(=O)[O-])ccc4F)c4nc(c(-c5cc(S(=O)(=O)[O-])ccc5F)c5ccc2[nH]5)C=C4)C=C3)cc1
REMARK SMILES IDX 9 1 8 2 7 3 6 4 5 5 4 6 3 7 2 8 1 9 34 10 35 11 96 12 36 13
REMARK SMILES IDX 95 14 37 15 38 16 39 17 89 18 40 19 94 20 88 21 90 22 41 23
REMARK SMILES IDX 93 24 87 25 86 26 42 28 74 29 54 30 73 31 55 32 58 33 72 34
REMARK SMILES IDX 91 35 56 36 57 37 71 39 92 40 59 41 43 42 44 43 52 44 45 45
REMARK SMILES IDX 51 46 53 47 50 48 46 49 47 50 48 51 49 52 75 53 76 54 84 55
REMARK SMILES IDX 77 56 83 57 85 58 82 59 78 60 79 61 80 62 81 63 60 64 61 65
REMARK SMILES IDX 69 66 62 67 68 68 70 69 67 70 63 71 64 72 65 73 66 74 10 75
REMARK SMILES IDX 11 76 12 77 13 78 14 79 15 80 16 81 17 82 18 83 19 84 26 85
REMARK SMILES IDX 20 86 25 87 21 89 24 90 22 91 23 92 27 93 28 94 29 95 30 96
REMARK SMILES IDX 33 97 31 98 32 99
REMARK H PARENT 90 27 58 38 26 88
REMARK Flexibility Score: inf
ROOT
ATOM      1  O   UNL A   1      32.979  25.793  24.697  1.00  0.00    -0.377 OA
ENDROOT
BRANCH   1   2
ATOM      2  C   UNL A   1      34.242  25.136  24.694  1.00  0.00     0.188 C 
BRANCH   2   3
ATOM      3  C   UNL A   1      34.162  23.601  24.787  1.00  0.00     0.188 C 
BRANCH   3   4
ATOM      4  O   UNL A   1      35.304  22.944  24.270  1.00  0.00    -0.376 OA
BRANCH   4   5
ATOM      5  C   UNL A   1      36.636  23.304  24.567  1.00  0.00     0.202 C 
BRANCH   5   6
ATOM      6  C   UNL A   1      37.511  22.511  25.548  1.00  0.00     0.261 C 
BRANCH   6   7
ATOM      7  O   UNL A   1      38.344  23.237  26.454  1.00  0.00    -0.460 OA
BRANCH   7   8
ATOM      8  C   UNL A   1      39.640  23.087  26.788  1.00  0.00     0.338 C 
ATOM      9  O   UNL A   1      40.038  21.966  27.104  1.00  0.00    -0.246 OA
BRANCH   8  10
ATOM     10  C   UNL A   1      40.546  24.242  26.996  1.00  0.00     0.060 A 
ATOM     11  C   UNL A   1      40.517  25.427  26.263  1.00  0.00     0.016 A 
ATOM     12  C   UNL A   1      41.506  24.086  28.016  1.00  0.00     0.016 A 
ATOM     13  C   UNL A   1      41.463  26.410  26.493  1.00  0.00     0.010 A 
ATOM     14  C   UNL A   1      42.469  25.059  28.237  1.00  0.00     0.010 A 
ATOM     15  C   UNL A   1      42.474  26.188  27.425  1.00  0.00    -0.014 A 
BRANCH  15  16
ATOM     16  C   UNL A   1      43.595  27.110  27.382  1.00  0.00     0.031 A 
ATOM     17  C   UNL A   1      44.879  26.596  26.848  1.00  0.00     0.074 A 
ATOM     18  C   UNL A   1      43.469  28.360  27.867  1.00  0.00     0.049 A 
ATOM     19  N   UNL A   1      46.008  26.472  27.468  1.00  0.00    -0.248 NA
ATOM     20  C   UNL A   1      44.889  26.075  25.476  1.00  0.00     0.031 C 
ATOM     21  C   UNL A   1      42.239  29.066  28.241  1.00  0.00     0.029 A 
ATOM     22  N   UNL A   1      44.436  29.299  28.047  1.00  0.00    -0.354 N 
ATOM     23  C   UNL A   1      46.927  26.035  26.518  1.00  0.00     0.074 A 
ATOM     24  C   UNL A   1      46.161  25.693  25.348  1.00  0.00     0.031 C 
ATOM     25  C   UNL A   1      42.508  30.381  28.381  1.00  0.00     0.029 A 
ATOM     26  C   UNL A   1      43.941  30.578  28.252  1.00  0.00     0.049 A 
ATOM     27  H   UNL A   1      45.398  29.092  28.033  1.00  0.00     0.167 HD
ATOM     28  C   UNL A   1      48.272  26.145  26.709  1.00  0.00     0.034 A 
ATOM     29  C   UNL A   1      44.646  31.734  28.236  1.00  0.00     0.034 A 
ATOM     30  C   UNL A   1      48.602  26.263  28.108  1.00  0.00     0.049 A 
ATOM     31  C   UNL A   1      46.055  31.395  28.551  1.00  0.00     0.074 A 
ATOM     32  C   UNL A   1      48.418  25.451  29.211  1.00  0.00     0.029 A 
ATOM     33  N   UNL A   1      48.915  27.501  28.617  1.00  0.00    -0.354 N 
ATOM     34  N   UNL A   1      46.436  30.925  29.707  1.00  0.00    -0.248 NA
ATOM     35  C   UNL A   1      46.971  31.139  27.452  1.00  0.00     0.031 C 
ATOM     36  C   UNL A   1      48.122  26.344  30.281  1.00  0.00     0.029 A 
ATOM     37  C   UNL A   1      48.198  27.645  29.783  1.00  0.00     0.049 A 
ATOM     38  H   UNL A   1      49.532  28.159  28.223  1.00  0.00     0.167 HD
ATOM     39  C   UNL A   1      47.393  29.968  29.413  1.00  0.00     0.074 A 
ATOM     40  C   UNL A   1      47.762  30.223  28.023  1.00  0.00     0.031 C 
ATOM     41  C   UNL A   1      47.602  28.892  30.230  1.00  0.00     0.034 A 
BRANCH  28  42
ATOM     42  C   UNL A   1      49.272  26.398  25.607  1.00  0.00     0.023 A 
ATOM     43  C   UNL A   1      50.578  25.885  25.746  1.00  0.00     0.031 A 
ATOM     44  C   UNL A   1      49.087  27.332  24.560  1.00  0.00     0.131 A 
ATOM     45  C   UNL A   1      51.623  26.331  24.913  1.00  0.00     0.055 A 
ATOM     46  C   UNL A   1      50.112  27.720  23.694  1.00  0.00     0.041 A 
ATOM     47  F   UNL A   1      47.935  27.990  24.382  1.00  0.00    -0.206 F 
ATOM     48  C   UNL A   1      51.395  27.237  23.881  1.00  0.00     0.022 A 
BRANCH  45  49
ATOM     49  S   UNL A   1      53.324  25.842  25.307  1.00  0.00     0.124 S 
ATOM     50  O   UNL A   1      53.703  25.086  24.119  1.00  0.00    -0.237 OA
ATOM     51  O   UNL A   1      53.975  27.136  25.483  1.00  0.00    -0.237 OA
ATOM     52  O   UNL A   1      53.174  25.049  26.525  1.00  0.00    -0.744 OA
ENDBRANCH  45  49
ENDBRANCH  28  42
BRANCH  29  53
ATOM     53  C   UNL A   1      44.200  32.992  27.587  1.00  0.00     0.023 A 
ATOM     54  C   UNL A   1      43.904  34.156  28.316  1.00  0.00     0.031 A 
ATOM     55  C   UNL A   1      44.261  33.117  26.179  1.00  0.00     0.131 A 
ATOM     56  C   UNL A   1      43.672  35.373  27.637  1.00  0.00     0.055 A 
ATOM     57  C   UNL A   1      44.016  34.316  25.512  1.00  0.00     0.041 A 
ATOM     58  F   UNL A   1      44.643  32.089  25.403  1.00  0.00    -0.206 F 
ATOM     59  C   UNL A   1      43.726  35.456  26.242  1.00  0.00     0.022 A 
BRANCH  56  60
ATOM     60  S   UNL A   1      43.392  36.903  28.581  1.00  0.00     0.124 S 
ATOM     61  O   UNL A   1      43.626  36.466  29.953  1.00  0.00    -0.237 OA
ATOM     62  O   UNL A   1      44.382  37.809  28.010  1.00  0.00    -0.237 OA
ATOM     63  O   UNL A   1      42.002  37.244  28.272  1.00  0.00    -0.744 OA
ENDBRANCH  56  60
ENDBRANCH  29  53
BRANCH  41  64
ATOM     64  C   UNL A   1      46.956  28.892  31.604  1.00  0.00     0.023 A 
ATOM     65  C   UNL A   1      45.604  28.559  31.849  1.00  0.00     0.031 A 
ATOM     66  C   UNL A   1      47.782  29.110  32.721  1.00  0.00     0.131 A 
ATOM     67  C   UNL A   1      45.125  28.469  33.171  1.00  0.00     0.055 A 
ATOM     68  C   UNL A   1      47.309  29.004  34.029  1.00  0.00     0.041 A 
ATOM     69  F   UNL A   1      49.086  29.394  32.558  1.00  0.00    -0.206 F 
ATOM     70  C   UNL A   1      45.974  28.689  34.259  1.00  0.00     0.022 A 
BRANCH  67  71
ATOM     71  S   UNL A   1      43.379  28.064  33.500  1.00  0.00     0.124 S 
ATOM     72  O   UNL A   1      43.387  27.603  34.883  1.00  0.00    -0.237 OA
ATOM     73  O   UNL A   1      42.709  29.338  33.252  1.00  0.00    -0.237 OA
ATOM     74  O   UNL A   1      43.081  27.022  32.514  1.00  0.00    -0.744 OA
ENDBRANCH  67  71
ENDBRANCH  41  64
ENDBRANCH  15  16
ENDBRANCH   8  10
ENDBRANCH   7   8
ENDBRANCH   6   7
ENDBRANCH   5   6
ENDBRANCH   4   5
ENDBRANCH   3   4
ENDBRANCH   2   3
ENDBRANCH   1   2
BRANCH   1  75
ATOM     75  C   UNL A   1      33.057  27.201  24.881  1.00  0.00     0.188 C 
BRANCH  75  76
ATOM     76  C   UNL A   1      31.833  27.846  25.572  1.00  0.00     0.188 C 
BRANCH  76  77
ATOM     77  O   UNL A   1      31.963  28.905  26.510  1.00  0.00    -0.376 OA
BRANCH  77  78
ATOM     78  C   UNL A   1      32.697  30.065  26.178  1.00  0.00     0.202 C 
BRANCH  78  79
ATOM     79  C   UNL A   1      33.318  30.950  27.276  1.00  0.00     0.261 C 
BRANCH  79  80
ATOM     80  O   UNL A   1      34.747  30.945  27.416  1.00  0.00    -0.459 OA
BRANCH  80  81
ATOM     81  C   UNL A   1      35.268  32.001  28.110  1.00  0.00     0.365 C 
ATOM     82  O   UNL A   1      35.594  33.053  27.600  1.00  0.00    -0.245 OA
BRANCH  81  83
ATOM     83  C   UNL A   1      35.425  31.648  29.619  1.00  0.00     0.295 C 
ATOM     84  C   UNL A   1      36.091  30.262  29.728  1.00  0.00     0.087 C 
ATOM     85  N   UNL A   1      36.344  32.587  30.327  1.00  0.00    -0.319 N 
ATOM     86  C   UNL A   1      37.433  30.521  30.391  1.00  0.00     0.054 C 
ATOM     87  C   UNL A   1      37.683  32.005  30.212  1.00  0.00     0.188 C 
ATOM     88  H   UNL A   1      36.342  33.500  29.872  1.00  0.00     0.349 HD
ATOM     89  C   UNL A   1      38.640  29.734  29.920  1.00  0.00     0.010 C 
ATOM     90  C   UNL A   1      38.842  32.482  31.086  1.00  0.00     0.065 C 
ATOM     91  C   UNL A   1      39.821  30.105  30.825  1.00  0.00     0.001 C 
ATOM     92  C   UNL A   1      40.094  31.616  30.873  1.00  0.00     0.006 C 
BRANCH  85  93
ATOM     93  C   UNL A   1      35.908  33.126  31.623  1.00  0.00     0.285 C 
BRANCH  93  94
ATOM     94  C   UNL A   1      35.649  34.625  31.889  1.00  0.00     0.184 C 
BRANCH  94  95
ATOM     95  N   UNL A   1      34.278  35.081  31.904  1.00  0.00    -0.332 N 
ATOM     96  C   UNL A   1      33.758  36.079  31.124  1.00  0.00     0.107 A 
ATOM     97  C   UNL A   1      33.283  34.659  32.739  1.00  0.00     0.199 A 
ATOM     98  C   UNL A   1      32.415  36.098  31.423  1.00  0.00     0.130 A 
ATOM     99  N   UNL A   1      32.133  35.223  32.439  1.00  0.00    -0.245 NA
ENDBRANCH  94  95
ENDBRANCH  93  94
ENDBRANCH  85  93
ENDBRANCH  81  83
ENDBRANCH  80  81
ENDBRANCH  79  80
ENDBRANCH  78  79
ENDBRANCH  77  78
ENDBRANCH  76  77
ENDBRANCH  75  76
ENDBRANCH   1  75
TORSDOF 26
ENDMDL
MODEL 3
REMARK VINA RESULT:      -8.7      1.428      2.917
REMARK SMILES O=C(OCCOCCOCCOCCOC(=O)[C@H]1C[C@H]2CCCC[C@@H]2[N@@H+]1CCn1ccnc1)c1ccc(-c2c3nc(c(-c4cc(S(=O)(=O)[O-])ccc4F)c4ccc([nH]4)c(-c4cc(S(=O)(=O)[O-])ccc4F)c4nc(c(-c5cc(S(=O)(=O)[O-])ccc5F)c5ccc2[nH]5)C=C4)C=C3)cc1
REMARK SMILES IDX 9 1 8 2 7 3 6 4 5 5 4 6 3 7 2 8 1 9 34 10 35 11 96 12 36 13
REMARK SMILES IDX 95 14 37 15 38 16 39 17 89 18 40 19 94 20 88 21 90 22 41 23
REMARK SMILES IDX 93 24 87 25 86 26 42 28 74 29 54 30 73 31 55 32 58 33 72 34
REMARK SMILES IDX 91 35 56 36 57 37 71 39 92 40 59 41 43 42 44 43 52 44 45 45
REMARK SMILES IDX 51 46 53 47 50 48 46 49 47 50 48 51 49 52 75 53 76 54 84 55
REMARK SMILES IDX 77 56 83 57 85 58 82 59 78 60 79 61 80 62 81 63 60 64 61 65
REMARK SMILES IDX 69 66 62 67 68 68 70 69 67 70 63 71 64 72 65 73 66 74 10 75
REMARK SMILES IDX 11 76 12 77 13 78 14 79 15 80 16 81 17 82 18 83 19 84 26 85
REMARK SMILES IDX 20 86 25 87 21 89 24 90 22 91 23 92 27 93 28 94 29 95 30 96
REMARK SMILES IDX 33 97 31 98 32 99
REMARK H PARENT 90 27 58 38 26 88
REMARK Flexibility Score: inf
ROOT
ATOM      1  O   UNL A   1      34.265  32.865  31.976  1.00  0.00    -0.377 OA
ENDROOT
BRANCH   1   2
ATOM      2  C   UNL A   1      34.096  33.730  33.095  1.00  0.00     0.188 C 
BRANCH   2   3
ATOM      3  C   UNL A   1      35.411  34.192  33.747  1.00  0.00     0.188 C 
BRANCH   3   4
ATOM      4  O   UNL A   1      36.095  33.160  34.433  1.00  0.00    -0.376 OA
BRANCH   4   5
ATOM      5  C   UNL A   1      37.327  32.608  34.023  1.00  0.00     0.202 C 
BRANCH   5   6
ATOM      6  C   UNL A   1      37.558  32.046  32.613  1.00  0.00     0.261 C 
BRANCH   6   7
ATOM      7  O   UNL A   1      38.141  32.901  31.628  1.00  0.00    -0.460 OA
BRANCH   7   8
ATOM      8  C   UNL A   1      38.908  32.630  30.554  1.00  0.00     0.338 C 
ATOM      9  O   UNL A   1      38.693  31.593  29.927  1.00  0.00    -0.246 OA
BRANCH   8  10
ATOM     10  C   UNL A   1      40.124  33.413  30.228  1.00  0.00     0.060 A 
ATOM     11  C   UNL A   1      41.434  32.967  30.392  1.00  0.00     0.016 A 
ATOM     12  C   UNL A   1      39.895  34.711  29.729  1.00  0.00     0.016 A 
ATOM     13  C   UNL A   1      42.495  33.814  30.126  1.00  0.00     0.010 A 
ATOM     14  C   UNL A   1      40.954  35.571  29.480  1.00  0.00     0.010 A 
ATOM     15  C   UNL A   1      42.246  35.130  29.744  1.00  0.00    -0.014 A 
BRANCH  15  16
ATOM     16  C   UNL A   1      43.382  36.035  29.796  1.00  0.00     0.031 A 
ATOM     17  C   UNL A   1      43.595  36.788  31.056  1.00  0.00     0.074 A 
ATOM     18  C   UNL A   1      44.162  36.212  28.713  1.00  0.00     0.049 A 
ATOM     19  N   UNL A   1      43.557  38.068  31.235  1.00  0.00    -0.248 NA
ATOM     20  C   UNL A   1      43.792  36.016  32.288  1.00  0.00     0.031 C 
ATOM     21  C   UNL A   1      44.198  35.414  27.483  1.00  0.00     0.029 A 
ATOM     22  N   UNL A   1      45.161  37.116  28.529  1.00  0.00    -0.354 N 
ATOM     23  C   UNL A   1      43.913  38.286  32.563  1.00  0.00     0.074 A 
ATOM     24  C   UNL A   1      43.927  36.990  33.190  1.00  0.00     0.031 C 
ATOM     25  C   UNL A   1      45.313  35.722  26.788  1.00  0.00     0.029 A 
ATOM     26  C   UNL A   1      45.980  36.831  27.448  1.00  0.00     0.049 A 
ATOM     27  H   UNL A   1      45.292  37.899  29.110  1.00  0.00     0.167 HD
ATOM     28  C   UNL A   1      44.332  39.503  33.009  1.00  0.00     0.034 A 
ATOM     29  C   UNL A   1      47.169  37.409  27.154  1.00  0.00     0.034 A 
ATOM     30  C   UNL A   1      43.892  40.568  32.142  1.00  0.00     0.049 A 
ATOM     31  C   UNL A   1      47.178  38.747  27.794  1.00  0.00     0.074 A 
ATOM     32  C   UNL A   1      42.653  41.036  31.748  1.00  0.00     0.029 A 
ATOM     33  N   UNL A   1      44.788  41.120  31.257  1.00  0.00    -0.354 N 
ATOM     34  N   UNL A   1      46.374  39.713  27.442  1.00  0.00    -0.248 NA
ATOM     35  C   UNL A   1      47.751  38.879  29.123  1.00  0.00     0.031 C 
ATOM     36  C   UNL A   1      42.815  41.403  30.381  1.00  0.00     0.029 A 
ATOM     37  C   UNL A   1      44.152  41.191  30.039  1.00  0.00     0.049 A 
ATOM     38  H   UNL A   1      45.707  41.409  31.456  1.00  0.00     0.167 HD
ATOM     39  C   UNL A   1      46.008  40.331  28.626  1.00  0.00     0.074 A 
ATOM     40  C   UNL A   1      46.971  39.848  29.613  1.00  0.00     0.031 C 
ATOM     41  C   UNL A   1      44.801  40.959  28.761  1.00  0.00     0.034 A 
BRANCH  28  42
ATOM     42  C   UNL A   1      45.358  39.705  34.099  1.00  0.00     0.023 A 
ATOM     43  C   UNL A   1      45.003  40.466  35.231  1.00  0.00     0.031 A 
ATOM     44  C   UNL A   1      46.735  39.411  33.963  1.00  0.00     0.131 A 
ATOM     45  C   UNL A   1      45.986  40.935  36.124  1.00  0.00     0.055 A 
ATOM     46  C   UNL A   1      47.698  39.821  34.889  1.00  0.00     0.041 A 
ATOM     47  F   UNL A   1      47.234  38.800  32.881  1.00  0.00    -0.206 F 
ATOM     48  C   UNL A   1      47.330  40.608  35.965  1.00  0.00     0.022 A 
BRANCH  45  49
ATOM     49  S   UNL A   1      45.506  42.126  37.405  1.00  0.00     0.124 S 
ATOM     50  O   UNL A   1      44.322  41.494  37.975  1.00  0.00    -0.237 OA
ATOM     51  O   UNL A   1      46.695  42.153  38.251  1.00  0.00    -0.237 OA
ATOM     52  O   UNL A   1      45.252  43.351  36.649  1.00  0.00    -0.744 OA
ENDBRANCH  45  49
ENDBRANCH  28  42
BRANCH  29  53
ATOM     53  C   UNL A   1      48.376  36.681  26.691  1.00  0.00     0.023 A 
ATOM     54  C   UNL A   1      48.979  35.660  27.445  1.00  0.00     0.031 A 
ATOM     55  C   UNL A   1      48.836  36.853  25.364  1.00  0.00     0.131 A 
ATOM     56  C   UNL A   1      50.004  34.872  26.873  1.00  0.00     0.055 A 
ATOM     57  C   UNL A   1      49.858  36.084  24.810  1.00  0.00     0.041 A 
ATOM     58  F   UNL A   1      48.249  37.728  24.530  1.00  0.00    -0.206 F 
ATOM     59  C   UNL A   1      50.444  35.082  25.563  1.00  0.00     0.022 A 
BRANCH  56  60
ATOM     60  S   UNL A   1      50.714  33.484  27.810  1.00  0.00     0.124 S 
ATOM     61  O   UNL A   1      52.140  33.626  27.540  1.00  0.00    -0.237 OA
ATOM     62  O   UNL A   1      50.279  33.771  29.172  1.00  0.00    -0.237 OA
ATOM     63  O   UNL A   1      50.087  32.308  27.205  1.00  0.00    -0.744 OA
ENDBRANCH  56  60
ENDBRANCH  29  53
BRANCH  41  64
ATOM     64  C   UNL A   1      43.972  41.205  27.513  1.00  0.00     0.023 A 
ATOM     65  C   UNL A   1      44.292  42.158  26.518  1.00  0.00     0.031 A 
ATOM     66  C   UNL A   1      42.887  40.346  27.262  1.00  0.00     0.131 A 
ATOM     67  C   UNL A   1      43.529  42.231  25.336  1.00  0.00     0.055 A 
ATOM     68  C   UNL A   1      42.144  40.410  26.082  1.00  0.00     0.041 A 
ATOM     69  F   UNL A   1      42.553  39.393  28.150  1.00  0.00    -0.206 F 
ATOM     70  C   UNL A   1      42.459  41.360  25.116  1.00  0.00     0.022 A 
BRANCH  67  71
ATOM     71  S   UNL A   1      43.917  43.470  24.057  1.00  0.00     0.124 S 
ATOM     72  O   UNL A   1      42.642  43.679  23.382  1.00  0.00    -0.237 OA
ATOM     73  O   UNL A   1      44.416  44.593  24.849  1.00  0.00    -0.237 OA
ATOM     74  O   UNL A   1      44.935  42.806  23.240  1.00  0.00    -0.744 OA
ENDBRANCH  67  71
ENDBRANCH  41  64
ENDBRANCH  15  16
ENDBRANCH   8  10
ENDBRANCH   7   8
ENDBRANCH   6   7
ENDBRANCH   5   6
ENDBRANCH   4   5
ENDBRANCH   3   4
ENDBRANCH   2   3
ENDBRANCH   1   2
BRANCH   1  75
ATOM     75  C   UNL A   1      34.399  33.542  30.732  1.00  0.00     0.188 C 
BRANCH  75  76
ATOM     76  C   UNL A   1      35.317  32.848  29.699  1.00  0.00     0.188 C 
BRANCH  76  77
ATOM     77  O   UNL A   1      34.806  31.992  28.687  1.00  0.00    -0.376 OA
BRANCH  77  78
ATOM     78  C   UNL A   1      35.675  31.150  27.958  1.00  0.00     0.202 C 
BRANCH  78  79
ATOM     79  C   UNL A   1      35.424  29.632  27.877  1.00  0.00     0.261 C 
BRANCH  79  80
ATOM     80  O   UNL A   1      34.663  29.134  26.766  1.00  0.00    -0.459 OA
BRANCH  80  81
ATOM     81  C   UNL A   1      33.317  29.029  26.983  1.00  0.00     0.365 C 
ATOM     82  O   UNL A   1      32.620  29.940  27.377  1.00  0.00    -0.245 OA
BRANCH  81  83
ATOM     83  C   UNL A   1      32.823  27.578  26.702  1.00  0.00     0.295 C 
ATOM     84  C   UNL A   1      31.327  27.636  26.338  1.00  0.00     0.087 C 
ATOM     85  N   UNL A   1      33.498  26.971  25.517  1.00  0.00    -0.319 N 
ATOM     86  C   UNL A   1      31.255  27.168  24.894  1.00  0.00     0.054 C 
ATOM     87  C   UNL A   1      32.666  27.311  24.361  1.00  0.00     0.188 C 
ATOM     88  H   UNL A   1      34.425  27.377  25.387  1.00  0.00     0.349 HD
ATOM     89  C   UNL A   1      30.278  27.850  23.958  1.00  0.00     0.010 C 
ATOM     90  C   UNL A   1      32.829  26.598  23.020  1.00  0.00     0.065 C 
ATOM     91  C   UNL A   1      30.329  27.114  22.613  1.00  0.00     0.001 C 
ATOM     92  C   UNL A   1      31.745  27.035  22.021  1.00  0.00     0.006 C 
BRANCH  85  93
ATOM     93  C   UNL A   1      34.012  25.601  25.649  1.00  0.00     0.285 C 
BRANCH  93  94
ATOM     94  C   UNL A   1      33.217  24.340  25.241  1.00  0.00     0.184 C 
BRANCH  94  95
ATOM     95  N   UNL A   1      33.559  23.090  25.878  1.00  0.00    -0.332 N 
ATOM     96  C   UNL A   1      34.422  22.940  26.931  1.00  0.00     0.107 A 
ATOM     97  C   UNL A   1      33.151  21.841  25.507  1.00  0.00     0.199 A 
ATOM     98  C   UNL A   1      34.365  21.602  27.246  1.00  0.00     0.130 A 
ATOM     99  N   UNL A   1      33.585  20.926  26.346  1.00  0.00    -0.245 NA
ENDBRANCH  94  95
ENDBRANCH  93  94
ENDBRANCH  85  93
ENDBRANCH  81  83
ENDBRANCH  80  81
ENDBRANCH  79  80
ENDBRANCH  78  79
ENDBRANCH  77  78
ENDBRANCH  76  77
ENDBRANCH  75  76
ENDBRANCH   1  75
TORSDOF 26
ENDMDL
