MODEL 1
REMARK VINA RESULT:      -9.0      0.000      0.000
REMARK SMILES O=C(OCCOCCOCCOCCOC(=O)c1ccc(S(=O)(=O)Cc2ncccn2)c(F)c1)c1ccc(-c2c3nc(c(-c4cc(S(=O)(=O)[O-])ccc4F)c4ccc([nH]4)c(-c4cc(S(=O)(=O)[O-])ccc4F)c4nc(c(-c5cc(S(=O)(=O)[O-])ccc5F)c5ccc2[nH]5)C=C4)C=C3)cc1
REMARK SMILES IDX 9 1 8 2 7 3 6 4 5 5 4 6 3 7 2 8 1 9 35 10 36 11 97 12 37 13
REMARK SMILES IDX 96 14 38 15 39 16 40 17 90 18 41 19 95 20 89 21 91 22 42 23
REMARK SMILES IDX 94 24 88 25 87 26 43 28 75 29 55 30 74 31 56 32 59 33 73 34
REMARK SMILES IDX 92 35 57 36 58 37 72 39 93 40 60 41 44 42 45 43 53 44 46 45
REMARK SMILES IDX 52 46 54 47 51 48 47 49 48 50 49 51 50 52 76 53 77 54 85 55
REMARK SMILES IDX 78 56 84 57 86 58 83 59 79 60 80 61 81 62 82 63 61 64 62 65
REMARK SMILES IDX 70 66 63 67 69 68 71 69 68 70 64 71 65 72 66 73 67 74 10 75
REMARK SMILES IDX 11 76 12 77 13 78 14 79 15 80 16 81 17 82 18 83 19 84 34 85
REMARK SMILES IDX 20 86 32 87 21 88 33 89 22 90 23 91 24 92 25 93 26 94 27 95
REMARK SMILES IDX 31 96 28 97 30 98 29 99
REMARK H PARENT 91 27 59 38
REMARK Flexibility Score: inf
ROOT
ATOM      1  O   UNL A   1      42.617  20.070  26.544  1.00  0.00    -0.377 OA
ENDROOT
BRANCH   1   2
ATOM      2  C   UNL A   1      42.861  18.830  25.882  1.00  0.00     0.188 C 
BRANCH   2   3
ATOM      3  C   UNL A   1      44.337  18.458  25.748  1.00  0.00     0.188 C 
BRANCH   3   4
ATOM      4  O   UNL A   1      44.758  18.560  24.388  1.00  0.00    -0.376 OA
BRANCH   4   5
ATOM      5  C   UNL A   1      45.468  19.745  24.035  1.00  0.00     0.202 C 
BRANCH   5   6
ATOM      6  C   UNL A   1      46.069  20.508  25.219  1.00  0.00     0.261 C 
BRANCH   6   7
ATOM      7  O   UNL A   1      46.497  21.831  24.865  1.00  0.00    -0.460 OA
BRANCH   7   8
ATOM      8  C   UNL A   1      45.711  22.910  24.618  1.00  0.00     0.338 C 
ATOM      9  O   UNL A   1      45.202  23.016  23.502  1.00  0.00    -0.246 OA
BRANCH   8  10
ATOM     10  C   UNL A   1      45.418  23.979  25.622  1.00  0.00     0.060 A 
ATOM     11  C   UNL A   1      44.222  24.689  25.716  1.00  0.00     0.016 A 
ATOM     12  C   UNL A   1      46.399  24.221  26.600  1.00  0.00     0.016 A 
ATOM     13  C   UNL A   1      44.011  25.647  26.695  1.00  0.00     0.010 A 
ATOM     14  C   UNL A   1      46.185  25.161  27.614  1.00  0.00     0.010 A 
ATOM     15  C   UNL A   1      44.992  25.888  27.648  1.00  0.00    -0.014 A 
BRANCH  15  16
ATOM     16  C   UNL A   1      44.782  27.018  28.566  1.00  0.00     0.031 A 
ATOM     17  C   UNL A   1      44.496  26.705  30.000  1.00  0.00     0.074 A 
ATOM     18  C   UNL A   1      45.021  28.273  28.147  1.00  0.00     0.049 A 
ATOM     19  N   UNL A   1      44.207  27.511  30.983  1.00  0.00    -0.248 NA
ATOM     20  C   UNL A   1      44.566  25.284  30.382  1.00  0.00     0.031 C 
ATOM     21  C   UNL A   1      45.493  28.638  26.807  1.00  0.00     0.029 A 
ATOM     22  N   UNL A   1      44.951  29.466  28.811  1.00  0.00    -0.354 N 
ATOM     23  C   UNL A   1      44.033  26.694  32.094  1.00  0.00     0.074 A 
ATOM     24  C   UNL A   1      44.239  25.331  31.663  1.00  0.00     0.031 C 
ATOM     25  C   UNL A   1      45.706  29.962  26.764  1.00  0.00     0.029 A 
ATOM     26  C   UNL A   1      45.300  30.547  28.037  1.00  0.00     0.049 A 
ATOM     27  H   UNL A   1      44.677  29.543  29.753  1.00  0.00     0.167 HD
ATOM     28  C   UNL A   1      43.718  27.066  33.356  1.00  0.00     0.034 A 
ATOM     29  C   UNL A   1      45.252  31.862  28.321  1.00  0.00     0.034 A 
ATOM     30  C   UNL A   1      43.502  28.440  33.724  1.00  0.00     0.049 A 
ATOM     31  C   UNL A   1      44.742  32.258  29.681  1.00  0.00     0.074 A 
ATOM     32  C   UNL A   1      43.053  28.962  34.921  1.00  0.00     0.029 A 
ATOM     33  N   UNL A   1      43.729  29.521  32.875  1.00  0.00    -0.354 N 
ATOM     34  N   UNL A   1      44.405  31.482  30.687  1.00  0.00    -0.248 NA
ATOM     35  C   UNL A   1      44.577  33.691  29.938  1.00  0.00     0.031 C 
ATOM     36  C   UNL A   1      42.953  30.351  34.775  1.00  0.00     0.029 A 
ATOM     37  C   UNL A   1      43.412  30.705  33.513  1.00  0.00     0.049 A 
ATOM     38  H   UNL A   1      44.064  29.451  31.952  1.00  0.00     0.167 HD
ATOM     39  C   UNL A   1      43.999  32.333  31.706  1.00  0.00     0.074 A 
ATOM     40  C   UNL A   1      44.135  33.684  31.190  1.00  0.00     0.031 C 
ATOM     41  C   UNL A   1      43.558  32.031  32.954  1.00  0.00     0.034 A 
BRANCH  28  42
ATOM     42  C   UNL A   1      43.484  25.957  34.350  1.00  0.00     0.023 A 
ATOM     43  C   UNL A   1      44.527  25.122  34.791  1.00  0.00     0.031 A 
ATOM     44  C   UNL A   1      42.177  25.658  34.771  1.00  0.00     0.131 A 
ATOM     45  C   UNL A   1      44.233  23.983  35.558  1.00  0.00     0.055 A 
ATOM     46  C   UNL A   1      41.901  24.568  35.599  1.00  0.00     0.041 A 
ATOM     47  F   UNL A   1      41.138  26.397  34.353  1.00  0.00    -0.206 F 
ATOM     48  C   UNL A   1      42.930  23.713  35.984  1.00  0.00     0.022 A 
BRANCH  45  49
ATOM     49  S   UNL A   1      45.552  22.777  35.867  1.00  0.00     0.124 S 
ATOM     50  O   UNL A   1      45.360  22.489  37.287  1.00  0.00    -0.237 OA
ATOM     51  O   UNL A   1      45.218  21.695  34.948  1.00  0.00    -0.237 OA
ATOM     52  O   UNL A   1      46.774  23.512  35.547  1.00  0.00    -0.744 OA
ENDBRANCH  45  49
ENDBRANCH  28  42
BRANCH  29  53
ATOM     53  C   UNL A   1      45.624  32.863  27.283  1.00  0.00     0.023 A 
ATOM     54  C   UNL A   1      46.945  33.311  27.137  1.00  0.00     0.031 A 
ATOM     55  C   UNL A   1      44.659  33.354  26.382  1.00  0.00     0.131 A 
ATOM     56  C   UNL A   1      47.267  34.217  26.112  1.00  0.00     0.055 A 
ATOM     57  C   UNL A   1      44.988  34.227  25.345  1.00  0.00     0.041 A 
ATOM     58  F   UNL A   1      43.380  32.954  26.476  1.00  0.00    -0.206 F 
ATOM     59  C   UNL A   1      46.301  34.665  25.207  1.00  0.00     0.022 A 
BRANCH  56  60
ATOM     60  S   UNL A   1      48.977  34.806  25.965  1.00  0.00     0.124 S 
ATOM     61  O   UNL A   1      49.057  35.764  27.062  1.00  0.00    -0.237 OA
ATOM     62  O   UNL A   1      49.741  33.575  26.132  1.00  0.00    -0.237 OA
ATOM     63  O   UNL A   1      49.024  35.387  24.625  1.00  0.00    -0.744 OA
ENDBRANCH  56  60
ENDBRANCH  29  53
BRANCH  41  64
ATOM     64  C   UNL A   1      43.235  33.185  33.860  1.00  0.00     0.023 A 
ATOM     65  C   UNL A   1      41.911  33.588  34.096  1.00  0.00     0.031 A 
ATOM     66  C   UNL A   1      44.271  33.845  34.543  1.00  0.00     0.131 A 
ATOM     67  C   UNL A   1      41.658  34.645  34.979  1.00  0.00     0.055 A 
ATOM     68  C   UNL A   1      44.010  34.863  35.458  1.00  0.00     0.041 A 
ATOM     69  F   UNL A   1      45.552  33.489  34.350  1.00  0.00    -0.206 F 
ATOM     70  C   UNL A   1      42.696  35.271  35.677  1.00  0.00     0.022 A 
BRANCH  67  71
ATOM     71  S   UNL A   1      39.951  35.217  35.185  1.00  0.00     0.124 S 
ATOM     72  O   UNL A   1      39.530  34.484  36.374  1.00  0.00    -0.237 OA
ATOM     73  O   UNL A   1      40.118  36.658  35.350  1.00  0.00    -0.237 OA
ATOM     74  O   UNL A   1      39.301  34.809  33.941  1.00  0.00    -0.744 OA
ENDBRANCH  67  71
ENDBRANCH  41  64
ENDBRANCH  15  16
ENDBRANCH   8  10
ENDBRANCH   7   8
ENDBRANCH   6   7
ENDBRANCH   5   6
ENDBRANCH   4   5
ENDBRANCH   3   4
ENDBRANCH   2   3
ENDBRANCH   1   2
BRANCH   1  75
ATOM     75  C   UNL A   1      41.395  20.168  27.265  1.00  0.00     0.188 C 
BRANCH  75  76
ATOM     76  C   UNL A   1      41.129  21.434  28.114  1.00  0.00     0.188 C 
BRANCH  76  77
ATOM     77  O   UNL A   1      41.629  22.630  27.539  1.00  0.00    -0.376 OA
BRANCH  77  78
ATOM     78  C   UNL A   1      40.933  23.082  26.382  1.00  0.00     0.202 C 
BRANCH  78  79
ATOM     79  C   UNL A   1      39.652  23.891  26.649  1.00  0.00     0.261 C 
BRANCH  79  80
ATOM     80  O   UNL A   1      38.435  23.124  26.745  1.00  0.00    -0.460 OA
BRANCH  80  81
ATOM     81  C   UNL A   1      38.131  22.283  25.729  1.00  0.00     0.338 C 
ATOM     82  O   UNL A   1      38.588  21.188  25.510  1.00  0.00    -0.246 OA
BRANCH  81  83
ATOM     83  C   UNL A   1      36.955  22.853  25.028  1.00  0.00     0.063 A 
ATOM     84  C   UNL A   1      36.749  22.659  23.660  1.00  0.00     0.017 A 
ATOM     85  C   UNL A   1      36.113  23.706  25.751  1.00  0.00     0.056 A 
ATOM     86  C   UNL A   1      35.635  23.244  23.044  1.00  0.00     0.024 A 
ATOM     87  C   UNL A   1      35.109  24.401  25.090  1.00  0.00     0.142 A 
ATOM     88  C   UNL A   1      34.794  24.094  23.779  1.00  0.00     0.103 A 
ATOM     89  F   UNL A   1      34.482  25.383  25.751  1.00  0.00    -0.206 F 
BRANCH  88  90
ATOM     90  S   UNL A   1      33.292  24.648  23.028  1.00  0.00     0.188 S 
ATOM     91  O   UNL A   1      33.222  26.065  23.359  1.00  0.00    -0.223 OA
ATOM     92  O   UNL A   1      33.367  24.266  21.627  1.00  0.00    -0.223 OA
BRANCH  90  93
ATOM     93  C   UNL A   1      31.863  23.910  23.730  1.00  0.00     0.219 C 
BRANCH  93  94
ATOM     94  C   UNL A   1      32.019  22.470  24.113  1.00  0.00     0.143 A 
ATOM     95  N   UNL A   1      32.471  22.260  25.370  1.00  0.00    -0.240 NA
ATOM     96  N   UNL A   1      31.980  21.503  23.181  1.00  0.00    -0.240 NA
ATOM     97  C   UNL A   1      32.939  21.028  25.658  1.00  0.00     0.115 A 
ATOM     98  C   UNL A   1      32.493  20.300  23.506  1.00  0.00     0.115 A 
ATOM     99  C   UNL A   1      33.002  20.007  24.744  1.00  0.00     0.040 A 
ENDBRANCH  93  94
ENDBRANCH  90  93
ENDBRANCH  88  90
ENDBRANCH  81  83
ENDBRANCH  80  81
ENDBRANCH  79  80
ENDBRANCH  78  79
ENDBRANCH  77  78
ENDBRANCH  76  77
ENDBRANCH  75  76
ENDBRANCH   1  75
TORSDOF 26
ENDMDL
MODEL 2
REMARK VINA RESULT:      -8.7      3.805      8.123
REMARK SMILES O=C(OCCOCCOCCOCCOC(=O)c1ccc(S(=O)(=O)Cc2ncccn2)c(F)c1)c1ccc(-c2c3nc(c(-c4cc(S(=O)(=O)[O-])ccc4F)c4ccc([nH]4)c(-c4cc(S(=O)(=O)[O-])ccc4F)c4nc(c(-c5cc(S(=O)(=O)[O-])ccc5F)c5ccc2[nH]5)C=C4)C=C3)cc1
REMARK SMILES IDX 9 1 8 2 7 3 6 4 5 5 4 6 3 7 2 8 1 9 35 10 36 11 97 12 37 13
REMARK SMILES IDX 96 14 38 15 39 16 40 17 90 18 41 19 95 20 89 21 91 22 42 23
REMARK SMILES IDX 94 24 88 25 87 26 43 28 75 29 55 30 74 31 56 32 59 33 73 34
REMARK SMILES IDX 92 35 57 36 58 37 72 39 93 40 60 41 44 42 45 43 53 44 46 45
REMARK SMILES IDX 52 46 54 47 51 48 47 49 48 50 49 51 50 52 76 53 77 54 85 55
REMARK SMILES IDX 78 56 84 57 86 58 83 59 79 60 80 61 81 62 82 63 61 64 62 65
REMARK SMILES IDX 70 66 63 67 69 68 71 69 68 70 64 71 65 72 66 73 67 74 10 75
REMARK SMILES IDX 11 76 12 77 13 78 14 79 15 80 16 81 17 82 18 83 19 84 34 85
REMARK SMILES IDX 20 86 32 87 21 88 33 89 22 90 23 91 24 92 25 93 26 94 27 95
REMARK SMILES IDX 31 96 28 97 30 98 29 99
REMARK H PARENT 91 27 59 38
REMARK Flexibility Score: inf
ROOT
ATOM      1  O   UNL A   1      42.985  24.508  29.588  1.00  0.00    -0.377 OA
ENDROOT
BRANCH   1   2
ATOM      2  C   UNL A   1      43.938  23.511  29.225  1.00  0.00     0.188 C 
BRANCH   2   3
ATOM      3  C   UNL A   1      45.064  24.006  28.318  1.00  0.00     0.188 C 
BRANCH   3   4
ATOM      4  O   UNL A   1      45.261  23.107  27.227  1.00  0.00    -0.376 OA
BRANCH   4   5
ATOM      5  C   UNL A   1      44.263  23.124  26.209  1.00  0.00     0.202 C 
BRANCH   5   6
ATOM      6  C   UNL A   1      44.688  23.810  24.908  1.00  0.00     0.261 C 
BRANCH   6   7
ATOM      7  O   UNL A   1      44.630  25.241  24.990  1.00  0.00    -0.460 OA
BRANCH   7   8
ATOM      8  C   UNL A   1      43.523  26.011  25.152  1.00  0.00     0.338 C 
ATOM      9  O   UNL A   1      42.485  25.664  24.587  1.00  0.00    -0.246 OA
BRANCH   8  10
ATOM     10  C   UNL A   1      43.483  27.254  25.981  1.00  0.00     0.060 A 
ATOM     11  C   UNL A   1      42.550  28.283  25.846  1.00  0.00     0.016 A 
ATOM     12  C   UNL A   1      44.408  27.347  27.036  1.00  0.00     0.016 A 
ATOM     13  C   UNL A   1      42.557  29.394  26.673  1.00  0.00     0.010 A 
ATOM     14  C   UNL A   1      44.404  28.448  27.899  1.00  0.00     0.010 A 
ATOM     15  C   UNL A   1      43.484  29.482  27.704  1.00  0.00    -0.014 A 
BRANCH  15  16
ATOM     16  C   UNL A   1      43.548  30.748  28.451  1.00  0.00     0.031 A 
ATOM     17  C   UNL A   1      44.503  31.792  27.969  1.00  0.00     0.074 A 
ATOM     18  C   UNL A   1      42.645  31.002  29.414  1.00  0.00     0.049 A 
ATOM     19  N   UNL A   1      44.796  32.951  28.489  1.00  0.00    -0.248 NA
ATOM     20  C   UNL A   1      45.214  31.493  26.715  1.00  0.00     0.031 C 
ATOM     21  C   UNL A   1      41.555  30.101  29.806  1.00  0.00     0.029 A 
ATOM     22  N   UNL A   1      42.464  32.104  30.202  1.00  0.00    -0.354 N 
ATOM     23  C   UNL A   1      45.745  33.509  27.641  1.00  0.00     0.074 A 
ATOM     24  C   UNL A   1      45.986  32.559  26.579  1.00  0.00     0.031 C 
ATOM     25  C   UNL A   1      40.799  30.707  30.734  1.00  0.00     0.029 A 
ATOM     26  C   UNL A   1      41.400  31.993  31.066  1.00  0.00     0.049 A 
ATOM     27  H   UNL A   1      43.039  32.901  30.155  1.00  0.00     0.167 HD
ATOM     28  C   UNL A   1      46.360  34.709  27.758  1.00  0.00     0.034 A 
ATOM     29  C   UNL A   1      40.992  32.827  32.042  1.00  0.00     0.034 A 
ATOM     30  C   UNL A   1      46.096  35.607  28.851  1.00  0.00     0.049 A 
ATOM     31  C   UNL A   1      41.793  34.081  32.260  1.00  0.00     0.074 A 
ATOM     32  C   UNL A   1      46.728  36.790  29.179  1.00  0.00     0.029 A 
ATOM     33  N   UNL A   1      45.100  35.406  29.805  1.00  0.00    -0.354 N 
ATOM     34  N   UNL A   1      42.813  34.534  31.564  1.00  0.00    -0.248 NA
ATOM     35  C   UNL A   1      41.418  34.920  33.402  1.00  0.00     0.031 C 
ATOM     36  C   UNL A   1      46.152  37.272  30.361  1.00  0.00     0.029 A 
ATOM     37  C   UNL A   1      45.111  36.432  30.730  1.00  0.00     0.049 A 
ATOM     38  H   UNL A   1      44.479  34.641  29.817  1.00  0.00     0.167 HD
ATOM     39  C   UNL A   1      43.195  35.721  32.174  1.00  0.00     0.074 A 
ATOM     40  C   UNL A   1      42.293  35.913  33.297  1.00  0.00     0.031 C 
ATOM     41  C   UNL A   1      44.195  36.577  31.840  1.00  0.00     0.034 A 
BRANCH  28  42
ATOM     42  C   UNL A   1      47.433  35.021  26.747  1.00  0.00     0.023 A 
ATOM     43  C   UNL A   1      48.586  34.225  26.617  1.00  0.00     0.031 A 
ATOM     44  C   UNL A   1      47.356  36.199  25.985  1.00  0.00     0.131 A 
ATOM     45  C   UNL A   1      49.648  34.661  25.807  1.00  0.00     0.055 A 
ATOM     46  C   UNL A   1      48.382  36.586  25.122  1.00  0.00     0.041 A 
ATOM     47  F   UNL A   1      46.297  37.016  26.095  1.00  0.00    -0.206 F 
ATOM     48  C   UNL A   1      49.544  35.824  25.041  1.00  0.00     0.022 A 
BRANCH  45  49
ATOM     49  S   UNL A   1      51.224  33.766  25.882  1.00  0.00     0.124 S 
ATOM     50  O   UNL A   1      51.091  33.042  27.144  1.00  0.00    -0.237 OA
ATOM     51  O   UNL A   1      51.187  32.951  24.674  1.00  0.00    -0.237 OA
ATOM     52  O   UNL A   1      52.225  34.831  25.884  1.00  0.00    -0.744 OA
ENDBRANCH  45  49
ENDBRANCH  28  42
BRANCH  29  53
ATOM     53  C   UNL A   1      39.835  32.455  32.904  1.00  0.00     0.023 A 
ATOM     54  C   UNL A   1      38.532  32.874  32.600  1.00  0.00     0.031 A 
ATOM     55  C   UNL A   1      40.016  31.626  34.029  1.00  0.00     0.131 A 
ATOM     56  C   UNL A   1      37.458  32.460  33.409  1.00  0.00     0.055 A 
ATOM     57  C   UNL A   1      38.945  31.190  34.808  1.00  0.00     0.041 A 
ATOM     58  F   UNL A   1      41.244  31.193  34.360  1.00  0.00    -0.206 F 
ATOM     59  C   UNL A   1      37.655  31.609  34.500  1.00  0.00     0.022 A 
BRANCH  56  60
ATOM     60  S   UNL A   1      35.786  33.043  33.014  1.00  0.00     0.124 S 
ATOM     61  O   UNL A   1      35.296  31.977  32.148  1.00  0.00    -0.237 OA
ATOM     62  O   UNL A   1      35.172  33.130  34.334  1.00  0.00    -0.237 OA
ATOM     63  O   UNL A   1      36.019  34.327  32.354  1.00  0.00    -0.744 OA
ENDBRANCH  56  60
ENDBRANCH  29  53
BRANCH  41  64
ATOM     64  C   UNL A   1      44.333  37.820  32.672  1.00  0.00     0.023 A 
ATOM     65  C   UNL A   1      43.554  38.961  32.424  1.00  0.00     0.031 A 
ATOM     66  C   UNL A   1      45.213  37.830  33.768  1.00  0.00     0.131 A 
ATOM     67  C   UNL A   1      43.691  40.083  33.252  1.00  0.00     0.055 A 
ATOM     68  C   UNL A   1      45.308  38.931  34.617  1.00  0.00     0.041 A 
ATOM     69  F   UNL A   1      45.973  36.758  34.043  1.00  0.00    -0.206 F 
ATOM     70  C   UNL A   1      44.546  40.068  34.358  1.00  0.00     0.022 A 
BRANCH  67  71
ATOM     71  S   UNL A   1      42.755  41.582  32.848  1.00  0.00     0.124 S 
ATOM     72  O   UNL A   1      41.944  41.762  34.047  1.00  0.00    -0.237 OA
ATOM     73  O   UNL A   1      43.811  42.567  32.638  1.00  0.00    -0.237 OA
ATOM     74  O   UNL A   1      42.012  41.208  31.646  1.00  0.00    -0.744 OA
ENDBRANCH  67  71
ENDBRANCH  41  64
ENDBRANCH  15  16
ENDBRANCH   8  10
ENDBRANCH   7   8
ENDBRANCH   6   7
ENDBRANCH   5   6
ENDBRANCH   4   5
ENDBRANCH   3   4
ENDBRANCH   2   3
ENDBRANCH   1   2
BRANCH   1  75
ATOM     75  C   UNL A   1      42.249  25.093  28.520  1.00  0.00     0.188 C 
BRANCH  75  76
ATOM     76  C   UNL A   1      41.279  26.257  28.833  1.00  0.00     0.188 C 
BRANCH  76  77
ATOM     77  O   UNL A   1      40.331  26.510  27.809  1.00  0.00    -0.376 OA
BRANCH  77  78
ATOM     78  C   UNL A   1      40.129  25.438  26.894  1.00  0.00     0.202 C 
BRANCH  78  79
ATOM     79  C   UNL A   1      38.967  24.487  27.228  1.00  0.00     0.261 C 
BRANCH  79  80
ATOM     80  O   UNL A   1      38.170  24.052  26.108  1.00  0.00    -0.460 OA
BRANCH  80  81
ATOM     81  C   UNL A   1      38.057  22.721  25.888  1.00  0.00     0.338 C 
ATOM     82  O   UNL A   1      38.883  21.864  26.082  1.00  0.00    -0.246 OA
BRANCH  81  83
ATOM     83  C   UNL A   1      36.635  22.453  25.562  1.00  0.00     0.063 A 
ATOM     84  C   UNL A   1      35.621  23.355  25.895  1.00  0.00     0.017 A 
ATOM     85  C   UNL A   1      36.313  21.204  25.019  1.00  0.00     0.056 A 
ATOM     86  C   UNL A   1      34.292  23.038  25.588  1.00  0.00     0.024 A 
ATOM     87  C   UNL A   1      34.980  20.845  24.868  1.00  0.00     0.142 A 
ATOM     88  C   UNL A   1      33.980  21.784  25.039  1.00  0.00     0.103 A 
ATOM     89  F   UNL A   1      34.701  19.567  24.578  1.00  0.00    -0.206 F 
BRANCH  88  90
ATOM     90  S   UNL A   1      32.328  21.498  24.478  1.00  0.00     0.188 S 
ATOM     91  O   UNL A   1      32.465  21.268  23.046  1.00  0.00    -0.223 OA
ATOM     92  O   UNL A   1      31.791  20.429  25.303  1.00  0.00    -0.223 OA
BRANCH  90  93
ATOM     93  C   UNL A   1      31.294  22.907  24.649  1.00  0.00     0.219 C 
BRANCH  93  94
ATOM     94  C   UNL A   1      31.378  23.892  23.524  1.00  0.00     0.143 A 
ATOM     95  N   UNL A   1      32.497  23.803  22.770  1.00  0.00    -0.240 NA
ATOM     96  N   UNL A   1      30.541  24.941  23.466  1.00  0.00    -0.240 NA
ATOM     97  C   UNL A   1      32.783  24.849  21.969  1.00  0.00     0.115 A 
ATOM     98  C   UNL A   1      30.890  25.977  22.678  1.00  0.00     0.115 A 
ATOM     99  C   UNL A   1      32.021  25.989  21.905  1.00  0.00     0.040 A 
ENDBRANCH  93  94
ENDBRANCH  90  93
ENDBRANCH  88  90
ENDBRANCH  81  83
ENDBRANCH  80  81
ENDBRANCH  79  80
ENDBRANCH  78  79
ENDBRANCH  77  78
ENDBRANCH  76  77
ENDBRANCH  75  76
ENDBRANCH   1  75
TORSDOF 26
ENDMDL
MODEL 3
REMARK VINA RESULT:      -8.6      5.200      9.569
REMARK SMILES O=C(OCCOCCOCCOCCOC(=O)c1ccc(S(=O)(=O)Cc2ncccn2)c(F)c1)c1ccc(-c2c3nc(c(-c4cc(S(=O)(=O)[O-])ccc4F)c4ccc([nH]4)c(-c4cc(S(=O)(=O)[O-])ccc4F)c4nc(c(-c5cc(S(=O)(=O)[O-])ccc5F)c5ccc2[nH]5)C=C4)C=C3)cc1
REMARK SMILES IDX 9 1 8 2 7 3 6 4 5 5 4 6 3 7 2 8 1 9 35 10 36 11 97 12 37 13
REMARK SMILES IDX 96 14 38 15 39 16 40 17 90 18 41 19 95 20 89 21 91 22 42 23
REMARK SMILES IDX 94 24 88 25 87 26 43 28 75 29 55 30 74 31 56 32 59 33 73 34
REMARK SMILES IDX 92 35 57 36 58 37 72 39 93 40 60 41 44 42 45 43 53 44 46 45
REMARK SMILES IDX 52 46 54 47 51 48 47 49 48 50 49 51 50 52 76 53 77 54 85 55
REMARK SMILES IDX 78 56 84 57 86 58 83 59 79 60 80 61 81 62 82 63 61 64 62 65
REMARK SMILES IDX 70 66 63 67 69 68 71 69 68 70 64 71 65 72 66 73 67 74 10 75
REMARK SMILES IDX 11 76 12 77 13 78 14 79 15 80 16 81 17 82 18 83 19 84 34 85
REMARK SMILES IDX 20 86 32 87 21 88 33 89 22 90 23 91 24 92 25 93 26 94 27 95
REMARK SMILES IDX 31 96 28 97 30 98 29 99
REMARK H PARENT 91 27 59 38
REMARK Flexibility Score: inf
ROOT
ATOM      1  O   UNL A   1      34.306  34.431  30.819  1.00  0.00    -0.377 OA
ENDROOT
BRANCH   1   2
ATOM      2  C   UNL A   1      34.672  33.189  31.415  1.00  0.00     0.188 C 
BRANCH   2   3
ATOM      3  C   UNL A   1      35.822  33.277  32.417  1.00  0.00     0.188 C 
BRANCH   3   4
ATOM      4  O   UNL A   1      35.982  32.037  33.107  1.00  0.00    -0.376 OA
BRANCH   4   5
ATOM      5  C   UNL A   1      37.131  31.267  32.760  1.00  0.00     0.202 C 
BRANCH   5   6
ATOM      6  C   UNL A   1      38.296  32.077  32.187  1.00  0.00     0.261 C 
BRANCH   6   7
ATOM      7  O   UNL A   1      38.621  31.704  30.840  1.00  0.00    -0.460 OA
BRANCH   7   8
ATOM      8  C   UNL A   1      38.864  30.455  30.369  1.00  0.00     0.338 C 
ATOM      9  O   UNL A   1      37.949  29.859  29.800  1.00  0.00    -0.246 OA
BRANCH   8  10
ATOM     10  C   UNL A   1      40.181  29.756  30.491  1.00  0.00     0.060 A 
ATOM     11  C   UNL A   1      40.377  28.381  30.363  1.00  0.00     0.016 A 
ATOM     12  C   UNL A   1      41.318  30.565  30.662  1.00  0.00     0.016 A 
ATOM     13  C   UNL A   1      41.634  27.807  30.459  1.00  0.00     0.010 A 
ATOM     14  C   UNL A   1      42.596  30.001  30.727  1.00  0.00     0.010 A 
ATOM     15  C   UNL A   1      42.750  28.614  30.642  1.00  0.00    -0.014 A 
BRANCH  15  16
ATOM     16  C   UNL A   1      44.037  27.945  30.891  1.00  0.00     0.031 A 
ATOM     17  C   UNL A   1      44.345  27.534  32.295  1.00  0.00     0.074 A 
ATOM     18  C   UNL A   1      44.805  27.567  29.856  1.00  0.00     0.049 A 
ATOM     19  N   UNL A   1      45.429  26.999  32.783  1.00  0.00    -0.248 NA
ATOM     20  C   UNL A   1      43.272  27.740  33.284  1.00  0.00     0.031 C 
ATOM     21  C   UNL A   1      44.470  27.764  28.441  1.00  0.00     0.029 A 
ATOM     22  N   UNL A   1      45.997  26.897  29.824  1.00  0.00    -0.354 N 
ATOM     23  C   UNL A   1      45.180  26.828  34.140  1.00  0.00     0.074 A 
ATOM     24  C   UNL A   1      43.848  27.325  34.400  1.00  0.00     0.031 C 
ATOM     25  C   UNL A   1      45.417  27.192  27.683  1.00  0.00     0.029 A 
ATOM     26  C   UNL A   1      46.466  26.670  28.552  1.00  0.00     0.049 A 
ATOM     27  H   UNL A   1      46.473  26.604  30.634  1.00  0.00     0.167 HD
ATOM     28  C   UNL A   1      46.007  26.309  35.077  1.00  0.00     0.034 A 
ATOM     29  C   UNL A   1      47.635  26.139  28.146  1.00  0.00     0.034 A 
ATOM     30  C   UNL A   1      47.334  25.848  34.763  1.00  0.00     0.049 A 
ATOM     31  C   UNL A   1      48.609  25.716  29.212  1.00  0.00     0.074 A 
ATOM     32  C   UNL A   1      48.332  25.421  35.616  1.00  0.00     0.029 A 
ATOM     33  N   UNL A   1      47.845  25.758  33.470  1.00  0.00    -0.354 N 
ATOM     34  N   UNL A   1      48.447  25.716  30.517  1.00  0.00    -0.248 NA
ATOM     35  C   UNL A   1      49.926  25.255  28.764  1.00  0.00     0.031 C 
ATOM     36  C   UNL A   1      49.463  25.129  34.844  1.00  0.00     0.029 A 
ATOM     37  C   UNL A   1      49.148  25.300  33.503  1.00  0.00     0.049 A 
ATOM     38  H   UNL A   1      47.349  25.989  32.652  1.00  0.00     0.167 HD
ATOM     39  C   UNL A   1      49.638  25.240  31.050  1.00  0.00     0.074 A 
ATOM     40  C   UNL A   1      50.510  24.963  29.921  1.00  0.00     0.031 C 
ATOM     41  C   UNL A   1      49.982  25.045  32.349  1.00  0.00     0.034 A 
BRANCH  28  42
ATOM     42  C   UNL A   1      45.519  26.340  36.502  1.00  0.00     0.023 A 
ATOM     43  C   UNL A   1      45.696  27.467  37.325  1.00  0.00     0.031 A 
ATOM     44  C   UNL A   1      44.974  25.180  37.081  1.00  0.00     0.131 A 
ATOM     45  C   UNL A   1      45.408  27.383  38.697  1.00  0.00     0.055 A 
ATOM     46  C   UNL A   1      44.616  25.129  38.429  1.00  0.00     0.041 A 
ATOM     47  F   UNL A   1      44.816  24.063  36.354  1.00  0.00    -0.206 F 
ATOM     48  C   UNL A   1      44.848  26.229  39.250  1.00  0.00     0.022 A 
BRANCH  45  49
ATOM     49  S   UNL A   1      45.913  28.749  39.779  1.00  0.00     0.124 S 
ATOM     50  O   UNL A   1      44.868  29.735  39.514  1.00  0.00    -0.237 OA
ATOM     51  O   UNL A   1      45.889  28.135  41.101  1.00  0.00    -0.237 OA
ATOM     52  O   UNL A   1      47.240  29.108  39.282  1.00  0.00    -0.744 OA
ENDBRANCH  45  49
ENDBRANCH  28  42
BRANCH  29  53
ATOM     53  C   UNL A   1      47.952  26.056  26.693  1.00  0.00     0.023 A 
ATOM     54  C   UNL A   1      48.870  26.931  26.093  1.00  0.00     0.031 A 
ATOM     55  C   UNL A   1      47.369  25.057  25.888  1.00  0.00     0.131 A 
ATOM     56  C   UNL A   1      49.182  26.788  24.730  1.00  0.00     0.055 A 
ATOM     57  C   UNL A   1      47.707  24.898  24.544  1.00  0.00     0.041 A 
ATOM     58  F   UNL A   1      46.488  24.191  26.415  1.00  0.00    -0.206 F 
ATOM     59  C   UNL A   1      48.619  25.769  23.957  1.00  0.00     0.022 A 
BRANCH  56  60
ATOM     60  S   UNL A   1      50.347  27.953  23.969  1.00  0.00     0.124 S 
ATOM     61  O   UNL A   1      51.516  27.107  23.755  1.00  0.00    -0.237 OA
ATOM     62  O   UNL A   1      49.627  28.368  22.771  1.00  0.00    -0.237 OA
ATOM     63  O   UNL A   1      50.505  28.990  24.987  1.00  0.00    -0.744 OA
ENDBRANCH  56  60
ENDBRANCH  29  53
BRANCH  41  64
ATOM     64  C   UNL A   1      51.342  24.464  32.613  1.00  0.00     0.023 A 
ATOM     65  C   UNL A   1      51.536  23.081  32.752  1.00  0.00     0.031 A 
ATOM     66  C   UNL A   1      52.464  25.309  32.659  1.00  0.00     0.131 A 
ATOM     67  C   UNL A   1      52.829  22.582  32.958  1.00  0.00     0.055 A 
ATOM     68  C   UNL A   1      53.753  24.803  32.814  1.00  0.00     0.041 A 
ATOM     69  F   UNL A   1      52.323  26.638  32.526  1.00  0.00    -0.206 F 
ATOM     70  C   UNL A   1      53.940  23.432  32.969  1.00  0.00     0.022 A 
BRANCH  67  71
ATOM     71  S   UNL A   1      53.041  20.805  33.243  1.00  0.00     0.124 S 
ATOM     72  O   UNL A   1      53.518  20.348  31.942  1.00  0.00    -0.237 OA
ATOM     73  O   UNL A   1      54.018  20.773  34.327  1.00  0.00    -0.237 OA
ATOM     74  O   UNL A   1      51.699  20.354  33.607  1.00  0.00    -0.744 OA
ENDBRANCH  67  71
ENDBRANCH  41  64
ENDBRANCH  15  16
ENDBRANCH   8  10
ENDBRANCH   7   8
ENDBRANCH   6   7
ENDBRANCH   5   6
ENDBRANCH   4   5
ENDBRANCH   3   4
ENDBRANCH   2   3
ENDBRANCH   1   2
BRANCH   1  75
ATOM     75  C   UNL A   1      34.618  34.582  29.439  1.00  0.00     0.188 C 
BRANCH  75  76
ATOM     76  C   UNL A   1      33.891  33.686  28.408  1.00  0.00     0.188 C 
BRANCH  76  77
ATOM     77  O   UNL A   1      34.760  32.885  27.624  1.00  0.00    -0.376 OA
BRANCH  77  78
ATOM     78  C   UNL A   1      35.376  31.805  28.318  1.00  0.00     0.202 C 
BRANCH  78  79
ATOM     79  C   UNL A   1      34.807  30.408  28.016  1.00  0.00     0.261 C 
BRANCH  79  80
ATOM     80  O   UNL A   1      34.343  30.197  26.667  1.00  0.00    -0.460 OA
BRANCH  80  81
ATOM     81  C   UNL A   1      33.023  29.964  26.478  1.00  0.00     0.338 C 
ATOM     82  O   UNL A   1      32.089  30.523  26.999  1.00  0.00    -0.246 OA
BRANCH  81  83
ATOM     83  C   UNL A   1      32.905  29.028  25.334  1.00  0.00     0.063 A 
ATOM     84  C   UNL A   1      34.016  28.655  24.572  1.00  0.00     0.017 A 
ATOM     85  C   UNL A   1      31.623  28.621  24.951  1.00  0.00     0.056 A 
ATOM     86  C   UNL A   1      33.841  27.790  23.484  1.00  0.00     0.024 A 
ATOM     87  C   UNL A   1      31.453  27.894  23.780  1.00  0.00     0.142 A 
ATOM     88  C   UNL A   1      32.550  27.383  23.111  1.00  0.00     0.103 A 
ATOM     89  F   UNL A   1      30.208  27.728  23.315  1.00  0.00    -0.206 F 
BRANCH  88  90
ATOM     90  S   UNL A   1      32.386  26.136  21.869  1.00  0.00     0.188 S 
ATOM     91  O   UNL A   1      31.050  26.337  21.327  1.00  0.00    -0.223 OA
ATOM     92  O   UNL A   1      33.525  26.289  20.979  1.00  0.00    -0.223 OA
BRANCH  90  93
ATOM     93  C   UNL A   1      32.408  24.509  22.526  1.00  0.00     0.219 C 
BRANCH  93  94
ATOM     94  C   UNL A   1      33.618  24.174  23.343  1.00  0.00     0.143 A 
ATOM     95  N   UNL A   1      34.660  23.673  22.641  1.00  0.00    -0.240 NA
ATOM     96  N   UNL A   1      33.548  24.117  24.684  1.00  0.00    -0.240 NA
ATOM     97  C   UNL A   1      35.633  23.056  23.341  1.00  0.00     0.115 A 
ATOM     98  C   UNL A   1      34.527  23.457  25.335  1.00  0.00     0.115 A 
ATOM     99  C   UNL A   1      35.603  22.891  24.703  1.00  0.00     0.040 A 
ENDBRANCH  93  94
ENDBRANCH  90  93
ENDBRANCH  88  90
ENDBRANCH  81  83
ENDBRANCH  80  81
ENDBRANCH  79  80
ENDBRANCH  78  79
ENDBRANCH  77  78
ENDBRANCH  76  77
ENDBRANCH  75  76
ENDBRANCH   1  75
TORSDOF 26
ENDMDL
