MODEL 1
REMARK VINA RESULT:     -10.3      0.000      0.000
REMARK SMILES Cc1ccccc1-c1nc(CC(=O)OCCOCCOCCOCCOC(=O)c2ccc(-c3c4nc(c(-c5cc(S(=O)(=O)[O-])ccc5F)c5ccc([nH]5)c(-c5cc(S(=O)(=O)[O-])ccc5F)c5nc(c(-c6cc(S(=O)(=O)[O-])ccc6F)c6ccc3[nH]6)C=C5)C=C4)cc2)cs1
REMARK SMILES IDX 21 1 20 2 19 3 18 4 17 5 16 6 15 7 14 8 12 9 13 10 11 11
REMARK SMILES IDX 10 12 8 13 9 14 93 15 92 16 7 17 1 18 2 19 3 20 4 21 6 22
REMARK SMILES IDX 5 23 22 24 23 25 24 26 25 27 26 28 27 29 28 30 29 31 30 32
REMARK SMILES IDX 91 33 31 34 90 35 32 36 33 37 34 38 84 39 35 40 89 41 83 42
REMARK SMILES IDX 85 43 36 44 88 45 82 46 81 47 37 49 69 50 49 51 68 52 50 53
REMARK SMILES IDX 53 54 67 55 86 56 51 57 52 58 66 60 87 61 54 62 38 63 39 64
REMARK SMILES IDX 47 65 40 66 46 67 48 68 45 69 41 70 42 71 43 72 44 73 70 74
REMARK SMILES IDX 71 75 79 76 72 77 78 78 80 79 77 80 73 81 74 82 75 83 76 84
REMARK SMILES IDX 55 85 56 86 64 87 57 88 63 89 65 90 62 91 58 92 59 93 60 94
REMARK SMILES IDX 61 95
REMARK H PARENT 85 48 53 59
REMARK Flexibility Score: inf
ROOT
ATOM      1  C   UNL A   1      37.844  21.556  24.976  1.00  0.00     0.188 C 
ENDROOT
BRANCH   1   2
ATOM      2  O   UNL A   1      36.442  21.737  24.871  1.00  0.00    -0.377 OA
BRANCH   2   3
ATOM      3  C   UNL A   1      35.557  22.460  25.724  1.00  0.00     0.188 C 
BRANCH   3   4
ATOM      4  C   UNL A   1      34.974  24.025  25.729  1.00  0.00     0.188 C 
BRANCH   4   5
ATOM      5  O   UNL A   1      34.687  25.355  24.536  1.00  0.00    -0.376 OA
BRANCH   5   6
ATOM      6  C   UNL A   1      33.920  26.946  24.562  1.00  0.00     0.202 C 
BRANCH   6   7
ATOM      7  C   UNL A   1      33.311  28.010  23.129  1.00  0.00     0.261 C 
BRANCH   7   8
ATOM      8  O   UNL A   1      31.715  28.852  22.946  1.00  0.00    -0.463 OA
BRANCH   8   9
ATOM      9  C   UNL A   1      30.264  28.696  22.556  1.00  0.00     0.311 C 
ATOM     10  O   UNL A   1      29.642  29.258  21.639  1.00  0.00    -0.252 OA
BRANCH   9  11
ATOM     11  C   UNL A   1      29.390  27.556  23.227  1.00  0.00     0.179 C 
BRANCH  11  12
ATOM     12  C   UNL A   1      30.161  26.536  24.159  1.00  0.00     0.063 A 
ATOM     13  C   UNL A   1      31.097  24.493  24.554  1.00  0.00     0.123 A 
ATOM     14  N   UNL A   1      30.701  25.340  23.608  1.00  0.00    -0.240 NA
ATOM     15  S   UNL A   1      31.134  25.187  26.132  1.00  0.00    -0.122 S 
ATOM     16  C   UNL A   1      30.400  26.626  25.521  1.00  0.00     0.091 A 
BRANCH  13  17
ATOM     17  C   UNL A   1      31.667  23.127  24.367  1.00  0.00     0.013 A 
ATOM     18  C   UNL A   1      32.757  23.819  22.170  1.00  0.00     0.045 C 
ATOM     19  C   UNL A   1      32.476  22.819  23.253  1.00  0.00    -0.041 A 
ATOM     20  C   UNL A   1      33.042  21.530  23.114  1.00  0.00     0.004 A 
ATOM     21  C   UNL A   1      32.827  20.542  24.071  1.00  0.00     0.000 A 
ATOM     22  C   UNL A   1      31.462  22.108  25.322  1.00  0.00     0.011 A 
ATOM     23  C   UNL A   1      32.035  20.830  25.176  1.00  0.00     0.001 A 
ENDBRANCH  13  17
ENDBRANCH  11  12
ENDBRANCH   9  11
ENDBRANCH   8   9
ENDBRANCH   7   8
ENDBRANCH   6   7
ENDBRANCH   5   6
ENDBRANCH   4   5
ENDBRANCH   3   4
ENDBRANCH   2   3
ENDBRANCH   1   2
BRANCH   1  24
ATOM     24  C   UNL A   1      38.593  22.317  26.026  1.00  0.00     0.188 C 
BRANCH  24  25
ATOM     25  O   UNL A   1      39.559  21.427  26.558  1.00  0.00    -0.376 OA
BRANCH  25  26
ATOM     26  C   UNL A   1      40.698  22.074  27.072  1.00  0.00     0.202 C 
BRANCH  26  27
ATOM     27  C   UNL A   1      41.811  22.071  26.028  1.00  0.00     0.261 C 
BRANCH  27  28
ATOM     28  O   UNL A   1      42.938  22.828  26.533  1.00  0.00    -0.460 OA
BRANCH  28  29
ATOM     29  C   UNL A   1      42.801  24.199  26.478  1.00  0.00     0.338 C 
ATOM     30  O   UNL A   1      42.175  24.788  25.631  1.00  0.00    -0.246 OA
BRANCH  29  31
ATOM     31  C   UNL A   1      43.645  24.824  27.544  1.00  0.00     0.060 A 
ATOM     32  C   UNL A   1      43.592  24.500  28.897  1.00  0.00     0.016 A 
ATOM     33  C   UNL A   1      44.410  25.901  27.235  1.00  0.00     0.016 A 
ATOM     34  C   UNL A   1      43.896  25.488  29.912  1.00  0.00     0.010 A 
ATOM     35  C   UNL A   1      44.749  26.780  28.273  1.00  0.00     0.010 A 
ATOM     36  C   UNL A   1      44.169  26.829  29.620  1.00  0.00    -0.014 A 
BRANCH  36  37
ATOM     37  C   UNL A   1      43.694  28.296  30.689  1.00  0.00     0.031 A 
ATOM     38  C   UNL A   1      41.804  28.908  30.987  1.00  0.00     0.074 A 
ATOM     39  C   UNL A   1      44.912  28.954  31.092  1.00  0.00     0.049 A 
ATOM     40  N   UNL A   1      41.319  30.146  30.676  1.00  0.00    -0.248 NA
ATOM     41  C   UNL A   1      40.294  28.226  30.942  1.00  0.00     0.031 C 
ATOM     42  C   UNL A   1      45.252  30.047  32.006  1.00  0.00     0.029 A 
ATOM     43  N   UNL A   1      46.230  28.836  30.565  1.00  0.00    -0.354 N 
ATOM     44  C   UNL A   1      39.987  30.422  30.663  1.00  0.00     0.074 A 
ATOM     45  C   UNL A   1      39.380  29.156  30.653  1.00  0.00     0.031 C 
ATOM     46  C   UNL A   1      46.469  30.571  31.967  1.00  0.00     0.029 A 
ATOM     47  C   UNL A   1      46.993  30.009  30.817  1.00  0.00     0.049 A 
ATOM     48  H   UNL A   1      46.568  28.045  30.086  1.00  0.00     0.167 HD
ATOM     49  C   UNL A   1      39.510  31.701  30.684  1.00  0.00     0.034 A 
ATOM     50  C   UNL A   1      47.538  30.809  29.881  1.00  0.00     0.034 A 
ATOM     51  C   UNL A   1      40.570  32.699  30.917  1.00  0.00     0.049 A 
ATOM     52  C   UNL A   1      46.649  32.060  29.546  1.00  0.00     0.074 A 
ATOM     53  C   UNL A   1      41.066  33.301  32.061  1.00  0.00     0.029 A 
ATOM     54  N   UNL A   1      41.483  33.022  29.923  1.00  0.00    -0.354 N 
ATOM     55  N   UNL A   1      45.445  32.373  30.020  1.00  0.00    -0.248 NA
ATOM     56  C   UNL A   1      47.129  33.087  28.627  1.00  0.00     0.031 C 
ATOM     57  C   UNL A   1      42.350  33.869  31.757  1.00  0.00     0.029 A 
ATOM     58  C   UNL A   1      42.635  33.650  30.416  1.00  0.00     0.049 A 
ATOM     59  H   UNL A   1      41.337  32.829  28.969  1.00  0.00     0.167 HD
ATOM     60  C   UNL A   1      44.952  33.521  29.393  1.00  0.00     0.074 A 
ATOM     61  C   UNL A   1      46.080  33.925  28.550  1.00  0.00     0.031 C 
ATOM     62  C   UNL A   1      43.696  34.111  29.493  1.00  0.00     0.034 A 
BRANCH  49  63
ATOM     63  C   UNL A   1      38.023  31.932  30.887  1.00  0.00     0.023 A 
ATOM     64  C   UNL A   1      37.204  32.142  29.768  1.00  0.00     0.031 A 
ATOM     65  C   UNL A   1      37.383  32.060  32.142  1.00  0.00     0.131 A 
ATOM     66  C   UNL A   1      35.887  32.618  29.911  1.00  0.00     0.055 A 
ATOM     67  C   UNL A   1      36.097  32.605  32.286  1.00  0.00     0.041 A 
ATOM     68  F   UNL A   1      37.976  31.649  33.275  1.00  0.00    -0.206 F 
ATOM     69  C   UNL A   1      35.348  32.911  31.160  1.00  0.00     0.022 A 
BRANCH  66  70
ATOM     70  S   UNL A   1      34.885  32.840  28.419  1.00  0.00     0.124 S 
ATOM     71  O   UNL A   1      34.396  31.488  28.170  1.00  0.00    -0.237 OA
ATOM     72  O   UNL A   1      33.893  33.815  28.861  1.00  0.00    -0.237 OA
ATOM     73  O   UNL A   1      35.844  33.341  27.435  1.00  0.00    -0.744 OA
ENDBRANCH  66  70
ENDBRANCH  49  63
BRANCH  50  74
ATOM     74  C   UNL A   1      48.429  29.888  29.112  1.00  0.00     0.023 A 
ATOM     75  C   UNL A   1      49.453  29.230  29.892  1.00  0.00     0.031 A 
ATOM     76  C   UNL A   1      47.931  29.219  27.998  1.00  0.00     0.131 A 
ATOM     77  C   UNL A   1      49.705  27.862  29.705  1.00  0.00     0.055 A 
ATOM     78  C   UNL A   1      48.287  27.886  27.753  1.00  0.00     0.041 A 
ATOM     79  F   UNL A   1      46.952  29.767  27.265  1.00  0.00    -0.206 F 
ATOM     80  C   UNL A   1      49.131  27.190  28.630  1.00  0.00     0.022 A 
BRANCH  77  81
ATOM     81  S   UNL A   1      50.487  26.894  31.048  1.00  0.00     0.124 S 
ATOM     82  O   UNL A   1      50.382  25.520  30.567  1.00  0.00    -0.237 OA
ATOM     83  O   UNL A   1      51.834  27.460  31.074  1.00  0.00    -0.237 OA
ATOM     84  O   UNL A   1      49.672  27.212  32.215  1.00  0.00    -0.744 OA
ENDBRANCH  77  81
ENDBRANCH  50  74
BRANCH  62  85
ATOM     85  C   UNL A   1      43.313  35.330  28.652  1.00  0.00     0.023 A 
ATOM     86  C   UNL A   1      43.174  36.610  29.204  1.00  0.00     0.031 A 
ATOM     87  C   UNL A   1      42.996  35.213  27.275  1.00  0.00     0.131 A 
ATOM     88  C   UNL A   1      42.850  37.708  28.386  1.00  0.00     0.055 A 
ATOM     89  C   UNL A   1      42.525  36.279  26.504  1.00  0.00     0.041 A 
ATOM     90  F   UNL A   1      43.194  34.073  26.599  1.00  0.00    -0.206 F 
ATOM     91  C   UNL A   1      42.475  37.547  27.054  1.00  0.00     0.022 A 
BRANCH  88  92
ATOM     92  S   UNL A   1      43.112  39.374  29.047  1.00  0.00     0.124 S 
ATOM     93  O   UNL A   1      41.814  40.006  28.842  1.00  0.00    -0.237 OA
ATOM     94  O   UNL A   1      43.466  39.081  30.434  1.00  0.00    -0.237 OA
ATOM     95  O   UNL A   1      44.202  39.903  28.230  1.00  0.00    -0.744 OA
ENDBRANCH  88  92
ENDBRANCH  62  85
ENDBRANCH  36  37
ENDBRANCH  29  31
ENDBRANCH  28  29
ENDBRANCH  27  28
ENDBRANCH  26  27
ENDBRANCH  25  26
ENDBRANCH  24  25
ENDBRANCH   1  24
TORSDOF 25
ENDMDL
MODEL 2
REMARK VINA RESULT:     -10.0      2.740      3.289
REMARK SMILES Cc1ccccc1-c1nc(CC(=O)OCCOCCOCCOCCOC(=O)c2ccc(-c3c4nc(c(-c5cc(S(=O)(=O)[O-])ccc5F)c5ccc([nH]5)c(-c5cc(S(=O)(=O)[O-])ccc5F)c5nc(c(-c6cc(S(=O)(=O)[O-])ccc6F)c6ccc3[nH]6)C=C5)C=C4)cc2)cs1
REMARK SMILES IDX 21 1 20 2 19 3 18 4 17 5 16 6 15 7 14 8 12 9 13 10 11 11
REMARK SMILES IDX 10 12 8 13 9 14 93 15 92 16 7 17 1 18 2 19 3 20 4 21 6 22
REMARK SMILES IDX 5 23 22 24 23 25 24 26 25 27 26 28 27 29 28 30 29 31 30 32
REMARK SMILES IDX 91 33 31 34 90 35 32 36 33 37 34 38 84 39 35 40 89 41 83 42
REMARK SMILES IDX 85 43 36 44 88 45 82 46 81 47 37 49 69 50 49 51 68 52 50 53
REMARK SMILES IDX 53 54 67 55 86 56 51 57 52 58 66 60 87 61 54 62 38 63 39 64
REMARK SMILES IDX 47 65 40 66 46 67 48 68 45 69 41 70 42 71 43 72 44 73 70 74
REMARK SMILES IDX 71 75 79 76 72 77 78 78 80 79 77 80 73 81 74 82 75 83 76 84
REMARK SMILES IDX 55 85 56 86 64 87 57 88 63 89 65 90 62 91 58 92 59 93 60 94
REMARK SMILES IDX 61 95
REMARK H PARENT 85 48 53 59
REMARK Flexibility Score: inf
ROOT
ATOM      1  C   UNL A   1      37.784  21.308  25.013  1.00  0.00     0.188 C 
ENDROOT
BRANCH   1   2
ATOM      2  O   UNL A   1      36.381  21.486  24.925  1.00  0.00    -0.377 OA
BRANCH   2   3
ATOM      3  C   UNL A   1      35.465  21.955  25.913  1.00  0.00     0.188 C 
BRANCH   3   4
ATOM      4  C   UNL A   1      34.882  23.463  26.330  1.00  0.00     0.188 C 
BRANCH   4   5
ATOM      5  O   UNL A   1      34.548  25.045  25.518  1.00  0.00    -0.376 OA
BRANCH   5   6
ATOM      6  C   UNL A   1      33.755  26.561  25.958  1.00  0.00     0.202 C 
BRANCH   6   7
ATOM      7  C   UNL A   1      33.257  28.018  24.869  1.00  0.00     0.261 C 
BRANCH   7   8
ATOM      8  O   UNL A   1      31.617  28.763  24.658  1.00  0.00    -0.463 OA
BRANCH   8   9
ATOM      9  C   UNL A   1      30.446  28.948  23.722  1.00  0.00     0.311 C 
ATOM     10  O   UNL A   1      29.676  29.918  23.625  1.00  0.00    -0.252 OA
BRANCH   9  11
ATOM     11  C   UNL A   1      30.205  27.905  22.552  1.00  0.00     0.179 C 
BRANCH  11  12
ATOM     12  C   UNL A   1      31.225  26.698  22.464  1.00  0.00     0.063 A 
ATOM     13  C   UNL A   1      31.964  24.644  23.129  1.00  0.00     0.123 A 
ATOM     14  N   UNL A   1      30.912  25.458  23.089  1.00  0.00    -0.240 NA
ATOM     15  S   UNL A   1      33.287  25.178  22.161  1.00  0.00    -0.122 S 
ATOM     16  C   UNL A   1      32.462  26.661  21.841  1.00  0.00     0.091 A 
BRANCH  13  17
ATOM     17  C   UNL A   1      32.036  23.287  23.742  1.00  0.00     0.013 A 
ATOM     18  C   UNL A   1      30.961  24.136  25.891  1.00  0.00     0.045 C 
ATOM     19  C   UNL A   1      31.535  23.042  25.038  1.00  0.00    -0.041 A 
ATOM     20  C   UNL A   1      31.576  21.739  25.588  1.00  0.00     0.004 A 
ATOM     21  C   UNL A   1      32.096  20.669  24.866  1.00  0.00     0.000 A 
ATOM     22  C   UNL A   1      32.560  22.186  23.031  1.00  0.00     0.011 A 
ATOM     23  C   UNL A   1      32.590  20.892  23.586  1.00  0.00     0.001 A 
ENDBRANCH  13  17
ENDBRANCH  11  12
ENDBRANCH   9  11
ENDBRANCH   8   9
ENDBRANCH   7   8
ENDBRANCH   6   7
ENDBRANCH   5   6
ENDBRANCH   4   5
ENDBRANCH   3   4
ENDBRANCH   2   3
ENDBRANCH   1   2
BRANCH   1  24
ATOM     24  C   UNL A   1      38.568  22.194  25.930  1.00  0.00     0.188 C 
BRANCH  24  25
ATOM     25  O   UNL A   1      39.457  21.352  26.643  1.00  0.00    -0.376 OA
BRANCH  25  26
ATOM     26  C   UNL A   1      40.680  21.969  26.966  1.00  0.00     0.202 C 
BRANCH  26  27
ATOM     27  C   UNL A   1      41.774  21.478  26.022  1.00  0.00     0.261 C 
BRANCH  27  28
ATOM     28  O   UNL A   1      43.066  21.873  26.545  1.00  0.00    -0.460 OA
BRANCH  28  29
ATOM     29  C   UNL A   1      43.287  23.233  26.606  1.00  0.00     0.338 C 
ATOM     30  O   UNL A   1      43.092  23.997  25.692  1.00  0.00    -0.246 OA
BRANCH  29  31
ATOM     31  C   UNL A   1      43.916  23.575  27.920  1.00  0.00     0.060 A 
ATOM     32  C   UNL A   1      43.260  23.556  29.148  1.00  0.00     0.016 A 
ATOM     33  C   UNL A   1      45.165  24.102  27.938  1.00  0.00     0.016 A 
ATOM     34  C   UNL A   1      43.652  24.453  30.216  1.00  0.00     0.010 A 
ATOM     35  C   UNL A   1      45.524  24.893  29.038  1.00  0.00     0.010 A 
ATOM     36  C   UNL A   1      44.632  25.441  30.066  1.00  0.00    -0.014 A 
BRANCH  36  37
ATOM     37  C   UNL A   1      44.618  27.124  30.897  1.00  0.00     0.031 A 
ATOM     38  C   UNL A   1      42.950  28.071  31.493  1.00  0.00     0.074 A 
ATOM     39  C   UNL A   1      45.965  27.637  30.864  1.00  0.00     0.049 A 
ATOM     40  N   UNL A   1      42.545  29.300  31.059  1.00  0.00    -0.248 NA
ATOM     41  C   UNL A   1      41.412  27.642  31.939  1.00  0.00     0.031 C 
ATOM     42  C   UNL A   1      46.651  28.800  31.433  1.00  0.00     0.029 A 
ATOM     43  N   UNL A   1      47.080  27.222  30.081  1.00  0.00    -0.354 N 
ATOM     44  C   UNL A   1      41.294  29.780  31.299  1.00  0.00     0.074 A 
ATOM     45  C   UNL A   1      40.566  28.644  31.687  1.00  0.00     0.031 C 
ATOM     46  C   UNL A   1      47.867  29.108  31.008  1.00  0.00     0.029 A 
ATOM     47  C   UNL A   1      48.010  28.284  29.906  1.00  0.00     0.049 A 
ATOM     48  H   UNL A   1      47.192  26.318  29.708  1.00  0.00     0.167 HD
ATOM     49  C   UNL A   1      40.987  31.104  31.170  1.00  0.00     0.034 A 
ATOM     50  C   UNL A   1      48.382  28.818  28.727  1.00  0.00     0.034 A 
ATOM     51  C   UNL A   1      42.177  31.944  30.943  1.00  0.00     0.049 A 
ATOM     52  C   UNL A   1      47.584  30.120  28.361  1.00  0.00     0.074 A 
ATOM     53  C   UNL A   1      43.016  32.643  31.795  1.00  0.00     0.029 A 
ATOM     54  N   UNL A   1      42.834  31.945  29.721  1.00  0.00    -0.354 N 
ATOM     55  N   UNL A   1      46.587  30.696  29.027  1.00  0.00    -0.248 NA
ATOM     56  C   UNL A   1      47.924  30.887  27.167  1.00  0.00     0.031 C 
ATOM     57  C   UNL A   1      44.234  32.939  31.093  1.00  0.00     0.029 A 
ATOM     58  C   UNL A   1      44.137  32.454  29.795  1.00  0.00     0.049 A 
ATOM     59  H   UNL A   1      42.426  31.619  28.886  1.00  0.00     0.167 HD
ATOM     60  C   UNL A   1      46.082  31.787  28.312  1.00  0.00     0.074 A 
ATOM     61  C   UNL A   1      46.993  31.856  27.166  1.00  0.00     0.031 C 
ATOM     62  C   UNL A   1      44.969  32.578  28.578  1.00  0.00     0.034 A 
BRANCH  49  63
ATOM     63  C   UNL A   1      39.639  31.600  31.661  1.00  0.00     0.023 A 
ATOM     64  C   UNL A   1      39.507  32.021  32.993  1.00  0.00     0.031 A 
ATOM     65  C   UNL A   1      38.442  31.583  30.909  1.00  0.00     0.131 A 
ATOM     66  C   UNL A   1      38.240  32.236  33.565  1.00  0.00     0.055 A 
ATOM     67  C   UNL A   1      37.173  31.724  31.495  1.00  0.00     0.041 A 
ATOM     68  F   UNL A   1      38.457  31.442  29.573  1.00  0.00    -0.206 F 
ATOM     69  C   UNL A   1      37.068  32.030  32.843  1.00  0.00     0.022 A 
BRANCH  66  70
ATOM     70  S   UNL A   1      38.155  32.803  35.283  1.00  0.00     0.124 S 
ATOM     71  O   UNL A   1      39.543  33.155  35.562  1.00  0.00    -0.237 OA
ATOM     72  O   UNL A   1      37.212  33.913  35.191  1.00  0.00    -0.237 OA
ATOM     73  O   UNL A   1      37.658  31.632  36.004  1.00  0.00    -0.744 OA
ENDBRANCH  66  70
ENDBRANCH  49  63
BRANCH  50  74
ATOM     74  C   UNL A   1      48.935  27.649  27.976  1.00  0.00     0.023 A 
ATOM     75  C   UNL A   1      48.274  27.354  26.725  1.00  0.00     0.031 A 
ATOM     76  C   UNL A   1      50.287  27.337  28.085  1.00  0.00     0.131 A 
ATOM     77  C   UNL A   1      49.035  27.053  25.585  1.00  0.00     0.055 A 
ATOM     78  C   UNL A   1      51.011  26.919  26.961  1.00  0.00     0.041 A 
ATOM     79  F   UNL A   1      50.956  27.629  29.209  1.00  0.00    -0.206 F 
ATOM     80  C   UNL A   1      50.402  26.824  25.702  1.00  0.00     0.022 A 
BRANCH  77  81
ATOM     81  S   UNL A   1      48.311  27.303  23.921  1.00  0.00     0.124 S 
ATOM     82  O   UNL A   1      49.408  27.909  23.174  1.00  0.00    -0.237 OA
ATOM     83  O   UNL A   1      47.959  25.936  23.544  1.00  0.00    -0.237 OA
ATOM     84  O   UNL A   1      47.170  28.176  24.176  1.00  0.00    -0.744 OA
ENDBRANCH  77  81
ENDBRANCH  50  74
BRANCH  62  85
ATOM     85  C   UNL A   1      44.522  33.683  27.619  1.00  0.00     0.023 A 
ATOM     86  C   UNL A   1      44.592  35.041  27.955  1.00  0.00     0.031 A 
ATOM     87  C   UNL A   1      43.935  33.385  26.363  1.00  0.00     0.131 A 
ATOM     88  C   UNL A   1      44.198  36.025  27.029  1.00  0.00     0.055 A 
ATOM     89  C   UNL A   1      43.404  34.361  25.515  1.00  0.00     0.041 A 
ATOM     90  F   UNL A   1      43.910  32.138  25.874  1.00  0.00    -0.206 F 
ATOM     91  C   UNL A   1      43.559  35.697  25.834  1.00  0.00     0.022 A 
BRANCH  88  92
ATOM     92  S   UNL A   1      44.710  37.737  27.329  1.00  0.00     0.124 S 
ATOM     93  O   UNL A   1      45.904  37.862  26.503  1.00  0.00    -0.237 OA
ATOM     94  O   UNL A   1      43.535  38.472  26.865  1.00  0.00    -0.237 OA
ATOM     95  O   UNL A   1      44.937  37.783  28.771  1.00  0.00    -0.744 OA
ENDBRANCH  88  92
ENDBRANCH  62  85
ENDBRANCH  36  37
ENDBRANCH  29  31
ENDBRANCH  28  29
ENDBRANCH  27  28
ENDBRANCH  26  27
ENDBRANCH  25  26
ENDBRANCH  24  25
ENDBRANCH   1  24
TORSDOF 25
ENDMDL
MODEL 3
REMARK VINA RESULT:      -9.7      4.835      9.689
REMARK SMILES Cc1ccccc1-c1nc(CC(=O)OCCOCCOCCOCCOC(=O)c2ccc(-c3c4nc(c(-c5cc(S(=O)(=O)[O-])ccc5F)c5ccc([nH]5)c(-c5cc(S(=O)(=O)[O-])ccc5F)c5nc(c(-c6cc(S(=O)(=O)[O-])ccc6F)c6ccc3[nH]6)C=C5)C=C4)cc2)cs1
REMARK SMILES IDX 21 1 20 2 19 3 18 4 17 5 16 6 15 7 14 8 12 9 13 10 11 11
REMARK SMILES IDX 10 12 8 13 9 14 93 15 92 16 7 17 1 18 2 19 3 20 4 21 6 22
REMARK SMILES IDX 5 23 22 24 23 25 24 26 25 27 26 28 27 29 28 30 29 31 30 32
REMARK SMILES IDX 91 33 31 34 90 35 32 36 33 37 34 38 84 39 35 40 89 41 83 42
REMARK SMILES IDX 85 43 36 44 88 45 82 46 81 47 37 49 69 50 49 51 68 52 50 53
REMARK SMILES IDX 53 54 67 55 86 56 51 57 52 58 66 60 87 61 54 62 38 63 39 64
REMARK SMILES IDX 47 65 40 66 46 67 48 68 45 69 41 70 42 71 43 72 44 73 70 74
REMARK SMILES IDX 71 75 79 76 72 77 78 78 80 79 77 80 73 81 74 82 75 83 76 84
REMARK SMILES IDX 55 85 56 86 64 87 57 88 63 89 65 90 62 91 58 92 59 93 60 94
REMARK SMILES IDX 61 95
REMARK H PARENT 85 48 53 59
REMARK Flexibility Score: inf
ROOT
ATOM      1  C   UNL A   1      43.046  22.068  26.330  1.00  0.00     0.188 C 
ENDROOT
BRANCH   1   2
ATOM      2  O   UNL A   1      41.789  21.583  26.767  1.00  0.00    -0.377 OA
BRANCH   2   3
ATOM      3  C   UNL A   1      40.482  22.097  26.512  1.00  0.00     0.188 C 
BRANCH   3   4
ATOM      4  C   UNL A   1      39.646  23.445  27.032  1.00  0.00     0.188 C 
BRANCH   4   5
ATOM      5  O   UNL A   1      38.089  24.286  26.659  1.00  0.00    -0.376 OA
BRANCH   5   6
ATOM      6  C   UNL A   1      36.724  24.018  25.569  1.00  0.00     0.202 C 
BRANCH   6   7
ATOM      7  C   UNL A   1      36.395  22.588  24.385  1.00  0.00     0.261 C 
BRANCH   7   8
ATOM      8  O   UNL A   1      35.022  22.380  23.218  1.00  0.00    -0.463 OA
BRANCH   8   9
ATOM      9  C   UNL A   1      33.770  23.003  22.647  1.00  0.00     0.311 C 
ATOM     10  O   UNL A   1      33.652  23.729  21.646  1.00  0.00    -0.252 OA
BRANCH   9  11
ATOM     11  C   UNL A   1      32.353  22.584  23.221  1.00  0.00     0.179 C 
BRANCH  11  12
ATOM     12  C   UNL A   1      31.665  23.608  24.213  1.00  0.00     0.063 A 
ATOM     13  C   UNL A   1      31.441  25.699  25.099  1.00  0.00     0.123 A 
ATOM     14  N   UNL A   1      31.886  25.006  24.055  1.00  0.00    -0.240 NA
ATOM     15  S   UNL A   1      30.467  24.772  26.179  1.00  0.00    -0.122 S 
ATOM     16  C   UNL A   1      30.834  23.339  25.288  1.00  0.00     0.091 A 
BRANCH  13  17
ATOM     17  C   UNL A   1      31.536  27.171  25.317  1.00  0.00     0.013 A 
ATOM     18  C   UNL A   1      30.381  27.634  23.092  1.00  0.00     0.045 C 
ATOM     19  C   UNL A   1      31.007  28.084  24.380  1.00  0.00    -0.041 A 
ATOM     20  C   UNL A   1      31.071  29.477  24.623  1.00  0.00     0.004 A 
ATOM     21  C   UNL A   1      31.639  29.979  25.790  1.00  0.00     0.000 A 
ATOM     22  C   UNL A   1      32.108  27.705  26.491  1.00  0.00     0.011 A 
ATOM     23  C   UNL A   1      32.160  29.093  26.725  1.00  0.00     0.001 A 
ENDBRANCH  13  17
ENDBRANCH  11  12
ENDBRANCH   9  11
ENDBRANCH   8   9
ENDBRANCH   7   8
ENDBRANCH   6   7
ENDBRANCH   5   6
ENDBRANCH   4   5
ENDBRANCH   3   4
ENDBRANCH   2   3
ENDBRANCH   1   2
BRANCH   1  24
ATOM     24  C   UNL A   1      43.088  23.295  25.474  1.00  0.00     0.188 C 
BRANCH  24  25
ATOM     25  O   UNL A   1      43.720  24.304  26.243  1.00  0.00    -0.376 OA
BRANCH  25  26
ATOM     26  C   UNL A   1      42.826  25.256  26.767  1.00  0.00     0.202 C 
BRANCH  26  27
ATOM     27  C   UNL A   1      42.910  25.262  28.291  1.00  0.00     0.261 C 
BRANCH  27  28
ATOM     28  O   UNL A   1      43.594  26.464  28.724  1.00  0.00    -0.460 OA
BRANCH  28  29
ATOM     29  C   UNL A   1      43.326  26.861  30.018  1.00  0.00     0.338 C 
ATOM     30  O   UNL A   1      43.788  26.336  31.001  1.00  0.00    -0.246 OA
BRANCH  29  31
ATOM     31  C   UNL A   1      42.291  27.942  30.000  1.00  0.00     0.060 A 
ATOM     32  C   UNL A   1      42.173  28.919  29.016  1.00  0.00     0.016 A 
ATOM     33  C   UNL A   1      41.498  28.115  31.086  1.00  0.00     0.016 A 
ATOM     34  C   UNL A   1      41.650  30.233  29.328  1.00  0.00     0.010 A 
ATOM     35  C   UNL A   1      40.945  29.386  31.295  1.00  0.00     0.010 A 
ATOM     36  C   UNL A   1      41.319  30.637  30.627  1.00  0.00    -0.014 A 
BRANCH  36  37
ATOM     37  C   UNL A   1      41.519  32.373  31.312  1.00  0.00     0.031 A 
ATOM     38  C   UNL A   1      43.201  33.057  32.173  1.00  0.00     0.074 A 
ATOM     39  C   UNL A   1      40.232  33.018  31.247  1.00  0.00     0.049 A 
ATOM     40  N   UNL A   1      43.295  33.529  33.450  1.00  0.00    -0.248 NA
ATOM     41  C   UNL A   1      44.819  32.705  32.106  1.00  0.00     0.031 C 
ATOM     42  C   UNL A   1      39.733  34.374  31.490  1.00  0.00     0.029 A 
ATOM     43  N   UNL A   1      38.937  32.454  31.064  1.00  0.00    -0.354 N 
ATOM     44  C   UNL A   1      44.493  33.740  34.061  1.00  0.00     0.074 A 
ATOM     45  C   UNL A   1      45.408  33.041  33.256  1.00  0.00     0.031 C 
ATOM     46  C   UNL A   1      38.426  34.580  31.566  1.00  0.00     0.029 A 
ATOM     47  C   UNL A   1      37.928  33.291  31.615  1.00  0.00     0.049 A 
ATOM     48  H   UNL A   1      38.764  31.595  30.616  1.00  0.00     0.167 HD
ATOM     49  C   UNL A   1      44.611  34.508  35.183  1.00  0.00     0.034 A 
ATOM     50  C   UNL A   1      37.075  32.951  32.600  1.00  0.00     0.034 A 
ATOM     51  C   UNL A   1      43.363  35.214  35.522  1.00  0.00     0.049 A 
ATOM     52  C   UNL A   1      37.549  33.430  34.019  1.00  0.00     0.074 A 
ATOM     53  C   UNL A   1      42.875  36.472  35.210  1.00  0.00     0.029 A 
ATOM     54  N   UNL A   1      42.278  34.538  36.060  1.00  0.00    -0.354 N 
ATOM     55  N   UNL A   1      38.677  34.056  34.349  1.00  0.00    -0.248 NA
ATOM     56  C   UNL A   1      36.701  33.236  35.190  1.00  0.00     0.031 C 
ATOM     57  C   UNL A   1      41.458  36.483  35.448  1.00  0.00     0.029 A 
ATOM     58  C   UNL A   1      41.073  35.243  35.940  1.00  0.00     0.049 A 
ATOM     59  H   UNL A   1      42.347  33.651  36.483  1.00  0.00     0.167 HD
ATOM     60  C   UNL A   1      38.763  34.218  35.735  1.00  0.00     0.074 A 
ATOM     61  C   UNL A   1      37.470  33.699  36.190  1.00  0.00     0.031 C 
ATOM     62  C   UNL A   1      39.819  34.696  36.504  1.00  0.00     0.034 A 
BRANCH  49  63
ATOM     63  C   UNL A   1      45.997  34.878  35.682  1.00  0.00     0.023 A 
ATOM     64  C   UNL A   1      46.507  36.154  35.402  1.00  0.00     0.031 A 
ATOM     65  C   UNL A   1      46.889  33.997  36.335  1.00  0.00     0.131 A 
ATOM     66  C   UNL A   1      47.867  36.454  35.606  1.00  0.00     0.055 A 
ATOM     67  C   UNL A   1      48.260  34.267  36.472  1.00  0.00     0.041 A 
ATOM     68  F   UNL A   1      46.462  32.845  36.879  1.00  0.00    -0.206 F 
ATOM     69  C   UNL A   1      48.762  35.499  36.081  1.00  0.00     0.022 A 
BRANCH  66  70
ATOM     70  S   UNL A   1      48.443  38.132  35.243  1.00  0.00     0.124 S 
ATOM     71  O   UNL A   1      49.842  37.910  34.896  1.00  0.00    -0.237 OA
ATOM     72  O   UNL A   1      47.561  38.527  34.151  1.00  0.00    -0.237 OA
ATOM     73  O   UNL A   1      48.224  38.847  36.500  1.00  0.00    -0.744 OA
ENDBRANCH  66  70
ENDBRANCH  49  63
BRANCH  50  74
ATOM     74  C   UNL A   1      36.371  31.752  32.051  1.00  0.00     0.023 A 
ATOM     75  C   UNL A   1      35.670  31.968  30.806  1.00  0.00     0.031 A 
ATOM     76  C   UNL A   1      36.880  30.481  32.298  1.00  0.00     0.131 A 
ATOM     77  C   UNL A   1      35.771  31.023  29.773  1.00  0.00     0.055 A 
ATOM     78  C   UNL A   1      36.865  29.503  31.294  1.00  0.00     0.041 A 
ATOM     79  F   UNL A   1      37.574  30.239  33.419  1.00  0.00    -0.206 F 
ATOM     80  C   UNL A   1      36.359  29.785  30.018  1.00  0.00     0.022 A 
BRANCH  77  81
ATOM     81  S   UNL A   1      35.457  31.535  28.043  1.00  0.00     0.124 S 
ATOM     82  O   UNL A   1      34.003  31.638  27.990  1.00  0.00    -0.237 OA
ATOM     83  O   UNL A   1      36.191  32.796  27.971  1.00  0.00    -0.237 OA
ATOM     84  O   UNL A   1      36.037  30.449  27.258  1.00  0.00    -0.744 OA
ENDBRANCH  77  81
ENDBRANCH  50  74
BRANCH  62  85
ATOM     85  C   UNL A   1      39.754  34.717  38.032  1.00  0.00     0.023 A 
ATOM     86  C   UNL A   1      40.030  33.587  38.812  1.00  0.00     0.031 A 
ATOM     87  C   UNL A   1      39.328  35.869  38.742  1.00  0.00     0.131 A 
ATOM     88  C   UNL A   1      39.987  33.662  40.216  1.00  0.00     0.055 A 
ATOM     89  C   UNL A   1      39.138  35.890  40.126  1.00  0.00     0.041 A 
ATOM     90  F   UNL A   1      39.141  37.047  38.129  1.00  0.00    -0.206 F 
ATOM     91  C   UNL A   1      39.495  34.786  40.878  1.00  0.00     0.022 A 
BRANCH  88  92
ATOM     92  S   UNL A   1      40.765  32.333  41.169  1.00  0.00     0.124 S 
ATOM     93  O   UNL A   1      41.736  31.791  40.226  1.00  0.00    -0.237 OA
ATOM     94  O   UNL A   1      41.321  33.076  42.298  1.00  0.00    -0.237 OA
ATOM     95  O   UNL A   1      39.652  31.447  41.502  1.00  0.00    -0.744 OA
ENDBRANCH  88  92
ENDBRANCH  62  85
ENDBRANCH  36  37
ENDBRANCH  29  31
ENDBRANCH  28  29
ENDBRANCH  27  28
ENDBRANCH  26  27
ENDBRANCH  25  26
ENDBRANCH  24  25
ENDBRANCH   1  24
TORSDOF 25
ENDMDL
