MODEL 1
REMARK VINA RESULT:      -9.2      0.000      0.000
REMARK SMILES COc1ccc(-n2c(SCc3cn(-c4ccc(C(=O)OCCOCCOCCOCCOC(=O)c5ccc(-c6c7nc(c(-c8cc(S(=O)(=O)[O-])ccc8F)c8ccc([nH]8)c(-c8cc(S(=O)(=O)[O-])ccc8F)c8nc(c(-c9cc(S(=O)(=O)[O-])ccc9F)c9ccc6[nH]9)C=C8)C=C7)cc5)cc4)nn3)nc3ccccc3c2=O)cc1
REMARK SMILES IDX 24 1 23 2 22 3 21 4 20 5 18 6 19 7 17 8 14 9 15 10 99 11
REMARK SMILES IDX 16 12 98 13 13 14 11 15 12 16 101 17 100 18 10 19 9 20 8 21
REMARK SMILES IDX 7 22 109 23 102 24 108 25 110 26 103 27 107 28 104 29 106 30
REMARK SMILES IDX 105 31 6 32 3 33 4 34 112 35 5 36 111 37 2 38 1 39 25 40
REMARK SMILES IDX 26 41 27 42 28 43 29 44 30 45 31 46 32 47 33 48 34 49 35 50
REMARK SMILES IDX 36 51 97 52 37 53 96 54 38 55 39 56 40 57 90 58 41 59 95 60
REMARK SMILES IDX 89 61 91 62 42 63 94 64 88 65 87 66 43 68 75 69 55 70 74 71
REMARK SMILES IDX 56 72 59 73 73 74 92 75 57 76 58 77 72 79 93 80 60 81 44 82
REMARK SMILES IDX 45 83 53 84 46 85 52 86 54 87 51 88 47 89 48 90 49 91 50 92
REMARK SMILES IDX 76 93 77 94 85 95 78 96 84 97 86 98 83 99 79 100 80 101
REMARK SMILES IDX 81 102 82 103 61 104 62 105 70 106 63 107 69 108 71 109
REMARK SMILES IDX 68 110 64 111 65 112 66 113 67 114
REMARK H PARENT 91 67 59 78
REMARK Flexibility Score: inf
ROOT
ATOM      1  C   UNL A   1      42.153  29.400  29.046  1.00  0.00     0.188 C 
ENDROOT
BRANCH   1   2
ATOM      2  O   UNL A   1      42.161  29.950  30.357  1.00  0.00    -0.376 OA
BRANCH   2   3
ATOM      3  C   UNL A   1      41.248  29.546  31.364  1.00  0.00     0.202 C 
BRANCH   3   4
ATOM      4  C   UNL A   1      39.746  29.330  31.111  1.00  0.00     0.261 C 
BRANCH   4   5
ATOM      5  O   UNL A   1      38.900  30.462  31.288  1.00  0.00    -0.460 OA
BRANCH   5   6
ATOM      6  C   UNL A   1      38.836  31.317  30.244  1.00  0.00     0.338 C 
ATOM      7  O   UNL A   1      39.660  32.145  29.909  1.00  0.00    -0.246 OA
BRANCH   6   8
ATOM      8  C   UNL A   1      37.671  30.915  29.423  1.00  0.00     0.060 A 
ATOM      9  C   UNL A   1      35.489  30.407  27.811  1.00  0.00     0.066 A 
ATOM     10  C   UNL A   1      35.372  31.358  28.826  1.00  0.00     0.029 A 
ATOM     11  C   UNL A   1      36.682  29.710  27.581  1.00  0.00     0.029 A 
ATOM     12  C   UNL A   1      36.469  31.604  29.639  1.00  0.00     0.018 A 
ATOM     13  C   UNL A   1      37.786  29.978  28.386  1.00  0.00     0.018 A 
BRANCH   9  14
ATOM     14  N   UNL A   1      34.306  29.856  27.324  1.00  0.00    -0.220 N 
ATOM     15  C   UNL A   1      32.906  28.395  26.561  1.00  0.00     0.093 A 
ATOM     16  C   UNL A   1      34.225  28.570  26.881  1.00  0.00     0.141 A 
ATOM     17  N   UNL A   1      32.226  29.546  26.883  1.00  0.00    -0.134 NA
ATOM     18  N   UNL A   1      33.093  30.418  27.392  1.00  0.00    -0.062 NA
BRANCH  15  19
ATOM     19  C   UNL A   1      32.220  27.247  25.945  1.00  0.00     0.138 C 
BRANCH  19  20
ATOM     20  S   UNL A   1      32.971  25.653  26.222  1.00  0.00    -0.081 SA
BRANCH  20  21
ATOM     21  C   UNL A   1      32.347  24.518  25.004  1.00  0.00     0.176 A 
ATOM     22  N   UNL A   1      33.159  24.286  23.900  1.00  0.00    -0.255 N 
ATOM     23  C   UNL A   1      32.707  24.735  22.665  1.00  0.00     0.266 A 
ATOM     24  N   UNL A   1      31.055  24.564  24.883  1.00  0.00    -0.223 NA
ATOM     25  C   UNL A   1      31.556  25.665  22.772  1.00  0.00     0.066 A 
ATOM     26  O   UNL A   1      33.178  24.469  21.566  1.00  0.00    -0.268 OA
ATOM     27  C   UNL A   1      30.692  25.458  23.857  1.00  0.00     0.079 A 
ATOM     28  C   UNL A   1      31.475  26.825  22.007  1.00  0.00     0.016 A 
ATOM     29  C   UNL A   1      29.672  26.370  24.114  1.00  0.00     0.029 A 
ATOM     30  C   UNL A   1      30.515  27.784  22.340  1.00  0.00     0.001 A 
ATOM     31  C   UNL A   1      29.600  27.547  23.371  1.00  0.00     0.002 A 
BRANCH  22  32
ATOM     32  C   UNL A   1      34.160  23.285  23.981  1.00  0.00     0.052 A 
ATOM     33  C   UNL A   1      36.322  21.797  24.903  1.00  0.00     0.119 A 
ATOM     34  C   UNL A   1      35.029  21.343  25.144  1.00  0.00     0.048 A 
ATOM     35  C   UNL A   1      36.535  22.870  24.040  1.00  0.00     0.048 A 
ATOM     36  C   UNL A   1      33.938  22.101  24.702  1.00  0.00     0.030 A 
ATOM     37  C   UNL A   1      35.449  23.603  23.558  1.00  0.00     0.030 A 
BRANCH  33  38
ATOM     38  O   UNL A   1      37.364  21.156  25.514  1.00  0.00    -0.497 OA
ATOM     39  C   UNL A   1      37.781  19.996  24.775  1.00  0.00     0.278 C 
ENDBRANCH  33  38
ENDBRANCH  22  32
ENDBRANCH  20  21
ENDBRANCH  19  20
ENDBRANCH  15  19
ENDBRANCH   9  14
ENDBRANCH   6   8
ENDBRANCH   5   6
ENDBRANCH   4   5
ENDBRANCH   3   4
ENDBRANCH   2   3
ENDBRANCH   1   2
BRANCH   1  40
ATOM     40  C   UNL A   1      42.864  28.073  28.706  1.00  0.00     0.188 C 
BRANCH  40  41
ATOM     41  O   UNL A   1      43.877  27.717  29.632  1.00  0.00    -0.377 OA
BRANCH  41  42
ATOM     42  C   UNL A   1      45.199  27.691  29.098  1.00  0.00     0.188 C 
BRANCH  42  43
ATOM     43  C   UNL A   1      45.549  28.681  27.955  1.00  0.00     0.188 C 
BRANCH  43  44
ATOM     44  O   UNL A   1      45.662  30.042  28.363  1.00  0.00    -0.376 OA
BRANCH  44  45
ATOM     45  C   UNL A   1      46.087  31.054  27.465  1.00  0.00     0.202 C 
BRANCH  45  46
ATOM     46  C   UNL A   1      44.988  31.713  26.638  1.00  0.00     0.261 C 
BRANCH  46  47
ATOM     47  O   UNL A   1      45.429  32.879  25.974  1.00  0.00    -0.460 OA
BRANCH  47  48
ATOM     48  C   UNL A   1      44.495  33.484  25.211  1.00  0.00     0.338 C 
ATOM     49  O   UNL A   1      43.973  33.050  24.203  1.00  0.00    -0.246 OA
BRANCH  48  50
ATOM     50  C   UNL A   1      44.281  34.826  25.759  1.00  0.00     0.060 A 
ATOM     51  C   UNL A   1      45.435  35.439  26.237  1.00  0.00     0.016 A 
ATOM     52  C   UNL A   1      42.991  35.155  26.210  1.00  0.00     0.016 A 
ATOM     53  C   UNL A   1      45.329  36.078  27.440  1.00  0.00     0.010 A 
ATOM     54  C   UNL A   1      42.893  35.767  27.425  1.00  0.00     0.010 A 
ATOM     55  C   UNL A   1      44.079  36.101  28.067  1.00  0.00    -0.014 A 
BRANCH  55  56
ATOM     56  C   UNL A   1      44.031  36.557  29.428  1.00  0.00     0.031 A 
ATOM     57  C   UNL A   1      44.418  37.969  29.530  1.00  0.00     0.074 A 
ATOM     58  C   UNL A   1      43.610  35.780  30.439  1.00  0.00     0.049 A 
ATOM     59  N   UNL A   1      45.548  38.439  29.931  1.00  0.00    -0.248 NA
ATOM     60  C   UNL A   1      43.559  38.949  28.845  1.00  0.00     0.031 C 
ATOM     61  C   UNL A   1      42.960  34.470  30.379  1.00  0.00     0.029 A 
ATOM     62  N   UNL A   1      43.593  36.074  31.759  1.00  0.00    -0.354 N 
ATOM     63  C   UNL A   1      45.423  39.814  29.799  1.00  0.00     0.074 A 
ATOM     64  C   UNL A   1      44.343  40.023  28.879  1.00  0.00     0.031 C 
ATOM     65  C   UNL A   1      42.406  34.202  31.586  1.00  0.00     0.029 A 
ATOM     66  C   UNL A   1      42.771  35.257  32.520  1.00  0.00     0.049 A 
ATOM     67  H   UNL A   1      44.121  36.808  32.149  1.00  0.00     0.167 HD
ATOM     68  C   UNL A   1      45.992  40.646  30.710  1.00  0.00     0.034 A 
ATOM     69  C   UNL A   1      42.353  35.509  33.789  1.00  0.00     0.034 A 
ATOM     70  C   UNL A   1      47.032  39.957  31.454  1.00  0.00     0.049 A 
ATOM     71  C   UNL A   1      43.317  36.486  34.371  1.00  0.00     0.074 A 
ATOM     72  C   UNL A   1      48.190  39.290  31.095  1.00  0.00     0.029 A 
ATOM     73  N   UNL A   1      46.747  39.533  32.736  1.00  0.00    -0.354 N 
ATOM     74  N   UNL A   1      44.573  36.202  34.591  1.00  0.00    -0.248 NA
ATOM     75  C   UNL A   1      43.029  37.908  34.230  1.00  0.00     0.031 C 
ATOM     76  C   UNL A   1      48.256  38.162  31.966  1.00  0.00     0.029 A 
ATOM     77  C   UNL A   1      47.184  38.235  32.858  1.00  0.00     0.049 A 
ATOM     78  H   UNL A   1      46.310  40.066  33.438  1.00  0.00     0.167 HD
ATOM     79  C   UNL A   1      45.279  37.329  34.190  1.00  0.00     0.074 A 
ATOM     80  C   UNL A   1      44.271  38.381  34.075  1.00  0.00     0.031 C 
ATOM     81  C   UNL A   1      46.554  37.233  33.703  1.00  0.00     0.034 A 
BRANCH  68  82
ATOM     82  C   UNL A   1      45.324  41.911  31.207  1.00  0.00     0.023 A 
ATOM     83  C   UNL A   1      44.658  41.813  32.438  1.00  0.00     0.031 A 
ATOM     84  C   UNL A   1      45.053  43.082  30.459  1.00  0.00     0.131 A 
ATOM     85  C   UNL A   1      43.676  42.748  32.803  1.00  0.00     0.055 A 
ATOM     86  C   UNL A   1      44.122  44.044  30.858  1.00  0.00     0.041 A 
ATOM     87  F   UNL A   1      45.596  43.345  29.266  1.00  0.00    -0.206 F 
ATOM     88  C   UNL A   1      43.395  43.860  32.016  1.00  0.00     0.022 A 
BRANCH  85  89
ATOM     89  S   UNL A   1      42.638  42.364  34.230  1.00  0.00     0.124 S 
ATOM     90  O   UNL A   1      42.082  43.676  34.544  1.00  0.00    -0.237 OA
ATOM     91  O   UNL A   1      41.711  41.389  33.667  1.00  0.00    -0.237 OA
ATOM     92  O   UNL A   1      43.588  41.836  35.204  1.00  0.00    -0.744 OA
ENDBRANCH  85  89
ENDBRANCH  68  82
BRANCH  69  93
ATOM     93  C   UNL A   1      40.990  35.252  34.333  1.00  0.00     0.023 A 
ATOM     94  C   UNL A   1      39.867  35.014  33.513  1.00  0.00     0.031 A 
ATOM     95  C   UNL A   1      40.820  35.013  35.718  1.00  0.00     0.131 A 
ATOM     96  C   UNL A   1      38.649  34.570  34.083  1.00  0.00     0.055 A 
ATOM     97  C   UNL A   1      39.615  34.585  36.276  1.00  0.00     0.041 A 
ATOM     98  F   UNL A   1      41.850  35.109  36.574  1.00  0.00    -0.206 F 
ATOM     99  C   UNL A   1      38.523  34.352  35.457  1.00  0.00     0.022 A 
BRANCH  96 100
ATOM    100  S   UNL A   1      37.217  34.182  33.024  1.00  0.00     0.124 S 
ATOM    101  O   UNL A   1      36.213  35.127  33.501  1.00  0.00    -0.237 OA
ATOM    102  O   UNL A   1      37.745  34.417  31.685  1.00  0.00    -0.237 OA
ATOM    103  O   UNL A   1      36.933  32.780  33.331  1.00  0.00    -0.744 OA
ENDBRANCH  96 100
ENDBRANCH  69  93
BRANCH  81 104
ATOM    104  C   UNL A   1      47.288  35.914  33.870  1.00  0.00     0.023 A 
ATOM    105  C   UNL A   1      47.198  34.822  32.976  1.00  0.00     0.031 A 
ATOM    106  C   UNL A   1      48.214  35.816  34.923  1.00  0.00     0.131 A 
ATOM    107  C   UNL A   1      48.008  33.683  33.166  1.00  0.00     0.055 A 
ATOM    108  C   UNL A   1      49.027  34.696  35.097  1.00  0.00     0.041 A 
ATOM    109  F   UNL A   1      48.370  36.831  35.789  1.00  0.00    -0.206 F 
ATOM    110  C   UNL A   1      48.924  33.622  34.221  1.00  0.00     0.022 A 
BRANCH 107 111
ATOM    111  S   UNL A   1      47.879  32.250  32.046  1.00  0.00     0.124 S 
ATOM    112  O   UNL A   1      47.423  32.838  30.792  1.00  0.00    -0.237 OA
ATOM    113  O   UNL A   1      49.242  31.724  32.047  1.00  0.00    -0.237 OA
ATOM    114  O   UNL A   1      46.898  31.388  32.706  1.00  0.00    -0.744 OA
ENDBRANCH 107 111
ENDBRANCH  81 104
ENDBRANCH  55  56
ENDBRANCH  48  50
ENDBRANCH  47  48
ENDBRANCH  46  47
ENDBRANCH  45  46
ENDBRANCH  44  45
ENDBRANCH  43  44
ENDBRANCH  42  43
ENDBRANCH  41  42
ENDBRANCH  40  41
ENDBRANCH   1  40
TORSDOF 29
ENDMDL
MODEL 2
REMARK VINA RESULT:      -9.1      5.609     10.994
REMARK SMILES COc1ccc(-n2c(SCc3cn(-c4ccc(C(=O)OCCOCCOCCOCCOC(=O)c5ccc(-c6c7nc(c(-c8cc(S(=O)(=O)[O-])ccc8F)c8ccc([nH]8)c(-c8cc(S(=O)(=O)[O-])ccc8F)c8nc(c(-c9cc(S(=O)(=O)[O-])ccc9F)c9ccc6[nH]9)C=C8)C=C7)cc5)cc4)nn3)nc3ccccc3c2=O)cc1
REMARK SMILES IDX 24 1 23 2 22 3 21 4 20 5 18 6 19 7 17 8 14 9 15 10 99 11
REMARK SMILES IDX 16 12 98 13 13 14 11 15 12 16 101 17 100 18 10 19 9 20 8 21
REMARK SMILES IDX 7 22 109 23 102 24 108 25 110 26 103 27 107 28 104 29 106 30
REMARK SMILES IDX 105 31 6 32 3 33 4 34 112 35 5 36 111 37 2 38 1 39 25 40
REMARK SMILES IDX 26 41 27 42 28 43 29 44 30 45 31 46 32 47 33 48 34 49 35 50
REMARK SMILES IDX 36 51 97 52 37 53 96 54 38 55 39 56 40 57 90 58 41 59 95 60
REMARK SMILES IDX 89 61 91 62 42 63 94 64 88 65 87 66 43 68 75 69 55 70 74 71
REMARK SMILES IDX 56 72 59 73 73 74 92 75 57 76 58 77 72 79 93 80 60 81 44 82
REMARK SMILES IDX 45 83 53 84 46 85 52 86 54 87 51 88 47 89 48 90 49 91 50 92
REMARK SMILES IDX 76 93 77 94 85 95 78 96 84 97 86 98 83 99 79 100 80 101
REMARK SMILES IDX 81 102 82 103 61 104 62 105 70 106 63 107 69 108 71 109
REMARK SMILES IDX 68 110 64 111 65 112 66 113 67 114
REMARK H PARENT 91 67 59 78
REMARK Flexibility Score: inf
ROOT
ATOM      1  C   UNL A   1      40.461  21.098  27.046  1.00  0.00     0.188 C 
ENDROOT
BRANCH   1   2
ATOM      2  O   UNL A   1      39.354  21.748  26.434  1.00  0.00    -0.376 OA
BRANCH   2   3
ATOM      3  C   UNL A   1      39.147  23.148  26.514  1.00  0.00     0.202 C 
BRANCH   3   4
ATOM      4  C   UNL A   1      39.783  24.041  27.593  1.00  0.00     0.261 C 
BRANCH   4   5
ATOM      5  O   UNL A   1      39.197  25.325  27.785  1.00  0.00    -0.460 OA
BRANCH   5   6
ATOM      6  C   UNL A   1      39.951  26.379  27.404  1.00  0.00     0.338 C 
ATOM      7  O   UNL A   1      40.637  26.481  26.406  1.00  0.00    -0.246 OA
BRANCH   6   8
ATOM      8  C   UNL A   1      39.620  27.502  28.311  1.00  0.00     0.060 A 
ATOM      9  C   UNL A   1      38.797  29.636  29.856  1.00  0.00     0.066 A 
ATOM     10  C   UNL A   1      39.069  29.846  28.503  1.00  0.00     0.029 A 
ATOM     11  C   UNL A   1      38.921  28.373  30.450  1.00  0.00     0.029 A 
ATOM     12  C   UNL A   1      39.491  28.773  27.732  1.00  0.00     0.018 A 
ATOM     13  C   UNL A   1      39.321  27.295  29.665  1.00  0.00     0.018 A 
BRANCH   9  14
ATOM     14  N   UNL A   1      38.825  30.754  30.686  1.00  0.00    -0.220 N 
ATOM     15  C   UNL A   1      39.498  32.153  32.191  1.00  0.00     0.093 A 
ATOM     16  C   UNL A   1      39.766  30.922  31.656  1.00  0.00     0.141 A 
ATOM     17  N   UNL A   1      38.458  32.714  31.487  1.00  0.00    -0.134 NA
ATOM     18  N   UNL A   1      38.085  31.860  30.537  1.00  0.00    -0.062 NA
BRANCH  15  19
ATOM     19  C   UNL A   1      40.112  32.849  33.334  1.00  0.00     0.138 C 
BRANCH  19  20
ATOM     20  S   UNL A   1      40.189  31.925  34.857  1.00  0.00    -0.081 SA
BRANCH  20  21
ATOM     21  C   UNL A   1      40.894  32.967  36.113  1.00  0.00     0.176 A 
ATOM     22  N   UNL A   1      40.186  34.119  36.431  1.00  0.00    -0.255 N 
ATOM     23  C   UNL A   1      40.767  35.339  36.109  1.00  0.00     0.266 A 
ATOM     24  N   UNL A   1      42.193  32.965  36.104  1.00  0.00    -0.223 NA
ATOM     25  C   UNL A   1      41.928  35.206  35.195  1.00  0.00     0.066 A 
ATOM     26  O   UNL A   1      40.396  36.451  36.468  1.00  0.00    -0.268 OA
ATOM     27  C   UNL A   1      42.677  34.027  35.317  1.00  0.00     0.079 A 
ATOM     28  C   UNL A   1      42.114  36.062  34.113  1.00  0.00     0.016 A 
ATOM     29  C   UNL A   1      43.693  33.756  34.404  1.00  0.00     0.029 A 
ATOM     30  C   UNL A   1      43.065  35.726  33.146  1.00  0.00     0.001 A 
ATOM     31  C   UNL A   1      43.870  34.593  33.304  1.00  0.00     0.002 A 
BRANCH  22  32
ATOM     32  C   UNL A   1      39.154  34.046  37.401  1.00  0.00     0.052 A 
ATOM     33  C   UNL A   1      37.435  33.033  39.340  1.00  0.00     0.119 A 
ATOM     34  C   UNL A   1      38.546  33.773  39.733  1.00  0.00     0.048 A 
ATOM     35  C   UNL A   1      37.077  32.974  37.994  1.00  0.00     0.048 A 
ATOM     36  C   UNL A   1      39.426  34.264  38.761  1.00  0.00     0.030 A 
ATOM     37  C   UNL A   1      37.928  33.502  37.022  1.00  0.00     0.030 A 
BRANCH  33  38
ATOM     38  O   UNL A   1      36.703  32.393  40.301  1.00  0.00    -0.497 OA
ATOM     39  C   UNL A   1      35.930  31.314  39.752  1.00  0.00     0.278 C 
ENDBRANCH  33  38
ENDBRANCH  22  32
ENDBRANCH  20  21
ENDBRANCH  19  20
ENDBRANCH  15  19
ENDBRANCH   9  14
ENDBRANCH   6   8
ENDBRANCH   5   6
ENDBRANCH   4   5
ENDBRANCH   3   4
ENDBRANCH   2   3
ENDBRANCH   1   2
BRANCH   1  40
ATOM     40  C   UNL A   1      41.735  20.725  26.258  1.00  0.00     0.188 C 
BRANCH  40  41
ATOM     41  O   UNL A   1      41.667  19.451  25.639  1.00  0.00    -0.377 OA
BRANCH  41  42
ATOM     42  C   UNL A   1      42.778  18.595  25.899  1.00  0.00     0.188 C 
BRANCH  42  43
ATOM     43  C   UNL A   1      44.017  18.698  24.971  1.00  0.00     0.188 C 
BRANCH  43  44
ATOM     44  O   UNL A   1      44.900  19.775  25.277  1.00  0.00    -0.376 OA
BRANCH  44  45
ATOM     45  C   UNL A   1      45.021  20.902  24.424  1.00  0.00     0.202 C 
BRANCH  45  46
ATOM     46  C   UNL A   1      46.323  21.685  24.540  1.00  0.00     0.261 C 
BRANCH  46  47
ATOM     47  O   UNL A   1      46.215  22.799  25.401  1.00  0.00    -0.460 OA
BRANCH  47  48
ATOM     48  C   UNL A   1      46.420  23.995  24.811  1.00  0.00     0.338 C 
ATOM     49  O   UNL A   1      47.316  24.295  24.046  1.00  0.00    -0.246 OA
BRANCH  48  50
ATOM     50  C   UNL A   1      45.414  24.923  25.334  1.00  0.00     0.060 A 
ATOM     51  C   UNL A   1      45.683  26.263  25.073  1.00  0.00     0.016 A 
ATOM     52  C   UNL A   1      44.617  24.493  26.408  1.00  0.00     0.016 A 
ATOM     53  C   UNL A   1      45.493  27.134  26.109  1.00  0.00     0.010 A 
ATOM     54  C   UNL A   1      44.457  25.357  27.452  1.00  0.00     0.010 A 
ATOM     55  C   UNL A   1      45.014  26.624  27.319  1.00  0.00    -0.014 A 
BRANCH  55  56
ATOM     56  C   UNL A   1      45.050  27.492  28.462  1.00  0.00     0.031 A 
ATOM     57  C   UNL A   1      44.623  28.852  28.111  1.00  0.00     0.074 A 
ATOM     58  C   UNL A   1      45.367  27.059  29.693  1.00  0.00     0.049 A 
ATOM     59  N   UNL A   1      45.378  29.880  27.923  1.00  0.00    -0.248 NA
ATOM     60  C   UNL A   1      43.239  29.018  27.639  1.00  0.00     0.031 C 
ATOM     61  C   UNL A   1      45.535  25.684  30.167  1.00  0.00     0.029 A 
ATOM     62  N   UNL A   1      45.506  27.794  30.820  1.00  0.00    -0.354 N 
ATOM     63  C   UNL A   1      44.504  30.897  27.574  1.00  0.00     0.074 A 
ATOM     64  C   UNL A   1      43.301  30.249  27.137  1.00  0.00     0.031 C 
ATOM     65  C   UNL A   1      45.517  25.683  31.521  1.00  0.00     0.029 A 
ATOM     66  C   UNL A   1      45.462  27.058  31.995  1.00  0.00     0.049 A 
ATOM     67  H   UNL A   1      45.628  28.771  30.809  1.00  0.00     0.167 HD
ATOM     68  C   UNL A   1      44.729  32.170  27.992  1.00  0.00     0.034 A 
ATOM     69  C   UNL A   1      45.288  27.565  33.245  1.00  0.00     0.034 A 
ATOM     70  C   UNL A   1      46.116  32.342  28.385  1.00  0.00     0.049 A 
ATOM     71  C   UNL A   1      45.676  29.003  33.182  1.00  0.00     0.074 A 
ATOM     72  C   UNL A   1      47.327  32.165  27.740  1.00  0.00     0.029 A 
ATOM     73  N   UNL A   1      46.417  32.360  29.731  1.00  0.00    -0.354 N 
ATOM     74  N   UNL A   1      46.897  29.401  32.938  1.00  0.00    -0.248 NA
ATOM     75  C   UNL A   1      44.643  29.985  32.879  1.00  0.00     0.031 C 
ATOM     76  C   UNL A   1      48.195  31.604  28.723  1.00  0.00     0.029 A 
ATOM     77  C   UNL A   1      47.500  31.536  29.933  1.00  0.00     0.049 A 
ATOM     78  H   UNL A   1      45.942  32.871  30.425  1.00  0.00     0.167 HD
ATOM     79  C   UNL A   1      46.763  30.475  32.067  1.00  0.00     0.074 A 
ATOM     80  C   UNL A   1      45.354  30.852  32.150  1.00  0.00     0.031 C 
ATOM     81  C   UNL A   1      47.731  30.766  31.144  1.00  0.00     0.034 A 
BRANCH  68  82
ATOM     82  C   UNL A   1      43.623  33.102  28.444  1.00  0.00     0.023 A 
ATOM     83  C   UNL A   1      43.590  34.363  27.829  1.00  0.00     0.031 A 
ATOM     84  C   UNL A   1      42.809  32.963  29.595  1.00  0.00     0.131 A 
ATOM     85  C   UNL A   1      42.913  35.438  28.426  1.00  0.00     0.055 A 
ATOM     86  C   UNL A   1      42.084  34.021  30.148  1.00  0.00     0.041 A 
ATOM     87  F   UNL A   1      42.715  31.837  30.308  1.00  0.00    -0.206 F 
ATOM     88  C   UNL A   1      42.166  35.280  29.588  1.00  0.00     0.022 A 
BRANCH  85  89
ATOM     89  S   UNL A   1      43.200  37.090  27.753  1.00  0.00     0.124 S 
ATOM     90  O   UNL A   1      44.655  37.119  27.669  1.00  0.00    -0.237 OA
ATOM     91  O   UNL A   1      42.481  37.020  26.486  1.00  0.00    -0.237 OA
ATOM     92  O   UNL A   1      42.612  37.969  28.760  1.00  0.00    -0.744 OA
ENDBRANCH  85  89
ENDBRANCH  68  82
BRANCH  69  93
ATOM     93  C   UNL A   1      44.453  26.970  34.327  1.00  0.00     0.023 A 
ATOM     94  C   UNL A   1      44.966  26.642  35.600  1.00  0.00     0.031 A 
ATOM     95  C   UNL A   1      43.046  26.919  34.181  1.00  0.00     0.131 A 
ATOM     96  C   UNL A   1      44.087  26.277  36.649  1.00  0.00     0.055 A 
ATOM     97  C   UNL A   1      42.186  26.551  35.216  1.00  0.00     0.041 A 
ATOM     98  F   UNL A   1      42.448  27.310  33.045  1.00  0.00    -0.206 F 
ATOM     99  C   UNL A   1      42.703  26.235  36.460  1.00  0.00     0.022 A 
BRANCH  96 100
ATOM    100  S   UNL A   1      44.730  25.930  38.319  1.00  0.00     0.124 S 
ATOM    101  O   UNL A   1      43.774  26.627  39.171  1.00  0.00    -0.237 OA
ATOM    102  O   UNL A   1      44.703  24.472  38.368  1.00  0.00    -0.237 OA
ATOM    103  O   UNL A   1      46.072  26.515  38.298  1.00  0.00    -0.744 OA
ENDBRANCH  96 100
ENDBRANCH  69  93
BRANCH  81 104
ATOM    104  C   UNL A   1      49.076  30.072  31.271  1.00  0.00     0.023 A 
ATOM    105  C   UNL A   1      49.394  28.818  30.699  1.00  0.00     0.031 A 
ATOM    106  C   UNL A   1      50.114  30.779  31.902  1.00  0.00     0.131 A 
ATOM    107  C   UNL A   1      50.708  28.314  30.786  1.00  0.00     0.055 A 
ATOM    108  C   UNL A   1      51.417  30.286  31.968  1.00  0.00     0.041 A 
ATOM    109  F   UNL A   1      49.885  31.989  32.439  1.00  0.00    -0.206 F 
ATOM    110  C   UNL A   1      51.718  29.048  31.414  1.00  0.00     0.022 A 
BRANCH 107 111
ATOM    111  S   UNL A   1      51.128  26.682  30.087  1.00  0.00     0.124 S 
ATOM    112  O   UNL A   1      52.295  26.272  30.859  1.00  0.00    -0.237 OA
ATOM    113  O   UNL A   1      49.907  25.916  30.316  1.00  0.00    -0.237 OA
ATOM    114  O   UNL A   1      51.403  26.976  28.679  1.00  0.00    -0.744 OA
ENDBRANCH 107 111
ENDBRANCH  81 104
ENDBRANCH  55  56
ENDBRANCH  48  50
ENDBRANCH  47  48
ENDBRANCH  46  47
ENDBRANCH  45  46
ENDBRANCH  44  45
ENDBRANCH  43  44
ENDBRANCH  42  43
ENDBRANCH  41  42
ENDBRANCH  40  41
ENDBRANCH   1  40
TORSDOF 29
ENDMDL
MODEL 3
REMARK VINA RESULT:      -8.6      5.268     10.587
REMARK SMILES COc1ccc(-n2c(SCc3cn(-c4ccc(C(=O)OCCOCCOCCOCCOC(=O)c5ccc(-c6c7nc(c(-c8cc(S(=O)(=O)[O-])ccc8F)c8ccc([nH]8)c(-c8cc(S(=O)(=O)[O-])ccc8F)c8nc(c(-c9cc(S(=O)(=O)[O-])ccc9F)c9ccc6[nH]9)C=C8)C=C7)cc5)cc4)nn3)nc3ccccc3c2=O)cc1
REMARK SMILES IDX 24 1 23 2 22 3 21 4 20 5 18 6 19 7 17 8 14 9 15 10 99 11
REMARK SMILES IDX 16 12 98 13 13 14 11 15 12 16 101 17 100 18 10 19 9 20 8 21
REMARK SMILES IDX 7 22 109 23 102 24 108 25 110 26 103 27 107 28 104 29 106 30
REMARK SMILES IDX 105 31 6 32 3 33 4 34 112 35 5 36 111 37 2 38 1 39 25 40
REMARK SMILES IDX 26 41 27 42 28 43 29 44 30 45 31 46 32 47 33 48 34 49 35 50
REMARK SMILES IDX 36 51 97 52 37 53 96 54 38 55 39 56 40 57 90 58 41 59 95 60
REMARK SMILES IDX 89 61 91 62 42 63 94 64 88 65 87 66 43 68 75 69 55 70 74 71
REMARK SMILES IDX 56 72 59 73 73 74 92 75 57 76 58 77 72 79 93 80 60 81 44 82
REMARK SMILES IDX 45 83 53 84 46 85 52 86 54 87 51 88 47 89 48 90 49 91 50 92
REMARK SMILES IDX 76 93 77 94 85 95 78 96 84 97 86 98 83 99 79 100 80 101
REMARK SMILES IDX 81 102 82 103 61 104 62 105 70 106 63 107 69 108 71 109
REMARK SMILES IDX 68 110 64 111 65 112 66 113 67 114
REMARK H PARENT 91 67 59 78
REMARK Flexibility Score: inf
ROOT
ATOM      1  C   UNL A   1      42.986  24.198  26.874  1.00  0.00     0.188 C 
ENDROOT
BRANCH   1   2
ATOM      2  O   UNL A   1      43.305  25.579  26.763  1.00  0.00    -0.376 OA
BRANCH   2   3
ATOM      3  C   UNL A   1      42.624  26.455  25.880  1.00  0.00     0.202 C 
BRANCH   3   4
ATOM      4  C   UNL A   1      41.146  26.845  26.043  1.00  0.00     0.261 C 
BRANCH   4   5
ATOM      5  O   UNL A   1      40.772  27.420  27.291  1.00  0.00    -0.460 OA
BRANCH   5   6
ATOM      6  C   UNL A   1      39.884  26.712  28.022  1.00  0.00     0.338 C 
ATOM      7  O   UNL A   1      39.798  25.503  28.123  1.00  0.00    -0.246 OA
BRANCH   6   8
ATOM      8  C   UNL A   1      39.159  27.677  28.881  1.00  0.00     0.060 A 
ATOM      9  C   UNL A   1      37.595  29.406  30.359  1.00  0.00     0.066 A 
ATOM     10  C   UNL A   1      37.646  29.558  28.972  1.00  0.00     0.029 A 
ATOM     11  C   UNL A   1      38.307  28.397  31.020  1.00  0.00     0.029 A 
ATOM     12  C   UNL A   1      38.440  28.692  28.234  1.00  0.00     0.018 A 
ATOM     13  C   UNL A   1      39.083  27.516  30.272  1.00  0.00     0.018 A 
BRANCH   9  14
ATOM     14  N   UNL A   1      37.188  30.512  31.099  1.00  0.00    -0.220 N 
ATOM     15  C   UNL A   1      37.211  32.480  31.996  1.00  0.00     0.093 A 
ATOM     16  C   UNL A   1      37.986  31.600  31.290  1.00  0.00     0.141 A 
ATOM     17  N   UNL A   1      35.960  31.931  32.147  1.00  0.00    -0.134 NA
ATOM     18  N   UNL A   1      35.949  30.740  31.552  1.00  0.00    -0.062 NA
BRANCH  15  19
ATOM     19  C   UNL A   1      37.547  33.791  32.575  1.00  0.00     0.138 C 
BRANCH  19  20
ATOM     20  S   UNL A   1      39.210  34.368  32.282  1.00  0.00    -0.081 SA
BRANCH  20  21
ATOM     21  C   UNL A   1      40.108  34.298  33.815  1.00  0.00     0.176 A 
ATOM     22  N   UNL A   1      41.492  34.359  33.725  1.00  0.00    -0.255 N 
ATOM     23  C   UNL A   1      42.210  33.225  34.086  1.00  0.00     0.266 A 
ATOM     24  N   UNL A   1      39.530  33.551  34.707  1.00  0.00    -0.223 NA
ATOM     25  C   UNL A   1      41.357  32.019  34.225  1.00  0.00     0.066 A 
ATOM     26  O   UNL A   1      43.421  33.139  34.252  1.00  0.00    -0.268 OA
ATOM     27  C   UNL A   1      40.039  32.240  34.650  1.00  0.00     0.079 A 
ATOM     28  C   UNL A   1      41.747  30.780  33.723  1.00  0.00     0.016 A 
ATOM     29  C   UNL A   1      39.131  31.184  34.669  1.00  0.00     0.029 A 
ATOM     30  C   UNL A   1      40.798  29.757  33.648  1.00  0.00     0.001 A 
ATOM     31  C   UNL A   1      39.504  29.948  34.143  1.00  0.00     0.002 A 
BRANCH  22  32
ATOM     32  C   UNL A   1      42.124  35.627  33.682  1.00  0.00     0.052 A 
ATOM     33  C   UNL A   1      44.008  37.640  34.053  1.00  0.00     0.119 A 
ATOM     34  C   UNL A   1      43.941  36.986  32.826  1.00  0.00     0.048 A 
ATOM     35  C   UNL A   1      43.017  37.432  35.009  1.00  0.00     0.048 A 
ATOM     36  C   UNL A   1      43.009  35.957  32.643  1.00  0.00     0.030 A 
ATOM     37  C   UNL A   1      42.057  36.438  34.814  1.00  0.00     0.030 A 
BRANCH  33  38
ATOM     38  O   UNL A   1      45.050  38.496  34.280  1.00  0.00    -0.497 OA
ATOM     39  C   UNL A   1      44.622  39.685  34.963  1.00  0.00     0.278 C 
ENDBRANCH  33  38
ENDBRANCH  22  32
ENDBRANCH  20  21
ENDBRANCH  19  20
ENDBRANCH  15  19
ENDBRANCH   9  14
ENDBRANCH   6   8
ENDBRANCH   5   6
ENDBRANCH   4   5
ENDBRANCH   3   4
ENDBRANCH   2   3
ENDBRANCH   1   2
BRANCH   1  40
ATOM     40  C   UNL A   1      41.978  23.507  25.931  1.00  0.00     0.188 C 
BRANCH  40  41
ATOM     41  O   UNL A   1      42.057  22.092  25.952  1.00  0.00    -0.377 OA
BRANCH  41  42
ATOM     42  C   UNL A   1      43.363  21.566  26.182  1.00  0.00     0.188 C 
BRANCH  42  43
ATOM     43  C   UNL A   1      43.870  20.430  25.254  1.00  0.00     0.188 C 
BRANCH  43  44
ATOM     44  O   UNL A   1      44.596  20.877  24.111  1.00  0.00    -0.376 OA
BRANCH  44  45
ATOM     45  C   UNL A   1      44.769  22.258  23.835  1.00  0.00     0.202 C 
BRANCH  45  46
ATOM     46  C   UNL A   1      46.122  22.847  24.219  1.00  0.00     0.261 C 
BRANCH  46  47
ATOM     47  O   UNL A   1      46.029  23.797  25.259  1.00  0.00    -0.460 OA
BRANCH  47  48
ATOM     48  C   UNL A   1      47.014  24.719  25.276  1.00  0.00     0.338 C 
ATOM     49  O   UNL A   1      47.495  25.300  24.324  1.00  0.00    -0.246 OA
BRANCH  48  50
ATOM     50  C   UNL A   1      47.486  24.834  26.659  1.00  0.00     0.060 A 
ATOM     51  C   UNL A   1      46.582  24.370  27.611  1.00  0.00     0.016 A 
ATOM     52  C   UNL A   1      48.477  25.789  26.940  1.00  0.00     0.016 A 
ATOM     53  C   UNL A   1      46.412  25.153  28.718  1.00  0.00     0.010 A 
ATOM     54  C   UNL A   1      48.285  26.586  28.030  1.00  0.00     0.010 A 
ATOM     55  C   UNL A   1      47.177  26.319  28.825  1.00  0.00    -0.014 A 
BRANCH  55  56
ATOM     56  C   UNL A   1      46.820  27.250  29.859  1.00  0.00     0.031 A 
ATOM     57  C   UNL A   1      46.162  28.438  29.301  1.00  0.00     0.074 A 
ATOM     58  C   UNL A   1      47.013  26.995  31.163  1.00  0.00     0.049 A 
ATOM     59  N   UNL A   1      46.685  29.601  29.116  1.00  0.00    -0.248 NA
ATOM     60  C   UNL A   1      44.878  28.230  28.613  1.00  0.00     0.031 C 
ATOM     61  C   UNL A   1      47.405  25.739  31.804  1.00  0.00     0.029 A 
ATOM     62  N   UNL A   1      46.788  27.821  32.211  1.00  0.00    -0.354 N 
ATOM     63  C   UNL A   1      45.675  30.349  28.531  1.00  0.00     0.074 A 
ATOM     64  C   UNL A   1      44.743  29.401  27.995  1.00  0.00     0.031 C 
ATOM     65  C   UNL A   1      47.157  25.831  33.133  1.00  0.00     0.029 A 
ATOM     66  C   UNL A   1      46.713  27.182  33.440  1.00  0.00     0.049 A 
ATOM     67  H   UNL A   1      46.686  28.795  32.111  1.00  0.00     0.167 HD
ATOM     68  C   UNL A   1      45.532  31.666  28.836  1.00  0.00     0.034 A 
ATOM     69  C   UNL A   1      46.218  27.720  34.586  1.00  0.00     0.034 A 
ATOM     70  C   UNL A   1      46.756  32.195  29.409  1.00  0.00     0.049 A 
ATOM     71  C   UNL A   1      46.275  29.200  34.425  1.00  0.00     0.074 A 
ATOM     72  C   UNL A   1      48.068  32.270  28.974  1.00  0.00     0.029 A 
ATOM     73  N   UNL A   1      46.812  32.382  30.775  1.00  0.00    -0.354 N 
ATOM     74  N   UNL A   1      47.397  29.863  34.322  1.00  0.00    -0.248 NA
ATOM     75  C   UNL A   1      45.113  29.880  33.866  1.00  0.00     0.031 C 
ATOM     76  C   UNL A   1      48.860  32.007  30.131  1.00  0.00     0.029 A 
ATOM     77  C   UNL A   1      48.003  31.860  31.224  1.00  0.00     0.049 A 
ATOM     78  H   UNL A   1      46.122  32.811  31.330  1.00  0.00     0.167 HD
ATOM     79  C   UNL A   1      47.174  30.808  33.329  1.00  0.00     0.074 A 
ATOM     80  C   UNL A   1      45.722  30.839  33.160  1.00  0.00     0.031 C 
ATOM     81  C   UNL A   1      48.192  31.257  32.533  1.00  0.00     0.034 A 
BRANCH  68  82
ATOM     82  C   UNL A   1      44.183  32.333  29.013  1.00  0.00     0.023 A 
ATOM     83  C   UNL A   1      44.002  33.548  28.334  1.00  0.00     0.031 A 
ATOM     84  C   UNL A   1      43.205  32.030  29.992  1.00  0.00     0.131 A 
ATOM     85  C   UNL A   1      43.003  34.452  28.729  1.00  0.00     0.055 A 
ATOM     86  C   UNL A   1      42.173  32.906  30.336  1.00  0.00     0.041 A 
ATOM     87  F   UNL A   1      43.216  30.919  30.735  1.00  0.00    -0.206 F 
ATOM     88  C   UNL A   1      42.091  34.144  29.733  1.00  0.00     0.022 A 
BRANCH  85  89
ATOM     89  S   UNL A   1      43.055  36.118  28.033  1.00  0.00     0.124 S 
ATOM     90  O   UNL A   1      44.012  35.947  26.946  1.00  0.00    -0.237 OA
ATOM     91  O   UNL A   1      41.663  36.317  27.644  1.00  0.00    -0.237 OA
ATOM     92  O   UNL A   1      43.516  36.934  29.152  1.00  0.00    -0.744 OA
ENDBRANCH  85  89
ENDBRANCH  68  82
BRANCH  69  93
ATOM     93  C   UNL A   1      45.369  27.019  35.591  1.00  0.00     0.023 A 
ATOM     94  C   UNL A   1      44.049  26.600  35.322  1.00  0.00     0.031 A 
ATOM     95  C   UNL A   1      45.948  26.547  36.793  1.00  0.00     0.131 A 
ATOM     96  C   UNL A   1      43.369  25.759  36.237  1.00  0.00     0.055 A 
ATOM     97  C   UNL A   1      45.270  25.725  37.694  1.00  0.00     0.041 A 
ATOM     98  F   UNL A   1      47.231  26.800  37.096  1.00  0.00    -0.206 F 
ATOM     99  C   UNL A   1      43.977  25.319  37.415  1.00  0.00     0.022 A 
BRANCH  96 100
ATOM    100  S   UNL A   1      41.693  25.145  35.862  1.00  0.00     0.124 S 
ATOM    101  O   UNL A   1      41.135  26.232  35.065  1.00  0.00    -0.237 OA
ATOM    102  O   UNL A   1      41.967  23.897  35.158  1.00  0.00    -0.237 OA
ATOM    103  O   UNL A   1      41.086  24.980  37.184  1.00  0.00    -0.744 OA
ENDBRANCH  96 100
ENDBRANCH  69  93
BRANCH  81 104
ATOM    104  C   UNL A   1      49.618  30.919  32.934  1.00  0.00     0.023 A 
ATOM    105  C   UNL A   1      50.310  29.749  32.544  1.00  0.00     0.031 A 
ATOM    106  C   UNL A   1      50.340  31.893  33.644  1.00  0.00     0.131 A 
ATOM    107  C   UNL A   1      51.669  29.585  32.881  1.00  0.00     0.055 A 
ATOM    108  C   UNL A   1      51.690  31.736  33.959  1.00  0.00     0.041 A 
ATOM    109  F   UNL A   1      49.750  33.041  34.018  1.00  0.00    -0.206 F 
ATOM    110  C   UNL A   1      52.360  30.578  33.582  1.00  0.00     0.022 A 
BRANCH 107 111
ATOM    111  S   UNL A   1      52.568  28.066  32.419  1.00  0.00     0.124 S 
ATOM    112  O   UNL A   1      51.683  27.429  31.451  1.00  0.00    -0.237 OA
ATOM    113  O   UNL A   1      53.824  28.591  31.889  1.00  0.00    -0.237 OA
ATOM    114  O   UNL A   1      52.700  27.349  33.688  1.00  0.00    -0.744 OA
ENDBRANCH 107 111
ENDBRANCH  81 104
ENDBRANCH  55  56
ENDBRANCH  48  50
ENDBRANCH  47  48
ENDBRANCH  46  47
ENDBRANCH  45  46
ENDBRANCH  44  45
ENDBRANCH  43  44
ENDBRANCH  42  43
ENDBRANCH  41  42
ENDBRANCH  40  41
ENDBRANCH   1  40
TORSDOF 29
ENDMDL
