MODEL 1
REMARK VINA RESULT:      -7.2      0.000      0.000
REMARK SMILES C=C[C@@H]1[C@@H](O)C[C@@H]2[C@@]3(CC[C@@]4(C)[C@@H]([C@H](C)CCC=C(C)C)CC[C@@]24C)C[C@@]13CCC(=O)OCCOCCOCCOCCOC(=O)c1ccc(-c2c3nc(c(-c4cc(S(=O)(=O)[O-])ccc4F)c4ccc([nH]4)c(-c4cc(S(=O)(=O)[O-])ccc4F)c4nc(c(-c5cc(S(=O)(=O)[O-])ccc5F)c5ccc2[nH]5)C=C4)C=C3)cc1
REMARK SMILES IDX 36 1 35 2 34 3 33 4 32 5 30 6 31 7 29 8 28 9 27 10 3 11 4 12
REMARK SMILES IDX 6 13 8 14 26 15 7 16 9 17 24 18 10 19 11 20 23 21 25 22
REMARK SMILES IDX 12 23 13 24 22 25 2 26 1 27 5 28 14 30 15 31 16 32 17 33
REMARK SMILES IDX 18 34 19 35 20 36 21 37 37 38 38 39 39 40 40 41 41 42 42 43
REMARK SMILES IDX 43 44 44 45 45 46 46 47 47 48 48 49 109 50 49 51 108 52
REMARK SMILES IDX 50 53 51 54 52 55 102 56 53 57 107 58 101 59 103 60 54 61
REMARK SMILES IDX 106 62 100 63 99 64 55 66 87 67 67 68 86 69 68 70 71 71
REMARK SMILES IDX 85 72 104 73 69 74 70 75 84 77 105 78 72 79 56 80 57 81
REMARK SMILES IDX 65 82 58 83 64 84 66 85 63 86 59 87 60 88 61 89 62 90 88 91
REMARK SMILES IDX 89 92 97 93 90 94 96 95 98 96 95 97 91 98 92 99 93 100
REMARK SMILES IDX 94 101 73 102 74 103 82 104 75 105 81 106 83 107 80 108
REMARK SMILES IDX 76 109 77 110 78 111 79 112
REMARK H PARENT 5 29 103 65 71 76
REMARK Flexibility Score: inf
ROOT
ATOM      1  C   UNL A   1      34.465  23.664  25.731  1.00  0.00     0.188 C 
ENDROOT
BRANCH   1   2
ATOM      2  O   UNL A   1      35.733  23.201  26.179  1.00  0.00    -0.376 OA
BRANCH   2   3
ATOM      3  C   UNL A   1      36.841  23.844  25.585  1.00  0.00     0.202 C 
BRANCH   3   4
ATOM      4  C   UNL A   1      38.147  23.482  26.251  1.00  0.00     0.261 C 
BRANCH   4   5
ATOM      5  O   UNL A   1      38.831  24.618  26.731  1.00  0.00    -0.463 OA
BRANCH   5   6
ATOM      6  C   UNL A   1      39.931  24.271  27.444  1.00  0.00     0.305 C 
ATOM      7  O   UNL A   1      40.294  23.129  27.728  1.00  0.00    -0.252 OA
BRANCH   6   8
ATOM      8  C   UNL A   1      40.562  25.507  27.956  1.00  0.00     0.123 C 
BRANCH   8   9
ATOM      9  C   UNL A   1      40.397  26.630  26.927  1.00  0.00     0.020 C 
BRANCH   9  10
ATOM     10  C   UNL A   1      41.610  27.562  26.700  1.00  0.00    -0.014 C 
ATOM     11  C   UNL A   1      42.675  27.072  25.652  1.00  0.00     0.047 C 
ATOM     12  C   UNL A   1      44.126  27.534  25.977  1.00  0.00     0.122 C 
ATOM     13  C   UNL A   1      44.234  28.891  26.666  1.00  0.00     0.037 C 
ATOM     14  C   UNL A   1      41.957  28.715  27.753  1.00  0.00    -0.019 C 
ATOM     15  C   UNL A   1      41.265  29.002  26.430  1.00  0.00     0.016 C 
ATOM     16  C   UNL A   1      43.497  28.844  28.015  1.00  0.00     0.005 C 
ATOM     17  C   UNL A   1      41.039  29.193  28.891  1.00  0.00     0.008 C 
ATOM     18  C   UNL A   1      43.887  30.019  28.980  1.00  0.00    -0.023 C 
ATOM     19  C   UNL A   1      41.689  29.862  30.121  1.00  0.00     0.008 C 
ATOM     20  C   UNL A   1      43.225  29.810  30.392  1.00  0.00    -0.024 C 
ATOM     21  C   UNL A   1      45.377  30.083  29.371  1.00  0.00     0.008 C 
ATOM     22  C   UNL A   1      43.500  31.320  28.233  1.00  0.00     0.012 C 
ATOM     23  C   UNL A   1      43.373  31.106  31.327  1.00  0.00     0.012 C 
ATOM     24  C   UNL A   1      44.250  28.713  31.233  1.00  0.00    -0.002 C 
ATOM     25  C   UNL A   1      45.612  29.299  30.677  1.00  0.00     0.005 C 
BRANCH  11  26
ATOM     26  C   UNL A   1      42.602  25.615  25.210  1.00  0.00    -0.028 C 
ATOM     27  C   UNL A   1      43.613  24.750  25.042  1.00  0.00     0.004 C 
ENDBRANCH  11  26
BRANCH  12  28
ATOM     28  O   UNL A   1      44.893  27.607  24.764  1.00  0.00    -0.392 OA
ATOM     29  H   UNL A   1      45.217  28.513  24.640  1.00  0.00     0.210 HD
ENDBRANCH  12  28
BRANCH  24  30
ATOM     30  C   UNL A   1      44.599  27.069  31.680  1.00  0.00    -0.010 C 
ATOM     31  C   UNL A   1      45.207  26.148  30.603  1.00  0.00     0.008 C 
BRANCH  30  32
ATOM     32  C   UNL A   1      43.934  26.081  32.871  1.00  0.00     0.008 C 
BRANCH  32  33
ATOM     33  C   UNL A   1      43.356  26.708  34.251  1.00  0.00     0.027 C 
BRANCH  33  34
ATOM     34  C   UNL A   1      42.967  28.175  34.450  1.00  0.00    -0.028 C 
ATOM     35  C   UNL A   1      41.805  28.770  34.052  1.00  0.00    -0.080 C 
ATOM     36  C   UNL A   1      41.397  30.144  34.526  1.00  0.00     0.039 C 
ATOM     37  C   UNL A   1      40.729  28.157  33.174  1.00  0.00     0.039 C 
ENDBRANCH  33  34
ENDBRANCH  32  33
ENDBRANCH  30  32
ENDBRANCH  24  30
ENDBRANCH   9  10
ENDBRANCH   8   9
ENDBRANCH   6   8
ENDBRANCH   5   6
ENDBRANCH   4   5
ENDBRANCH   3   4
ENDBRANCH   2   3
ENDBRANCH   1   2
BRANCH   1  38
ATOM     38  C   UNL A   1      34.581  24.849  24.771  1.00  0.00     0.188 C 
BRANCH  38  39
ATOM     39  O   UNL A   1      33.544  25.832  24.860  1.00  0.00    -0.377 OA
BRANCH  39  40
ATOM     40  C   UNL A   1      33.509  26.691  25.999  1.00  0.00     0.188 C 
BRANCH  40  41
ATOM     41  C   UNL A   1      33.074  28.115  25.676  1.00  0.00     0.188 C 
BRANCH  41  42
ATOM     42  O   UNL A   1      34.130  29.074  25.730  1.00  0.00    -0.376 OA
BRANCH  42  43
ATOM     43  C   UNL A   1      34.140  29.911  26.880  1.00  0.00     0.202 C 
BRANCH  43  44
ATOM     44  C   UNL A   1      34.981  29.381  28.057  1.00  0.00     0.261 C 
BRANCH  44  45
ATOM     45  O   UNL A   1      35.643  30.373  28.862  1.00  0.00    -0.460 OA
BRANCH  45  46
ATOM     46  C   UNL A   1      36.847  29.992  29.334  1.00  0.00     0.338 C 
ATOM     47  O   UNL A   1      37.512  29.020  28.953  1.00  0.00    -0.246 OA
BRANCH  46  48
ATOM     48  C   UNL A   1      37.317  30.871  30.419  1.00  0.00     0.060 A 
ATOM     49  C   UNL A   1      37.019  32.239  30.365  1.00  0.00     0.016 A 
ATOM     50  C   UNL A   1      38.242  30.392  31.352  1.00  0.00     0.016 A 
ATOM     51  C   UNL A   1      37.711  33.144  31.178  1.00  0.00     0.010 A 
ATOM     52  C   UNL A   1      38.940  31.302  32.159  1.00  0.00     0.010 A 
ATOM     53  C   UNL A   1      38.724  32.690  32.034  1.00  0.00    -0.014 A 
BRANCH  53  54
ATOM     54  C   UNL A   1      39.730  33.640  32.595  1.00  0.00     0.031 A 
ATOM     55  C   UNL A   1      40.873  34.071  31.718  1.00  0.00     0.074 A 
ATOM     56  C   UNL A   1      39.670  34.113  33.852  1.00  0.00     0.049 A 
ATOM     57  N   UNL A   1      41.881  34.854  32.007  1.00  0.00    -0.248 NA
ATOM     58  C   UNL A   1      40.855  33.593  30.328  1.00  0.00     0.031 C 
ATOM     59  C   UNL A   1      38.562  33.915  34.766  1.00  0.00     0.029 A 
ATOM     60  N   UNL A   1      40.581  34.822  34.598  1.00  0.00    -0.354 N 
ATOM     61  C   UNL A   1      42.584  35.013  30.820  1.00  0.00     0.074 A 
ATOM     62  C   UNL A   1      41.933  34.182  29.829  1.00  0.00     0.031 C 
ATOM     63  C   UNL A   1      38.910  34.329  35.995  1.00  0.00     0.029 A 
ATOM     64  C   UNL A   1      40.253  34.893  35.934  1.00  0.00     0.049 A 
ATOM     65  H   UNL A   1      41.387  35.239  34.215  1.00  0.00     0.167 HD
ATOM     66  C   UNL A   1      43.649  35.813  30.572  1.00  0.00     0.034 A 
ATOM     67  C   UNL A   1      40.952  35.354  36.990  1.00  0.00     0.034 A 
ATOM     68  C   UNL A   1      44.319  36.603  31.576  1.00  0.00     0.049 A 
ATOM     69  C   UNL A   1      42.256  36.063  36.738  1.00  0.00     0.074 A 
ATOM     70  C   UNL A   1      45.389  37.467  31.419  1.00  0.00     0.029 A 
ATOM     71  N   UNL A   1      44.012  36.597  32.930  1.00  0.00    -0.354 N 
ATOM     72  N   UNL A   1      42.871  36.271  35.598  1.00  0.00    -0.248 NA
ATOM     73  C   UNL A   1      42.926  36.657  37.901  1.00  0.00     0.031 C 
ATOM     74  C   UNL A   1      45.776  37.921  32.686  1.00  0.00     0.029 A 
ATOM     75  C   UNL A   1      44.903  37.400  33.626  1.00  0.00     0.049 A 
ATOM     76  H   UNL A   1      43.267  36.096  33.337  1.00  0.00     0.167 HD
ATOM     77  C   UNL A   1      43.962  37.079  35.898  1.00  0.00     0.074 A 
ATOM     78  C   UNL A   1      43.932  37.303  37.329  1.00  0.00     0.031 C 
ATOM     79  C   UNL A   1      44.882  37.615  35.056  1.00  0.00     0.034 A 
BRANCH  66  80
ATOM     80  C   UNL A   1      44.165  35.836  29.158  1.00  0.00     0.023 A 
ATOM     81  C   UNL A   1      45.121  34.905  28.711  1.00  0.00     0.031 A 
ATOM     82  C   UNL A   1      43.724  36.817  28.256  1.00  0.00     0.131 A 
ATOM     83  C   UNL A   1      45.650  35.014  27.417  1.00  0.00     0.055 A 
ATOM     84  C   UNL A   1      44.205  36.880  26.948  1.00  0.00     0.041 A 
ATOM     85  F   UNL A   1      42.831  37.745  28.639  1.00  0.00    -0.206 F 
ATOM     86  C   UNL A   1      45.183  35.983  26.526  1.00  0.00     0.022 A 
BRANCH  83  87
ATOM     87  S   UNL A   1      47.048  33.954  26.956  1.00  0.00     0.124 S 
ATOM     88  O   UNL A   1      46.505  32.621  27.209  1.00  0.00    -0.237 OA
ATOM     89  O   UNL A   1      47.259  34.302  25.555  1.00  0.00    -0.237 OA
ATOM     90  O   UNL A   1      48.110  34.371  27.869  1.00  0.00    -0.744 OA
ENDBRANCH  83  87
ENDBRANCH  66  80
BRANCH  67  91
ATOM     91  C   UNL A   1      40.448  35.155  38.376  1.00  0.00     0.023 A 
ATOM     92  C   UNL A   1      40.829  34.047  39.146  1.00  0.00     0.031 A 
ATOM     93  C   UNL A   1      39.514  36.053  38.926  1.00  0.00     0.131 A 
ATOM     94  C   UNL A   1      40.241  33.836  40.404  1.00  0.00     0.055 A 
ATOM     95  C   UNL A   1      38.960  35.858  40.193  1.00  0.00     0.041 A 
ATOM     96  F   UNL A   1      39.120  37.133  38.230  1.00  0.00    -0.206 F 
ATOM     97  C   UNL A   1      39.313  34.735  40.934  1.00  0.00     0.022 A 
BRANCH  94  98
ATOM     98  S   UNL A   1      40.649  32.315  41.307  1.00  0.00     0.124 S 
ATOM     99  O   UNL A   1      41.703  31.747  40.475  1.00  0.00    -0.237 OA
ATOM    100  O   UNL A   1      41.065  32.840  42.604  1.00  0.00    -0.237 OA
ATOM    101  O   UNL A   1      39.389  31.574  41.311  1.00  0.00    -0.744 OA
ENDBRANCH  94  98
ENDBRANCH  67  91
BRANCH  79 102
ATOM    102  C   UNL A   1      45.901  38.549  35.658  1.00  0.00     0.023 A 
ATOM    103  C   UNL A   1      47.149  38.092  36.115  1.00  0.00     0.031 A 
ATOM    104  C   UNL A   1      45.608  39.918  35.793  1.00  0.00     0.131 A 
ATOM    105  C   UNL A   1      48.035  38.986  36.735  1.00  0.00     0.055 A 
ATOM    106  C   UNL A   1      46.517  40.814  36.357  1.00  0.00     0.041 A 
ATOM    107  F   UNL A   1      44.428  40.409  35.378  1.00  0.00    -0.206 F 
ATOM    108  C   UNL A   1      47.734  40.346  36.843  1.00  0.00     0.022 A 
BRANCH 105 109
ATOM    109  S   UNL A   1      49.554  38.330  37.479  1.00  0.00     0.124 S 
ATOM    110  O   UNL A   1      49.247  36.908  37.591  1.00  0.00    -0.237 OA
ATOM    111  O   UNL A   1      50.566  38.689  36.490  1.00  0.00    -0.237 OA
ATOM    112  O   UNL A   1      49.651  39.048  38.749  1.00  0.00    -0.744 OA
ENDBRANCH 105 109
ENDBRANCH  79 102
ENDBRANCH  53  54
ENDBRANCH  46  48
ENDBRANCH  45  46
ENDBRANCH  44  45
ENDBRANCH  43  44
ENDBRANCH  42  43
ENDBRANCH  41  42
ENDBRANCH  40  41
ENDBRANCH  39  40
ENDBRANCH  38  39
ENDBRANCH   1  38
TORSDOF 31
ENDMDL
MODEL 2
REMARK VINA RESULT:      -5.8      3.736     11.173
REMARK SMILES C=C[C@@H]1[C@@H](O)C[C@@H]2[C@@]3(CC[C@@]4(C)[C@@H]([C@H](C)CCC=C(C)C)CC[C@@]24C)C[C@@]13CCC(=O)OCCOCCOCCOCCOC(=O)c1ccc(-c2c3nc(c(-c4cc(S(=O)(=O)[O-])ccc4F)c4ccc([nH]4)c(-c4cc(S(=O)(=O)[O-])ccc4F)c4nc(c(-c5cc(S(=O)(=O)[O-])ccc5F)c5ccc2[nH]5)C=C4)C=C3)cc1
REMARK SMILES IDX 36 1 35 2 34 3 33 4 32 5 30 6 31 7 29 8 28 9 27 10 3 11 4 12
REMARK SMILES IDX 6 13 8 14 26 15 7 16 9 17 24 18 10 19 11 20 23 21 25 22
REMARK SMILES IDX 12 23 13 24 22 25 2 26 1 27 5 28 14 30 15 31 16 32 17 33
REMARK SMILES IDX 18 34 19 35 20 36 21 37 37 38 38 39 39 40 40 41 41 42 42 43
REMARK SMILES IDX 43 44 44 45 45 46 46 47 47 48 48 49 109 50 49 51 108 52
REMARK SMILES IDX 50 53 51 54 52 55 102 56 53 57 107 58 101 59 103 60 54 61
REMARK SMILES IDX 106 62 100 63 99 64 55 66 87 67 67 68 86 69 68 70 71 71
REMARK SMILES IDX 85 72 104 73 69 74 70 75 84 77 105 78 72 79 56 80 57 81
REMARK SMILES IDX 65 82 58 83 64 84 66 85 63 86 59 87 60 88 61 89 62 90 88 91
REMARK SMILES IDX 89 92 97 93 90 94 96 95 98 96 95 97 91 98 92 99 93 100
REMARK SMILES IDX 94 101 73 102 74 103 82 104 75 105 81 106 83 107 80 108
REMARK SMILES IDX 76 109 77 110 78 111 79 112
REMARK H PARENT 5 29 103 65 71 76
REMARK Flexibility Score: inf
ROOT
ATOM      1  C   UNL A   1      45.126  37.632  29.935  1.00  0.00     0.188 C 
ENDROOT
BRANCH   1   2
ATOM      2  O   UNL A   1      46.413  37.049  29.773  1.00  0.00    -0.376 OA
BRANCH   2   3
ATOM      3  C   UNL A   1      46.403  35.688  29.395  1.00  0.00     0.202 C 
BRANCH   3   4
ATOM      4  C   UNL A   1      45.006  35.127  29.287  1.00  0.00     0.261 C 
BRANCH   4   5
ATOM      5  O   UNL A   1      44.695  34.268  30.361  1.00  0.00    -0.463 OA
BRANCH   5   6
ATOM      6  C   UNL A   1      45.218  33.031  30.177  1.00  0.00     0.305 C 
ATOM      7  O   UNL A   1      46.195  32.551  30.751  1.00  0.00    -0.252 OA
BRANCH   6   8
ATOM      8  C   UNL A   1      44.501  32.387  29.054  1.00  0.00     0.123 C 
BRANCH   8   9
ATOM      9  C   UNL A   1      43.022  32.225  29.415  1.00  0.00     0.020 C 
BRANCH   9  10
ATOM     10  C   UNL A   1      42.571  30.842  29.939  1.00  0.00    -0.014 C 
ATOM     11  C   UNL A   1      43.010  29.599  29.083  1.00  0.00     0.047 C 
ATOM     12  C   UNL A   1      41.996  28.418  29.133  1.00  0.00     0.122 C 
ATOM     13  C   UNL A   1      41.245  28.267  30.452  1.00  0.00     0.037 C 
ATOM     14  C   UNL A   1      41.400  30.725  31.024  1.00  0.00    -0.019 C 
ATOM     15  C   UNL A   1      42.868  30.582  31.391  1.00  0.00     0.016 C 
ATOM     16  C   UNL A   1      40.423  29.538  30.725  1.00  0.00     0.005 C 
ATOM     17  C   UNL A   1      40.813  31.893  31.834  1.00  0.00     0.008 C 
ATOM     18  C   UNL A   1      39.307  29.336  31.811  1.00  0.00    -0.023 C 
ATOM     19  C   UNL A   1      39.377  31.750  32.383  1.00  0.00     0.008 C 
ATOM     20  C   UNL A   1      38.406  30.623  31.915  1.00  0.00    -0.024 C 
ATOM     21  C   UNL A   1      38.245  28.271  31.475  1.00  0.00     0.008 C 
ATOM     22  C   UNL A   1      40.052  28.923  33.105  1.00  0.00     0.012 C 
ATOM     23  C   UNL A   1      37.424  30.573  33.183  1.00  0.00     0.012 C 
ATOM     24  C   UNL A   1      37.258  30.493  30.639  1.00  0.00    -0.002 C 
ATOM     25  C   UNL A   1      37.047  28.929  30.763  1.00  0.00     0.005 C 
BRANCH  11  26
ATOM     26  C   UNL A   1      43.536  29.869  27.677  1.00  0.00    -0.028 C 
ATOM     27  C   UNL A   1      42.969  29.547  26.506  1.00  0.00     0.004 C 
ENDBRANCH  11  26
BRANCH  12  28
ATOM     28  O   UNL A   1      42.683  27.181  28.886  1.00  0.00    -0.392 OA
ATOM     29  H   UNL A   1      42.482  26.872  27.989  1.00  0.00     0.210 HD
ENDBRANCH  12  28
BRANCH  24  30
ATOM     30  C   UNL A   1      36.817  30.893  29.006  1.00  0.00    -0.010 C 
ATOM     31  C   UNL A   1      37.680  30.310  27.868  1.00  0.00     0.008 C 
BRANCH  30  32
ATOM     32  C   UNL A   1      35.979  32.212  28.376  1.00  0.00     0.008 C 
BRANCH  32  33
ATOM     33  C   UNL A   1      34.846  32.976  29.249  1.00  0.00     0.027 C 
BRANCH  33  34
ATOM     34  C   UNL A   1      35.031  33.462  30.690  1.00  0.00    -0.028 C 
ATOM     35  C   UNL A   1      36.150  34.037  31.217  1.00  0.00    -0.080 C 
ATOM     36  C   UNL A   1      36.148  34.725  32.561  1.00  0.00     0.039 C 
ATOM     37  C   UNL A   1      37.507  34.159  30.548  1.00  0.00     0.039 C 
ENDBRANCH  33  34
ENDBRANCH  32  33
ENDBRANCH  30  32
ENDBRANCH  24  30
ENDBRANCH   9  10
ENDBRANCH   8   9
ENDBRANCH   6   8
ENDBRANCH   5   6
ENDBRANCH   4   5
ENDBRANCH   3   4
ENDBRANCH   2   3
ENDBRANCH   1   2
BRANCH   1  38
ATOM     38  C   UNL A   1      44.907  38.831  29.012  1.00  0.00     0.188 C 
BRANCH  38  39
ATOM     39  O   UNL A   1      45.816  39.924  29.177  1.00  0.00    -0.377 OA
BRANCH  39  40
ATOM     40  C   UNL A   1      45.308  41.178  29.631  1.00  0.00     0.188 C 
BRANCH  40  41
ATOM     41  C   UNL A   1      46.077  41.757  30.812  1.00  0.00     0.188 C 
BRANCH  41  42
ATOM     42  O   UNL A   1      46.078  43.184  30.865  1.00  0.00    -0.376 OA
BRANCH  42  43
ATOM     43  C   UNL A   1      44.795  43.797  30.893  1.00  0.00     0.202 C 
BRANCH  43  44
ATOM     44  C   UNL A   1      44.417  44.440  32.241  1.00  0.00     0.261 C 
BRANCH  44  45
ATOM     45  O   UNL A   1      43.695  43.605  33.163  1.00  0.00    -0.460 OA
BRANCH  45  46
ATOM     46  C   UNL A   1      44.467  43.005  34.092  1.00  0.00     0.338 C 
ATOM     47  O   UNL A   1      45.451  43.497  34.658  1.00  0.00    -0.246 OA
BRANCH  46  48
ATOM     48  C   UNL A   1      44.025  41.628  34.371  1.00  0.00     0.060 A 
ATOM     49  C   UNL A   1      44.493  40.984  35.524  1.00  0.00     0.016 A 
ATOM     50  C   UNL A   1      43.350  40.900  33.387  1.00  0.00     0.016 A 
ATOM     51  C   UNL A   1      44.369  39.595  35.655  1.00  0.00     0.010 A 
ATOM     52  C   UNL A   1      43.236  39.508  33.517  1.00  0.00     0.010 A 
ATOM     53  C   UNL A   1      43.800  38.838  34.623  1.00  0.00    -0.014 A 
BRANCH  53  54
ATOM     54  C   UNL A   1      44.017  37.363  34.550  1.00  0.00     0.031 A 
ATOM     55  C   UNL A   1      42.936  36.455  35.069  1.00  0.00     0.074 A 
ATOM     56  C   UNL A   1      45.140  36.810  34.060  1.00  0.00     0.049 A 
ATOM     57  N   UNL A   1      42.924  35.149  35.143  1.00  0.00    -0.248 NA
ATOM     58  C   UNL A   1      41.694  37.099  35.522  1.00  0.00     0.031 C 
ATOM     59  C   UNL A   1      46.202  37.534  33.390  1.00  0.00     0.029 A 
ATOM     60  N   UNL A   1      45.599  35.515  34.087  1.00  0.00    -0.354 N 
ATOM     61  C   UNL A   1      41.655  34.810  35.592  1.00  0.00     0.074 A 
ATOM     62  C   UNL A   1      40.953  36.050  35.849  1.00  0.00     0.031 C 
ATOM     63  C   UNL A   1      47.262  36.727  33.218  1.00  0.00     0.029 A 
ATOM     64  C   UNL A   1      46.918  35.397  33.707  1.00  0.00     0.049 A 
ATOM     65  H   UNL A   1      45.040  34.747  34.350  1.00  0.00     0.167 HD
ATOM     66  C   UNL A   1      41.113  33.576  35.735  1.00  0.00     0.034 A 
ATOM     67  C   UNL A   1      47.757  34.343  33.750  1.00  0.00     0.034 A 
ATOM     68  C   UNL A   1      41.833  32.346  35.520  1.00  0.00     0.049 A 
ATOM     69  C   UNL A   1      47.202  32.993  34.120  1.00  0.00     0.074 A 
ATOM     70  C   UNL A   1      41.365  31.046  35.611  1.00  0.00     0.029 A 
ATOM     71  N   UNL A   1      43.184  32.258  35.209  1.00  0.00    -0.354 N 
ATOM     72  N   UNL A   1      45.978  32.678  34.471  1.00  0.00    -0.248 NA
ATOM     73  C   UNL A   1      48.120  31.851  34.038  1.00  0.00     0.031 C 
ATOM     74  C   UNL A   1      42.448  30.176  35.434  1.00  0.00     0.029 A 
ATOM     75  C   UNL A   1      43.578  30.929  35.158  1.00  0.00     0.049 A 
ATOM     76  H   UNL A   1      43.776  33.028  35.047  1.00  0.00     0.167 HD
ATOM     77  C   UNL A   1      45.961  31.291  34.581  1.00  0.00     0.074 A 
ATOM     78  C   UNL A   1      47.303  30.835  34.280  1.00  0.00     0.031 C 
ATOM     79  C   UNL A   1      44.919  30.472  34.870  1.00  0.00     0.034 A 
BRANCH  66  80
ATOM     80  C   UNL A   1      39.675  33.515  36.177  1.00  0.00     0.023 A 
ATOM     81  C   UNL A   1      39.324  33.079  37.468  1.00  0.00     0.031 A 
ATOM     82  C   UNL A   1      38.643  33.862  35.291  1.00  0.00     0.131 A 
ATOM     83  C   UNL A   1      37.971  32.943  37.815  1.00  0.00     0.055 A 
ATOM     84  C   UNL A   1      37.300  33.788  35.665  1.00  0.00     0.041 A 
ATOM     85  F   UNL A   1      38.923  34.261  34.040  1.00  0.00    -0.206 F 
ATOM     86  C   UNL A   1      36.958  33.314  36.928  1.00  0.00     0.022 A 
BRANCH  83  87
ATOM     87  S   UNL A   1      37.553  32.154  39.394  1.00  0.00     0.124 S 
ATOM     88  O   UNL A   1      38.855  32.104  40.055  1.00  0.00    -0.237 OA
ATOM     89  O   UNL A   1      36.583  33.082  39.963  1.00  0.00    -0.237 OA
ATOM     90  O   UNL A   1      37.014  30.855  38.996  1.00  0.00    -0.744 OA
ENDBRANCH  83  87
ENDBRANCH  66  80
BRANCH  67  91
ATOM     91  C   UNL A   1      49.204  34.514  33.447  1.00  0.00     0.023 A 
ATOM     92  C   UNL A   1      50.128  34.864  34.443  1.00  0.00     0.031 A 
ATOM     93  C   UNL A   1      49.671  34.393  32.125  1.00  0.00     0.131 A 
ATOM     94  C   UNL A   1      51.463  35.130  34.094  1.00  0.00     0.055 A 
ATOM     95  C   UNL A   1      51.007  34.623  31.789  1.00  0.00     0.041 A 
ATOM     96  F   UNL A   1      48.826  34.057  31.136  1.00  0.00    -0.206 F 
ATOM     97  C   UNL A   1      51.908  35.008  32.776  1.00  0.00     0.022 A 
BRANCH  94  98
ATOM     98  S   UNL A   1      52.593  35.721  35.384  1.00  0.00     0.124 S 
ATOM     99  O   UNL A   1      53.723  34.812  35.233  1.00  0.00    -0.237 OA
ATOM    100  O   UNL A   1      52.821  37.103  34.971  1.00  0.00    -0.237 OA
ATOM    101  O   UNL A   1      51.821  35.560  36.614  1.00  0.00    -0.744 OA
ENDBRANCH  94  98
ENDBRANCH  67  91
BRANCH  79 102
ATOM    102  C   UNL A   1      45.176  28.987  34.815  1.00  0.00     0.023 A 
ATOM    103  C   UNL A   1      45.025  28.251  33.627  1.00  0.00     0.031 A 
ATOM    104  C   UNL A   1      45.561  28.296  35.977  1.00  0.00     0.131 A 
ATOM    105  C   UNL A   1      45.204  26.859  33.641  1.00  0.00     0.055 A 
ATOM    106  C   UNL A   1      45.796  26.920  35.972  1.00  0.00     0.041 A 
ATOM    107  F   UNL A   1      45.715  28.948  37.141  1.00  0.00    -0.206 F 
ATOM    108  C   UNL A   1      45.605  26.192  34.801  1.00  0.00     0.022 A 
BRANCH 105 109
ATOM    109  S   UNL A   1      44.821  25.917  32.139  1.00  0.00     0.124 S 
ATOM    110  O   UNL A   1      44.252  24.691  32.687  1.00  0.00    -0.237 OA
ATOM    111  O   UNL A   1      43.887  26.800  31.447  1.00  0.00    -0.237 OA
ATOM    112  O   UNL A   1      46.122  25.763  31.490  1.00  0.00    -0.744 OA
ENDBRANCH 105 109
ENDBRANCH  79 102
ENDBRANCH  53  54
ENDBRANCH  46  48
ENDBRANCH  45  46
ENDBRANCH  44  45
ENDBRANCH  43  44
ENDBRANCH  42  43
ENDBRANCH  41  42
ENDBRANCH  40  41
ENDBRANCH  39  40
ENDBRANCH  38  39
ENDBRANCH   1  38
TORSDOF 31
ENDMDL
MODEL 3
REMARK VINA RESULT:      -5.8      2.506      5.164
REMARK SMILES C=C[C@@H]1[C@@H](O)C[C@@H]2[C@@]3(CC[C@@]4(C)[C@@H]([C@H](C)CCC=C(C)C)CC[C@@]24C)C[C@@]13CCC(=O)OCCOCCOCCOCCOC(=O)c1ccc(-c2c3nc(c(-c4cc(S(=O)(=O)[O-])ccc4F)c4ccc([nH]4)c(-c4cc(S(=O)(=O)[O-])ccc4F)c4nc(c(-c5cc(S(=O)(=O)[O-])ccc5F)c5ccc2[nH]5)C=C4)C=C3)cc1
REMARK SMILES IDX 36 1 35 2 34 3 33 4 32 5 30 6 31 7 29 8 28 9 27 10 3 11 4 12
REMARK SMILES IDX 6 13 8 14 26 15 7 16 9 17 24 18 10 19 11 20 23 21 25 22
REMARK SMILES IDX 12 23 13 24 22 25 2 26 1 27 5 28 14 30 15 31 16 32 17 33
REMARK SMILES IDX 18 34 19 35 20 36 21 37 37 38 38 39 39 40 40 41 41 42 42 43
REMARK SMILES IDX 43 44 44 45 45 46 46 47 47 48 48 49 109 50 49 51 108 52
REMARK SMILES IDX 50 53 51 54 52 55 102 56 53 57 107 58 101 59 103 60 54 61
REMARK SMILES IDX 106 62 100 63 99 64 55 66 87 67 67 68 86 69 68 70 71 71
REMARK SMILES IDX 85 72 104 73 69 74 70 75 84 77 105 78 72 79 56 80 57 81
REMARK SMILES IDX 65 82 58 83 64 84 66 85 63 86 59 87 60 88 61 89 62 90 88 91
REMARK SMILES IDX 89 92 97 93 90 94 96 95 98 96 95 97 91 98 92 99 93 100
REMARK SMILES IDX 94 101 73 102 74 103 82 104 75 105 81 106 83 107 80 108
REMARK SMILES IDX 76 109 77 110 78 111 79 112
REMARK H PARENT 5 29 103 65 71 76
REMARK Flexibility Score: inf
ROOT
ATOM      1  C   UNL A   1      40.087  28.682  31.084  1.00  0.00     0.188 C 
ENDROOT
BRANCH   1   2
ATOM      2  O   UNL A   1      40.211  29.446  32.278  1.00  0.00    -0.376 OA
BRANCH   2   3
ATOM      3  C   UNL A   1      41.208  30.445  32.241  1.00  0.00     0.202 C 
BRANCH   3   4
ATOM      4  C   UNL A   1      42.593  29.891  32.472  1.00  0.00     0.261 C 
BRANCH   4   5
ATOM      5  O   UNL A   1      42.563  28.542  32.881  1.00  0.00    -0.463 OA
BRANCH   5   6
ATOM      6  C   UNL A   1      43.759  27.935  32.680  1.00  0.00     0.305 C 
ATOM      7  O   UNL A   1      44.682  27.840  33.489  1.00  0.00    -0.252 OA
BRANCH   6   8
ATOM      8  C   UNL A   1      43.836  27.520  31.263  1.00  0.00     0.123 C 
BRANCH   8   9
ATOM      9  C   UNL A   1      45.291  27.592  30.787  1.00  0.00     0.020 C 
BRANCH   9  10
ATOM     10  C   UNL A   1      45.537  27.548  29.260  1.00  0.00    -0.014 C 
ATOM     11  C   UNL A   1      45.344  28.903  28.487  1.00  0.00     0.047 C 
ATOM     12  C   UNL A   1      44.843  28.718  27.024  1.00  0.00     0.122 C 
ATOM     13  C   UNL A   1      45.330  27.452  26.328  1.00  0.00     0.037 C 
ATOM     14  C   UNL A   1      45.568  26.150  28.483  1.00  0.00    -0.019 C 
ATOM     15  C   UNL A   1      46.834  26.910  28.842  1.00  0.00     0.016 C 
ATOM     16  C   UNL A   1      44.835  26.217  27.100  1.00  0.00     0.005 C 
ATOM     17  C   UNL A   1      45.636  24.762  29.142  1.00  0.00     0.008 C 
ATOM     18  C   UNL A   1      44.914  24.889  26.267  1.00  0.00    -0.023 C 
ATOM     19  C   UNL A   1      45.100  23.550  28.348  1.00  0.00     0.008 C 
ATOM     20  C   UNL A   1      44.239  23.706  27.056  1.00  0.00    -0.024 C 
ATOM     21  C   UNL A   1      44.082  24.875  24.968  1.00  0.00     0.008 C 
ATOM     22  C   UNL A   1      46.411  24.704  25.915  1.00  0.00     0.012 C 
ATOM     23  C   UNL A   1      44.523  22.282  26.374  1.00  0.00     0.012 C 
ATOM     24  C   UNL A   1      42.549  23.850  26.761  1.00  0.00    -0.002 C 
ATOM     25  C   UNL A   1      42.683  24.293  25.247  1.00  0.00     0.005 C 
BRANCH  11  26
ATOM     26  C   UNL A   1      44.629  30.031  29.221  1.00  0.00    -0.028 C 
ATOM     27  C   UNL A   1      43.572  30.747  28.809  1.00  0.00     0.004 C 
ENDBRANCH  11  26
BRANCH  12  28
ATOM     28  O   UNL A   1      45.263  29.836  26.225  1.00  0.00    -0.392 OA
ATOM     29  H   UNL A   1      44.836  30.644  26.548  1.00  0.00     0.210 HD
ENDBRANCH  12  28
BRANCH  24  30
ATOM     30  C   UNL A   1      41.007  24.455  27.288  1.00  0.00    -0.010 C 
ATOM     31  C   UNL A   1      41.001  25.587  28.335  1.00  0.00     0.008 C 
BRANCH  30  32
ATOM     32  C   UNL A   1      39.487  23.730  27.321  1.00  0.00     0.008 C 
BRANCH  32  33
ATOM     33  C   UNL A   1      38.278  24.279  26.390  1.00  0.00     0.027 C 
BRANCH  33  34
ATOM     34  C   UNL A   1      37.060  23.457  25.960  1.00  0.00    -0.028 C 
ATOM     35  C   UNL A   1      37.054  22.140  25.603  1.00  0.00    -0.080 C 
ATOM     36  C   UNL A   1      35.775  21.349  25.456  1.00  0.00     0.039 C 
ATOM     37  C   UNL A   1      38.266  21.255  25.383  1.00  0.00     0.039 C 
ENDBRANCH  33  34
ENDBRANCH  32  33
ENDBRANCH  30  32
ENDBRANCH  24  30
ENDBRANCH   9  10
ENDBRANCH   8   9
ENDBRANCH   6   8
ENDBRANCH   5   6
ENDBRANCH   4   5
ENDBRANCH   3   4
ENDBRANCH   2   3
ENDBRANCH   1   2
BRANCH   1  38
ATOM     38  C   UNL A   1      38.750  28.915  30.378  1.00  0.00     0.188 C 
BRANCH  38  39
ATOM     39  O   UNL A   1      38.739  28.683  28.965  1.00  0.00    -0.377 OA
BRANCH  39  40
ATOM     40  C   UNL A   1      38.229  29.702  28.106  1.00  0.00     0.188 C 
BRANCH  40  41
ATOM     41  C   UNL A   1      36.809  29.437  27.621  1.00  0.00     0.188 C 
BRANCH  41  42
ATOM     42  O   UNL A   1      35.803  30.152  28.338  1.00  0.00    -0.376 OA
BRANCH  42  43
ATOM     43  C   UNL A   1      34.987  31.013  27.553  1.00  0.00     0.202 C 
BRANCH  43  44
ATOM     44  C   UNL A   1      34.045  31.924  28.362  1.00  0.00     0.261 C 
BRANCH  44  45
ATOM     45  O   UNL A   1      34.554  32.409  29.617  1.00  0.00    -0.460 OA
BRANCH  45  46
ATOM     46  C   UNL A   1      35.140  33.622  29.549  1.00  0.00     0.338 C 
ATOM     47  O   UNL A   1      34.592  34.685  29.229  1.00  0.00    -0.246 OA
BRANCH  46  48
ATOM     48  C   UNL A   1      36.572  33.562  29.885  1.00  0.00     0.060 A 
ATOM     49  C   UNL A   1      37.014  32.617  30.820  1.00  0.00     0.016 A 
ATOM     50  C   UNL A   1      37.429  34.583  29.462  1.00  0.00     0.016 A 
ATOM     51  C   UNL A   1      38.281  32.742  31.404  1.00  0.00     0.010 A 
ATOM     52  C   UNL A   1      38.693  34.710  30.056  1.00  0.00     0.010 A 
ATOM     53  C   UNL A   1      39.104  33.827  31.076  1.00  0.00    -0.014 A 
BRANCH  53  54
ATOM     54  C   UNL A   1      40.251  34.206  31.953  1.00  0.00     0.031 A 
ATOM     55  C   UNL A   1      41.643  34.114  31.390  1.00  0.00     0.074 A 
ATOM     56  C   UNL A   1      40.099  34.609  33.226  1.00  0.00     0.049 A 
ATOM     57  N   UNL A   1      42.785  34.352  31.980  1.00  0.00    -0.248 NA
ATOM     58  C   UNL A   1      41.757  33.746  29.971  1.00  0.00     0.031 C 
ATOM     59  C   UNL A   1      38.828  34.893  33.865  1.00  0.00     0.029 A 
ATOM     60  N   UNL A   1      41.016  34.808  34.230  1.00  0.00    -0.354 N 
ATOM     61  C   UNL A   1      43.752  34.225  30.991  1.00  0.00     0.074 A 
ATOM     62  C   UNL A   1      43.068  33.809  29.784  1.00  0.00     0.031 C 
ATOM     63  C   UNL A   1      39.013  35.062  35.184  1.00  0.00     0.029 A 
ATOM     64  C   UNL A   1      40.439  34.968  35.471  1.00  0.00     0.049 A 
ATOM     65  H   UNL A   1      41.989  34.835  34.077  1.00  0.00     0.167 HD
ATOM     66  C   UNL A   1      45.081  34.473  31.073  1.00  0.00     0.034 A 
ATOM     67  C   UNL A   1      40.992  35.029  36.698  1.00  0.00     0.034 A 
ATOM     68  C   UNL A   1      45.761  34.843  32.290  1.00  0.00     0.049 A 
ATOM     69  C   UNL A   1      42.492  35.090  36.813  1.00  0.00     0.074 A 
ATOM     70  C   UNL A   1      47.100  35.144  32.471  1.00  0.00     0.029 A 
ATOM     71  N   UNL A   1      45.165  34.925  33.542  1.00  0.00    -0.354 N 
ATOM     72  N   UNL A   1      43.390  35.043  35.858  1.00  0.00    -0.248 NA
ATOM     73  C   UNL A   1      43.050  35.278  38.157  1.00  0.00     0.031 C 
ATOM     74  C   UNL A   1      47.327  35.329  33.841  1.00  0.00     0.029 A 
ATOM     75  C   UNL A   1      46.117  35.218  34.507  1.00  0.00     0.049 A 
ATOM     76  H   UNL A   1      44.205  34.794  33.719  1.00  0.00     0.167 HD
ATOM     77  C   UNL A   1      44.615  35.268  36.478  1.00  0.00     0.074 A 
ATOM     78  C   UNL A   1      44.340  35.428  37.892  1.00  0.00     0.031 C 
ATOM     79  C   UNL A   1      45.847  35.367  35.919  1.00  0.00     0.034 A 
BRANCH  66  80
ATOM     80  C   UNL A   1      45.880  34.316  29.807  1.00  0.00     0.023 A 
ATOM     81  C   UNL A   1      46.521  33.104  29.491  1.00  0.00     0.031 A 
ATOM     82  C   UNL A   1      46.032  35.396  28.923  1.00  0.00     0.131 A 
ATOM     83  C   UNL A   1      47.336  33.021  28.352  1.00  0.00     0.055 A 
ATOM     84  C   UNL A   1      46.791  35.288  27.757  1.00  0.00     0.041 A 
ATOM     85  F   UNL A   1      45.462  36.582  29.190  1.00  0.00    -0.206 F 
ATOM     86  C   UNL A   1      47.458  34.099  27.472  1.00  0.00     0.022 A 
BRANCH  83  87
ATOM     87  S   UNL A   1      48.336  31.528  28.104  1.00  0.00     0.124 S 
ATOM     88  O   UNL A   1      47.702  30.940  26.926  1.00  0.00    -0.237 OA
ATOM     89  O   UNL A   1      49.674  32.074  27.903  1.00  0.00    -0.237 OA
ATOM     90  O   UNL A   1      48.147  30.780  29.344  1.00  0.00    -0.744 OA
ENDBRANCH  83  87
ENDBRANCH  66  80
BRANCH  67  91
ATOM     91  C   UNL A   1      40.135  35.025  37.916  1.00  0.00     0.023 A 
ATOM     92  C   UNL A   1      39.353  33.914  38.261  1.00  0.00     0.031 A 
ATOM     93  C   UNL A   1      40.040  36.177  38.719  1.00  0.00     0.131 A 
ATOM     94  C   UNL A   1      38.470  33.994  39.351  1.00  0.00     0.055 A 
ATOM     95  C   UNL A   1      39.188  36.239  39.823  1.00  0.00     0.041 A 
ATOM     96  F   UNL A   1      40.771  37.267  38.432  1.00  0.00    -0.206 F 
ATOM     97  C   UNL A   1      38.386  35.146  40.136  1.00  0.00     0.022 A 
BRANCH  94  98
ATOM     98  S   UNL A   1      37.369  32.590  39.678  1.00  0.00     0.124 S 
ATOM     99  O   UNL A   1      38.299  31.467  39.657  1.00  0.00    -0.237 OA
ATOM    100  O   UNL A   1      36.815  32.941  40.982  1.00  0.00    -0.237 OA
ATOM    101  O   UNL A   1      36.420  32.636  38.568  1.00  0.00    -0.744 OA
ENDBRANCH  94  98
ENDBRANCH  67  91
BRANCH  79 102
ATOM    102  C   UNL A   1      46.990  35.725  36.836  1.00  0.00     0.023 A 
ATOM    103  C   UNL A   1      47.737  34.743  37.509  1.00  0.00     0.031 A 
ATOM    104  C   UNL A   1      47.322  37.074  37.054  1.00  0.00     0.131 A 
ATOM    105  C   UNL A   1      48.743  35.127  38.410  1.00  0.00     0.055 A 
ATOM    106  C   UNL A   1      48.363  37.448  37.905  1.00  0.00     0.041 A 
ATOM    107  F   UNL A   1      46.637  38.054  36.441  1.00  0.00    -0.206 F 
ATOM    108  C   UNL A   1      49.071  36.472  38.598  1.00  0.00     0.022 A 
BRANCH 105 109
ATOM    109  S   UNL A   1      49.561  33.846  39.399  1.00  0.00     0.124 S 
ATOM    110  O   UNL A   1      48.800  32.654  39.040  1.00  0.00    -0.237 OA
ATOM    111  O   UNL A   1      50.933  33.899  38.907  1.00  0.00    -0.237 OA
ATOM    112  O   UNL A   1      49.380  34.308  40.775  1.00  0.00    -0.744 OA
ENDBRANCH 105 109
ENDBRANCH  79 102
ENDBRANCH  53  54
ENDBRANCH  46  48
ENDBRANCH  45  46
ENDBRANCH  44  45
ENDBRANCH  43  44
ENDBRANCH  42  43
ENDBRANCH  41  42
ENDBRANCH  40  41
ENDBRANCH  39  40
ENDBRANCH  38  39
ENDBRANCH   1  38
TORSDOF 31
ENDMDL
