MODEL 1
REMARK VINA RESULT:      -8.9      0.000      0.000
REMARK SMILES O=C(OCCOCCOCCOCCOC(=O)c1cccc(CS(=O)(=O)Nc2ncccn2)c1)c1ccc(-c2c3nc(c(-c4cc(S(=O)(=O)[O-])ccc4F)c4ccc([nH]4)c(-c4cc(S(=O)(=O)[O-])ccc4F)c4nc(c(-c5cc(S(=O)(=O)[O-])ccc5F)c5ccc2[nH]5)C=C4)C=C3)cc1
REMARK SMILES IDX 10 1 9 2 8 3 7 4 6 5 5 6 4 7 3 8 2 9 1 10 35 11 36 12 97 13
REMARK SMILES IDX 37 14 96 15 38 16 39 17 40 18 90 19 41 20 95 21 89 22 91 23
REMARK SMILES IDX 42 24 94 25 88 26 87 27 43 29 75 30 55 31 74 32 56 33 59 34
REMARK SMILES IDX 73 35 92 36 57 37 58 38 72 40 93 41 60 42 44 43 45 44 53 45
REMARK SMILES IDX 46 46 52 47 54 48 51 49 47 50 48 51 49 52 50 53 76 54 77 55
REMARK SMILES IDX 85 56 78 57 84 58 86 59 83 60 79 61 80 62 81 63 82 64 61 65
REMARK SMILES IDX 62 66 70 67 63 68 69 69 71 70 68 71 64 72 65 73 66 74 67 75
REMARK SMILES IDX 11 76 12 77 13 78 14 79 15 80 16 81 17 82 18 83 19 84 34 85
REMARK SMILES IDX 20 86 22 87 21 88 23 89 24 90 25 91 26 92 27 93 28 95 29 96
REMARK SMILES IDX 33 97 30 98 32 99 31 100
REMARK H PARENT 91 28 59 39 27 94
REMARK Flexibility Score: inf
ROOT
ATOM      1  C   UNL A   1      39.913  23.277  27.750  1.00  0.00     0.188 C 
ENDROOT
BRANCH   1   2
ATOM      2  O   UNL A   1      41.335  23.353  27.677  1.00  0.00    -0.377 OA
BRANCH   2   3
ATOM      3  C   UNL A   1      41.984  22.202  27.138  1.00  0.00     0.188 C 
BRANCH   3   4
ATOM      4  C   UNL A   1      41.313  21.588  25.905  1.00  0.00     0.188 C 
BRANCH   4   5
ATOM      5  O   UNL A   1      41.241  20.180  26.035  1.00  0.00    -0.376 OA
BRANCH   5   6
ATOM      6  C   UNL A   1      42.149  19.436  26.828  1.00  0.00     0.202 C 
BRANCH   6   7
ATOM      7  C   UNL A   1      43.060  18.456  26.106  1.00  0.00     0.261 C 
BRANCH   7   8
ATOM      8  O   UNL A   1      44.283  19.011  25.582  1.00  0.00    -0.460 OA
BRANCH   8   9
ATOM      9  C   UNL A   1      44.488  19.952  24.627  1.00  0.00     0.338 C 
ATOM     10  O   UNL A   1      44.285  19.663  23.450  1.00  0.00    -0.246 OA
BRANCH   9  11
ATOM     11  C   UNL A   1      44.925  21.334  24.942  1.00  0.00     0.060 A 
ATOM     12  C   UNL A   1      45.618  21.676  26.091  1.00  0.00     0.016 A 
ATOM     13  C   UNL A   1      44.727  22.334  23.986  1.00  0.00     0.016 A 
ATOM     14  C   UNL A   1      45.847  22.981  26.446  1.00  0.00     0.010 A 
ATOM     15  C   UNL A   1      45.118  23.650  24.254  1.00  0.00     0.010 A 
ATOM     16  C   UNL A   1      45.619  23.982  25.521  1.00  0.00    -0.014 A 
BRANCH  16  17
ATOM     17  C   UNL A   1      45.774  25.361  26.007  1.00  0.00     0.031 A 
ATOM     18  C   UNL A   1      47.115  26.001  25.828  1.00  0.00     0.074 A 
ATOM     19  C   UNL A   1      44.685  26.064  26.378  1.00  0.00     0.049 A 
ATOM     20  N   UNL A   1      47.535  27.165  26.233  1.00  0.00    -0.248 NA
ATOM     21  C   UNL A   1      48.120  25.225  25.079  1.00  0.00     0.031 C 
ATOM     22  C   UNL A   1      43.305  25.553  26.384  1.00  0.00     0.029 A 
ATOM     23  N   UNL A   1      44.547  27.368  26.762  1.00  0.00    -0.354 N 
ATOM     24  C   UNL A   1      48.860  27.243  25.824  1.00  0.00     0.074 A 
ATOM     25  C   UNL A   1      49.183  26.005  25.157  1.00  0.00     0.031 C 
ATOM     26  C   UNL A   1      42.466  26.545  26.713  1.00  0.00     0.029 A 
ATOM     27  C   UNL A   1      43.250  27.718  27.064  1.00  0.00     0.049 A 
ATOM     28  H   UNL A   1      45.302  27.998  26.816  1.00  0.00     0.167 HD
ATOM     29  C   UNL A   1      49.719  28.271  26.001  1.00  0.00     0.034 A 
ATOM     30  C   UNL A   1      42.773  28.842  27.631  1.00  0.00     0.034 A 
ATOM     31  C   UNL A   1      49.334  29.483  26.674  1.00  0.00     0.049 A 
ATOM     32  C   UNL A   1      43.785  29.911  27.960  1.00  0.00     0.074 A 
ATOM     33  C   UNL A   1      50.114  30.561  27.036  1.00  0.00     0.029 A 
ATOM     34  N   UNL A   1      48.034  29.771  27.081  1.00  0.00    -0.354 N 
ATOM     35  N   UNL A   1      45.076  29.932  27.701  1.00  0.00    -0.248 NA
ATOM     36  C   UNL A   1      43.290  31.096  28.662  1.00  0.00     0.031 C 
ATOM     37  C   UNL A   1      49.300  31.470  27.720  1.00  0.00     0.029 A 
ATOM     38  C   UNL A   1      47.993  31.001  27.708  1.00  0.00     0.049 A 
ATOM     39  H   UNL A   1      47.257  29.183  26.942  1.00  0.00     0.167 HD
ATOM     40  C   UNL A   1      45.543  31.143  28.195  1.00  0.00     0.074 A 
ATOM     41  C   UNL A   1      44.385  31.837  28.727  1.00  0.00     0.031 C 
ATOM     42  C   UNL A   1      46.806  31.643  28.224  1.00  0.00     0.034 A 
BRANCH  29  43
ATOM     43  C   UNL A   1      51.142  28.057  25.556  1.00  0.00     0.023 A 
ATOM     44  C   UNL A   1      51.535  28.216  24.215  1.00  0.00     0.031 A 
ATOM     45  C   UNL A   1      52.098  27.588  26.473  1.00  0.00     0.131 A 
ATOM     46  C   UNL A   1      52.828  27.841  23.819  1.00  0.00     0.055 A 
ATOM     47  C   UNL A   1      53.406  27.294  26.087  1.00  0.00     0.041 A 
ATOM     48  F   UNL A   1      51.766  27.375  27.757  1.00  0.00    -0.206 F 
ATOM     49  C   UNL A   1      53.775  27.408  24.749  1.00  0.00     0.022 A 
BRANCH  46  50
ATOM     50  S   UNL A   1      53.211  27.784  22.045  1.00  0.00     0.124 S 
ATOM     51  O   UNL A   1      54.256  28.799  21.937  1.00  0.00    -0.237 OA
ATOM     52  O   UNL A   1      53.641  26.403  21.858  1.00  0.00    -0.237 OA
ATOM     53  O   UNL A   1      51.943  28.134  21.409  1.00  0.00    -0.744 OA
ENDBRANCH  46  50
ENDBRANCH  29  43
BRANCH  30  54
ATOM     54  C   UNL A   1      41.337  28.967  28.031  1.00  0.00     0.023 A 
ATOM     55  C   UNL A   1      40.933  28.842  29.368  1.00  0.00     0.031 A 
ATOM     56  C   UNL A   1      40.327  29.120  27.059  1.00  0.00     0.131 A 
ATOM     57  C   UNL A   1      39.565  28.799  29.688  1.00  0.00     0.055 A 
ATOM     58  C   UNL A   1      38.972  29.153  27.390  1.00  0.00     0.041 A 
ATOM     59  F   UNL A   1      40.641  29.234  25.758  1.00  0.00    -0.206 F 
ATOM     60  C   UNL A   1      38.582  28.968  28.710  1.00  0.00     0.022 A 
BRANCH  57  61
ATOM     61  S   UNL A   1      39.083  28.373  31.385  1.00  0.00     0.124 S 
ATOM     62  O   UNL A   1      40.359  28.460  32.086  1.00  0.00    -0.237 OA
ATOM     63  O   UNL A   1      38.110  29.416  31.691  1.00  0.00    -0.237 OA
ATOM     64  O   UNL A   1      38.530  27.027  31.253  1.00  0.00    -0.744 OA
ENDBRANCH  57  61
ENDBRANCH  30  54
BRANCH  42  65
ATOM     65  C   UNL A   1      46.962  33.018  28.817  1.00  0.00     0.023 A 
ATOM     66  C   UNL A   1      46.815  34.173  28.033  1.00  0.00     0.031 A 
ATOM     67  C   UNL A   1      47.289  33.167  30.175  1.00  0.00     0.131 A 
ATOM     68  C   UNL A   1      47.079  35.428  28.595  1.00  0.00     0.055 A 
ATOM     69  C   UNL A   1      47.465  34.424  30.749  1.00  0.00     0.041 A 
ATOM     70  F   UNL A   1      47.441  32.092  30.965  1.00  0.00    -0.206 F 
ATOM     71  C   UNL A   1      47.379  35.563  29.953  1.00  0.00     0.022 A 
BRANCH  68  72
ATOM     72  S   UNL A   1      47.156  36.864  27.492  1.00  0.00     0.124 S 
ATOM     73  O   UNL A   1      48.071  37.745  28.211  1.00  0.00    -0.237 OA
ATOM     74  O   UNL A   1      47.671  36.282  26.257  1.00  0.00    -0.237 OA
ATOM     75  O   UNL A   1      45.770  37.322  27.433  1.00  0.00    -0.744 OA
ENDBRANCH  68  72
ENDBRANCH  42  65
ENDBRANCH  16  17
ENDBRANCH   9  11
ENDBRANCH   8   9
ENDBRANCH   7   8
ENDBRANCH   6   7
ENDBRANCH   5   6
ENDBRANCH   4   5
ENDBRANCH   3   4
ENDBRANCH   2   3
ENDBRANCH   1   2
BRANCH   1  76
ATOM     76  C   UNL A   1      39.065  24.451  27.182  1.00  0.00     0.188 C 
BRANCH  76  77
ATOM     77  O   UNL A   1      38.429  24.170  25.942  1.00  0.00    -0.376 OA
BRANCH  77  78
ATOM     78  C   UNL A   1      37.895  22.862  25.776  1.00  0.00     0.202 C 
BRANCH  78  79
ATOM     79  C   UNL A   1      36.892  22.641  24.627  1.00  0.00     0.261 C 
BRANCH  79  80
ATOM     80  O   UNL A   1      35.628  23.320  24.725  1.00  0.00    -0.460 OA
BRANCH  80  81
ATOM     81  C   UNL A   1      34.525  22.550  24.708  1.00  0.00     0.338 C 
ATOM     82  O   UNL A   1      34.397  21.447  25.229  1.00  0.00    -0.246 OA
BRANCH  81  83
ATOM     83  C   UNL A   1      33.405  23.321  24.126  1.00  0.00     0.060 A 
ATOM     84  C   UNL A   1      32.175  22.689  23.889  1.00  0.00     0.016 A 
ATOM     85  C   UNL A   1      33.584  24.658  23.782  1.00  0.00     0.020 A 
ATOM     86  C   UNL A   1      31.086  23.431  23.441  1.00  0.00     0.001 A 
ATOM     87  C   UNL A   1      32.552  25.332  23.117  1.00  0.00    -0.030 A 
ATOM     88  C   UNL A   1      31.273  24.756  23.065  1.00  0.00     0.005 A 
BRANCH  87  89
ATOM     89  C   UNL A   1      32.868  26.598  22.377  1.00  0.00     0.195 C 
BRANCH  89  90
ATOM     90  S   UNL A   1      32.412  28.068  23.357  1.00  0.00     0.239 S 
ATOM     91  O   UNL A   1      33.020  27.972  24.672  1.00  0.00    -0.206 OA
ATOM     92  O   UNL A   1      32.755  29.225  22.549  1.00  0.00    -0.206 OA
BRANCH  90  93
ATOM     93  N   UNL A   1      30.788  28.187  23.649  1.00  0.00    -0.251 N 
ATOM     94  H   UNL A   1      30.338  27.482  24.169  1.00  0.00     0.183 HD
BRANCH  93  95
ATOM     95  C   UNL A   1      30.044  29.264  23.174  1.00  0.00     0.236 A 
ATOM     96  N   UNL A   1      29.928  30.328  23.975  1.00  0.00    -0.221 NA
ATOM     97  N   UNL A   1      29.326  28.996  22.082  1.00  0.00    -0.221 NA
ATOM     98  C   UNL A   1      28.937  31.185  23.641  1.00  0.00     0.117 A 
ATOM     99  C   UNL A   1      28.391  29.916  21.766  1.00  0.00     0.117 A 
ATOM    100  C   UNL A   1      28.129  31.024  22.538  1.00  0.00     0.040 A 
ENDBRANCH  93  95
ENDBRANCH  90  93
ENDBRANCH  89  90
ENDBRANCH  87  89
ENDBRANCH  81  83
ENDBRANCH  80  81
ENDBRANCH  79  80
ENDBRANCH  78  79
ENDBRANCH  77  78
ENDBRANCH  76  77
ENDBRANCH   1  76
TORSDOF 27
ENDMDL
MODEL 2
REMARK VINA RESULT:      -8.8      2.442      7.781
REMARK SMILES O=C(OCCOCCOCCOCCOC(=O)c1cccc(CS(=O)(=O)Nc2ncccn2)c1)c1ccc(-c2c3nc(c(-c4cc(S(=O)(=O)[O-])ccc4F)c4ccc([nH]4)c(-c4cc(S(=O)(=O)[O-])ccc4F)c4nc(c(-c5cc(S(=O)(=O)[O-])ccc5F)c5ccc2[nH]5)C=C4)C=C3)cc1
REMARK SMILES IDX 10 1 9 2 8 3 7 4 6 5 5 6 4 7 3 8 2 9 1 10 35 11 36 12 97 13
REMARK SMILES IDX 37 14 96 15 38 16 39 17 40 18 90 19 41 20 95 21 89 22 91 23
REMARK SMILES IDX 42 24 94 25 88 26 87 27 43 29 75 30 55 31 74 32 56 33 59 34
REMARK SMILES IDX 73 35 92 36 57 37 58 38 72 40 93 41 60 42 44 43 45 44 53 45
REMARK SMILES IDX 46 46 52 47 54 48 51 49 47 50 48 51 49 52 50 53 76 54 77 55
REMARK SMILES IDX 85 56 78 57 84 58 86 59 83 60 79 61 80 62 81 63 82 64 61 65
REMARK SMILES IDX 62 66 70 67 63 68 69 69 71 70 68 71 64 72 65 73 66 74 67 75
REMARK SMILES IDX 11 76 12 77 13 78 14 79 15 80 16 81 17 82 18 83 19 84 34 85
REMARK SMILES IDX 20 86 22 87 21 88 23 89 24 90 25 91 26 92 27 93 28 95 29 96
REMARK SMILES IDX 33 97 30 98 32 99 31 100
REMARK H PARENT 91 28 59 39 27 94
REMARK Flexibility Score: inf
ROOT
ATOM      1  C   UNL A   1      40.532  22.941  27.592  1.00  0.00     0.188 C 
ENDROOT
BRANCH   1   2
ATOM      2  O   UNL A   1      41.832  22.374  27.742  1.00  0.00    -0.377 OA
BRANCH   2   3
ATOM      3  C   UNL A   1      41.951  21.003  27.363  1.00  0.00     0.188 C 
BRANCH   3   4
ATOM      4  C   UNL A   1      41.147  20.594  26.124  1.00  0.00     0.188 C 
BRANCH   4   5
ATOM      5  O   UNL A   1      41.668  19.398  25.573  1.00  0.00    -0.376 OA
BRANCH   5   6
ATOM      6  C   UNL A   1      42.774  18.713  26.135  1.00  0.00     0.202 C 
BRANCH   6   7
ATOM      7  C   UNL A   1      44.015  18.569  25.269  1.00  0.00     0.261 C 
BRANCH   7   8
ATOM      8  O   UNL A   1      44.876  19.723  25.215  1.00  0.00    -0.460 OA
BRANCH   8   9
ATOM      9  C   UNL A   1      44.746  20.893  24.542  1.00  0.00     0.338 C 
ATOM     10  O   UNL A   1      44.541  20.865  23.330  1.00  0.00    -0.246 OA
BRANCH   9  11
ATOM     11  C   UNL A   1      44.812  22.216  25.209  1.00  0.00     0.060 A 
ATOM     12  C   UNL A   1      44.153  23.342  24.745  1.00  0.00     0.016 A 
ATOM     13  C   UNL A   1      45.484  22.318  26.430  1.00  0.00     0.016 A 
ATOM     14  C   UNL A   1      44.376  24.589  25.271  1.00  0.00     0.010 A 
ATOM     15  C   UNL A   1      45.574  23.553  27.081  1.00  0.00     0.010 A 
ATOM     16  C   UNL A   1      45.073  24.706  26.458  1.00  0.00    -0.014 A 
BRANCH  16  17
ATOM     17  C   UNL A   1      45.375  26.075  26.900  1.00  0.00     0.031 A 
ATOM     18  C   UNL A   1      44.326  26.782  27.699  1.00  0.00     0.074 A 
ATOM     19  C   UNL A   1      46.630  26.554  26.776  1.00  0.00     0.049 A 
ATOM     20  N   UNL A   1      44.309  28.008  28.138  1.00  0.00    -0.248 NA
ATOM     21  C   UNL A   1      43.133  25.995  28.061  1.00  0.00     0.031 C 
ATOM     22  C   UNL A   1      47.762  25.827  26.180  1.00  0.00     0.029 A 
ATOM     23  N   UNL A   1      47.186  27.731  27.193  1.00  0.00    -0.354 N 
ATOM     24  C   UNL A   1      43.092  28.149  28.792  1.00  0.00     0.074 A 
ATOM     25  C   UNL A   1      42.388  26.895  28.677  1.00  0.00     0.031 C 
ATOM     26  C   UNL A   1      48.877  26.560  26.309  1.00  0.00     0.029 A 
ATOM     27  C   UNL A   1      48.520  27.852  26.875  1.00  0.00     0.049 A 
ATOM     28  H   UNL A   1      46.681  28.426  27.674  1.00  0.00     0.167 HD
ATOM     29  C   UNL A   1      42.619  29.244  29.429  1.00  0.00     0.034 A 
ATOM     30  C   UNL A   1      49.333  28.920  26.970  1.00  0.00     0.034 A 
ATOM     31  C   UNL A   1      43.373  30.466  29.510  1.00  0.00     0.049 A 
ATOM     32  C   UNL A   1      48.727  30.177  27.542  1.00  0.00     0.074 A 
ATOM     33  C   UNL A   1      42.988  31.692  30.012  1.00  0.00     0.029 A 
ATOM     34  N   UNL A   1      44.687  30.603  29.074  1.00  0.00    -0.354 N 
ATOM     35  N   UNL A   1      47.521  30.359  28.038  1.00  0.00    -0.248 NA
ATOM     36  C   UNL A   1      49.576  31.370  27.562  1.00  0.00     0.031 C 
ATOM     37  C   UNL A   1      44.046  32.587  29.818  1.00  0.00     0.029 A 
ATOM     38  C   UNL A   1      45.123  31.899  29.276  1.00  0.00     0.049 A 
ATOM     39  H   UNL A   1      45.228  29.882  28.678  1.00  0.00     0.167 HD
ATOM     40  C   UNL A   1      47.473  31.687  28.445  1.00  0.00     0.074 A 
ATOM     41  C   UNL A   1      48.787  32.240  28.173  1.00  0.00     0.031 C 
ATOM     42  C   UNL A   1      46.447  32.397  28.981  1.00  0.00     0.034 A 
BRANCH  29  43
ATOM     43  C   UNL A   1      41.214  29.169  29.965  1.00  0.00     0.023 A 
ATOM     44  C   UNL A   1      40.117  29.688  29.255  1.00  0.00     0.031 A 
ATOM     45  C   UNL A   1      40.984  28.659  31.254  1.00  0.00     0.131 A 
ATOM     46  C   UNL A   1      38.855  29.748  29.867  1.00  0.00     0.055 A 
ATOM     47  C   UNL A   1      39.711  28.648  31.826  1.00  0.00     0.041 A 
ATOM     48  F   UNL A   1      42.002  28.191  31.995  1.00  0.00    -0.206 F 
ATOM     49  C   UNL A   1      38.639  29.207  31.137  1.00  0.00     0.022 A 
BRANCH  46  50
ATOM     50  S   UNL A   1      37.533  30.680  29.044  1.00  0.00     0.124 S 
ATOM     51  O   UNL A   1      36.427  30.512  29.983  1.00  0.00    -0.237 OA
ATOM     52  O   UNL A   1      38.097  32.022  28.958  1.00  0.00    -0.237 OA
ATOM     53  O   UNL A   1      37.370  29.989  27.767  1.00  0.00    -0.744 OA
ENDBRANCH  46  50
ENDBRANCH  29  43
BRANCH  30  54
ATOM     54  C   UNL A   1      50.722  28.897  26.416  1.00  0.00     0.023 A 
ATOM     55  C   UNL A   1      50.985  29.217  25.076  1.00  0.00     0.031 A 
ATOM     56  C   UNL A   1      51.806  28.457  27.203  1.00  0.00     0.131 A 
ATOM     57  C   UNL A   1      52.273  29.026  24.546  1.00  0.00     0.055 A 
ATOM     58  C   UNL A   1      53.100  28.341  26.692  1.00  0.00     0.041 A 
ATOM     59  F   UNL A   1      51.626  28.122  28.491  1.00  0.00    -0.206 F 
ATOM     60  C   UNL A   1      53.335  28.604  25.349  1.00  0.00     0.022 A 
BRANCH  57  61
ATOM     61  S   UNL A   1      52.510  29.198  22.755  1.00  0.00     0.124 S 
ATOM     62  O   UNL A   1      53.329  30.403  22.680  1.00  0.00    -0.237 OA
ATOM     63  O   UNL A   1      53.179  27.946  22.420  1.00  0.00    -0.237 OA
ATOM     64  O   UNL A   1      51.148  29.333  22.244  1.00  0.00    -0.744 OA
ENDBRANCH  57  61
ENDBRANCH  30  54
BRANCH  42  65
ATOM     65  C   UNL A   1      46.745  33.828  29.337  1.00  0.00     0.023 A 
ATOM     66  C   UNL A   1      46.544  34.868  28.416  1.00  0.00     0.031 A 
ATOM     67  C   UNL A   1      47.264  34.146  30.604  1.00  0.00     0.131 A 
ATOM     68  C   UNL A   1      46.940  36.170  28.746  1.00  0.00     0.055 A 
ATOM     69  C   UNL A   1      47.574  35.458  30.957  1.00  0.00     0.041 A 
ATOM     70  F   UNL A   1      47.475  33.186  31.518  1.00  0.00    -0.206 F 
ATOM     71  C   UNL A   1      47.431  36.476  30.018  1.00  0.00     0.022 A 
BRANCH  68  72
ATOM     72  S   UNL A   1      46.928  37.428  27.442  1.00  0.00     0.124 S 
ATOM     73  O   UNL A   1      46.908  36.609  26.235  1.00  0.00    -0.237 OA
ATOM     74  O   UNL A   1      45.703  38.166  27.731  1.00  0.00    -0.237 OA
ATOM     75  O   UNL A   1      48.167  38.167  27.672  1.00  0.00    -0.744 OA
ENDBRANCH  68  72
ENDBRANCH  42  65
ENDBRANCH  16  17
ENDBRANCH   9  11
ENDBRANCH   8   9
ENDBRANCH   7   8
ENDBRANCH   6   7
ENDBRANCH   5   6
ENDBRANCH   4   5
ENDBRANCH   3   4
ENDBRANCH   2   3
ENDBRANCH   1   2
BRANCH   1  76
ATOM     76  C   UNL A   1      40.397  24.371  26.993  1.00  0.00     0.188 C 
BRANCH  76  77
ATOM     77  O   UNL A   1      39.269  24.549  26.147  1.00  0.00    -0.376 OA
BRANCH  77  78
ATOM     78  C   UNL A   1      38.129  23.744  26.419  1.00  0.00     0.202 C 
BRANCH  78  79
ATOM     79  C   UNL A   1      37.645  22.793  25.307  1.00  0.00     0.261 C 
BRANCH  79  80
ATOM     80  O   UNL A   1      36.316  23.004  24.801  1.00  0.00    -0.460 OA
BRANCH  80  81
ATOM     81  C   UNL A   1      35.572  21.905  24.577  1.00  0.00     0.338 C 
ATOM     82  O   UNL A   1      35.893  20.746  24.817  1.00  0.00    -0.246 OA
BRANCH  81  83
ATOM     83  C   UNL A   1      34.210  22.316  24.174  1.00  0.00     0.060 A 
ATOM     84  C   UNL A   1      34.044  23.244  23.133  1.00  0.00     0.016 A 
ATOM     85  C   UNL A   1      33.101  21.815  24.849  1.00  0.00     0.020 A 
ATOM     86  C   UNL A   1      32.767  23.556  22.678  1.00  0.00     0.001 A 
ATOM     87  C   UNL A   1      31.831  22.314  24.535  1.00  0.00    -0.030 A 
ATOM     88  C   UNL A   1      31.660  23.083  23.373  1.00  0.00     0.005 A 
BRANCH  87  89
ATOM     89  C   UNL A   1      30.709  22.114  25.509  1.00  0.00     0.195 C 
BRANCH  89  90
ATOM     90  S   UNL A   1      30.676  23.441  26.761  1.00  0.00     0.239 S 
ATOM     91  O   UNL A   1      29.423  23.376  27.493  1.00  0.00    -0.206 OA
ATOM     92  O   UNL A   1      31.902  23.315  27.529  1.00  0.00    -0.206 OA
BRANCH  90  93
ATOM     93  N   UNL A   1      30.707  24.962  26.110  1.00  0.00    -0.251 N 
ATOM     94  H   UNL A   1      29.991  25.236  25.491  1.00  0.00     0.183 HD
BRANCH  93  95
ATOM     95  C   UNL A   1      31.724  25.861  26.417  1.00  0.00     0.236 A 
ATOM     96  N   UNL A   1      31.414  26.887  27.215  1.00  0.00    -0.221 NA
ATOM     97  N   UNL A   1      32.820  25.726  25.669  1.00  0.00    -0.221 NA
ATOM     98  C   UNL A   1      32.305  27.903  27.207  1.00  0.00     0.117 A 
ATOM     99  C   UNL A   1      33.701  26.745  25.746  1.00  0.00     0.117 A 
ATOM    100  C   UNL A   1      33.475  27.886  26.482  1.00  0.00     0.040 A 
ENDBRANCH  93  95
ENDBRANCH  90  93
ENDBRANCH  89  90
ENDBRANCH  87  89
ENDBRANCH  81  83
ENDBRANCH  80  81
ENDBRANCH  79  80
ENDBRANCH  78  79
ENDBRANCH  77  78
ENDBRANCH  76  77
ENDBRANCH   1  76
TORSDOF 27
ENDMDL
MODEL 3
REMARK VINA RESULT:      -8.8      2.597      7.853
REMARK SMILES O=C(OCCOCCOCCOCCOC(=O)c1cccc(CS(=O)(=O)Nc2ncccn2)c1)c1ccc(-c2c3nc(c(-c4cc(S(=O)(=O)[O-])ccc4F)c4ccc([nH]4)c(-c4cc(S(=O)(=O)[O-])ccc4F)c4nc(c(-c5cc(S(=O)(=O)[O-])ccc5F)c5ccc2[nH]5)C=C4)C=C3)cc1
REMARK SMILES IDX 10 1 9 2 8 3 7 4 6 5 5 6 4 7 3 8 2 9 1 10 35 11 36 12 97 13
REMARK SMILES IDX 37 14 96 15 38 16 39 17 40 18 90 19 41 20 95 21 89 22 91 23
REMARK SMILES IDX 42 24 94 25 88 26 87 27 43 29 75 30 55 31 74 32 56 33 59 34
REMARK SMILES IDX 73 35 92 36 57 37 58 38 72 40 93 41 60 42 44 43 45 44 53 45
REMARK SMILES IDX 46 46 52 47 54 48 51 49 47 50 48 51 49 52 50 53 76 54 77 55
REMARK SMILES IDX 85 56 78 57 84 58 86 59 83 60 79 61 80 62 81 63 82 64 61 65
REMARK SMILES IDX 62 66 70 67 63 68 69 69 71 70 68 71 64 72 65 73 66 74 67 75
REMARK SMILES IDX 11 76 12 77 13 78 14 79 15 80 16 81 17 82 18 83 19 84 34 85
REMARK SMILES IDX 20 86 22 87 21 88 23 89 24 90 25 91 26 92 27 93 28 95 29 96
REMARK SMILES IDX 33 97 30 98 32 99 31 100
REMARK H PARENT 91 28 59 39 27 94
REMARK Flexibility Score: inf
ROOT
ATOM      1  C   UNL A   1      40.315  22.561  27.514  1.00  0.00     0.188 C 
ENDROOT
BRANCH   1   2
ATOM      2  O   UNL A   1      41.470  21.825  27.915  1.00  0.00    -0.377 OA
BRANCH   2   3
ATOM      3  C   UNL A   1      41.455  20.436  27.592  1.00  0.00     0.188 C 
BRANCH   3   4
ATOM      4  C   UNL A   1      41.148  20.106  26.127  1.00  0.00     0.188 C 
BRANCH   4   5
ATOM      5  O   UNL A   1      41.671  18.834  25.790  1.00  0.00    -0.376 OA
BRANCH   5   6
ATOM      6  C   UNL A   1      43.006  18.454  26.073  1.00  0.00     0.202 C 
BRANCH   6   7
ATOM      7  C   UNL A   1      44.080  18.915  25.101  1.00  0.00     0.261 C 
BRANCH   7   8
ATOM      8  O   UNL A   1      44.663  20.203  25.380  1.00  0.00    -0.460 OA
BRANCH   8   9
ATOM      9  C   UNL A   1      44.545  21.387  24.730  1.00  0.00     0.338 C 
ATOM     10  O   UNL A   1      44.531  21.395  23.501  1.00  0.00    -0.246 OA
BRANCH   9  11
ATOM     11  C   UNL A   1      44.405  22.683  25.438  1.00  0.00     0.060 A 
ATOM     12  C   UNL A   1      43.927  23.836  24.839  1.00  0.00     0.016 A 
ATOM     13  C   UNL A   1      44.663  22.728  26.811  1.00  0.00     0.016 A 
ATOM     14  C   UNL A   1      43.979  25.058  25.458  1.00  0.00     0.010 A 
ATOM     15  C   UNL A   1      44.549  23.937  27.507  1.00  0.00     0.010 A 
ATOM     16  C   UNL A   1      44.271  25.119  26.807  1.00  0.00    -0.014 A 
BRANCH  16  17
ATOM     17  C   UNL A   1      44.425  26.466  27.377  1.00  0.00     0.031 A 
ATOM     18  C   UNL A   1      43.226  27.068  28.040  1.00  0.00     0.074 A 
ATOM     19  C   UNL A   1      45.655  27.007  27.485  1.00  0.00     0.049 A 
ATOM     20  N   UNL A   1      43.073  28.257  28.547  1.00  0.00    -0.248 NA
ATOM     21  C   UNL A   1      42.036  26.205  28.157  1.00  0.00     0.031 C 
ATOM     22  C   UNL A   1      46.905  26.375  27.034  1.00  0.00     0.029 A 
ATOM     23  N   UNL A   1      46.074  28.176  28.059  1.00  0.00    -0.354 N 
ATOM     24  C   UNL A   1      41.762  28.298  29.005  1.00  0.00     0.074 A 
ATOM     25  C   UNL A   1      41.155  27.025  28.701  1.00  0.00     0.031 C 
ATOM     26  C   UNL A   1      47.944  27.146  27.385  1.00  0.00     0.029 A 
ATOM     27  C   UNL A   1      47.432  28.377  27.966  1.00  0.00     0.049 A 
ATOM     28  H   UNL A   1      45.462  28.812  28.496  1.00  0.00     0.167 HD
ATOM     29  C   UNL A   1      41.137  29.323  29.626  1.00  0.00     0.034 A 
ATOM     30  C   UNL A   1      48.160  29.471  28.257  1.00  0.00     0.034 A 
ATOM     31  C   UNL A   1      41.800  30.569  29.903  1.00  0.00     0.049 A 
ATOM     32  C   UNL A   1      47.404  30.657  28.803  1.00  0.00     0.074 A 
ATOM     33  C   UNL A   1      41.275  31.738  30.413  1.00  0.00     0.029 A 
ATOM     34  N   UNL A   1      43.157  30.795  29.692  1.00  0.00    -0.354 N 
ATOM     35  N   UNL A   1      46.127  30.750  29.110  1.00  0.00    -0.248 NA
ATOM     36  C   UNL A   1      48.173  31.881  29.033  1.00  0.00     0.031 C 
ATOM     37  C   UNL A   1      42.299  32.690  30.448  1.00  0.00     0.029 A 
ATOM     38  C   UNL A   1      43.484  32.091  30.043  1.00  0.00     0.049 A 
ATOM     39  H   UNL A   1      43.792  30.128  29.344  1.00  0.00     0.167 HD
ATOM     40  C   UNL A   1      45.944  32.042  29.586  1.00  0.00     0.074 A 
ATOM     41  C   UNL A   1      47.252  32.671  29.563  1.00  0.00     0.031 C 
ATOM     42  C   UNL A   1      44.808  32.666  29.995  1.00  0.00     0.034 A 
BRANCH  29  43
ATOM     43  C   UNL A   1      39.671  29.149  29.924  1.00  0.00     0.023 A 
ATOM     44  C   UNL A   1      38.673  29.575  29.031  1.00  0.00     0.031 A 
ATOM     45  C   UNL A   1      39.268  28.637  31.169  1.00  0.00     0.131 A 
ATOM     46  C   UNL A   1      37.326  29.547  29.425  1.00  0.00     0.055 A 
ATOM     47  C   UNL A   1      37.922  28.536  31.523  1.00  0.00     0.041 A 
ATOM     48  F   UNL A   1      40.179  28.256  32.079  1.00  0.00    -0.206 F 
ATOM     49  C   UNL A   1      36.941  29.006  30.654  1.00  0.00     0.022 A 
BRANCH  46  50
ATOM     50  S   UNL A   1      36.095  30.368  28.374  1.00  0.00     0.124 S 
ATOM     51  O   UNL A   1      36.935  30.918  27.313  1.00  0.00    -0.237 OA
ATOM     52  O   UNL A   1      35.221  29.267  27.989  1.00  0.00    -0.237 OA
ATOM     53  O   UNL A   1      35.493  31.362  29.261  1.00  0.00    -0.744 OA
ENDBRANCH  46  50
ENDBRANCH  29  43
BRANCH  30  54
ATOM     54  C   UNL A   1      49.619  29.549  27.933  1.00  0.00     0.023 A 
ATOM     55  C   UNL A   1      50.076  30.134  26.743  1.00  0.00     0.031 A 
ATOM     56  C   UNL A   1      50.578  28.946  28.771  1.00  0.00     0.131 A 
ATOM     57  C   UNL A   1      51.435  30.043  26.392  1.00  0.00     0.055 A 
ATOM     58  C   UNL A   1      51.938  28.925  28.454  1.00  0.00     0.041 A 
ATOM     59  F   UNL A   1      50.210  28.357  29.920  1.00  0.00    -0.206 F 
ATOM     60  C   UNL A   1      52.370  29.455  27.246  1.00  0.00     0.022 A 
BRANCH  57  61
ATOM     61  S   UNL A   1      51.941  30.577  24.732  1.00  0.00     0.124 S 
ATOM     62  O   UNL A   1      51.283  31.874  24.626  1.00  0.00    -0.237 OA
ATOM     63  O   UNL A   1      53.394  30.602  24.856  1.00  0.00    -0.237 OA
ATOM     64  O   UNL A   1      51.408  29.530  23.863  1.00  0.00    -0.744 OA
ENDBRANCH  57  61
ENDBRANCH  30  54
BRANCH  42  65
ATOM     65  C   UNL A   1      44.969  34.081  30.483  1.00  0.00     0.023 A 
ATOM     66  C   UNL A   1      45.190  34.366  31.839  1.00  0.00     0.031 A 
ATOM     67  C   UNL A   1      44.870  35.154  29.581  1.00  0.00     0.131 A 
ATOM     68  C   UNL A   1      45.221  35.698  32.270  1.00  0.00     0.055 A 
ATOM     69  C   UNL A   1      44.989  36.475  30.004  1.00  0.00     0.041 A 
ATOM     70  F   UNL A   1      44.657  34.932  28.274  1.00  0.00    -0.206 F 
ATOM     71  C   UNL A   1      45.146  36.754  31.358  1.00  0.00     0.022 A 
BRANCH  68  72
ATOM     72  S   UNL A   1      45.225  36.025  34.052  1.00  0.00     0.124 S 
ATOM     73  O   UNL A   1      43.803  35.948  34.375  1.00  0.00    -0.237 OA
ATOM     74  O   UNL A   1      46.054  34.940  34.567  1.00  0.00    -0.237 OA
ATOM     75  O   UNL A   1      45.814  37.358  34.152  1.00  0.00    -0.744 OA
ENDBRANCH  68  72
ENDBRANCH  42  65
ENDBRANCH  16  17
ENDBRANCH   9  11
ENDBRANCH   8   9
ENDBRANCH   7   8
ENDBRANCH   6   7
ENDBRANCH   5   6
ENDBRANCH   4   5
ENDBRANCH   3   4
ENDBRANCH   2   3
ENDBRANCH   1   2
BRANCH   1  76
ATOM     76  C   UNL A   1      40.480  23.728  26.499  1.00  0.00     0.188 C 
BRANCH  76  77
ATOM     77  O   UNL A   1      39.333  24.558  26.368  1.00  0.00    -0.376 OA
BRANCH  77  78
ATOM     78  C   UNL A   1      38.065  23.923  26.480  1.00  0.00     0.202 C 
BRANCH  78  79
ATOM     79  C   UNL A   1      37.425  23.372  25.190  1.00  0.00     0.261 C 
BRANCH  79  80
ATOM     80  O   UNL A   1      35.997  23.486  25.070  1.00  0.00    -0.460 OA
BRANCH  80  81
ATOM     81  C   UNL A   1      35.486  23.409  23.828  1.00  0.00     0.338 C 
ATOM     82  O   UNL A   1      36.087  23.078  22.812  1.00  0.00    -0.246 OA
BRANCH  81  83
ATOM     83  C   UNL A   1      34.021  23.597  23.895  1.00  0.00     0.060 A 
ATOM     84  C   UNL A   1      33.190  22.905  22.999  1.00  0.00     0.016 A 
ATOM     85  C   UNL A   1      33.472  24.484  24.817  1.00  0.00     0.020 A 
ATOM     86  C   UNL A   1      31.807  22.994  23.123  1.00  0.00     0.001 A 
ATOM     87  C   UNL A   1      32.097  24.739  24.778  1.00  0.00    -0.030 A 
ATOM     88  C   UNL A   1      31.260  23.904  24.020  1.00  0.00     0.005 A 
BRANCH  87  89
ATOM     89  C   UNL A   1      31.566  25.970  25.451  1.00  0.00     0.195 C 
BRANCH  89  90
ATOM     90  S   UNL A   1      31.281  27.311  24.247  1.00  0.00     0.239 S 
ATOM     91  O   UNL A   1      31.088  28.561  24.961  1.00  0.00    -0.206 OA
ATOM     92  O   UNL A   1      32.377  27.251  23.296  1.00  0.00    -0.206 OA
BRANCH  90  93
ATOM     93  N   UNL A   1      29.900  27.115  23.357  1.00  0.00    -0.251 N 
ATOM     94  H   UNL A   1      29.519  26.213  23.250  1.00  0.00     0.183 HD
BRANCH  93  95
ATOM     95  C   UNL A   1      29.267  28.199  22.753  1.00  0.00     0.236 A 
ATOM     96  N   UNL A   1      30.012  28.985  21.971  1.00  0.00    -0.221 NA
ATOM     97  N   UNL A   1      28.052  28.462  23.236  1.00  0.00    -0.221 NA
ATOM     98  C   UNL A   1      29.466  30.190  21.693  1.00  0.00     0.117 A 
ATOM     99  C   UNL A   1      27.535  29.656  22.879  1.00  0.00     0.117 A 
ATOM    100  C   UNL A   1      28.221  30.582  22.128  1.00  0.00     0.040 A 
ENDBRANCH  93  95
ENDBRANCH  90  93
ENDBRANCH  89  90
ENDBRANCH  87  89
ENDBRANCH  81  83
ENDBRANCH  80  81
ENDBRANCH  79  80
ENDBRANCH  78  79
ENDBRANCH  77  78
ENDBRANCH  76  77
ENDBRANCH   1  76
TORSDOF 27
ENDMDL
