MODEL 1
REMARK VINA RESULT:      -9.9      0.000      0.000
REMARK SMILES CCn1cc(S(=O)(=O)Nc2c(C)cc(C)cc2C(=O)OCCOCCOCCOCCOC(=O)c2ccc(-c3c4nc(c(-c5cc(S(=O)(=O)[O-])ccc5F)c5ccc([nH]5)c(-c5cc(S(=O)(=O)[O-])ccc5F)c5nc(c(-c6cc(S(=O)(=O)[O-])ccc6F)c6ccc3[nH]6)C=C5)C=C4)cc2)cn1
REMARK SMILES IDX 25 1 24 2 23 3 22 4 21 5 20 6 18 7 19 8 17 9 10 10 11 11
REMARK SMILES IDX 12 12 13 13 16 14 14 15 15 16 9 17 6 19 7 20 8 21 5 22 3 23
REMARK SMILES IDX 4 24 99 25 98 26 2 27 1 28 26 29 27 30 28 31 29 32 30 33
REMARK SMILES IDX 31 34 32 35 33 36 34 37 35 38 36 39 97 40 37 41 96 42 38 43
REMARK SMILES IDX 39 44 40 45 90 46 41 47 95 48 89 49 91 50 42 51 94 52 88 53
REMARK SMILES IDX 87 54 43 56 75 57 55 58 74 59 56 60 59 61 73 62 92 63 57 64
REMARK SMILES IDX 58 65 72 67 93 68 60 69 44 70 45 71 53 72 46 73 52 74 54 75
REMARK SMILES IDX 51 76 47 77 48 78 49 79 50 80 76 81 77 82 85 83 78 84 84 85
REMARK SMILES IDX 86 86 83 87 79 88 80 89 81 90 82 91 61 92 62 93 70 94 63 95
REMARK SMILES IDX 69 96 71 97 68 98 64 99 65 100 66 101 67 102
REMARK H PARENT 9 18 91 55 59 66
REMARK Flexibility Score: inf
ROOT
ATOM      1  C   UNL A   1      33.936  20.105  24.546  1.00  0.00     0.188 C 
ENDROOT
BRANCH   1   2
ATOM      2  C   UNL A   1      32.791  21.143  24.483  1.00  0.00     0.188 C 
BRANCH   2   3
ATOM      3  O   UNL A   1      32.909  22.427  23.875  1.00  0.00    -0.376 OA
BRANCH   3   4
ATOM      4  C   UNL A   1      33.337  22.572  22.531  1.00  0.00     0.202 C 
BRANCH   4   5
ATOM      5  C   UNL A   1      33.174  23.962  21.907  1.00  0.00     0.261 C 
BRANCH   5   6
ATOM      6  O   UNL A   1      32.093  24.735  22.460  1.00  0.00    -0.460 OA
BRANCH   6   7
ATOM      7  C   UNL A   1      31.842  25.890  21.802  1.00  0.00     0.340 C 
ATOM      8  O   UNL A   1      31.841  26.049  20.591  1.00  0.00    -0.246 OA
BRANCH   7   9
ATOM      9  C   UNL A   1      31.442  26.981  22.728  1.00  0.00     0.084 A 
ATOM     10  C   UNL A   1      32.264  27.560  23.714  1.00  0.00     0.066 A 
ATOM     11  C   UNL A   1      31.919  28.849  24.156  1.00  0.00    -0.026 A 
ATOM     12  C   UNL A   1      32.892  29.794  24.807  1.00  0.00     0.046 C 
ATOM     13  C   UNL A   1      30.600  29.313  23.962  1.00  0.00     0.009 A 
ATOM     14  C   UNL A   1      30.142  27.473  22.518  1.00  0.00     0.021 A 
ATOM     15  C   UNL A   1      29.676  28.576  23.224  1.00  0.00    -0.050 A 
ATOM     16  C   UNL A   1      28.245  29.003  23.115  1.00  0.00     0.044 C 
BRANCH  10  17
ATOM     17  N   UNL A   1      33.445  26.879  24.180  1.00  0.00    -0.278 N 
ATOM     18  H   UNL A   1      34.239  26.846  23.598  1.00  0.00     0.180 HD
BRANCH  17  19
ATOM     19  S   UNL A   1      33.509  26.128  25.714  1.00  0.00     0.265 S 
ATOM     20  O   UNL A   1      33.640  27.194  26.686  1.00  0.00    -0.201 OA
ATOM     21  O   UNL A   1      34.504  25.083  25.624  1.00  0.00    -0.201 OA
BRANCH  19  22
ATOM     22  C   UNL A   1      32.099  25.292  26.221  1.00  0.00     0.125 A 
ATOM     23  N   UNL A   1      30.568  23.800  26.694  1.00  0.00    -0.272 N 
ATOM     24  C   UNL A   1      31.927  23.997  26.665  1.00  0.00     0.131 A 
ATOM     25  N   UNL A   1      29.870  24.932  26.491  1.00  0.00    -0.180 NA
ATOM     26  C   UNL A   1      30.808  25.846  26.224  1.00  0.00     0.157 A 
BRANCH  23  27
ATOM     27  C   UNL A   1      29.906  22.506  26.697  1.00  0.00     0.141 C 
ATOM     28  C   UNL A   1      28.679  22.387  27.591  1.00  0.00     0.029 C 
ENDBRANCH  23  27
ENDBRANCH  19  22
ENDBRANCH  17  19
ENDBRANCH  10  17
ENDBRANCH   7   9
ENDBRANCH   6   7
ENDBRANCH   5   6
ENDBRANCH   4   5
ENDBRANCH   3   4
ENDBRANCH   2   3
ENDBRANCH   1   2
BRANCH   1  29
ATOM     29  O   UNL A   1      34.929  20.354  25.524  1.00  0.00    -0.377 OA
BRANCH  29  30
ATOM     30  C   UNL A   1      35.727  21.510  25.279  1.00  0.00     0.188 C 
BRANCH  30  31
ATOM     31  C   UNL A   1      37.056  21.230  24.553  1.00  0.00     0.188 C 
BRANCH  31  32
ATOM     32  O   UNL A   1      38.158  21.057  25.447  1.00  0.00    -0.376 OA
BRANCH  32  33
ATOM     33  C   UNL A   1      38.810  22.230  25.917  1.00  0.00     0.202 C 
BRANCH  33  34
ATOM     34  C   UNL A   1      39.913  21.933  26.932  1.00  0.00     0.261 C 
BRANCH  34  35
ATOM     35  O   UNL A   1      40.232  23.021  27.791  1.00  0.00    -0.460 OA
BRANCH  35  36
ATOM     36  C   UNL A   1      41.537  23.172  28.101  1.00  0.00     0.338 C 
ATOM     37  O   UNL A   1      42.284  22.323  28.551  1.00  0.00    -0.246 OA
BRANCH  36  38
ATOM     38  C   UNL A   1      41.920  24.569  27.880  1.00  0.00     0.060 A 
ATOM     39  C   UNL A   1      42.802  25.112  28.815  1.00  0.00     0.016 A 
ATOM     40  C   UNL A   1      41.223  25.365  26.958  1.00  0.00     0.016 A 
ATOM     41  C   UNL A   1      42.795  26.474  28.991  1.00  0.00     0.010 A 
ATOM     42  C   UNL A   1      41.210  26.729  27.141  1.00  0.00     0.010 A 
ATOM     43  C   UNL A   1      41.919  27.247  28.220  1.00  0.00    -0.014 A 
BRANCH  43  44
ATOM     44  C   UNL A   1      41.722  28.610  28.648  1.00  0.00     0.031 A 
ATOM     45  C   UNL A   1      42.787  29.545  28.272  1.00  0.00     0.074 A 
ATOM     46  C   UNL A   1      40.643  28.991  29.352  1.00  0.00     0.049 A 
ATOM     47  N   UNL A   1      43.666  30.086  29.043  1.00  0.00    -0.248 NA
ATOM     48  C   UNL A   1      42.976  29.812  26.842  1.00  0.00     0.031 C 
ATOM     49  C   UNL A   1      39.390  28.256  29.543  1.00  0.00     0.029 A 
ATOM     50  N   UNL A   1      40.416  30.179  29.973  1.00  0.00    -0.354 N 
ATOM     51  C   UNL A   1      44.381  30.952  28.231  1.00  0.00     0.074 A 
ATOM     52  C   UNL A   1      44.045  30.606  26.875  1.00  0.00     0.031 C 
ATOM     53  C   UNL A   1      38.464  29.097  30.052  1.00  0.00     0.029 A 
ATOM     54  C   UNL A   1      39.097  30.372  30.346  1.00  0.00     0.049 A 
ATOM     55  H   UNL A   1      41.124  30.842  30.140  1.00  0.00     0.167 HD
ATOM     56  C   UNL A   1      45.006  32.041  28.751  1.00  0.00     0.034 A 
ATOM     57  C   UNL A   1      38.549  31.530  30.786  1.00  0.00     0.034 A 
ATOM     58  C   UNL A   1      45.203  31.908  30.177  1.00  0.00     0.049 A 
ATOM     59  C   UNL A   1      39.643  32.362  31.345  1.00  0.00     0.074 A 
ATOM     60  C   UNL A   1      45.850  30.992  30.985  1.00  0.00     0.029 A 
ATOM     61  N   UNL A   1      44.391  32.634  31.017  1.00  0.00    -0.354 N 
ATOM     62  N   UNL A   1      40.329  32.042  32.408  1.00  0.00    -0.248 NA
ATOM     63  C   UNL A   1      40.258  33.378  30.503  1.00  0.00     0.031 C 
ATOM     64  C   UNL A   1      45.070  30.916  32.176  1.00  0.00     0.029 A 
ATOM     65  C   UNL A   1      44.007  31.812  32.050  1.00  0.00     0.049 A 
ATOM     66  H   UNL A   1      44.130  33.576  30.899  1.00  0.00     0.167 HD
ATOM     67  C   UNL A   1      41.617  32.489  32.158  1.00  0.00     0.074 A 
ATOM     68  C   UNL A   1      41.480  33.414  31.041  1.00  0.00     0.031 C 
ATOM     69  C   UNL A   1      42.703  31.856  32.693  1.00  0.00     0.034 A 
BRANCH  56  70
ATOM     70  C   UNL A   1      45.134  33.359  28.028  1.00  0.00     0.023 A 
ATOM     71  C   UNL A   1      44.151  34.332  28.280  1.00  0.00     0.031 A 
ATOM     72  C   UNL A   1      45.982  33.615  26.924  1.00  0.00     0.131 A 
ATOM     73  C   UNL A   1      43.992  35.436  27.424  1.00  0.00     0.055 A 
ATOM     74  C   UNL A   1      45.872  34.755  26.125  1.00  0.00     0.041 A 
ATOM     75  F   UNL A   1      46.896  32.738  26.491  1.00  0.00    -0.206 F 
ATOM     76  C   UNL A   1      44.852  35.661  26.355  1.00  0.00     0.022 A 
BRANCH  73  77
ATOM     77  S   UNL A   1      42.515  36.464  27.623  1.00  0.00     0.124 S 
ATOM     78  O   UNL A   1      41.522  35.702  26.874  1.00  0.00    -0.237 OA
ATOM     79  O   UNL A   1      42.356  36.482  29.073  1.00  0.00    -0.237 OA
ATOM     80  O   UNL A   1      42.907  37.737  27.021  1.00  0.00    -0.744 OA
ENDBRANCH  73  77
ENDBRANCH  56  70
BRANCH  57  81
ATOM     81  C   UNL A   1      37.208  32.045  30.417  1.00  0.00     0.023 A 
ATOM     82  C   UNL A   1      36.377  32.700  31.343  1.00  0.00     0.031 A 
ATOM     83  C   UNL A   1      36.816  32.095  29.058  1.00  0.00     0.131 A 
ATOM     84  C   UNL A   1      35.210  33.359  30.901  1.00  0.00     0.055 A 
ATOM     85  C   UNL A   1      35.651  32.730  28.629  1.00  0.00     0.041 A 
ATOM     86  F   UNL A   1      37.598  31.596  28.087  1.00  0.00    -0.206 F 
ATOM     87  C   UNL A   1      34.844  33.374  29.551  1.00  0.00     0.022 A 
BRANCH  84  88
ATOM     88  S   UNL A   1      34.202  34.308  32.081  1.00  0.00     0.124 S 
ATOM     89  O   UNL A   1      33.166  34.867  31.221  1.00  0.00    -0.237 OA
ATOM     90  O   UNL A   1      33.779  33.281  33.026  1.00  0.00    -0.237 OA
ATOM     91  O   UNL A   1      35.147  35.286  32.623  1.00  0.00    -0.744 OA
ENDBRANCH  84  88
ENDBRANCH  57  81
BRANCH  69  92
ATOM     92  C   UNL A   1      42.492  30.947  33.887  1.00  0.00     0.023 A 
ATOM     93  C   UNL A   1      42.159  29.577  33.809  1.00  0.00     0.031 A 
ATOM     94  C   UNL A   1      42.745  31.484  35.164  1.00  0.00     0.131 A 
ATOM     95  C   UNL A   1      42.076  28.803  34.984  1.00  0.00     0.055 A 
ATOM     96  C   UNL A   1      42.679  30.711  36.324  1.00  0.00     0.041 A 
ATOM     97  F   UNL A   1      43.095  32.774  35.304  1.00  0.00    -0.206 F 
ATOM     98  C   UNL A   1      42.337  29.367  36.238  1.00  0.00     0.022 A 
BRANCH  95  99
ATOM     99  S   UNL A   1      41.614  27.043  34.903  1.00  0.00     0.124 S 
ATOM    100  O   UNL A   1      40.470  27.031  33.998  1.00  0.00    -0.237 OA
ATOM    101  O   UNL A   1      42.836  26.422  34.399  1.00  0.00    -0.237 OA
ATOM    102  O   UNL A   1      41.293  26.712  36.292  1.00  0.00    -0.744 OA
ENDBRANCH  95  99
ENDBRANCH  69  92
ENDBRANCH  43  44
ENDBRANCH  36  38
ENDBRANCH  35  36
ENDBRANCH  34  35
ENDBRANCH  33  34
ENDBRANCH  32  33
ENDBRANCH  31  32
ENDBRANCH  30  31
ENDBRANCH  29  30
ENDBRANCH   1  29
TORSDOF 27
ENDMDL
MODEL 2
REMARK VINA RESULT:      -9.7      2.668      7.360
REMARK SMILES CCn1cc(S(=O)(=O)Nc2c(C)cc(C)cc2C(=O)OCCOCCOCCOCCOC(=O)c2ccc(-c3c4nc(c(-c5cc(S(=O)(=O)[O-])ccc5F)c5ccc([nH]5)c(-c5cc(S(=O)(=O)[O-])ccc5F)c5nc(c(-c6cc(S(=O)(=O)[O-])ccc6F)c6ccc3[nH]6)C=C5)C=C4)cc2)cn1
REMARK SMILES IDX 25 1 24 2 23 3 22 4 21 5 20 6 18 7 19 8 17 9 10 10 11 11
REMARK SMILES IDX 12 12 13 13 16 14 14 15 15 16 9 17 6 19 7 20 8 21 5 22 3 23
REMARK SMILES IDX 4 24 99 25 98 26 2 27 1 28 26 29 27 30 28 31 29 32 30 33
REMARK SMILES IDX 31 34 32 35 33 36 34 37 35 38 36 39 97 40 37 41 96 42 38 43
REMARK SMILES IDX 39 44 40 45 90 46 41 47 95 48 89 49 91 50 42 51 94 52 88 53
REMARK SMILES IDX 87 54 43 56 75 57 55 58 74 59 56 60 59 61 73 62 92 63 57 64
REMARK SMILES IDX 58 65 72 67 93 68 60 69 44 70 45 71 53 72 46 73 52 74 54 75
REMARK SMILES IDX 51 76 47 77 48 78 49 79 50 80 76 81 77 82 85 83 78 84 84 85
REMARK SMILES IDX 86 86 83 87 79 88 80 89 81 90 82 91 61 92 62 93 70 94 63 95
REMARK SMILES IDX 69 96 71 97 68 98 64 99 65 100 66 101 67 102
REMARK H PARENT 9 18 91 55 59 66
REMARK Flexibility Score: inf
ROOT
ATOM      1  C   UNL A   1      33.170  21.254  24.449  1.00  0.00     0.188 C 
ENDROOT
BRANCH   1   2
ATOM      2  C   UNL A   1      31.816  21.319  25.194  1.00  0.00     0.188 C 
BRANCH   2   3
ATOM      3  O   UNL A   1      31.543  22.201  26.281  1.00  0.00    -0.376 OA
BRANCH   3   4
ATOM      4  C   UNL A   1      31.239  23.568  26.065  1.00  0.00     0.202 C 
BRANCH   4   5
ATOM      5  C   UNL A   1      32.357  24.573  26.365  1.00  0.00     0.261 C 
BRANCH   5   6
ATOM      6  O   UNL A   1      33.682  24.077  26.106  1.00  0.00    -0.460 OA
BRANCH   6   7
ATOM      7  C   UNL A   1      34.528  24.995  25.584  1.00  0.00     0.340 C 
ATOM      8  O   UNL A   1      35.677  25.207  25.941  1.00  0.00    -0.246 OA
BRANCH   7   9
ATOM      9  C   UNL A   1      33.942  25.683  24.405  1.00  0.00     0.084 A 
ATOM     10  C   UNL A   1      33.929  27.076  24.194  1.00  0.00     0.066 A 
ATOM     11  C   UNL A   1      33.785  27.518  22.867  1.00  0.00    -0.026 A 
ATOM     12  C   UNL A   1      34.218  28.879  22.391  1.00  0.00     0.046 C 
ATOM     13  C   UNL A   1      33.231  26.645  21.907  1.00  0.00     0.009 A 
ATOM     14  C   UNL A   1      33.420  24.819  23.427  1.00  0.00     0.021 A 
ATOM     15  C   UNL A   1      32.953  25.314  22.215  1.00  0.00    -0.050 A 
ATOM     16  C   UNL A   1      32.257  24.415  21.240  1.00  0.00     0.044 C 
BRANCH  10  17
ATOM     17  N   UNL A   1      34.136  27.988  25.289  1.00  0.00    -0.278 N 
ATOM     18  H   UNL A   1      35.048  28.112  25.642  1.00  0.00     0.180 HD
BRANCH  17  19
ATOM     19  S   UNL A   1      32.847  28.863  25.992  1.00  0.00     0.265 S 
ATOM     20  O   UNL A   1      32.190  27.955  26.910  1.00  0.00    -0.201 OA
ATOM     21  O   UNL A   1      32.116  29.472  24.904  1.00  0.00    -0.201 OA
BRANCH  19  22
ATOM     22  C   UNL A   1      33.273  30.198  26.981  1.00  0.00     0.125 A 
ATOM     23  N   UNL A   1      33.498  32.167  27.911  1.00  0.00    -0.272 N 
ATOM     24  C   UNL A   1      32.586  31.357  27.279  1.00  0.00     0.131 A 
ATOM     25  N   UNL A   1      34.646  31.532  28.209  1.00  0.00    -0.180 NA
ATOM     26  C   UNL A   1      34.497  30.323  27.660  1.00  0.00     0.157 A 
BRANCH  23  27
ATOM     27  C   UNL A   1      33.386  33.609  28.052  1.00  0.00     0.141 C 
ATOM     28  C   UNL A   1      34.679  34.397  27.896  1.00  0.00     0.029 C 
ENDBRANCH  23  27
ENDBRANCH  19  22
ENDBRANCH  17  19
ENDBRANCH  10  17
ENDBRANCH   7   9
ENDBRANCH   6   7
ENDBRANCH   5   6
ENDBRANCH   4   5
ENDBRANCH   3   4
ENDBRANCH   2   3
ENDBRANCH   1   2
BRANCH   1  29
ATOM     29  O   UNL A   1      34.161  20.448  25.060  1.00  0.00    -0.377 OA
BRANCH  29  30
ATOM     30  C   UNL A   1      35.110  21.166  25.845  1.00  0.00     0.188 C 
BRANCH  30  31
ATOM     31  C   UNL A   1      36.275  21.778  25.044  1.00  0.00     0.188 C 
BRANCH  31  32
ATOM     32  O   UNL A   1      37.525  21.716  25.736  1.00  0.00    -0.376 OA
BRANCH  32  33
ATOM     33  C   UNL A   1      38.240  22.933  25.904  1.00  0.00     0.202 C 
BRANCH  33  34
ATOM     34  C   UNL A   1      39.636  22.729  26.491  1.00  0.00     0.261 C 
BRANCH  34  35
ATOM     35  O   UNL A   1      40.034  23.724  27.427  1.00  0.00    -0.460 OA
BRANCH  35  36
ATOM     36  C   UNL A   1      40.407  24.912  26.907  1.00  0.00     0.338 C 
ATOM     37  O   UNL A   1      41.200  25.098  26.002  1.00  0.00    -0.246 OA
BRANCH  36  38
ATOM     38  C   UNL A   1      39.758  25.987  27.663  1.00  0.00     0.060 A 
ATOM     39  C   UNL A   1      40.040  27.286  27.237  1.00  0.00     0.016 A 
ATOM     40  C   UNL A   1      39.133  25.721  28.892  1.00  0.00     0.016 A 
ATOM     41  C   UNL A   1      39.922  28.303  28.152  1.00  0.00     0.010 A 
ATOM     42  C   UNL A   1      39.024  26.740  29.811  1.00  0.00     0.010 A 
ATOM     43  C   UNL A   1      39.516  27.992  29.454  1.00  0.00    -0.014 A 
BRANCH  43  44
ATOM     44  C   UNL A   1      39.705  29.021  30.447  1.00  0.00     0.031 A 
ATOM     45  C   UNL A   1      38.559  29.915  30.647  1.00  0.00     0.074 A 
ATOM     46  C   UNL A   1      40.854  29.157  31.129  1.00  0.00     0.049 A 
ATOM     47  N   UNL A   1      38.453  31.149  30.290  1.00  0.00    -0.248 NA
ATOM     48  C   UNL A   1      37.334  29.327  31.202  1.00  0.00     0.031 C 
ATOM     49  C   UNL A   1      41.947  28.189  31.247  1.00  0.00     0.029 A 
ATOM     50  N   UNL A   1      41.235  30.175  31.947  1.00  0.00    -0.354 N 
ATOM     51  C   UNL A   1      37.228  31.568  30.784  1.00  0.00     0.074 A 
ATOM     52  C   UNL A   1      36.514  30.376  31.162  1.00  0.00     0.031 C 
ATOM     53  C   UNL A   1      42.767  28.577  32.248  1.00  0.00     0.029 A 
ATOM     54  C   UNL A   1      42.333  29.876  32.735  1.00  0.00     0.049 A 
ATOM     55  H   UNL A   1      40.774  31.043  31.974  1.00  0.00     0.167 HD
ATOM     56  C   UNL A   1      37.000  32.878  31.064  1.00  0.00     0.034 A 
ATOM     57  C   UNL A   1      42.797  30.611  33.775  1.00  0.00     0.034 A 
ATOM     58  C   UNL A   1      37.945  33.737  30.387  1.00  0.00     0.049 A 
ATOM     59  C   UNL A   1      42.340  32.008  33.578  1.00  0.00     0.074 A 
ATOM     60  C   UNL A   1      38.290  33.947  29.065  1.00  0.00     0.029 A 
ATOM     61  N   UNL A   1      38.957  34.304  31.128  1.00  0.00    -0.354 N 
ATOM     62  N   UNL A   1      42.735  32.770  32.595  1.00  0.00    -0.248 NA
ATOM     63  C   UNL A   1      41.130  32.457  34.252  1.00  0.00     0.031 C 
ATOM     64  C   UNL A   1      39.688  34.226  29.075  1.00  0.00     0.029 A 
ATOM     65  C   UNL A   1      40.120  34.205  30.403  1.00  0.00     0.049 A 
ATOM     66  H   UNL A   1      38.863  34.708  32.021  1.00  0.00     0.167 HD
ATOM     67  C   UNL A   1      41.629  33.536  32.261  1.00  0.00     0.074 A 
ATOM     68  C   UNL A   1      40.724  33.397  33.394  1.00  0.00     0.031 C 
ATOM     69  C   UNL A   1      41.433  33.979  30.984  1.00  0.00     0.034 A 
BRANCH  56  70
ATOM     70  C   UNL A   1      36.138  33.353  32.209  1.00  0.00     0.023 A 
ATOM     71  C   UNL A   1      34.944  34.020  31.885  1.00  0.00     0.031 A 
ATOM     72  C   UNL A   1      36.539  33.435  33.564  1.00  0.00     0.131 A 
ATOM     73  C   UNL A   1      34.259  34.781  32.847  1.00  0.00     0.055 A 
ATOM     74  C   UNL A   1      35.811  34.125  34.534  1.00  0.00     0.041 A 
ATOM     75  F   UNL A   1      37.703  32.943  34.008  1.00  0.00    -0.206 F 
ATOM     76  C   UNL A   1      34.677  34.830  34.173  1.00  0.00     0.022 A 
BRANCH  73  77
ATOM     77  S   UNL A   1      32.921  35.864  32.286  1.00  0.00     0.124 S 
ATOM     78  O   UNL A   1      33.138  37.050  33.107  1.00  0.00    -0.237 OA
ATOM     79  O   UNL A   1      33.223  35.999  30.865  1.00  0.00    -0.237 OA
ATOM     80  O   UNL A   1      31.715  35.101  32.599  1.00  0.00    -0.744 OA
ENDBRANCH  73  77
ENDBRANCH  56  70
BRANCH  57  81
ATOM     81  C   UNL A   1      43.302  30.066  35.059  1.00  0.00     0.023 A 
ATOM     82  C   UNL A   1      42.961  28.779  35.511  1.00  0.00     0.031 A 
ATOM     83  C   UNL A   1      44.328  30.740  35.762  1.00  0.00     0.131 A 
ATOM     84  C   UNL A   1      43.627  28.221  36.623  1.00  0.00     0.055 A 
ATOM     85  C   UNL A   1      44.969  30.193  36.873  1.00  0.00     0.041 A 
ATOM     86  F   UNL A   1      44.800  31.925  35.343  1.00  0.00    -0.206 F 
ATOM     87  C   UNL A   1      44.626  28.923  37.305  1.00  0.00     0.022 A 
BRANCH  84  88
ATOM     88  S   UNL A   1      43.272  26.511  37.130  1.00  0.00     0.124 S 
ATOM     89  O   UNL A   1      43.381  26.591  38.581  1.00  0.00    -0.237 OA
ATOM     90  O   UNL A   1      41.934  26.297  36.589  1.00  0.00    -0.237 OA
ATOM     91  O   UNL A   1      44.327  25.736  36.474  1.00  0.00    -0.744 OA
ENDBRANCH  84  88
ENDBRANCH  57  81
BRANCH  69  92
ATOM     92  C   UNL A   1      42.620  34.005  30.041  1.00  0.00     0.023 A 
ATOM     93  C   UNL A   1      42.989  32.949  29.180  1.00  0.00     0.031 A 
ATOM     94  C   UNL A   1      43.344  35.209  29.943  1.00  0.00     0.131 A 
ATOM     95  C   UNL A   1      44.058  33.115  28.277  1.00  0.00     0.055 A 
ATOM     96  C   UNL A   1      44.391  35.376  29.035  1.00  0.00     0.041 A 
ATOM     97  F   UNL A   1      43.024  36.262  30.713  1.00  0.00    -0.206 F 
ATOM     98  C   UNL A   1      44.756  34.325  28.203  1.00  0.00     0.022 A 
BRANCH  95  99
ATOM     99  S   UNL A   1      44.569  31.749  27.186  1.00  0.00     0.124 S 
ATOM    100  O   UNL A   1      45.876  31.365  27.706  1.00  0.00    -0.237 OA
ATOM    101  O   UNL A   1      43.493  30.779  27.374  1.00  0.00    -0.237 OA
ATOM    102  O   UNL A   1      44.601  32.369  25.859  1.00  0.00    -0.744 OA
ENDBRANCH  95  99
ENDBRANCH  69  92
ENDBRANCH  43  44
ENDBRANCH  36  38
ENDBRANCH  35  36
ENDBRANCH  34  35
ENDBRANCH  33  34
ENDBRANCH  32  33
ENDBRANCH  31  32
ENDBRANCH  30  31
ENDBRANCH  29  30
ENDBRANCH   1  29
TORSDOF 27
ENDMDL
MODEL 3
REMARK VINA RESULT:      -9.3      2.706      3.980
REMARK SMILES CCn1cc(S(=O)(=O)Nc2c(C)cc(C)cc2C(=O)OCCOCCOCCOCCOC(=O)c2ccc(-c3c4nc(c(-c5cc(S(=O)(=O)[O-])ccc5F)c5ccc([nH]5)c(-c5cc(S(=O)(=O)[O-])ccc5F)c5nc(c(-c6cc(S(=O)(=O)[O-])ccc6F)c6ccc3[nH]6)C=C5)C=C4)cc2)cn1
REMARK SMILES IDX 25 1 24 2 23 3 22 4 21 5 20 6 18 7 19 8 17 9 10 10 11 11
REMARK SMILES IDX 12 12 13 13 16 14 14 15 15 16 9 17 6 19 7 20 8 21 5 22 3 23
REMARK SMILES IDX 4 24 99 25 98 26 2 27 1 28 26 29 27 30 28 31 29 32 30 33
REMARK SMILES IDX 31 34 32 35 33 36 34 37 35 38 36 39 97 40 37 41 96 42 38 43
REMARK SMILES IDX 39 44 40 45 90 46 41 47 95 48 89 49 91 50 42 51 94 52 88 53
REMARK SMILES IDX 87 54 43 56 75 57 55 58 74 59 56 60 59 61 73 62 92 63 57 64
REMARK SMILES IDX 58 65 72 67 93 68 60 69 44 70 45 71 53 72 46 73 52 74 54 75
REMARK SMILES IDX 51 76 47 77 48 78 49 79 50 80 76 81 77 82 85 83 78 84 84 85
REMARK SMILES IDX 86 86 83 87 79 88 80 89 81 90 82 91 61 92 62 93 70 94 63 95
REMARK SMILES IDX 69 96 71 97 68 98 64 99 65 100 66 101 67 102
REMARK H PARENT 9 18 91 55 59 66
REMARK Flexibility Score: inf
ROOT
ATOM      1  C   UNL A   1      34.147  20.839  24.556  1.00  0.00     0.188 C 
ENDROOT
BRANCH   1   2
ATOM      2  C   UNL A   1      32.837  20.758  25.373  1.00  0.00     0.188 C 
BRANCH   2   3
ATOM      3  O   UNL A   1      32.464  21.694  26.383  1.00  0.00    -0.376 OA
BRANCH   3   4
ATOM      4  C   UNL A   1      31.146  22.209  26.463  1.00  0.00     0.202 C 
BRANCH   4   5
ATOM      5  C   UNL A   1      30.968  23.690  26.114  1.00  0.00     0.261 C 
BRANCH   5   6
ATOM      6  O   UNL A   1      31.617  24.092  24.894  1.00  0.00    -0.460 OA
BRANCH   6   7
ATOM      7  C   UNL A   1      32.659  24.936  25.070  1.00  0.00     0.340 C 
ATOM      8  O   UNL A   1      33.434  24.944  26.015  1.00  0.00    -0.246 OA
BRANCH   7   9
ATOM      9  C   UNL A   1      32.854  25.831  23.899  1.00  0.00     0.084 A 
ATOM     10  C   UNL A   1      33.263  27.177  23.958  1.00  0.00     0.066 A 
ATOM     11  C   UNL A   1      33.847  27.717  22.799  1.00  0.00    -0.026 A 
ATOM     12  C   UNL A   1      34.753  28.919  22.806  1.00  0.00     0.046 C 
ATOM     13  C   UNL A   1      33.607  27.097  21.555  1.00  0.00     0.009 A 
ATOM     14  C   UNL A   1      32.651  25.211  22.655  1.00  0.00     0.021 A 
ATOM     15  C   UNL A   1      32.919  25.887  21.471  1.00  0.00    -0.050 A 
ATOM     16  C   UNL A   1      32.557  25.285  20.148  1.00  0.00     0.044 C 
BRANCH  10  17
ATOM     17  N   UNL A   1      33.153  27.927  25.183  1.00  0.00    -0.278 N 
ATOM     18  H   UNL A   1      33.942  28.007  25.768  1.00  0.00     0.180 HD
BRANCH  17  19
ATOM     19  S   UNL A   1      31.693  28.683  25.651  1.00  0.00     0.265 S 
ATOM     20  O   UNL A   1      32.061  29.956  26.234  1.00  0.00    -0.201 OA
ATOM     21  O   UNL A   1      30.946  27.708  26.415  1.00  0.00    -0.201 OA
BRANCH  19  22
ATOM     22  C   UNL A   1      30.612  29.113  24.392  1.00  0.00     0.125 A 
ATOM     23  N   UNL A   1      29.161  30.097  23.080  1.00  0.00    -0.272 N 
ATOM     24  C   UNL A   1      30.216  30.349  23.922  1.00  0.00     0.131 A 
ATOM     25  N   UNL A   1      28.990  28.786  22.830  1.00  0.00    -0.180 NA
ATOM     26  C   UNL A   1      29.892  28.189  23.616  1.00  0.00     0.157 A 
BRANCH  23  27
ATOM     27  C   UNL A   1      28.164  31.071  22.667  1.00  0.00     0.141 C 
ATOM     28  C   UNL A   1      27.844  31.108  21.179  1.00  0.00     0.029 C 
ENDBRANCH  23  27
ENDBRANCH  19  22
ENDBRANCH  17  19
ENDBRANCH  10  17
ENDBRANCH   7   9
ENDBRANCH   6   7
ENDBRANCH   5   6
ENDBRANCH   4   5
ENDBRANCH   3   4
ENDBRANCH   2   3
ENDBRANCH   1   2
BRANCH   1  29
ATOM     29  O   UNL A   1      35.326  20.504  25.264  1.00  0.00    -0.377 OA
BRANCH  29  30
ATOM     30  C   UNL A   1      35.851  21.554  26.075  1.00  0.00     0.188 C 
BRANCH  30  31
ATOM     31  C   UNL A   1      37.125  22.218  25.521  1.00  0.00     0.188 C 
BRANCH  31  32
ATOM     32  O   UNL A   1      38.218  21.307  25.383  1.00  0.00    -0.376 OA
BRANCH  32  33
ATOM     33  C   UNL A   1      39.420  21.617  26.077  1.00  0.00     0.202 C 
BRANCH  33  34
ATOM     34  C   UNL A   1      40.371  20.426  26.184  1.00  0.00     0.261 C 
BRANCH  34  35
ATOM     35  O   UNL A   1      41.631  20.729  26.770  1.00  0.00    -0.460 OA
BRANCH  35  36
ATOM     36  C   UNL A   1      42.671  20.846  25.917  1.00  0.00     0.338 C 
ATOM     37  O   UNL A   1      43.132  19.975  25.202  1.00  0.00    -0.246 OA
BRANCH  36  38
ATOM     38  C   UNL A   1      43.231  22.195  26.032  1.00  0.00     0.060 A 
ATOM     39  C   UNL A   1      44.002  22.439  27.169  1.00  0.00     0.016 A 
ATOM     40  C   UNL A   1      42.781  23.231  25.197  1.00  0.00     0.016 A 
ATOM     41  C   UNL A   1      44.111  23.735  27.608  1.00  0.00     0.010 A 
ATOM     42  C   UNL A   1      42.883  24.529  25.642  1.00  0.00     0.010 A 
ATOM     43  C   UNL A   1      43.459  24.744  26.890  1.00  0.00    -0.014 A 
BRANCH  43  44
ATOM     44  C   UNL A   1      43.340  26.023  27.548  1.00  0.00     0.031 A 
ATOM     45  C   UNL A   1      44.491  26.918  27.387  1.00  0.00     0.074 A 
ATOM     46  C   UNL A   1      42.256  26.362  28.265  1.00  0.00     0.049 A 
ATOM     47  N   UNL A   1      45.364  27.241  28.278  1.00  0.00    -0.248 NA
ATOM     48  C   UNL A   1      44.775  27.415  26.037  1.00  0.00     0.031 C 
ATOM     49  C   UNL A   1      40.944  25.711  28.271  1.00  0.00     0.029 A 
ATOM     50  N   UNL A   1      42.085  27.438  29.079  1.00  0.00    -0.354 N 
ATOM     51  C   UNL A   1      46.184  28.174  27.663  1.00  0.00     0.074 A 
ATOM     52  C   UNL A   1      45.896  28.100  26.254  1.00  0.00     0.031 C 
ATOM     53  C   UNL A   1      40.056  26.522  28.885  1.00  0.00     0.029 A 
ATOM     54  C   UNL A   1      40.766  27.670  29.429  1.00  0.00     0.049 A 
ATOM     55  H   UNL A   1      42.830  28.000  29.391  1.00  0.00     0.167 HD
ATOM     56  C   UNL A   1      46.859  29.099  28.394  1.00  0.00     0.034 A 
ATOM     57  C   UNL A   1      40.282  28.774  30.047  1.00  0.00     0.034 A 
ATOM     58  C   UNL A   1      46.969  28.703  29.780  1.00  0.00     0.049 A 
ATOM     59  C   UNL A   1      41.402  29.402  30.788  1.00  0.00     0.074 A 
ATOM     60  C   UNL A   1      47.502  27.609  30.436  1.00  0.00     0.029 A 
ATOM     61  N   UNL A   1      46.169  29.334  30.704  1.00  0.00    -0.354 N 
ATOM     62  N   UNL A   1      42.005  28.844  31.803  1.00  0.00    -0.248 NA
ATOM     63  C   UNL A   1      42.136  30.495  30.167  1.00  0.00     0.031 C 
ATOM     64  C   UNL A   1      46.655  27.390  31.562  1.00  0.00     0.029 A 
ATOM     65  C   UNL A   1      45.670  28.379  31.556  1.00  0.00     0.049 A 
ATOM     66  H   UNL A   1      45.985  30.301  30.745  1.00  0.00     0.167 HD
ATOM     67  C   UNL A   1      43.335  29.220  31.689  1.00  0.00     0.074 A 
ATOM     68  C   UNL A   1      43.326  30.336  30.752  1.00  0.00     0.031 C 
ATOM     69  C   UNL A   1      44.340  28.416  32.144  1.00  0.00     0.034 A 
BRANCH  56  70
ATOM     70  C   UNL A   1      47.123  30.510  27.924  1.00  0.00     0.023 A 
ATOM     71  C   UNL A   1      46.010  31.290  27.565  1.00  0.00     0.031 A 
ATOM     72  C   UNL A   1      48.385  31.032  27.553  1.00  0.00     0.131 A 
ATOM     73  C   UNL A   1      46.166  32.466  26.813  1.00  0.00     0.055 A 
ATOM     74  C   UNL A   1      48.539  32.244  26.876  1.00  0.00     0.041 A 
ATOM     75  F   UNL A   1      49.530  30.361  27.728  1.00  0.00    -0.206 F 
ATOM     76  C   UNL A   1      47.423  32.955  26.474  1.00  0.00     0.022 A 
BRANCH  73  77
ATOM     77  S   UNL A   1      44.683  33.238  26.117  1.00  0.00     0.124 S 
ATOM     78  O   UNL A   1      44.184  33.999  27.257  1.00  0.00    -0.237 OA
ATOM     79  O   UNL A   1      45.240  34.016  25.016  1.00  0.00    -0.237 OA
ATOM     80  O   UNL A   1      43.862  32.096  25.722  1.00  0.00    -0.744 OA
ENDBRANCH  73  77
ENDBRANCH  56  70
BRANCH  57  81
ATOM     81  C   UNL A   1      39.005  29.455  29.722  1.00  0.00     0.023 A 
ATOM     82  C   UNL A   1      38.245  30.123  30.698  1.00  0.00     0.031 A 
ATOM     83  C   UNL A   1      38.625  29.647  28.373  1.00  0.00     0.131 A 
ATOM     84  C   UNL A   1      37.155  30.933  30.312  1.00  0.00     0.055 A 
ATOM     85  C   UNL A   1      37.536  30.432  27.998  1.00  0.00     0.041 A 
ATOM     86  F   UNL A   1      39.352  29.141  27.364  1.00  0.00    -0.206 F 
ATOM     87  C   UNL A   1      36.799  31.088  28.969  1.00  0.00     0.022 A 
BRANCH  84  88
ATOM     88  S   UNL A   1      36.251  31.894  31.564  1.00  0.00     0.124 S 
ATOM     89  O   UNL A   1      34.968  32.120  30.910  1.00  0.00    -0.237 OA
ATOM     90  O   UNL A   1      36.247  30.989  32.708  1.00  0.00    -0.237 OA
ATOM     91  O   UNL A   1      37.075  33.092  31.734  1.00  0.00    -0.744 OA
ENDBRANCH  84  88
ENDBRANCH  57  81
BRANCH  69  92
ATOM     92  C   UNL A   1      43.998  27.332  33.147  1.00  0.00     0.023 A 
ATOM     93  C   UNL A   1      43.642  27.563  34.494  1.00  0.00     0.031 A 
ATOM     94  C   UNL A   1      43.934  26.008  32.674  1.00  0.00     0.131 A 
ATOM     95  C   UNL A   1      43.253  26.485  35.315  1.00  0.00     0.055 A 
ATOM     96  C   UNL A   1      43.532  24.946  33.485  1.00  0.00     0.041 A 
ATOM     97  F   UNL A   1      44.232  25.726  31.395  1.00  0.00    -0.206 F 
ATOM     98  C   UNL A   1      43.197  25.181  34.813  1.00  0.00     0.022 A 
BRANCH  95  99
ATOM     99  S   UNL A   1      42.824  26.763  37.063  1.00  0.00     0.124 S 
ATOM    100  O   UNL A   1      41.379  26.959  37.035  1.00  0.00    -0.237 OA
ATOM    101  O   UNL A   1      43.291  25.533  37.699  1.00  0.00    -0.237 OA
ATOM    102  O   UNL A   1      43.593  27.958  37.416  1.00  0.00    -0.744 OA
ENDBRANCH  95  99
ENDBRANCH  69  92
ENDBRANCH  43  44
ENDBRANCH  36  38
ENDBRANCH  35  36
ENDBRANCH  34  35
ENDBRANCH  33  34
ENDBRANCH  32  33
ENDBRANCH  31  32
ENDBRANCH  30  31
ENDBRANCH  29  30
ENDBRANCH   1  29
TORSDOF 27
ENDMDL
