MODEL 1
REMARK VINA RESULT:     -10.0      0.000      0.000
REMARK SMILES O=C(OCCOCCOCCOCCOC(=O)c1ccc(-c2c3nc(c(-c4cc(S(=O)(=O)[O-])ccc4F)c4ccc([nH]4)c(-c4cc(S(=O)(=O)[O-])ccc4F)c4nc(c(-c5cc(S(=O)(=O)[O-])ccc5F)c5ccc2[nH]5)C=C4)C=C3)cc1)C1=Cc2cc(S(F)(F)(F)(F)F)cc(Br)c2O[C@H]1C(F)(F)F
REMARK SMILES IDX 10 1 9 2 8 3 7 4 6 5 5 6 4 7 3 8 2 9 1 10 81 11 82 12 97 13
REMARK SMILES IDX 83 14 96 15 84 16 95 17 85 18 93 19 92 20 94 21 98 22 99 23
REMARK SMILES IDX 100 24 101 25 86 26 87 27 88 28 89 29 90 30 91 31 11 32
REMARK SMILES IDX 12 33 13 34 14 35 15 36 16 37 17 38 18 39 19 40 80 41 20 42
REMARK SMILES IDX 79 43 21 44 22 45 23 46 73 47 24 48 78 49 72 50 74 51 25 52
REMARK SMILES IDX 77 53 71 54 70 55 26 57 58 58 38 59 57 60 39 61 42 62 56 63
REMARK SMILES IDX 75 64 40 65 41 66 55 68 76 69 43 70 27 71 28 72 36 73 29 74
REMARK SMILES IDX 35 75 37 76 34 77 30 78 31 79 32 80 33 81 59 82 60 83 68 84
REMARK SMILES IDX 61 85 67 86 69 87 66 88 62 89 63 90 64 91 65 92 44 93 45 94
REMARK SMILES IDX 53 95 46 96 52 97 54 98 51 99 47 100 48 101 49 102 50 103
REMARK H PARENT 74 56 42 67
REMARK Flexibility Score: inf
ROOT
ATOM      1  C   UNL A   1      36.160  32.144  28.549  1.00  0.00     0.188 C 
ENDROOT
BRANCH   1   2
ATOM      2  O   UNL A   1      35.483  31.464  27.502  1.00  0.00    -0.377 OA
BRANCH   2   3
ATOM      3  C   UNL A   1      35.674  30.064  27.646  1.00  0.00     0.188 C 
BRANCH   3   4
ATOM      4  C   UNL A   1      34.355  29.345  27.413  1.00  0.00     0.188 C 
BRANCH   4   5
ATOM      5  O   UNL A   1      33.334  30.300  27.162  1.00  0.00    -0.376 OA
BRANCH   5   6
ATOM      6  C   UNL A   1      32.137  29.627  26.799  1.00  0.00     0.202 C 
BRANCH   6   7
ATOM      7  C   UNL A   1      32.455  28.536  25.791  1.00  0.00     0.261 C 
BRANCH   7   8
ATOM      8  O   UNL A   1      31.442  27.541  25.836  1.00  0.00    -0.460 OA
BRANCH   8   9
ATOM      9  C   UNL A   1      30.806  27.121  24.639  1.00  0.00     0.338 C 
ATOM     10  O   UNL A   1      29.590  26.750  24.662  1.00  0.00    -0.246 OA
BRANCH   9  11
ATOM     11  C   UNL A   1      31.578  27.115  23.330  1.00  0.00     0.087 C 
ATOM     12  C   UNL A   1      32.552  26.190  23.118  1.00  0.00     0.027 C 
ATOM     13  C   UNL A   1      31.260  28.143  22.256  1.00  0.00     0.316 C 
ATOM     14  C   UNL A   1      32.869  25.161  24.192  1.00  0.00     0.020 A 
ATOM     15  O   UNL A   1      30.527  24.987  24.559  1.00  0.00    -0.474 OA
ATOM     16  C   UNL A   1      34.183  24.866  24.513  1.00  0.00     0.036 A 
ATOM     17  C   UNL A   1      31.857  24.548  24.795  1.00  0.00     0.142 A 
ATOM     18  C   UNL A   1      34.334  23.691  25.287  1.00  0.00     0.109 A 
ATOM     19  C   UNL A   1      32.086  23.493  25.645  1.00  0.00     0.062 A 
ATOM     20  C   UNL A   1      33.359  23.108  25.962  1.00  0.00     0.044 A 
ATOM     21  Br  UNL A   1      30.564  22.527  26.415  1.00  0.00    -0.047 Br
BRANCH  13  22
ATOM     22  C   UNL A   1      30.142  29.052  22.739  1.00  0.00     0.430 C 
ATOM     23  F   UNL A   1      29.006  28.368  22.847  1.00  0.00    -0.167 F 
ATOM     24  F   UNL A   1      30.443  29.599  23.914  1.00  0.00    -0.167 F 
ATOM     25  F   UNL A   1      29.998  30.010  21.828  1.00  0.00    -0.167 F 
ENDBRANCH  13  22
BRANCH  18  26
ATOM     26  S   UNL A   1      35.975  22.933  25.358  1.00  0.00     0.310 S 
ATOM     27  F   UNL A   1      36.638  24.133  24.560  1.00  0.00    -0.094 F 
ATOM     28  F   UNL A   1      35.690  22.254  23.965  1.00  0.00    -0.094 F 
ATOM     29  F   UNL A   1      37.385  22.278  25.420  1.00  0.00    -0.094 F 
ATOM     30  F   UNL A   1      36.298  23.732  26.682  1.00  0.00    -0.094 F 
ATOM     31  F   UNL A   1      34.594  23.694  25.253  1.00  0.00    -0.094 F 
ENDBRANCH  18  26
ENDBRANCH   9  11
ENDBRANCH   8   9
ENDBRANCH   7   8
ENDBRANCH   6   7
ENDBRANCH   5   6
ENDBRANCH   4   5
ENDBRANCH   3   4
ENDBRANCH   2   3
ENDBRANCH   1   2
BRANCH   1  32
ATOM     32  C   UNL A   1      35.406  33.416  28.897  1.00  0.00     0.188 C 
BRANCH  32  33
ATOM     33  O   UNL A   1      34.022  33.125  29.030  1.00  0.00    -0.376 OA
BRANCH  33  34
ATOM     34  C   UNL A   1      33.260  34.200  28.500  1.00  0.00     0.202 C 
BRANCH  34  35
ATOM     35  C   UNL A   1      33.426  35.423  29.387  1.00  0.00     0.261 C 
BRANCH  35  36
ATOM     36  O   UNL A   1      32.474  35.377  30.439  1.00  0.00    -0.460 OA
BRANCH  36  37
ATOM     37  C   UNL A   1      32.901  35.502  31.788  1.00  0.00     0.338 C 
ATOM     38  O   UNL A   1      32.276  36.269  32.584  1.00  0.00    -0.246 OA
BRANCH  37  39
ATOM     39  C   UNL A   1      34.108  34.717  32.279  1.00  0.00     0.060 A 
ATOM     40  C   UNL A   1      33.946  33.538  32.986  1.00  0.00     0.016 A 
ATOM     41  C   UNL A   1      35.314  35.219  32.041  1.00  0.00     0.016 A 
ATOM     42  C   UNL A   1      35.115  33.107  33.657  1.00  0.00     0.010 A 
ATOM     43  C   UNL A   1      36.429  34.663  32.623  1.00  0.00     0.010 A 
ATOM     44  C   UNL A   1      36.335  33.531  33.383  1.00  0.00    -0.014 A 
BRANCH  44  45
ATOM     45  C   UNL A   1      37.569  32.801  33.886  1.00  0.00     0.031 A 
ATOM     46  C   UNL A   1      37.993  31.733  33.094  1.00  0.00     0.074 A 
ATOM     47  C   UNL A   1      38.232  33.232  35.023  1.00  0.00     0.049 A 
ATOM     48  N   UNL A   1      39.084  30.983  33.255  1.00  0.00    -0.248 NA
ATOM     49  C   UNL A   1      37.272  31.251  31.906  1.00  0.00     0.031 C 
ATOM     50  C   UNL A   1      37.816  34.314  35.823  1.00  0.00     0.029 A 
ATOM     51  N   UNL A   1      39.381  32.715  35.579  1.00  0.00    -0.354 N 
ATOM     52  C   UNL A   1      39.162  30.069  32.286  1.00  0.00     0.074 A 
ATOM     53  C   UNL A   1      37.995  30.225  31.408  1.00  0.00     0.031 C 
ATOM     54  C   UNL A   1      38.694  34.440  36.853  1.00  0.00     0.029 A 
ATOM     55  C   UNL A   1      39.674  33.439  36.713  1.00  0.00     0.049 A 
ATOM     56  H   UNL A   1      39.902  31.957  35.227  1.00  0.00     0.167 HD
ATOM     57  C   UNL A   1      40.163  29.114  32.099  1.00  0.00     0.034 A 
ATOM     58  C   UNL A   1      40.731  33.252  37.590  1.00  0.00     0.034 A 
ATOM     59  C   UNL A   1      41.244  28.955  32.952  1.00  0.00     0.049 A 
ATOM     60  C   UNL A   1      41.700  32.258  37.435  1.00  0.00     0.074 A 
ATOM     61  C   UNL A   1      42.264  28.002  32.773  1.00  0.00     0.029 A 
ATOM     62  N   UNL A   1      41.523  29.663  34.100  1.00  0.00    -0.354 N 
ATOM     63  N   UNL A   1      41.800  31.371  36.445  1.00  0.00    -0.248 NA
ATOM     64  C   UNL A   1      42.806  32.030  38.376  1.00  0.00     0.031 C 
ATOM     65  C   UNL A   1      43.143  28.128  33.804  1.00  0.00     0.029 A 
ATOM     66  C   UNL A   1      42.684  29.161  34.643  1.00  0.00     0.049 A 
ATOM     67  H   UNL A   1      40.986  30.401  34.467  1.00  0.00     0.167 HD
ATOM     68  C   UNL A   1      42.870  30.594  36.629  1.00  0.00     0.074 A 
ATOM     69  C   UNL A   1      43.527  31.002  37.878  1.00  0.00     0.031 C 
ATOM     70  C   UNL A   1      43.325  29.563  35.804  1.00  0.00     0.034 A 
BRANCH  57  71
ATOM     71  C   UNL A   1      40.061  28.196  30.891  1.00  0.00     0.023 A 
ATOM     72  C   UNL A   1      40.813  28.461  29.758  1.00  0.00     0.031 A 
ATOM     73  C   UNL A   1      39.165  27.216  30.909  1.00  0.00     0.131 A 
ATOM     74  C   UNL A   1      40.338  27.817  28.592  1.00  0.00     0.055 A 
ATOM     75  C   UNL A   1      38.848  26.537  29.759  1.00  0.00     0.041 A 
ATOM     76  F   UNL A   1      38.570  26.888  32.053  1.00  0.00    -0.206 F 
ATOM     77  C   UNL A   1      39.509  26.789  28.588  1.00  0.00     0.022 A 
BRANCH  74  78
ATOM     78  S   UNL A   1      40.905  28.448  26.992  1.00  0.00     0.124 S 
ATOM     79  O   UNL A   1      41.206  27.273  26.059  1.00  0.00    -0.237 OA
ATOM     80  O   UNL A   1      39.814  29.324  26.373  1.00  0.00    -0.237 OA
ATOM     81  O   UNL A   1      42.322  29.377  27.216  1.00  0.00    -0.744 OA
ENDBRANCH  74  78
ENDBRANCH  57  71
BRANCH  58  82
ATOM     82  C   UNL A   1      40.841  34.181  38.788  1.00  0.00     0.023 A 
ATOM     83  C   UNL A   1      40.174  33.809  39.944  1.00  0.00     0.031 A 
ATOM     84  C   UNL A   1      41.624  35.254  38.758  1.00  0.00     0.131 A 
ATOM     85  C   UNL A   1      40.171  34.805  40.948  1.00  0.00     0.055 A 
ATOM     86  C   UNL A   1      41.675  36.112  39.831  1.00  0.00     0.041 A 
ATOM     87  F   UNL A   1      42.366  35.499  37.682  1.00  0.00    -0.206 F 
ATOM     88  C   UNL A   1      40.995  35.837  40.984  1.00  0.00     0.022 A 
BRANCH  85  89
ATOM     89  S   UNL A   1      38.952  34.655  42.279  1.00  0.00     0.124 S 
ATOM     90  O   UNL A   1      37.672  35.395  41.884  1.00  0.00    -0.237 OA
ATOM     91  O   UNL A   1      38.635  33.176  42.515  1.00  0.00    -0.237 OA
ATOM     92  O   UNL A   1      39.585  35.338  43.713  1.00  0.00    -0.744 OA
ENDBRANCH  85  89
ENDBRANCH  58  82
BRANCH  70  93
ATOM     93  C   UNL A   1      44.600  28.840  36.205  1.00  0.00     0.023 A 
ATOM     94  C   UNL A   1      45.847  29.321  35.840  1.00  0.00     0.031 A 
ATOM     95  C   UNL A   1      44.470  27.696  36.867  1.00  0.00     0.131 A 
ATOM     96  C   UNL A   1      46.888  28.370  35.968  1.00  0.00     0.055 A 
ATOM     97  C   UNL A   1      45.554  26.880  37.073  1.00  0.00     0.041 A 
ATOM     98  F   UNL A   1      43.277  27.338  37.333  1.00  0.00    -0.206 F 
ATOM     99  C   UNL A   1      46.808  27.265  36.687  1.00  0.00     0.022 A 
BRANCH  96 100
ATOM    100  S   UNL A   1      48.435  28.691  35.084  1.00  0.00     0.124 S 
ATOM    101  O   UNL A   1      49.571  27.906  35.743  1.00  0.00    -0.237 OA
ATOM    102  O   UNL A   1      48.290  28.252  33.626  1.00  0.00    -0.237 OA
ATOM    103  O   UNL A   1      48.787  30.363  35.144  1.00  0.00    -0.744 OA
ENDBRANCH  96 100
ENDBRANCH  70  93
ENDBRANCH  44  45
ENDBRANCH  37  39
ENDBRANCH  36  37
ENDBRANCH  35  36
ENDBRANCH  34  35
ENDBRANCH  33  34
ENDBRANCH  32  33
ENDBRANCH   1  32
TORSDOF 25
ENDMDL
MODEL 2
REMARK VINA RESULT:      -9.7      1.719      7.206
REMARK SMILES O=C(OCCOCCOCCOCCOC(=O)c1ccc(-c2c3nc(c(-c4cc(S(=O)(=O)[O-])ccc4F)c4ccc([nH]4)c(-c4cc(S(=O)(=O)[O-])ccc4F)c4nc(c(-c5cc(S(=O)(=O)[O-])ccc5F)c5ccc2[nH]5)C=C4)C=C3)cc1)C1=Cc2cc(S(F)(F)(F)(F)F)cc(Br)c2O[C@H]1C(F)(F)F
REMARK SMILES IDX 10 1 9 2 8 3 7 4 6 5 5 6 4 7 3 8 2 9 1 10 81 11 82 12 97 13
REMARK SMILES IDX 83 14 96 15 84 16 95 17 85 18 93 19 92 20 94 21 98 22 99 23
REMARK SMILES IDX 100 24 101 25 86 26 87 27 88 28 89 29 90 30 91 31 11 32
REMARK SMILES IDX 12 33 13 34 14 35 15 36 16 37 17 38 18 39 19 40 80 41 20 42
REMARK SMILES IDX 79 43 21 44 22 45 23 46 73 47 24 48 78 49 72 50 74 51 25 52
REMARK SMILES IDX 77 53 71 54 70 55 26 57 58 58 38 59 57 60 39 61 42 62 56 63
REMARK SMILES IDX 75 64 40 65 41 66 55 68 76 69 43 70 27 71 28 72 36 73 29 74
REMARK SMILES IDX 35 75 37 76 34 77 30 78 31 79 32 80 33 81 59 82 60 83 68 84
REMARK SMILES IDX 61 85 67 86 69 87 66 88 62 89 63 90 64 91 65 92 44 93 45 94
REMARK SMILES IDX 53 95 46 96 52 97 54 98 51 99 47 100 48 101 49 102 50 103
REMARK H PARENT 74 56 42 67
REMARK Flexibility Score: inf
ROOT
ATOM      1  C   UNL A   1      36.274  32.479  28.413  1.00  0.00     0.188 C 
ENDROOT
BRANCH   1   2
ATOM      2  O   UNL A   1      35.583  31.642  27.497  1.00  0.00    -0.377 OA
BRANCH   2   3
ATOM      3  C   UNL A   1      35.850  30.282  27.805  1.00  0.00     0.188 C 
BRANCH   3   4
ATOM      4  C   UNL A   1      34.636  29.435  27.461  1.00  0.00     0.188 C 
BRANCH   4   5
ATOM      5  O   UNL A   1      33.636  30.258  26.877  1.00  0.00    -0.376 OA
BRANCH   5   6
ATOM      6  C   UNL A   1      32.418  29.533  26.790  1.00  0.00     0.202 C 
BRANCH   6   7
ATOM      7  C   UNL A   1      32.514  28.514  25.667  1.00  0.00     0.261 C 
BRANCH   7   8
ATOM      8  O   UNL A   1      31.448  27.583  25.780  1.00  0.00    -0.460 OA
BRANCH   8   9
ATOM      9  C   UNL A   1      30.782  27.122  24.615  1.00  0.00     0.338 C 
ATOM     10  O   UNL A   1      29.577  26.722  24.687  1.00  0.00    -0.246 OA
BRANCH   9  11
ATOM     11  C   UNL A   1      31.509  27.106  23.280  1.00  0.00     0.087 C 
ATOM     12  C   UNL A   1      32.471  26.175  23.040  1.00  0.00     0.027 C 
ATOM     13  C   UNL A   1      31.160  28.131  22.212  1.00  0.00     0.316 C 
ATOM     14  C   UNL A   1      32.818  25.150  24.107  1.00  0.00     0.020 A 
ATOM     15  O   UNL A   1      30.490  24.989  24.554  1.00  0.00    -0.474 OA
ATOM     16  C   UNL A   1      34.142  24.849  24.385  1.00  0.00     0.036 A 
ATOM     17  C   UNL A   1      31.825  24.545  24.747  1.00  0.00     0.142 A 
ATOM     18  C   UNL A   1      34.313  23.677  25.159  1.00  0.00     0.109 A 
ATOM     19  C   UNL A   1      32.077  23.492  25.594  1.00  0.00     0.062 A 
ATOM     20  C   UNL A   1      33.358  23.102  25.870  1.00  0.00     0.044 A 
ATOM     21  Br  UNL A   1      30.578  22.537  26.419  1.00  0.00    -0.047 Br
BRANCH  13  22
ATOM     22  C   UNL A   1      30.063  29.048  22.729  1.00  0.00     0.430 C 
ATOM     23  F   UNL A   1      28.925  28.373  22.868  1.00  0.00    -0.167 F 
ATOM     24  F   UNL A   1      30.402  29.590  23.896  1.00  0.00    -0.167 F 
ATOM     25  F   UNL A   1      29.901  30.008  21.824  1.00  0.00    -0.167 F 
ENDBRANCH  13  22
BRANCH  18  26
ATOM     26  S   UNL A   1      35.952  22.911  25.178  1.00  0.00     0.310 S 
ATOM     27  F   UNL A   1      36.515  23.930  24.101  1.00  0.00    -0.094 F 
ATOM     28  F   UNL A   1      35.506  21.994  23.977  1.00  0.00    -0.094 F 
ATOM     29  F   UNL A   1      37.360  22.249  25.196  1.00  0.00    -0.094 F 
ATOM     30  F   UNL A   1      36.428  23.932  26.285  1.00  0.00    -0.094 F 
ATOM     31  F   UNL A   1      34.567  23.668  25.095  1.00  0.00    -0.094 F 
ENDBRANCH  18  26
ENDBRANCH   9  11
ENDBRANCH   8   9
ENDBRANCH   7   8
ENDBRANCH   6   7
ENDBRANCH   5   6
ENDBRANCH   4   5
ENDBRANCH   3   4
ENDBRANCH   2   3
ENDBRANCH   1   2
BRANCH   1  32
ATOM     32  C   UNL A   1      35.348  33.586  28.884  1.00  0.00     0.188 C 
BRANCH  32  33
ATOM     33  O   UNL A   1      33.998  33.179  28.718  1.00  0.00    -0.376 OA
BRANCH  33  34
ATOM     34  C   UNL A   1      33.187  34.317  28.470  1.00  0.00     0.202 C 
BRANCH  34  35
ATOM     35  C   UNL A   1      33.431  35.357  29.551  1.00  0.00     0.261 C 
BRANCH  35  36
ATOM     36  O   UNL A   1      32.392  35.293  30.515  1.00  0.00    -0.460 OA
BRANCH  36  37
ATOM     37  C   UNL A   1      32.710  35.178  31.895  1.00  0.00     0.338 C 
ATOM     38  O   UNL A   1      31.863  35.532  32.774  1.00  0.00    -0.246 OA
BRANCH  37  39
ATOM     39  C   UNL A   1      34.065  34.633  32.320  1.00  0.00     0.060 A 
ATOM     40  C   UNL A   1      35.152  35.478  32.471  1.00  0.00     0.016 A 
ATOM     41  C   UNL A   1      34.178  33.323  32.503  1.00  0.00     0.016 A 
ATOM     42  C   UNL A   1      36.395  34.805  32.535  1.00  0.00     0.010 A 
ATOM     43  C   UNL A   1      35.412  32.750  32.696  1.00  0.00     0.010 A 
ATOM     44  C   UNL A   1      36.538  33.518  32.797  1.00  0.00    -0.014 A 
BRANCH  44  45
ATOM     45  C   UNL A   1      37.881  32.925  33.186  1.00  0.00     0.031 A 
ATOM     46  C   UNL A   1      38.295  33.194  34.492  1.00  0.00     0.074 A 
ATOM     47  C   UNL A   1      38.587  32.128  32.300  1.00  0.00     0.049 A 
ATOM     48  N   UNL A   1      39.380  32.730  35.114  1.00  0.00    -0.248 NA
ATOM     49  C   UNL A   1      37.565  34.068  35.423  1.00  0.00     0.031 C 
ATOM     50  C   UNL A   1      38.172  31.844  30.984  1.00  0.00     0.029 A 
ATOM     51  N   UNL A   1      39.783  31.481  32.513  1.00  0.00    -0.354 N 
ATOM     52  C   UNL A   1      39.428  33.196  36.364  1.00  0.00     0.074 A 
ATOM     53  C   UNL A   1      38.264  34.067  36.579  1.00  0.00     0.031 C 
ATOM     54  C   UNL A   1      39.110  31.047  30.408  1.00  0.00     0.029 A 
ATOM     55  C   UNL A   1      40.128  30.820  31.356  1.00  0.00     0.049 A 
ATOM     56  H   UNL A   1      40.305  31.491  33.349  1.00  0.00     0.167 HD
ATOM     57  C   UNL A   1      40.395  32.925  37.333  1.00  0.00     0.034 A 
ATOM     58  C   UNL A   1      41.261  30.057  31.118  1.00  0.00     0.034 A 
ATOM     59  C   UNL A   1      41.506  32.127  37.110  1.00  0.00     0.049 A 
ATOM     60  C   UNL A   1      42.258  29.834  32.070  1.00  0.00     0.074 A 
ATOM     61  C   UNL A   1      42.486  31.838  38.078  1.00  0.00     0.029 A 
ATOM     62  N   UNL A   1      41.862  31.485  35.944  1.00  0.00    -0.354 N 
ATOM     63  N   UNL A   1      42.286  30.266  33.331  1.00  0.00    -0.248 NA
ATOM     64  C   UNL A   1      43.478  29.055  31.819  1.00  0.00     0.031 C 
ATOM     65  C   UNL A   1      43.426  31.041  37.503  1.00  0.00     0.029 A 
ATOM     66  C   UNL A   1      43.048  30.820  36.164  1.00  0.00     0.049 A 
ATOM     67  H   UNL A   1      41.357  31.500  35.100  1.00  0.00     0.167 HD
ATOM     68  C   UNL A   1      43.393  29.836  33.941  1.00  0.00     0.074 A 
ATOM     69  C   UNL A   1      44.179  29.057  32.975  1.00  0.00     0.031 C 
ATOM     70  C   UNL A   1      43.777  30.059  35.265  1.00  0.00     0.034 A 
BRANCH  57  71
ATOM     71  C   UNL A   1      40.221  33.542  38.712  1.00  0.00     0.023 A 
ATOM     72  C   UNL A   1      39.508  32.861  39.686  1.00  0.00     0.031 A 
ATOM     73  C   UNL A   1      40.664  34.775  38.919  1.00  0.00     0.131 A 
ATOM     74  C   UNL A   1      39.061  33.682  40.748  1.00  0.00     0.055 A 
ATOM     75  C   UNL A   1      40.298  35.471  40.045  1.00  0.00     0.041 A 
ATOM     76  F   UNL A   1      41.472  35.344  38.028  1.00  0.00    -0.206 F 
ATOM     77  C   UNL A   1      39.544  34.881  41.023  1.00  0.00     0.022 A 
BRANCH  74  78
ATOM     78  S   UNL A   1      37.735  33.047  41.803  1.00  0.00     0.124 S 
ATOM     79  O   UNL A   1      36.382  33.321  41.143  1.00  0.00    -0.237 OA
ATOM     80  O   UNL A   1      37.913  31.539  41.994  1.00  0.00    -0.237 OA
ATOM     81  O   UNL A   1      37.796  33.824  43.325  1.00  0.00    -0.744 OA
ENDBRANCH  74  78
ENDBRANCH  57  71
BRANCH  58  82
ATOM     82  C   UNL A   1      41.426  29.427  29.745  1.00  0.00     0.023 A 
ATOM     83  C   UNL A   1      40.711  28.270  29.487  1.00  0.00     0.031 A 
ATOM     84  C   UNL A   1      42.148  30.017  28.799  1.00  0.00     0.131 A 
ATOM     85  C   UNL A   1      41.053  27.645  28.265  1.00  0.00     0.055 A 
ATOM     86  C   UNL A   1      42.329  29.412  27.578  1.00  0.00     0.041 A 
ATOM     87  F   UNL A   1      42.700  31.204  29.034  1.00  0.00    -0.206 F 
ATOM     88  C   UNL A   1      41.700  28.237  27.276  1.00  0.00     0.022 A 
BRANCH  85  89
ATOM     89  S   UNL A   1      40.572  25.914  28.039  1.00  0.00     0.124 S 
ATOM     90  O   UNL A   1      41.700  25.004  28.531  1.00  0.00    -0.237 OA
ATOM     91  O   UNL A   1      39.300  25.630  28.840  1.00  0.00    -0.237 OA
ATOM     92  O   UNL A   1      40.280  25.614  26.381  1.00  0.00    -0.744 OA
ENDBRANCH  85  89
ENDBRANCH  58  82
BRANCH  70  93
ATOM     93  C   UNL A   1      45.072  29.427  35.747  1.00  0.00     0.023 A 
ATOM     94  C   UNL A   1      45.087  28.173  36.336  1.00  0.00     0.031 A 
ATOM     95  C   UNL A   1      46.180  30.150  35.638  1.00  0.00     0.131 A 
ATOM     96  C   UNL A   1      46.279  27.887  37.044  1.00  0.00     0.055 A 
ATOM     97  C   UNL A   1      47.343  29.743  36.243  1.00  0.00     0.041 A 
ATOM     98  F   UNL A   1      46.162  31.280  34.937  1.00  0.00    -0.206 F 
ATOM     99  C   UNL A   1      47.416  28.542  36.892  1.00  0.00     0.022 A 
BRANCH  96 100
ATOM    100  S   UNL A   1      46.242  26.530  38.242  1.00  0.00     0.124 S 
ATOM    101  O   UNL A   1      44.980  26.644  39.101  1.00  0.00    -0.237 OA
ATOM    102  O   UNL A   1      46.233  25.193  37.498  1.00  0.00    -0.237 OA
ATOM    103  O   UNL A   1      47.624  26.617  39.244  1.00  0.00    -0.744 OA
ENDBRANCH  96 100
ENDBRANCH  70  93
ENDBRANCH  44  45
ENDBRANCH  37  39
ENDBRANCH  36  37
ENDBRANCH  35  36
ENDBRANCH  34  35
ENDBRANCH  33  34
ENDBRANCH  32  33
ENDBRANCH   1  32
TORSDOF 25
ENDMDL
MODEL 3
REMARK VINA RESULT:      -9.4      6.718      9.852
REMARK SMILES O=C(OCCOCCOCCOCCOC(=O)c1ccc(-c2c3nc(c(-c4cc(S(=O)(=O)[O-])ccc4F)c4ccc([nH]4)c(-c4cc(S(=O)(=O)[O-])ccc4F)c4nc(c(-c5cc(S(=O)(=O)[O-])ccc5F)c5ccc2[nH]5)C=C4)C=C3)cc1)C1=Cc2cc(S(F)(F)(F)(F)F)cc(Br)c2O[C@H]1C(F)(F)F
REMARK SMILES IDX 10 1 9 2 8 3 7 4 6 5 5 6 4 7 3 8 2 9 1 10 81 11 82 12 97 13
REMARK SMILES IDX 83 14 96 15 84 16 95 17 85 18 93 19 92 20 94 21 98 22 99 23
REMARK SMILES IDX 100 24 101 25 86 26 87 27 88 28 89 29 90 30 91 31 11 32
REMARK SMILES IDX 12 33 13 34 14 35 15 36 16 37 17 38 18 39 19 40 80 41 20 42
REMARK SMILES IDX 79 43 21 44 22 45 23 46 73 47 24 48 78 49 72 50 74 51 25 52
REMARK SMILES IDX 77 53 71 54 70 55 26 57 58 58 38 59 57 60 39 61 42 62 56 63
REMARK SMILES IDX 75 64 40 65 41 66 55 68 76 69 43 70 27 71 28 72 36 73 29 74
REMARK SMILES IDX 35 75 37 76 34 77 30 78 31 79 32 80 33 81 59 82 60 83 68 84
REMARK SMILES IDX 61 85 67 86 69 87 66 88 62 89 63 90 64 91 65 92 44 93 45 94
REMARK SMILES IDX 53 95 46 96 52 97 54 98 51 99 47 100 48 101 49 102 50 103
REMARK H PARENT 74 56 42 67
REMARK Flexibility Score: inf
ROOT
ATOM      1  C   UNL A   1      34.944  32.534  28.679  1.00  0.00     0.188 C 
ENDROOT
BRANCH   1   2
ATOM      2  O   UNL A   1      34.525  32.055  27.410  1.00  0.00    -0.377 OA
BRANCH   2   3
ATOM      3  C   UNL A   1      33.720  30.898  27.583  1.00  0.00     0.188 C 
BRANCH   3   4
ATOM      4  C   UNL A   1      34.285  29.757  26.752  1.00  0.00     0.188 C 
BRANCH   4   5
ATOM      5  O   UNL A   1      33.395  28.652  26.800  1.00  0.00    -0.376 OA
BRANCH   5   6
ATOM      6  C   UNL A   1      33.693  27.758  25.737  1.00  0.00     0.202 C 
BRANCH   6   7
ATOM      7  C   UNL A   1      33.651  26.328  26.250  1.00  0.00     0.261 C 
BRANCH   7   8
ATOM      8  O   UNL A   1      34.124  25.449  25.240  1.00  0.00    -0.460 OA
BRANCH   8   9
ATOM      9  C   UNL A   1      33.441  24.232  24.982  1.00  0.00     0.338 C 
ATOM     10  O   UNL A   1      33.906  23.411  24.131  1.00  0.00    -0.246 OA
BRANCH   9  11
ATOM     11  C   UNL A   1      32.155  23.909  25.726  1.00  0.00     0.087 C 
ATOM     12  C   UNL A   1      31.008  24.572  25.420  1.00  0.00     0.027 C 
ATOM     13  C   UNL A   1      32.151  22.845  26.812  1.00  0.00     0.316 C 
ATOM     14  C   UNL A   1      31.012  25.636  24.333  1.00  0.00     0.020 A 
ATOM     15  O   UNL A   1      32.428  24.195  23.083  1.00  0.00    -0.474 OA
ATOM     16  C   UNL A   1      30.360  26.842  24.531  1.00  0.00     0.036 A 
ATOM     17  C   UNL A   1      31.638  25.370  23.193  1.00  0.00     0.142 A 
ATOM     18  C   UNL A   1      30.180  27.597  23.348  1.00  0.00     0.109 A 
ATOM     19  C   UNL A   1      31.527  26.220  22.120  1.00  0.00     0.062 A 
ATOM     20  C   UNL A   1      30.850  27.402  22.226  1.00  0.00     0.044 A 
ATOM     21  Br  UNL A   1      32.356  25.731  20.412  1.00  0.00    -0.047 Br
BRANCH  13  22
ATOM     22  C   UNL A   1      33.548  22.263  26.956  1.00  0.00     0.430 C 
ATOM     23  F   UNL A   1      33.859  21.540  25.883  1.00  0.00    -0.167 F 
ATOM     24  F   UNL A   1      34.453  23.224  27.120  1.00  0.00    -0.167 F 
ATOM     25  F   UNL A   1      33.533  21.479  28.030  1.00  0.00    -0.167 F 
ENDBRANCH  13  22
BRANCH  18  26
ATOM     26  S   UNL A   1      28.946  28.920  23.373  1.00  0.00     0.310 S 
ATOM     27  F   UNL A   1      29.069  29.156  21.810  1.00  0.00    -0.094 F 
ATOM     28  F   UNL A   1      30.111  29.964  23.553  1.00  0.00    -0.094 F 
ATOM     29  F   UNL A   1      27.885  30.058  23.399  1.00  0.00    -0.094 F 
ATOM     30  F   UNL A   1      27.805  27.876  23.052  1.00  0.00    -0.094 F 
ATOM     31  F   UNL A   1      30.020  27.769  23.232  1.00  0.00    -0.094 F 
ENDBRANCH  18  26
ENDBRANCH   9  11
ENDBRANCH   8   9
ENDBRANCH   7   8
ENDBRANCH   6   7
ENDBRANCH   5   6
ENDBRANCH   4   5
ENDBRANCH   3   4
ENDBRANCH   2   3
ENDBRANCH   1   2
BRANCH   1  32
ATOM     32  C   UNL A   1      34.146  33.775  29.041  1.00  0.00     0.188 C 
BRANCH  32  33
ATOM     33  O   UNL A   1      33.931  33.808  30.444  1.00  0.00    -0.376 OA
BRANCH  33  34
ATOM     34  C   UNL A   1      35.112  33.392  31.114  1.00  0.00     0.202 C 
BRANCH  34  35
ATOM     35  C   UNL A   1      34.739  32.559  32.328  1.00  0.00     0.261 C 
BRANCH  35  36
ATOM     36  O   UNL A   1      35.902  31.935  32.851  1.00  0.00    -0.460 OA
BRANCH  36  37
ATOM     37  C   UNL A   1      36.636  31.019  32.052  1.00  0.00     0.338 C 
ATOM     38  O   UNL A   1      36.154  29.872  31.795  1.00  0.00    -0.246 OA
BRANCH  37  39
ATOM     39  C   UNL A   1      38.000  31.411  31.504  1.00  0.00     0.060 A 
ATOM     40  C   UNL A   1      38.274  31.313  30.150  1.00  0.00     0.016 A 
ATOM     41  C   UNL A   1      38.925  31.811  32.368  1.00  0.00     0.016 A 
ATOM     42  C   UNL A   1      39.652  31.383  29.838  1.00  0.00     0.010 A 
ATOM     43  C   UNL A   1      40.226  31.992  31.964  1.00  0.00     0.010 A 
ATOM     44  C   UNL A   1      40.581  31.854  30.651  1.00  0.00    -0.014 A 
BRANCH  44  45
ATOM     45  C   UNL A   1      41.969  32.220  30.154  1.00  0.00     0.031 A 
ATOM     46  C   UNL A   1      42.128  33.549  29.756  1.00  0.00     0.074 A 
ATOM     47  C   UNL A   1      42.994  31.289  30.167  1.00  0.00     0.049 A 
ATOM     48  N   UNL A   1      43.250  34.152  29.363  1.00  0.00    -0.248 NA
ATOM     49  C   UNL A   1      41.033  34.530  29.708  1.00  0.00     0.031 C 
ATOM     50  C   UNL A   1      42.845  29.949  30.575  1.00  0.00     0.029 A 
ATOM     51  N   UNL A   1      44.308  31.473  29.799  1.00  0.00    -0.354 N 
ATOM     52  C   UNL A   1      43.009  35.434  29.079  1.00  0.00     0.074 A 
ATOM     53  C   UNL A   1      41.578  35.693  29.291  1.00  0.00     0.031 C 
ATOM     54  C   UNL A   1      44.048  29.331  30.445  1.00  0.00     0.029 A 
ATOM     55  C   UNL A   1      44.970  30.276  29.952  1.00  0.00     0.049 A 
ATOM     56  H   UNL A   1      44.706  32.316  29.479  1.00  0.00     0.167 HD
ATOM     57  C   UNL A   1      43.926  36.396  28.653  1.00  0.00     0.034 A 
ATOM     58  C   UNL A   1      46.302  30.001  29.683  1.00  0.00     0.034 A 
ATOM     59  C   UNL A   1      45.268  36.132  28.425  1.00  0.00     0.049 A 
ATOM     60  C   UNL A   1      47.207  30.949  29.201  1.00  0.00     0.074 A 
ATOM     61  C   UNL A   1      46.206  37.092  28.003  1.00  0.00     0.029 A 
ATOM     62  N   UNL A   1      45.924  34.927  28.555  1.00  0.00    -0.354 N 
ATOM     63  N   UNL A   1      46.975  32.239  28.955  1.00  0.00    -0.248 NA
ATOM     64  C   UNL A   1      48.612  30.662  28.881  1.00  0.00     0.031 C 
ATOM     65  C   UNL A   1      47.411  36.474  27.872  1.00  0.00     0.029 A 
ATOM     66  C   UNL A   1      47.243  35.117  28.209  1.00  0.00     0.049 A 
ATOM     67  H   UNL A   1      45.520  34.079  28.846  1.00  0.00     0.167 HD
ATOM     68  C   UNL A   1      48.089  32.833  28.522  1.00  0.00     0.074 A 
ATOM     69  C   UNL A   1      49.156  31.825  28.461  1.00  0.00     0.031 C 
ATOM     70  C   UNL A   1      48.259  34.176  28.180  1.00  0.00     0.034 A 
BRANCH  57  71
ATOM     71  C   UNL A   1      43.425  37.813  28.426  1.00  0.00     0.023 A 
ATOM     72  C   UNL A   1      43.569  38.763  29.425  1.00  0.00     0.031 A 
ATOM     73  C   UNL A   1      42.758  38.083  27.311  1.00  0.00     0.131 A 
ATOM     74  C   UNL A   1      42.718  39.884  29.276  1.00  0.00     0.055 A 
ATOM     75  C   UNL A   1      42.060  39.258  27.180  1.00  0.00     0.041 A 
ATOM     76  F   UNL A   1      42.767  37.206  26.310  1.00  0.00    -0.206 F 
ATOM     77  C   UNL A   1      42.107  40.217  28.154  1.00  0.00     0.022 A 
BRANCH  74  78
ATOM     78  S   UNL A   1      42.448  40.933  30.726  1.00  0.00     0.124 S 
ATOM     79  O   UNL A   1      43.259  42.222  30.581  1.00  0.00    -0.237 OA
ATOM     80  O   UNL A   1      40.961  41.277  30.836  1.00  0.00    -0.237 OA
ATOM     81  O   UNL A   1      42.946  40.100  32.134  1.00  0.00    -0.744 OA
ENDBRANCH  74  78
ENDBRANCH  57  71
BRANCH  58  82
ATOM     82  C   UNL A   1      46.806  28.587  29.926  1.00  0.00     0.023 A 
ATOM     83  C   UNL A   1      46.802  27.718  28.848  1.00  0.00     0.031 A 
ATOM     84  C   UNL A   1      47.319  28.231  31.098  1.00  0.00     0.131 A 
ATOM     85  C   UNL A   1      47.108  26.380  29.190  1.00  0.00     0.055 A 
ATOM     86  C   UNL A   1      47.724  26.936  31.318  1.00  0.00     0.041 A 
ATOM     87  F   UNL A   1      47.443  29.134  32.066  1.00  0.00    -0.206 F 
ATOM     88  C   UNL A   1      47.693  26.009  30.315  1.00  0.00     0.022 A 
BRANCH  85  89
ATOM     89  S   UNL A   1      46.667  25.085  28.004  1.00  0.00     0.124 S 
ATOM     90  O   UNL A   1      45.810  24.026  28.701  1.00  0.00    -0.237 OA
ATOM     91  O   UNL A   1      45.876  25.701  26.847  1.00  0.00    -0.237 OA
ATOM     92  O   UNL A   1      48.091  24.357  27.397  1.00  0.00    -0.744 OA
ENDBRANCH  85  89
ENDBRANCH  58  82
BRANCH  70  93
ATOM     93  C   UNL A   1      49.644  34.632  27.749  1.00  0.00     0.023 A 
ATOM     94  C   UNL A   1      50.070  34.503  26.437  1.00  0.00     0.031 A 
ATOM     95  C   UNL A   1      50.451  35.103  28.692  1.00  0.00     0.131 A 
ATOM     96  C   UNL A   1      51.471  34.629  26.275  1.00  0.00     0.055 A 
ATOM     97  C   UNL A   1      51.779  35.330  28.427  1.00  0.00     0.041 A 
ATOM     98  F   UNL A   1      49.969  35.355  29.906  1.00  0.00    -0.206 F 
ATOM     99  C   UNL A   1      52.282  35.167  27.166  1.00  0.00     0.022 A 
BRANCH  96 100
ATOM    100  S   UNL A   1      52.199  34.008  24.738  1.00  0.00     0.124 S 
ATOM    101  O   UNL A   1      53.634  33.547  25.004  1.00  0.00    -0.237 OA
ATOM    102  O   UNL A   1      51.372  32.828  24.222  1.00  0.00    -0.237 OA
ATOM    103  O   UNL A   1      52.208  35.254  23.568  1.00  0.00    -0.744 OA
ENDBRANCH  96 100
ENDBRANCH  70  93
ENDBRANCH  44  45
ENDBRANCH  37  39
ENDBRANCH  36  37
ENDBRANCH  35  36
ENDBRANCH  34  35
ENDBRANCH  33  34
ENDBRANCH  32  33
ENDBRANCH   1  32
TORSDOF 25
ENDMDL
