MODEL 1
REMARK VINA RESULT:      -9.0      0.000      0.000
REMARK SMILES COc1ncccc1CS(=O)(=O)[C@H](C)C(=O)OCCOCCOCCOCCOC(=O)c1ccc(-c2c3nc(c(-c4cc(S(=O)(=O)[O-])ccc4F)c4ccc([nH]4)c(-c4cc(S(=O)(=O)[O-])ccc4F)c4nc(c(-c5cc(S(=O)(=O)[O-])ccc5F)c5ccc2[nH]5)C=C4)C=C3)cc1
REMARK SMILES IDX 22 1 21 2 20 3 19 4 18 5 17 6 15 7 16 8 13 9 14 10 10 11
REMARK SMILES IDX 11 12 12 13 9 14 8 15 3 16 4 17 5 18 7 19 6 20 2 21 1 22
REMARK SMILES IDX 23 23 24 24 25 25 26 26 27 27 28 28 29 29 30 30 31 31 32 32
REMARK SMILES IDX 33 33 94 34 34 35 93 36 35 37 36 38 37 39 87 40 38 41 92 42
REMARK SMILES IDX 86 43 88 44 39 45 91 46 85 47 84 48 40 50 72 51 52 52 71 53
REMARK SMILES IDX 53 54 56 55 70 56 89 57 54 58 55 59 69 61 90 62 57 63 41 64
REMARK SMILES IDX 42 65 50 66 43 67 49 68 51 69 48 70 44 71 45 72 46 73 47 74
REMARK SMILES IDX 73 75 74 76 82 77 75 78 81 79 83 80 80 81 76 82 77 83 78 84
REMARK SMILES IDX 79 85 58 86 59 87 67 88 60 89 66 90 68 91 65 92 61 93 62 94
REMARK SMILES IDX 63 95 64 96
REMARK H PARENT 88 49 56 60
REMARK Flexibility Score: inf
ROOT
ATOM      1  C   UNL A   1      35.399  21.515  26.231  1.00  0.00     0.188 C 
ENDROOT
BRANCH   1   2
ATOM      2  C   UNL A   1      33.940  21.127  26.501  1.00  0.00     0.188 C 
BRANCH   2   3
ATOM      3  O   UNL A   1      33.236  20.221  25.669  1.00  0.00    -0.376 OA
BRANCH   3   4
ATOM      4  C   UNL A   1      32.451  20.629  24.562  1.00  0.00     0.202 C 
BRANCH   4   5
ATOM      5  C   UNL A   1      32.964  21.528  23.422  1.00  0.00     0.261 C 
BRANCH   5   6
ATOM      6  O   UNL A   1      33.119  22.934  23.666  1.00  0.00    -0.462 OA
BRANCH   6   7
ATOM      7  C   UNL A   1      33.110  23.695  22.545  1.00  0.00     0.324 C 
ATOM      8  O   UNL A   1      33.307  23.260  21.415  1.00  0.00    -0.251 OA
BRANCH   7   9
ATOM      9  C   UNL A   1      32.830  25.142  22.807  1.00  0.00     0.215 C 
ATOM     10  C   UNL A   1      32.825  26.093  21.634  1.00  0.00     0.037 C 
BRANCH   9  11
ATOM     11  S   UNL A   1      31.479  25.270  23.948  1.00  0.00     0.168 S 
ATOM     12  O   UNL A   1      32.053  24.950  25.244  1.00  0.00    -0.228 OA
ATOM     13  O   UNL A   1      30.414  24.405  23.462  1.00  0.00    -0.228 OA
BRANCH  11  14
ATOM     14  C   UNL A   1      30.752  26.913  24.028  1.00  0.00     0.179 C 
BRANCH  14  15
ATOM     15  C   UNL A   1      31.278  27.851  25.073  1.00  0.00     0.029 A 
ATOM     16  C   UNL A   1      31.983  29.017  24.773  1.00  0.00     0.217 A 
ATOM     17  N   UNL A   1      32.486  29.862  25.702  1.00  0.00    -0.222 NA
ATOM     18  C   UNL A   1      32.340  29.503  26.998  1.00  0.00     0.115 A 
ATOM     19  C   UNL A   1      31.169  27.511  26.430  1.00  0.00     0.012 A 
ATOM     20  C   UNL A   1      31.711  28.341  27.408  1.00  0.00     0.021 A 
BRANCH  16  21
ATOM     21  O   UNL A   1      32.415  29.207  23.485  1.00  0.00    -0.481 OA
ATOM     22  C   UNL A   1      33.832  29.154  23.379  1.00  0.00     0.280 C 
ENDBRANCH  16  21
ENDBRANCH  14  15
ENDBRANCH  11  14
ENDBRANCH   9  11
ENDBRANCH   7   9
ENDBRANCH   6   7
ENDBRANCH   5   6
ENDBRANCH   4   5
ENDBRANCH   3   4
ENDBRANCH   2   3
ENDBRANCH   1   2
BRANCH   1  23
ATOM     23  O   UNL A   1      35.875  21.185  24.947  1.00  0.00    -0.377 OA
BRANCH  23  24
ATOM     24  C   UNL A   1      37.278  20.963  24.839  1.00  0.00     0.188 C 
BRANCH  24  25
ATOM     25  C   UNL A   1      38.234  21.951  25.549  1.00  0.00     0.188 C 
BRANCH  25  26
ATOM     26  O   UNL A   1      39.359  21.341  26.170  1.00  0.00    -0.376 OA
BRANCH  26  27
ATOM     27  C   UNL A   1      39.621  19.967  25.924  1.00  0.00     0.202 C 
BRANCH  27  28
ATOM     28  C   UNL A   1      41.041  19.439  26.194  1.00  0.00     0.261 C 
BRANCH  28  29
ATOM     29  O   UNL A   1      42.052  19.772  25.230  1.00  0.00    -0.460 OA
BRANCH  29  30
ATOM     30  C   UNL A   1      43.249  20.197  25.686  1.00  0.00     0.338 C 
ATOM     31  O   UNL A   1      44.312  19.601  25.617  1.00  0.00    -0.246 OA
BRANCH  30  32
ATOM     32  C   UNL A   1      43.092  21.608  26.095  1.00  0.00     0.060 A 
ATOM     33  C   UNL A   1      42.915  22.593  25.112  1.00  0.00     0.016 A 
ATOM     34  C   UNL A   1      43.103  21.953  27.447  1.00  0.00     0.016 A 
ATOM     35  C   UNL A   1      42.779  23.932  25.479  1.00  0.00     0.010 A 
ATOM     36  C   UNL A   1      42.998  23.296  27.811  1.00  0.00     0.010 A 
ATOM     37  C   UNL A   1      42.869  24.295  26.828  1.00  0.00    -0.014 A 
BRANCH  37  38
ATOM     38  C   UNL A   1      43.058  25.716  27.208  1.00  0.00     0.031 A 
ATOM     39  C   UNL A   1      44.454  26.276  27.145  1.00  0.00     0.074 A 
ATOM     40  C   UNL A   1      42.032  26.484  27.613  1.00  0.00     0.049 A 
ATOM     41  N   UNL A   1      44.909  27.424  27.567  1.00  0.00    -0.248 NA
ATOM     42  C   UNL A   1      45.474  25.409  26.531  1.00  0.00     0.031 C 
ATOM     43  C   UNL A   1      40.630  26.073  27.649  1.00  0.00     0.029 A 
ATOM     44  N   UNL A   1      42.018  27.770  28.095  1.00  0.00    -0.354 N 
ATOM     45  C   UNL A   1      46.273  27.411  27.293  1.00  0.00     0.074 A 
ATOM     46  C   UNL A   1      46.571  26.132  26.687  1.00  0.00     0.031 C 
ATOM     47  C   UNL A   1      39.895  27.078  28.156  1.00  0.00     0.029 A 
ATOM     48  C   UNL A   1      40.779  28.181  28.531  1.00  0.00     0.049 A 
ATOM     49  H   UNL A   1      42.818  28.343  28.127  1.00  0.00     0.167 HD
ATOM     50  C   UNL A   1      47.190  28.379  27.531  1.00  0.00     0.034 A 
ATOM     51  C   UNL A   1      40.414  29.296  29.200  1.00  0.00     0.034 A 
ATOM     52  C   UNL A   1      46.870  29.646  28.140  1.00  0.00     0.049 A 
ATOM     53  C   UNL A   1      41.473  30.324  29.539  1.00  0.00     0.074 A 
ATOM     54  C   UNL A   1      47.715  30.709  28.405  1.00  0.00     0.029 A 
ATOM     55  N   UNL A   1      45.611  30.015  28.596  1.00  0.00    -0.354 N 
ATOM     56  N   UNL A   1      42.760  30.305  29.274  1.00  0.00    -0.248 NA
ATOM     57  C   UNL A   1      41.030  31.524  30.266  1.00  0.00     0.031 C 
ATOM     58  C   UNL A   1      46.990  31.680  29.101  1.00  0.00     0.029 A 
ATOM     59  C   UNL A   1      45.668  31.270  29.179  1.00  0.00     0.049 A 
ATOM     60  H   UNL A   1      44.799  29.465  28.516  1.00  0.00     0.167 HD
ATOM     61  C   UNL A   1      43.268  31.507  29.766  1.00  0.00     0.074 A 
ATOM     62  C   UNL A   1      42.150  32.227  30.337  1.00  0.00     0.031 C 
ATOM     63  C   UNL A   1      44.542  31.977  29.742  1.00  0.00     0.034 A 
BRANCH  50  64
ATOM     64  C   UNL A   1      48.630  28.080  27.196  1.00  0.00     0.023 A 
ATOM     65  C   UNL A   1      49.176  28.354  25.930  1.00  0.00     0.031 A 
ATOM     66  C   UNL A   1      49.469  27.498  28.164  1.00  0.00     0.131 A 
ATOM     67  C   UNL A   1      50.503  27.993  25.650  1.00  0.00     0.055 A 
ATOM     68  C   UNL A   1      50.811  27.218  27.905  1.00  0.00     0.041 A 
ATOM     69  F   UNL A   1      48.993  27.185  29.381  1.00  0.00    -0.206 F 
ATOM     70  C   UNL A   1      51.333  27.455  26.638  1.00  0.00     0.022 A 
BRANCH  67  71
ATOM     71  S   UNL A   1      51.090  28.115  23.939  1.00  0.00     0.124 S 
ATOM     72  O   UNL A   1      49.844  27.975  23.189  1.00  0.00    -0.237 OA
ATOM     73  O   UNL A   1      51.709  29.434  23.910  1.00  0.00    -0.237 OA
ATOM     74  O   UNL A   1      52.014  26.988  23.813  1.00  0.00    -0.744 OA
ENDBRANCH  67  71
ENDBRANCH  50  64
BRANCH  51  75
ATOM     75  C   UNL A   1      39.005  29.482  29.658  1.00  0.00     0.023 A 
ATOM     76  C   UNL A   1      38.111  30.303  28.953  1.00  0.00     0.031 A 
ATOM     77  C   UNL A   1      38.553  28.902  30.858  1.00  0.00     0.131 A 
ATOM     78  C   UNL A   1      36.836  30.567  29.479  1.00  0.00     0.055 A 
ATOM     79  C   UNL A   1      37.262  29.115  31.345  1.00  0.00     0.041 A 
ATOM     80  F   UNL A   1      39.366  28.114  31.580  1.00  0.00    -0.206 F 
ATOM     81  C   UNL A   1      36.400  29.966  30.661  1.00  0.00     0.022 A 
BRANCH  78  82
ATOM     82  S   UNL A   1      35.799  31.806  28.656  1.00  0.00     0.124 S 
ATOM     83  O   UNL A   1      36.717  32.934  28.546  1.00  0.00    -0.237 OA
ATOM     84  O   UNL A   1      35.456  31.131  27.408  1.00  0.00    -0.237 OA
ATOM     85  O   UNL A   1      34.688  31.993  29.587  1.00  0.00    -0.744 OA
ENDBRANCH  78  82
ENDBRANCH  51  75
BRANCH  63  86
ATOM     86  C   UNL A   1      44.787  33.364  30.287  1.00  0.00     0.023 A 
ATOM     87  C   UNL A   1      44.662  34.515  29.490  1.00  0.00     0.031 A 
ATOM     88  C   UNL A   1      45.128  33.533  31.642  1.00  0.00     0.131 A 
ATOM     89  C   UNL A   1      44.919  35.779  30.044  1.00  0.00     0.055 A 
ATOM     90  C   UNL A   1      45.317  34.797  32.203  1.00  0.00     0.041 A 
ATOM     91  F   UNL A   1      45.265  32.469  32.450  1.00  0.00    -0.206 F 
ATOM     92  C   UNL A   1      45.224  35.928  31.399  1.00  0.00     0.022 A 
BRANCH  89  93
ATOM     93  S   UNL A   1      44.932  37.226  28.950  1.00  0.00     0.124 S 
ATOM     94  O   UNL A   1      45.329  36.638  27.676  1.00  0.00    -0.237 OA
ATOM     95  O   UNL A   1      43.552  37.693  29.034  1.00  0.00    -0.237 OA
ATOM     96  O   UNL A   1      45.923  38.108  29.561  1.00  0.00    -0.744 OA
ENDBRANCH  89  93
ENDBRANCH  63  86
ENDBRANCH  37  38
ENDBRANCH  30  32
ENDBRANCH  29  30
ENDBRANCH  28  29
ENDBRANCH  27  28
ENDBRANCH  26  27
ENDBRANCH  25  26
ENDBRANCH  24  25
ENDBRANCH  23  24
ENDBRANCH   1  23
TORSDOF 27
ENDMDL
MODEL 2
REMARK VINA RESULT:      -8.3      2.555      3.031
REMARK SMILES COc1ncccc1CS(=O)(=O)[C@H](C)C(=O)OCCOCCOCCOCCOC(=O)c1ccc(-c2c3nc(c(-c4cc(S(=O)(=O)[O-])ccc4F)c4ccc([nH]4)c(-c4cc(S(=O)(=O)[O-])ccc4F)c4nc(c(-c5cc(S(=O)(=O)[O-])ccc5F)c5ccc2[nH]5)C=C4)C=C3)cc1
REMARK SMILES IDX 22 1 21 2 20 3 19 4 18 5 17 6 15 7 16 8 13 9 14 10 10 11
REMARK SMILES IDX 11 12 12 13 9 14 8 15 3 16 4 17 5 18 7 19 6 20 2 21 1 22
REMARK SMILES IDX 23 23 24 24 25 25 26 26 27 27 28 28 29 29 30 30 31 31 32 32
REMARK SMILES IDX 33 33 94 34 34 35 93 36 35 37 36 38 37 39 87 40 38 41 92 42
REMARK SMILES IDX 86 43 88 44 39 45 91 46 85 47 84 48 40 50 72 51 52 52 71 53
REMARK SMILES IDX 53 54 56 55 70 56 89 57 54 58 55 59 69 61 90 62 57 63 41 64
REMARK SMILES IDX 42 65 50 66 43 67 49 68 51 69 48 70 44 71 45 72 46 73 47 74
REMARK SMILES IDX 73 75 74 76 82 77 75 78 81 79 83 80 80 81 76 82 77 83 78 84
REMARK SMILES IDX 79 85 58 86 59 87 67 88 60 89 66 90 68 91 65 92 61 93 62 94
REMARK SMILES IDX 63 95 64 96
REMARK H PARENT 88 49 56 60
REMARK Flexibility Score: inf
ROOT
ATOM      1  C   UNL A   1      34.977  21.729  26.310  1.00  0.00     0.188 C 
ENDROOT
BRANCH   1   2
ATOM      2  C   UNL A   1      33.492  21.346  26.330  1.00  0.00     0.188 C 
BRANCH   2   3
ATOM      3  O   UNL A   1      32.987  20.255  25.579  1.00  0.00    -0.376 OA
BRANCH   3   4
ATOM      4  C   UNL A   1      32.184  20.411  24.422  1.00  0.00     0.202 C 
BRANCH   4   5
ATOM      5  C   UNL A   1      32.549  21.318  23.231  1.00  0.00     0.261 C 
BRANCH   5   6
ATOM      6  O   UNL A   1      32.271  22.724  23.322  1.00  0.00    -0.462 OA
BRANCH   6   7
ATOM      7  C   UNL A   1      33.274  23.516  22.874  1.00  0.00     0.324 C 
ATOM      8  O   UNL A   1      34.130  23.157  22.070  1.00  0.00    -0.251 OA
BRANCH   7   9
ATOM      9  C   UNL A   1      33.250  24.896  23.453  1.00  0.00     0.215 C 
ATOM     10  C   UNL A   1      34.395  25.319  24.342  1.00  0.00     0.037 C 
BRANCH   9  11
ATOM     11  S   UNL A   1      32.750  26.040  22.193  1.00  0.00     0.168 S 
ATOM     12  O   UNL A   1      32.527  25.221  21.013  1.00  0.00    -0.228 OA
ATOM     13  O   UNL A   1      33.776  27.067  22.104  1.00  0.00    -0.228 OA
BRANCH  11  14
ATOM     14  C   UNL A   1      31.230  26.923  22.579  1.00  0.00     0.179 C 
BRANCH  14  15
ATOM     15  C   UNL A   1      31.293  27.968  23.652  1.00  0.00     0.029 A 
ATOM     16  C   UNL A   1      30.746  29.244  23.515  1.00  0.00     0.217 A 
ATOM     17  N   UNL A   1      30.813  30.207  24.462  1.00  0.00    -0.222 NA
ATOM     18  C   UNL A   1      31.515  29.915  25.582  1.00  0.00     0.115 A 
ATOM     19  C   UNL A   1      32.026  27.719  24.822  1.00  0.00     0.012 A 
ATOM     20  C   UNL A   1      32.147  28.703  25.799  1.00  0.00     0.021 A 
BRANCH  16  21
ATOM     21  O   UNL A   1      30.333  29.647  22.270  1.00  0.00    -0.481 OA
ATOM     22  C   UNL A   1      28.917  29.717  22.170  1.00  0.00     0.280 C 
ENDBRANCH  16  21
ENDBRANCH  14  15
ENDBRANCH  11  14
ENDBRANCH   9  11
ENDBRANCH   7   9
ENDBRANCH   6   7
ENDBRANCH   5   6
ENDBRANCH   4   5
ENDBRANCH   3   4
ENDBRANCH   2   3
ENDBRANCH   1   2
BRANCH   1  23
ATOM     23  O   UNL A   1      35.588  21.680  25.041  1.00  0.00    -0.377 OA
BRANCH  23  24
ATOM     24  C   UNL A   1      37.010  21.764  25.029  1.00  0.00     0.188 C 
BRANCH  24  25
ATOM     25  C   UNL A   1      37.679  22.977  25.717  1.00  0.00     0.188 C 
BRANCH  25  26
ATOM     26  O   UNL A   1      38.862  22.665  26.444  1.00  0.00    -0.376 OA
BRANCH  26  27
ATOM     27  C   UNL A   1      39.575  21.480  26.124  1.00  0.00     0.202 C 
BRANCH  27  28
ATOM     28  C   UNL A   1      41.050  21.381  26.552  1.00  0.00     0.261 C 
BRANCH  28  29
ATOM     29  O   UNL A   1      42.038  21.654  25.547  1.00  0.00    -0.460 OA
BRANCH  29  30
ATOM     30  C   UNL A   1      43.220  22.171  25.941  1.00  0.00     0.338 C 
ATOM     31  O   UNL A   1      44.327  21.689  25.758  1.00  0.00    -0.246 OA
BRANCH  30  32
ATOM     32  C   UNL A   1      42.961  23.534  26.450  1.00  0.00     0.060 A 
ATOM     33  C   UNL A   1      42.649  24.558  25.543  1.00  0.00     0.016 A 
ATOM     34  C   UNL A   1      43.010  23.795  27.819  1.00  0.00     0.016 A 
ATOM     35  C   UNL A   1      42.415  25.854  26.002  1.00  0.00     0.010 A 
ATOM     36  C   UNL A   1      42.806  25.098  28.275  1.00  0.00     0.010 A 
ATOM     37  C   UNL A   1      42.541  26.140  27.366  1.00  0.00    -0.014 A 
BRANCH  37  38
ATOM     38  C   UNL A   1      42.624  27.545  27.830  1.00  0.00     0.031 A 
ATOM     39  C   UNL A   1      43.991  28.166  27.940  1.00  0.00     0.074 A 
ATOM     40  C   UNL A   1      41.527  28.249  28.163  1.00  0.00     0.049 A 
ATOM     41  N   UNL A   1      44.348  29.308  28.460  1.00  0.00    -0.248 NA
ATOM     42  C   UNL A   1      45.108  27.375  27.395  1.00  0.00     0.031 C 
ATOM     43  C   UNL A   1      40.150  27.778  28.033  1.00  0.00     0.029 A 
ATOM     44  N   UNL A   1      41.404  29.506  28.700  1.00  0.00    -0.354 N 
ATOM     45  C   UNL A   1      45.731  29.366  28.329  1.00  0.00     0.074 A 
ATOM     46  C   UNL A   1      46.149  28.134  27.698  1.00  0.00     0.031 C 
ATOM     47  C   UNL A   1      39.321  28.724  28.508  1.00  0.00     0.029 A 
ATOM     48  C   UNL A   1      40.109  29.842  29.024  1.00  0.00     0.049 A 
ATOM     49  H   UNL A   1      42.169  30.110  28.842  1.00  0.00     0.167 HD
ATOM     50  C   UNL A   1      46.573  30.358  28.705  1.00  0.00     0.034 A 
ATOM     51  C   UNL A   1      39.627  30.905  29.703  1.00  0.00     0.034 A 
ATOM     52  C   UNL A   1      46.134  31.577  29.337  1.00  0.00     0.049 A 
ATOM     53  C   UNL A   1      40.597  31.958  30.199  1.00  0.00     0.074 A 
ATOM     54  C   UNL A   1      46.897  32.659  29.738  1.00  0.00     0.029 A 
ATOM     55  N   UNL A   1      44.819  31.869  29.677  1.00  0.00    -0.354 N 
ATOM     56  N   UNL A   1      41.903  32.006  30.068  1.00  0.00    -0.248 NA
ATOM     57  C   UNL A   1      40.027  33.099  30.931  1.00  0.00     0.031 C 
ATOM     58  C   UNL A   1      46.060  33.562  30.400  1.00  0.00     0.029 A 
ATOM     59  C   UNL A   1      44.758  33.094  30.321  1.00  0.00     0.049 A 
ATOM     60  H   UNL A   1      44.046  31.291  29.487  1.00  0.00     0.167 HD
ATOM     61  C   UNL A   1      42.302  33.201  30.666  1.00  0.00     0.074 A 
ATOM     62  C   UNL A   1      41.100  33.844  31.150  1.00  0.00     0.031 C 
ATOM     63  C   UNL A   1      43.548  33.724  30.796  1.00  0.00     0.034 A 
BRANCH  50  64
ATOM     64  C   UNL A   1      48.052  30.136  28.508  1.00  0.00     0.023 A 
ATOM     65  C   UNL A   1      48.801  29.297  29.351  1.00  0.00     0.031 A 
ATOM     66  C   UNL A   1      48.725  30.788  27.459  1.00  0.00     0.131 A 
ATOM     67  C   UNL A   1      50.186  29.178  29.164  1.00  0.00     0.055 A 
ATOM     68  C   UNL A   1      50.088  30.601  27.228  1.00  0.00     0.041 A 
ATOM     69  F   UNL A   1      48.067  31.627  26.642  1.00  0.00    -0.206 F 
ATOM     70  C   UNL A   1      50.830  29.801  28.091  1.00  0.00     0.022 A 
BRANCH  67  71
ATOM     71  S   UNL A   1      51.158  28.307  30.423  1.00  0.00     0.124 S 
ATOM     72  O   UNL A   1      52.121  27.579  29.599  1.00  0.00    -0.237 OA
ATOM     73  O   UNL A   1      51.697  29.401  31.221  1.00  0.00    -0.237 OA
ATOM     74  O   UNL A   1      50.169  27.468  31.099  1.00  0.00    -0.744 OA
ENDBRANCH  67  71
ENDBRANCH  50  64
BRANCH  51  75
ATOM     75  C   UNL A   1      38.172  31.008  30.021  1.00  0.00     0.023 A 
ATOM     76  C   UNL A   1      37.263  31.564  29.106  1.00  0.00     0.031 A 
ATOM     77  C   UNL A   1      37.678  30.624  31.282  1.00  0.00     0.131 A 
ATOM     78  C   UNL A   1      35.927  31.773  29.483  1.00  0.00     0.055 A 
ATOM     79  C   UNL A   1      36.334  30.773  31.629  1.00  0.00     0.041 A 
ATOM     80  F   UNL A   1      38.501  30.093  32.200  1.00  0.00    -0.206 F 
ATOM     81  C   UNL A   1      35.452  31.366  30.732  1.00  0.00     0.022 A 
BRANCH  78  82
ATOM     82  S   UNL A   1      34.843  32.696  28.359  1.00  0.00     0.124 S 
ATOM     83  O   UNL A   1      35.808  33.482  27.598  1.00  0.00    -0.237 OA
ATOM     84  O   UNL A   1      34.175  31.620  27.634  1.00  0.00    -0.237 OA
ATOM     85  O   UNL A   1      33.987  33.461  29.264  1.00  0.00    -0.744 OA
ENDBRANCH  78  82
ENDBRANCH  51  75
BRANCH  63  86
ATOM     86  C   UNL A   1      43.672  35.090  31.429  1.00  0.00     0.023 A 
ATOM     87  C   UNL A   1      43.697  35.270  32.822  1.00  0.00     0.031 A 
ATOM     88  C   UNL A   1      43.794  36.231  30.613  1.00  0.00     0.131 A 
ATOM     89  C   UNL A   1      43.797  36.565  33.357  1.00  0.00     0.055 A 
ATOM     90  C   UNL A   1      43.959  37.508  31.150  1.00  0.00     0.041 A 
ATOM     91  F   UNL A   1      43.773  36.119  29.275  1.00  0.00    -0.206 F 
ATOM     92  C   UNL A   1      43.949  37.680  32.531  1.00  0.00     0.022 A 
BRANCH  89  93
ATOM     93  S   UNL A   1      43.639  36.782  35.151  1.00  0.00     0.124 S 
ATOM     94  O   UNL A   1      43.606  38.235  35.278  1.00  0.00    -0.237 OA
ATOM     95  O   UNL A   1      42.389  36.088  35.441  1.00  0.00    -0.237 OA
ATOM     96  O   UNL A   1      44.840  36.141  35.681  1.00  0.00    -0.744 OA
ENDBRANCH  89  93
ENDBRANCH  63  86
ENDBRANCH  37  38
ENDBRANCH  30  32
ENDBRANCH  29  30
ENDBRANCH  28  29
ENDBRANCH  27  28
ENDBRANCH  26  27
ENDBRANCH  25  26
ENDBRANCH  24  25
ENDBRANCH  23  24
ENDBRANCH   1  23
TORSDOF 27
ENDMDL
MODEL 3
REMARK VINA RESULT:      -8.0      1.897      2.287
REMARK SMILES COc1ncccc1CS(=O)(=O)[C@H](C)C(=O)OCCOCCOCCOCCOC(=O)c1ccc(-c2c3nc(c(-c4cc(S(=O)(=O)[O-])ccc4F)c4ccc([nH]4)c(-c4cc(S(=O)(=O)[O-])ccc4F)c4nc(c(-c5cc(S(=O)(=O)[O-])ccc5F)c5ccc2[nH]5)C=C4)C=C3)cc1
REMARK SMILES IDX 22 1 21 2 20 3 19 4 18 5 17 6 15 7 16 8 13 9 14 10 10 11
REMARK SMILES IDX 11 12 12 13 9 14 8 15 3 16 4 17 5 18 7 19 6 20 2 21 1 22
REMARK SMILES IDX 23 23 24 24 25 25 26 26 27 27 28 28 29 29 30 30 31 31 32 32
REMARK SMILES IDX 33 33 94 34 34 35 93 36 35 37 36 38 37 39 87 40 38 41 92 42
REMARK SMILES IDX 86 43 88 44 39 45 91 46 85 47 84 48 40 50 72 51 52 52 71 53
REMARK SMILES IDX 53 54 56 55 70 56 89 57 54 58 55 59 69 61 90 62 57 63 41 64
REMARK SMILES IDX 42 65 50 66 43 67 49 68 51 69 48 70 44 71 45 72 46 73 47 74
REMARK SMILES IDX 73 75 74 76 82 77 75 78 81 79 83 80 80 81 76 82 77 83 78 84
REMARK SMILES IDX 79 85 58 86 59 87 67 88 60 89 66 90 68 91 65 92 61 93 62 94
REMARK SMILES IDX 63 95 64 96
REMARK H PARENT 88 49 56 60
REMARK Flexibility Score: inf
ROOT
ATOM      1  C   UNL A   1      35.396  21.970  26.404  1.00  0.00     0.188 C 
ENDROOT
BRANCH   1   2
ATOM      2  C   UNL A   1      33.906  21.604  26.380  1.00  0.00     0.188 C 
BRANCH   2   3
ATOM      3  O   UNL A   1      33.387  20.626  25.496  1.00  0.00    -0.376 OA
BRANCH   3   4
ATOM      4  C   UNL A   1      32.509  20.931  24.426  1.00  0.00     0.202 C 
BRANCH   4   5
ATOM      5  C   UNL A   1      32.346  22.334  23.813  1.00  0.00     0.261 C 
BRANCH   5   6
ATOM      6  O   UNL A   1      31.137  23.065  24.071  1.00  0.00    -0.462 OA
BRANCH   6   7
ATOM      7  C   UNL A   1      31.045  24.236  23.397  1.00  0.00     0.324 C 
ATOM      8  O   UNL A   1      31.401  24.393  22.233  1.00  0.00    -0.251 OA
BRANCH   7   9
ATOM      9  C   UNL A   1      30.457  25.349  24.208  1.00  0.00     0.215 C 
ATOM     10  C   UNL A   1      29.165  25.973  23.737  1.00  0.00     0.037 C 
BRANCH   9  11
ATOM     11  S   UNL A   1      30.561  24.924  25.927  1.00  0.00     0.168 S 
ATOM     12  O   UNL A   1      30.641  23.473  25.948  1.00  0.00    -0.228 OA
ATOM     13  O   UNL A   1      29.424  25.537  26.597  1.00  0.00    -0.228 OA
BRANCH  11  14
ATOM     14  C   UNL A   1      32.012  25.595  26.752  1.00  0.00     0.179 C 
BRANCH  14  15
ATOM     15  C   UNL A   1      32.316  27.048  26.542  1.00  0.00     0.029 A 
ATOM     16  C   UNL A   1      33.274  27.510  25.638  1.00  0.00     0.217 A 
ATOM     17  N   UNL A   1      33.578  28.814  25.453  1.00  0.00    -0.222 NA
ATOM     18  C   UNL A   1      32.947  29.709  26.248  1.00  0.00     0.115 A 
ATOM     19  C   UNL A   1      31.702  28.011  27.357  1.00  0.00     0.012 A 
ATOM     20  C   UNL A   1      32.023  29.358  27.217  1.00  0.00     0.021 A 
BRANCH  16  21
ATOM     21  O   UNL A   1      34.137  26.602  25.081  1.00  0.00    -0.481 OA
ATOM     22  C   UNL A   1      33.837  26.341  23.715  1.00  0.00     0.280 C 
ENDBRANCH  16  21
ENDBRANCH  14  15
ENDBRANCH  11  14
ENDBRANCH   9  11
ENDBRANCH   7   9
ENDBRANCH   6   7
ENDBRANCH   5   6
ENDBRANCH   4   5
ENDBRANCH   3   4
ENDBRANCH   2   3
ENDBRANCH   1   2
BRANCH   1  23
ATOM     23  O   UNL A   1      35.980  22.174  25.138  1.00  0.00    -0.377 OA
BRANCH  23  24
ATOM     24  C   UNL A   1      37.342  21.779  25.008  1.00  0.00     0.188 C 
BRANCH  24  25
ATOM     25  C   UNL A   1      38.396  22.473  25.904  1.00  0.00     0.188 C 
BRANCH  25  26
ATOM     26  O   UNL A   1      39.414  21.610  26.395  1.00  0.00    -0.376 OA
BRANCH  26  27
ATOM     27  C   UNL A   1      39.770  20.463  25.637  1.00  0.00     0.202 C 
BRANCH  27  28
ATOM     28  C   UNL A   1      40.808  19.493  26.230  1.00  0.00     0.261 C 
BRANCH  28  29
ATOM     29  O   UNL A   1      41.877  19.079  25.367  1.00  0.00    -0.460 OA
BRANCH  29  30
ATOM     30  C   UNL A   1      43.131  19.470  25.677  1.00  0.00     0.338 C 
ATOM     31  O   UNL A   1      44.147  18.798  25.597  1.00  0.00    -0.246 OA
BRANCH  30  32
ATOM     32  C   UNL A   1      43.093  20.925  25.927  1.00  0.00     0.060 A 
ATOM     33  C   UNL A   1      43.147  21.811  24.841  1.00  0.00     0.016 A 
ATOM     34  C   UNL A   1      42.987  21.412  27.230  1.00  0.00     0.016 A 
ATOM     35  C   UNL A   1      43.127  23.189  25.059  1.00  0.00     0.010 A 
ATOM     36  C   UNL A   1      42.998  22.790  27.449  1.00  0.00     0.010 A 
ATOM     37  C   UNL A   1      43.101  23.684  26.367  1.00  0.00    -0.014 A 
BRANCH  37  38
ATOM     38  C   UNL A   1      43.410  25.110  26.632  1.00  0.00     0.031 A 
ATOM     39  C   UNL A   1      44.812  25.585  26.362  1.00  0.00     0.074 A 
ATOM     40  C   UNL A   1      42.484  25.959  27.114  1.00  0.00     0.049 A 
ATOM     41  N   UNL A   1      45.376  26.725  26.651  1.00  0.00    -0.248 NA
ATOM     42  C   UNL A   1      45.701  24.627  25.680  1.00  0.00     0.031 C 
ATOM     43  C   UNL A   1      41.079  25.632  27.349  1.00  0.00     0.029 A 
ATOM     44  N   UNL A   1      42.596  27.267  27.513  1.00  0.00    -0.354 N 
ATOM     45  C   UNL A   1      46.691  26.618  26.211  1.00  0.00     0.074 A 
ATOM     46  C   UNL A   1      46.844  25.293  25.653  1.00  0.00     0.031 C 
ATOM     47  C   UNL A   1      40.466  26.704  27.880  1.00  0.00     0.029 A 
ATOM     48  C   UNL A   1      41.446  27.773  28.074  1.00  0.00     0.049 A 
ATOM     49  H   UNL A   1      43.422  27.794  27.409  1.00  0.00     0.167 HD
ATOM     50  C   UNL A   1      47.678  27.543  26.272  1.00  0.00     0.034 A 
ATOM     51  C   UNL A   1      41.227  28.943  28.712  1.00  0.00     0.034 A 
ATOM     52  C   UNL A   1      47.504  28.858  26.837  1.00  0.00     0.049 A 
ATOM     53  C   UNL A   1      42.371  29.925  28.853  1.00  0.00     0.074 A 
ATOM     54  C   UNL A   1      48.428  29.882  26.928  1.00  0.00     0.029 A 
ATOM     55  N   UNL A   1      46.334  29.324  27.423  1.00  0.00    -0.354 N 
ATOM     56  N   UNL A   1      43.610  29.816  28.431  1.00  0.00    -0.248 NA
ATOM     57  C   UNL A   1      42.086  31.186  29.553  1.00  0.00     0.031 C 
ATOM     58  C   UNL A   1      47.848  30.931  27.648  1.00  0.00     0.029 A 
ATOM     59  C   UNL A   1      46.528  30.603  27.915  1.00  0.00     0.049 A 
ATOM     60  H   UNL A   1      45.491  28.818  27.479  1.00  0.00     0.167 HD
ATOM     61  C   UNL A   1      44.238  31.012  28.780  1.00  0.00     0.074 A 
ATOM     62  C   UNL A   1      43.240  31.826  29.440  1.00  0.00     0.031 C 
ATOM     63  C   UNL A   1      45.520  31.405  28.569  1.00  0.00     0.034 A 
BRANCH  50  64
ATOM     64  C   UNL A   1      49.047  27.142  25.780  1.00  0.00     0.023 A 
ATOM     65  C   UNL A   1      49.557  27.584  24.547  1.00  0.00     0.031 A 
ATOM     66  C   UNL A   1      49.851  26.292  26.560  1.00  0.00     0.131 A 
ATOM     67  C   UNL A   1      50.808  27.127  24.106  1.00  0.00     0.055 A 
ATOM     68  C   UNL A   1      51.129  25.907  26.153  1.00  0.00     0.041 A 
ATOM     69  F   UNL A   1      49.403  25.813  27.732  1.00  0.00    -0.206 F 
ATOM     70  C   UNL A   1      51.610  26.316  24.914  1.00  0.00     0.022 A 
BRANCH  67  71
ATOM     71  S   UNL A   1      51.315  27.498  22.405  1.00  0.00     0.124 S 
ATOM     72  O   UNL A   1      52.697  27.021  22.399  1.00  0.00    -0.237 OA
ATOM     73  O   UNL A   1      50.368  26.722  21.615  1.00  0.00    -0.237 OA
ATOM     74  O   UNL A   1      51.165  28.950  22.313  1.00  0.00    -0.744 OA
ENDBRANCH  67  71
ENDBRANCH  50  64
BRANCH  51  75
ATOM     75  C   UNL A   1      39.899  29.235  29.330  1.00  0.00     0.023 A 
ATOM     76  C   UNL A   1      39.679  29.053  30.704  1.00  0.00     0.031 A 
ATOM     77  C   UNL A   1      38.803  29.626  28.538  1.00  0.00     0.131 A 
ATOM     78  C   UNL A   1      38.387  29.205  31.235  1.00  0.00     0.055 A 
ATOM     79  C   UNL A   1      37.535  29.840  29.081  1.00  0.00     0.041 A 
ATOM     80  F   UNL A   1      38.951  29.808  27.216  1.00  0.00    -0.206 F 
ATOM     81  C   UNL A   1      37.318  29.613  30.436  1.00  0.00     0.022 A 
BRANCH  78  82
ATOM     82  S   UNL A   1      38.102  28.743  32.965  1.00  0.00     0.124 S 
ATOM     83  O   UNL A   1      38.373  27.311  32.938  1.00  0.00    -0.237 OA
ATOM     84  O   UNL A   1      39.080  29.571  33.663  1.00  0.00    -0.237 OA
ATOM     85  O   UNL A   1      36.704  29.111  33.189  1.00  0.00    -0.744 OA
ENDBRANCH  78  82
ENDBRANCH  51  75
BRANCH  63  86
ATOM     86  C   UNL A   1      45.904  32.803  28.992  1.00  0.00     0.023 A 
ATOM     87  C   UNL A   1      45.655  33.925  28.183  1.00  0.00     0.031 A 
ATOM     88  C   UNL A   1      46.506  33.014  30.246  1.00  0.00     0.131 A 
ATOM     89  C   UNL A   1      46.048  35.201  28.618  1.00  0.00     0.055 A 
ATOM     90  C   UNL A   1      46.834  34.292  30.702  1.00  0.00     0.041 A 
ATOM     91  F   UNL A   1      46.770  31.979  31.060  1.00  0.00    -0.206 F 
ATOM     92  C   UNL A   1      46.615  35.393  29.880  1.00  0.00     0.022 A 
BRANCH  89  93
ATOM     93  S   UNL A   1      45.886  36.601  27.477  1.00  0.00     0.124 S 
ATOM     94  O   UNL A   1      44.491  36.494  27.063  1.00  0.00    -0.237 OA
ATOM     95  O   UNL A   1      46.212  37.739  28.330  1.00  0.00    -0.237 OA
ATOM     96  O   UNL A   1      46.866  36.309  26.434  1.00  0.00    -0.744 OA
ENDBRANCH  89  93
ENDBRANCH  63  86
ENDBRANCH  37  38
ENDBRANCH  30  32
ENDBRANCH  29  30
ENDBRANCH  28  29
ENDBRANCH  27  28
ENDBRANCH  26  27
ENDBRANCH  25  26
ENDBRANCH  24  25
ENDBRANCH  23  24
ENDBRANCH   1  23
TORSDOF 27
ENDMDL
