MODEL 1
REMARK VINA RESULT:     -10.1      0.000      0.000
REMARK SMILES CCOC(=O)c1c(NC(=O)/C=C/C(=O)OCCOCCOCCOCCOC(=O)c2ccc(-c3c4nc(c(-c5cc(S(=O)(=O)[O-])ccc5F)c5ccc([nH]5)c(-c5cc(S(=O)(=O)[O-])ccc5F)c5nc(c(-c6cc(S(=O)(=O)[O-])ccc6F)c6ccc3[nH]6)C=C5)C=C4)cc2)sc(C)c1-c1ccc(C)c(C)c1
REMARK SMILES IDX 20 1 19 2 18 3 17 4 16 5 15 6 13 7 14 8 12 9 11 10 9 11 8 12
REMARK SMILES IDX 10 14 7 15 6 16 96 17 93 18 94 19 95 20 4 21 5 22 3 23 2 24
REMARK SMILES IDX 1 25 97 26 98 27 104 28 99 29 102 30 100 31 103 32 101 33
REMARK SMILES IDX 21 34 22 35 23 36 24 37 25 38 26 39 27 40 28 41 29 42 30 43
REMARK SMILES IDX 31 44 92 45 32 46 91 47 33 48 34 49 35 50 85 51 36 52 90 53
REMARK SMILES IDX 84 54 86 55 37 56 89 57 83 58 82 59 38 61 70 62 50 63 69 64
REMARK SMILES IDX 51 65 54 66 68 67 87 68 52 69 53 70 67 72 88 73 55 74 39 75
REMARK SMILES IDX 40 76 48 77 41 78 47 79 49 80 46 81 42 82 43 83 44 84 45 85
REMARK SMILES IDX 71 86 72 87 80 88 73 89 79 90 81 91 78 92 74 93 75 94 76 95
REMARK SMILES IDX 77 96 56 97 57 98 65 99 58 100 64 101 66 102 63 103 59 104
REMARK SMILES IDX 60 105 61 106 62 107
REMARK H PARENT 8 13 86 60 54 71
REMARK Flexibility Score: inf
ROOT
ATOM      1  C   UNL A   1      31.090  26.619  26.354  1.00  0.00     0.188 C 
ENDROOT
BRANCH   1   2
ATOM      2  C   UNL A   1      30.093  26.696  25.184  1.00  0.00     0.188 C 
BRANCH   2   3
ATOM      3  O   UNL A   1      29.962  25.472  24.485  1.00  0.00    -0.376 OA
BRANCH   3   4
ATOM      4  C   UNL A   1      30.162  25.499  23.081  1.00  0.00     0.202 C 
BRANCH   4   5
ATOM      5  C   UNL A   1      30.729  26.759  22.397  1.00  0.00     0.261 C 
BRANCH   5   6
ATOM      6  O   UNL A   1      31.473  26.554  21.182  1.00  0.00    -0.460 OA
BRANCH   6   7
ATOM      7  C   UNL A   1      32.665  25.927  21.263  1.00  0.00     0.331 C 
ATOM      8  O   UNL A   1      33.211  25.302  20.366  1.00  0.00    -0.247 OA
BRANCH   7   9
ATOM      9  C   UNL A   1      33.342  26.179  22.559  1.00  0.00     0.099 C 
ATOM     10  C   UNL A   1      33.894  25.239  23.342  1.00  0.00     0.079 C 
BRANCH  10  11
ATOM     11  C   UNL A   1      34.404  25.551  24.699  1.00  0.00     0.249 C 
ATOM     12  N   UNL A   1      34.809  24.601  25.602  1.00  0.00    -0.313 N 
ATOM     13  H   UNL A   1      34.960  24.963  26.505  1.00  0.00     0.171 HD
ATOM     14  O   UNL A   1      34.475  26.738  25.024  1.00  0.00    -0.270 OA
BRANCH  12  15
ATOM     15  C   UNL A   1      35.054  23.237  25.511  1.00  0.00     0.111 A 
ATOM     16  C   UNL A   1      34.148  22.188  25.596  1.00  0.00     0.102 A 
ATOM     17  C   UNL A   1      34.797  20.904  25.370  1.00  0.00     0.012 A 
ATOM     18  S   UNL A   1      36.621  22.642  25.415  1.00  0.00    -0.122 S 
ATOM     19  C   UNL A   1      36.159  21.039  25.181  1.00  0.00     0.012 A 
ATOM     20  C   UNL A   1      37.224  20.043  24.852  1.00  0.00     0.057 C 
BRANCH  16  21
ATOM     21  C   UNL A   1      32.728  22.381  25.866  1.00  0.00     0.341 C 
ATOM     22  O   UNL A   1      32.295  22.757  26.936  1.00  0.00    -0.246 OA
BRANCH  21  23
ATOM     23  O   UNL A   1      31.967  22.041  24.783  1.00  0.00    -0.462 OA
BRANCH  23  24
ATOM     24  C   UNL A   1      32.557  22.213  23.490  1.00  0.00     0.230 C 
ATOM     25  C   UNL A   1      32.095  21.158  22.502  1.00  0.00     0.049 C 
ENDBRANCH  23  24
ENDBRANCH  21  23
ENDBRANCH  16  21
BRANCH  17  26
ATOM     26  C   UNL A   1      34.167  19.594  25.295  1.00  0.00    -0.016 A 
ATOM     27  C   UNL A   1      33.253  19.193  26.268  1.00  0.00     0.009 A 
ATOM     28  C   UNL A   1      34.465  18.741  24.228  1.00  0.00     0.012 A 
ATOM     29  C   UNL A   1      32.647  17.941  26.170  1.00  0.00     0.004 A 
ATOM     30  C   UNL A   1      33.848  17.487  24.107  1.00  0.00    -0.048 A 
ATOM     31  C   UNL A   1      32.932  17.079  25.096  1.00  0.00    -0.048 A 
ATOM     32  C   UNL A   1      34.192  16.632  22.920  1.00  0.00     0.044 C 
ATOM     33  C   UNL A   1      32.247  15.741  25.072  1.00  0.00     0.044 C 
ENDBRANCH  17  26
ENDBRANCH  12  15
ENDBRANCH  10  11
ENDBRANCH   7   9
ENDBRANCH   6   7
ENDBRANCH   5   6
ENDBRANCH   4   5
ENDBRANCH   3   4
ENDBRANCH   2   3
ENDBRANCH   1   2
BRANCH   1  34
ATOM     34  O   UNL A   1      32.002  27.694  26.450  1.00  0.00    -0.377 OA
BRANCH  34  35
ATOM     35  C   UNL A   1      31.752  28.875  25.690  1.00  0.00     0.188 C 
BRANCH  35  36
ATOM     36  C   UNL A   1      32.089  30.301  26.200  1.00  0.00     0.188 C 
BRANCH  36  37
ATOM     37  O   UNL A   1      31.219  31.337  25.760  1.00  0.00    -0.376 OA
BRANCH  37  38
ATOM     38  C   UNL A   1      31.268  32.560  26.480  1.00  0.00     0.202 C 
BRANCH  38  39
ATOM     39  C   UNL A   1      32.501  32.716  27.379  1.00  0.00     0.261 C 
BRANCH  39  40
ATOM     40  O   UNL A   1      33.058  34.038  27.420  1.00  0.00    -0.460 OA
BRANCH  40  41
ATOM     41  C   UNL A   1      33.591  34.435  28.600  1.00  0.00     0.338 C 
ATOM     42  O   UNL A   1      33.156  35.290  29.347  1.00  0.00    -0.246 OA
BRANCH  41  43
ATOM     43  C   UNL A   1      34.686  33.502  28.932  1.00  0.00     0.060 A 
ATOM     44  C   UNL A   1      34.447  32.483  29.862  1.00  0.00     0.016 A 
ATOM     45  C   UNL A   1      35.931  33.621  28.311  1.00  0.00     0.016 A 
ATOM     46  C   UNL A   1      35.470  31.598  30.202  1.00  0.00     0.010 A 
ATOM     47  C   UNL A   1      36.961  32.749  28.667  1.00  0.00     0.010 A 
ATOM     48  C   UNL A   1      36.745  31.757  29.641  1.00  0.00    -0.014 A 
BRANCH  48  49
ATOM     49  C   UNL A   1      37.899  31.045  30.241  1.00  0.00     0.031 A 
ATOM     50  C   UNL A   1      38.250  31.355  31.670  1.00  0.00     0.074 A 
ATOM     51  C   UNL A   1      38.598  30.127  29.550  1.00  0.00     0.049 A 
ATOM     52  N   UNL A   1      39.226  30.895  32.409  1.00  0.00    -0.248 NA
ATOM     53  C   UNL A   1      37.379  32.324  32.356  1.00  0.00     0.031 C 
ATOM     54  C   UNL A   1      38.323  29.711  28.177  1.00  0.00     0.029 A 
ATOM     55  N   UNL A   1      39.691  29.381  29.917  1.00  0.00    -0.354 N 
ATOM     56  C   UNL A   1      39.086  31.516  33.645  1.00  0.00     0.074 A 
ATOM     57  C   UNL A   1      37.961  32.418  33.541  1.00  0.00     0.031 C 
ATOM     58  C   UNL A   1      39.229  28.786  27.814  1.00  0.00     0.029 A 
ATOM     59  C   UNL A   1      40.170  28.572  28.913  1.00  0.00     0.049 A 
ATOM     60  H   UNL A   1      40.094  29.420  30.814  1.00  0.00     0.167 HD
ATOM     61  C   UNL A   1      39.823  31.342  34.770  1.00  0.00     0.034 A 
ATOM     62  C   UNL A   1      41.257  27.774  28.882  1.00  0.00     0.034 A 
ATOM     63  C   UNL A   1      40.956  30.454  34.851  1.00  0.00     0.049 A 
ATOM     64  C   UNL A   1      42.125  27.668  30.116  1.00  0.00     0.074 A 
ATOM     65  C   UNL A   1      41.774  30.197  35.938  1.00  0.00     0.029 A 
ATOM     66  N   UNL A   1      41.446  29.690  33.798  1.00  0.00    -0.354 N 
ATOM     67  N   UNL A   1      41.980  28.252  31.285  1.00  0.00    -0.248 NA
ATOM     68  C   UNL A   1      43.298  26.789  30.028  1.00  0.00     0.031 C 
ATOM     69  C   UNL A   1      42.800  29.342  35.521  1.00  0.00     0.029 A 
ATOM     70  C   UNL A   1      42.572  28.990  34.201  1.00  0.00     0.049 A 
ATOM     71  H   UNL A   1      41.049  29.651  32.898  1.00  0.00     0.167 HD
ATOM     72  C   UNL A   1      43.022  27.780  32.079  1.00  0.00     0.074 A 
ATOM     73  C   UNL A   1      43.778  26.854  31.261  1.00  0.00     0.031 C 
ATOM     74  C   UNL A   1      43.324  28.075  33.371  1.00  0.00     0.034 A 
BRANCH  61  75
ATOM     75  C   UNL A   1      39.453  32.174  35.973  1.00  0.00     0.023 A 
ATOM     76  C   UNL A   1      38.648  31.665  37.009  1.00  0.00     0.031 A 
ATOM     77  C   UNL A   1      39.873  33.513  36.065  1.00  0.00     0.131 A 
ATOM     78  C   UNL A   1      38.228  32.509  38.047  1.00  0.00     0.055 A 
ATOM     79  C   UNL A   1      39.523  34.322  37.147  1.00  0.00     0.041 A 
ATOM     80  F   UNL A   1      40.620  34.064  35.095  1.00  0.00    -0.206 F 
ATOM     81  C   UNL A   1      38.682  33.826  38.139  1.00  0.00     0.022 A 
BRANCH  78  82
ATOM     82  S   UNL A   1      36.956  31.906  39.193  1.00  0.00     0.124 S 
ATOM     83  O   UNL A   1      36.749  30.542  38.713  1.00  0.00    -0.237 OA
ATOM     84  O   UNL A   1      37.611  32.036  40.489  1.00  0.00    -0.237 OA
ATOM     85  O   UNL A   1      35.834  32.814  38.968  1.00  0.00    -0.744 OA
ENDBRANCH  78  82
ENDBRANCH  61  75
BRANCH  62  86
ATOM     86  C   UNL A   1      41.621  27.035  27.637  1.00  0.00     0.023 A 
ATOM     87  C   UNL A   1      41.477  25.641  27.547  1.00  0.00     0.031 A 
ATOM     88  C   UNL A   1      42.185  27.708  26.538  1.00  0.00     0.131 A 
ATOM     89  C   UNL A   1      41.935  24.960  26.407  1.00  0.00     0.055 A 
ATOM     90  C   UNL A   1      42.587  27.035  25.384  1.00  0.00     0.041 A 
ATOM     91  F   UNL A   1      42.354  29.040  26.572  1.00  0.00    -0.206 F 
ATOM     92  C   UNL A   1      42.476  25.649  25.319  1.00  0.00     0.022 A 
BRANCH  89  93
ATOM     93  S   UNL A   1      41.899  23.146  26.404  1.00  0.00     0.124 S 
ATOM     94  O   UNL A   1      42.405  22.838  27.737  1.00  0.00    -0.237 OA
ATOM     95  O   UNL A   1      40.485  22.871  26.174  1.00  0.00    -0.237 OA
ATOM     96  O   UNL A   1      42.789  22.790  25.300  1.00  0.00    -0.744 OA
ENDBRANCH  89  93
ENDBRANCH  62  86
BRANCH  74  97
ATOM     97  C   UNL A   1      44.491  27.346  33.994  1.00  0.00     0.023 A 
ATOM     98  C   UNL A   1      44.348  26.085  34.600  1.00  0.00     0.031 A 
ATOM     99  C   UNL A   1      45.772  27.930  33.987  1.00  0.00     0.131 A 
ATOM    100  C   UNL A   1      45.450  25.480  35.226  1.00  0.00     0.055 A 
ATOM    101  C   UNL A   1      46.877  27.293  34.551  1.00  0.00     0.041 A 
ATOM    102  F   UNL A   1      45.970  29.134  33.426  1.00  0.00    -0.206 F 
ATOM    103  C   UNL A   1      46.716  26.066  35.187  1.00  0.00     0.022 A 
BRANCH 100 104
ATOM    104  S   UNL A   1      45.184  23.961  36.182  1.00  0.00     0.124 S 
ATOM    105  O   UNL A   1      44.138  23.297  35.411  1.00  0.00    -0.237 OA
ATOM    106  O   UNL A   1      46.501  23.333  36.143  1.00  0.00    -0.237 OA
ATOM    107  O   UNL A   1      44.770  24.451  37.495  1.00  0.00    -0.744 OA
ENDBRANCH 100 104
ENDBRANCH  74  97
ENDBRANCH  48  49
ENDBRANCH  41  43
ENDBRANCH  40  41
ENDBRANCH  39  40
ENDBRANCH  38  39
ENDBRANCH  37  38
ENDBRANCH  36  37
ENDBRANCH  35  36
ENDBRANCH  34  35
ENDBRANCH   1  34
TORSDOF 29
ENDMDL
MODEL 2
REMARK VINA RESULT:     -10.0      1.796      2.062
REMARK SMILES CCOC(=O)c1c(NC(=O)/C=C/C(=O)OCCOCCOCCOCCOC(=O)c2ccc(-c3c4nc(c(-c5cc(S(=O)(=O)[O-])ccc5F)c5ccc([nH]5)c(-c5cc(S(=O)(=O)[O-])ccc5F)c5nc(c(-c6cc(S(=O)(=O)[O-])ccc6F)c6ccc3[nH]6)C=C5)C=C4)cc2)sc(C)c1-c1ccc(C)c(C)c1
REMARK SMILES IDX 20 1 19 2 18 3 17 4 16 5 15 6 13 7 14 8 12 9 11 10 9 11 8 12
REMARK SMILES IDX 10 14 7 15 6 16 96 17 93 18 94 19 95 20 4 21 5 22 3 23 2 24
REMARK SMILES IDX 1 25 97 26 98 27 104 28 99 29 102 30 100 31 103 32 101 33
REMARK SMILES IDX 21 34 22 35 23 36 24 37 25 38 26 39 27 40 28 41 29 42 30 43
REMARK SMILES IDX 31 44 92 45 32 46 91 47 33 48 34 49 35 50 85 51 36 52 90 53
REMARK SMILES IDX 84 54 86 55 37 56 89 57 83 58 82 59 38 61 70 62 50 63 69 64
REMARK SMILES IDX 51 65 54 66 68 67 87 68 52 69 53 70 67 72 88 73 55 74 39 75
REMARK SMILES IDX 40 76 48 77 41 78 47 79 49 80 46 81 42 82 43 83 44 84 45 85
REMARK SMILES IDX 71 86 72 87 80 88 73 89 79 90 81 91 78 92 74 93 75 94 76 95
REMARK SMILES IDX 77 96 56 97 57 98 65 99 58 100 64 101 66 102 63 103 59 104
REMARK SMILES IDX 60 105 61 106 62 107
REMARK H PARENT 8 13 86 60 54 71
REMARK Flexibility Score: inf
ROOT
ATOM      1  C   UNL A   1      31.033  26.639  26.319  1.00  0.00     0.188 C 
ENDROOT
BRANCH   1   2
ATOM      2  C   UNL A   1      29.983  26.670  25.195  1.00  0.00     0.188 C 
BRANCH   2   3
ATOM      3  O   UNL A   1      29.870  25.438  24.506  1.00  0.00    -0.376 OA
BRANCH   3   4
ATOM      4  C   UNL A   1      30.094  25.450  23.106  1.00  0.00     0.202 C 
BRANCH   4   5
ATOM      5  C   UNL A   1      30.639  26.715  22.414  1.00  0.00     0.261 C 
BRANCH   5   6
ATOM      6  O   UNL A   1      31.399  26.515  21.207  1.00  0.00    -0.460 OA
BRANCH   6   7
ATOM      7  C   UNL A   1      32.586  25.881  21.300  1.00  0.00     0.331 C 
ATOM      8  O   UNL A   1      33.130  25.242  20.412  1.00  0.00    -0.247 OA
BRANCH   7   9
ATOM      9  C   UNL A   1      33.261  26.145  22.595  1.00  0.00     0.099 C 
ATOM     10  C   UNL A   1      33.859  25.220  23.361  1.00  0.00     0.079 C 
BRANCH  10  11
ATOM     11  C   UNL A   1      34.364  25.535  24.719  1.00  0.00     0.249 C 
ATOM     12  N   UNL A   1      34.778  24.589  25.621  1.00  0.00    -0.313 N 
ATOM     13  H   UNL A   1      34.925  24.951  26.525  1.00  0.00     0.171 HD
ATOM     14  O   UNL A   1      34.423  26.723  25.045  1.00  0.00    -0.270 OA
BRANCH  12  15
ATOM     15  C   UNL A   1      35.037  23.227  25.529  1.00  0.00     0.111 A 
ATOM     16  C   UNL A   1      34.142  22.169  25.614  1.00  0.00     0.102 A 
ATOM     17  C   UNL A   1      34.804  20.891  25.386  1.00  0.00     0.012 A 
ATOM     18  S   UNL A   1      36.610  22.648  25.431  1.00  0.00    -0.122 S 
ATOM     19  C   UNL A   1      36.164  21.040  25.197  1.00  0.00     0.012 A 
ATOM     20  C   UNL A   1      37.239  20.056  24.866  1.00  0.00     0.057 C 
BRANCH  16  21
ATOM     21  C   UNL A   1      32.720  22.347  25.884  1.00  0.00     0.341 C 
ATOM     22  O   UNL A   1      32.293  22.924  26.863  1.00  0.00    -0.246 OA
BRANCH  21  23
ATOM     23  O   UNL A   1      31.954  21.745  24.926  1.00  0.00    -0.462 OA
BRANCH  23  24
ATOM     24  C   UNL A   1      31.764  22.458  23.699  1.00  0.00     0.230 C 
ATOM     25  C   UNL A   1      32.321  21.705  22.505  1.00  0.00     0.049 C 
ENDBRANCH  23  24
ENDBRANCH  21  23
ENDBRANCH  16  21
BRANCH  17  26
ATOM     26  C   UNL A   1      34.187  19.576  25.311  1.00  0.00    -0.016 A 
ATOM     27  C   UNL A   1      33.275  19.166  26.282  1.00  0.00     0.009 A 
ATOM     28  C   UNL A   1      34.497  18.724  24.245  1.00  0.00     0.012 A 
ATOM     29  C   UNL A   1      32.682  17.907  26.183  1.00  0.00     0.004 A 
ATOM     30  C   UNL A   1      33.893  17.465  24.123  1.00  0.00    -0.048 A 
ATOM     31  C   UNL A   1      32.979  17.048  25.110  1.00  0.00    -0.048 A 
ATOM     32  C   UNL A   1      34.248  16.612  22.938  1.00  0.00     0.044 C 
ATOM     33  C   UNL A   1      32.307  15.702  25.086  1.00  0.00     0.044 C 
ENDBRANCH  17  26
ENDBRANCH  12  15
ENDBRANCH  10  11
ENDBRANCH   7   9
ENDBRANCH   6   7
ENDBRANCH   5   6
ENDBRANCH   4   5
ENDBRANCH   3   4
ENDBRANCH   2   3
ENDBRANCH   1   2
BRANCH   1  34
ATOM     34  O   UNL A   1      31.942  27.720  26.337  1.00  0.00    -0.377 OA
BRANCH  34  35
ATOM     35  C   UNL A   1      31.635  28.885  25.574  1.00  0.00     0.188 C 
BRANCH  35  36
ATOM     36  C   UNL A   1      31.960  30.324  26.053  1.00  0.00     0.188 C 
BRANCH  36  37
ATOM     37  O   UNL A   1      31.074  31.342  25.603  1.00  0.00    -0.376 OA
BRANCH  37  38
ATOM     38  C   UNL A   1      31.066  32.555  26.342  1.00  0.00     0.202 C 
BRANCH  38  39
ATOM     39  C   UNL A   1      32.269  32.734  27.276  1.00  0.00     0.261 C 
BRANCH  39  40
ATOM     40  O   UNL A   1      32.816  34.061  27.312  1.00  0.00    -0.460 OA
BRANCH  40  41
ATOM     41  C   UNL A   1      33.312  34.479  28.500  1.00  0.00     0.338 C 
ATOM     42  O   UNL A   1      32.845  35.337  29.226  1.00  0.00    -0.246 OA
BRANCH  41  43
ATOM     43  C   UNL A   1      34.413  33.568  28.871  1.00  0.00     0.060 A 
ATOM     44  C   UNL A   1      34.207  32.646  29.904  1.00  0.00     0.016 A 
ATOM     45  C   UNL A   1      35.629  33.610  28.185  1.00  0.00     0.016 A 
ATOM     46  C   UNL A   1      35.237  31.784  30.281  1.00  0.00     0.010 A 
ATOM     47  C   UNL A   1      36.666  32.763  28.577  1.00  0.00     0.010 A 
ATOM     48  C   UNL A   1      36.486  31.872  29.651  1.00  0.00    -0.014 A 
BRANCH  48  49
ATOM     49  C   UNL A   1      37.660  31.204  30.263  1.00  0.00     0.031 A 
ATOM     50  C   UNL A   1      38.028  31.584  31.672  1.00  0.00     0.074 A 
ATOM     51  C   UNL A   1      38.362  30.266  29.604  1.00  0.00     0.049 A 
ATOM     52  N   UNL A   1      39.022  31.173  32.415  1.00  0.00    -0.248 NA
ATOM     53  C   UNL A   1      37.153  32.570  32.326  1.00  0.00     0.031 C 
ATOM     54  C   UNL A   1      38.073  29.784  28.255  1.00  0.00     0.029 A 
ATOM     55  N   UNL A   1      39.473  29.554  29.986  1.00  0.00    -0.354 N 
ATOM     56  C   UNL A   1      38.892  31.847  33.624  1.00  0.00     0.074 A 
ATOM     57  C   UNL A   1      37.751  32.727  33.497  1.00  0.00     0.031 C 
ATOM     58  C   UNL A   1      38.988  28.858  27.920  1.00  0.00     0.029 A 
ATOM     59  C   UNL A   1      39.949  28.708  29.013  1.00  0.00     0.049 A 
ATOM     60  H   UNL A   1      39.888  29.640  30.875  1.00  0.00     0.167 HD
ATOM     61  C   UNL A   1      39.648  31.735  34.744  1.00  0.00     0.034 A 
ATOM     62  C   UNL A   1      41.047  27.925  29.000  1.00  0.00     0.034 A 
ATOM     63  C   UNL A   1      40.796  30.869  34.846  1.00  0.00     0.049 A 
ATOM     64  C   UNL A   1      41.935  27.888  30.224  1.00  0.00     0.074 A 
ATOM     65  C   UNL A   1      41.635  30.674  35.931  1.00  0.00     0.029 A 
ATOM     66  N   UNL A   1      41.281  30.065  33.821  1.00  0.00    -0.354 N 
ATOM     67  N   UNL A   1      41.799  28.523  31.367  1.00  0.00    -0.248 NA
ATOM     68  C   UNL A   1      43.121  27.023  30.158  1.00  0.00     0.031 C 
ATOM     69  C   UNL A   1      42.667  29.815  35.537  1.00  0.00     0.029 A 
ATOM     70  C   UNL A   1      42.424  29.401  34.237  1.00  0.00     0.049 A 
ATOM     71  H   UNL A   1      40.872  29.980  32.931  1.00  0.00     0.167 HD
ATOM     72  C   UNL A   1      42.861  28.102  32.166  1.00  0.00     0.074 A 
ATOM     73  C   UNL A   1      43.619  27.152  31.378  1.00  0.00     0.031 C 
ATOM     74  C   UNL A   1      43.177  28.460  33.438  1.00  0.00     0.034 A 
BRANCH  61  75
ATOM     75  C   UNL A   1      39.284  32.616  35.914  1.00  0.00     0.023 A 
ATOM     76  C   UNL A   1      39.750  33.940  36.019  1.00  0.00     0.031 A 
ATOM     77  C   UNL A   1      38.497  32.111  36.963  1.00  0.00     0.131 A 
ATOM     78  C   UNL A   1      39.488  34.683  37.179  1.00  0.00     0.055 A 
ATOM     79  C   UNL A   1      38.168  32.887  38.076  1.00  0.00     0.041 A 
ATOM     80  F   UNL A   1      38.046  30.847  36.933  1.00  0.00    -0.206 F 
ATOM     81  C   UNL A   1      38.677  34.176  38.197  1.00  0.00     0.022 A 
BRANCH  78  82
ATOM     82  S   UNL A   1      40.350  36.263  37.409  1.00  0.00     0.124 S 
ATOM     83  O   UNL A   1      39.433  36.973  38.297  1.00  0.00    -0.237 OA
ATOM     84  O   UNL A   1      41.618  35.848  37.998  1.00  0.00    -0.237 OA
ATOM     85  O   UNL A   1      40.440  36.806  36.055  1.00  0.00    -0.744 OA
ENDBRANCH  78  82
ENDBRANCH  61  75
BRANCH  62  86
ATOM     86  C   UNL A   1      41.404  27.136  27.785  1.00  0.00     0.023 A 
ATOM     87  C   UNL A   1      41.191  25.749  27.727  1.00  0.00     0.031 A 
ATOM     88  C   UNL A   1      42.027  27.750  26.684  1.00  0.00     0.131 A 
ATOM     89  C   UNL A   1      41.642  25.015  26.617  1.00  0.00     0.055 A 
ATOM     90  C   UNL A   1      42.423  27.027  25.557  1.00  0.00     0.041 A 
ATOM     91  F   UNL A   1      42.262  29.073  26.687  1.00  0.00    -0.206 F 
ATOM     92  C   UNL A   1      42.243  25.647  25.526  1.00  0.00     0.022 A 
BRANCH  89  93
ATOM     93  S   UNL A   1      41.516  23.206  26.659  1.00  0.00     0.124 S 
ATOM     94  O   UNL A   1      40.081  23.006  26.484  1.00  0.00    -0.237 OA
ATOM     95  O   UNL A   1      42.359  22.817  25.535  1.00  0.00    -0.237 OA
ATOM     96  O   UNL A   1      42.038  22.858  27.979  1.00  0.00    -0.744 OA
ENDBRANCH  89  93
ENDBRANCH  62  86
BRANCH  74  97
ATOM     97  C   UNL A   1      44.365  27.777  34.075  1.00  0.00     0.023 A 
ATOM     98  C   UNL A   1      45.670  28.289  33.963  1.00  0.00     0.031 A 
ATOM     99  C   UNL A   1      44.186  26.586  34.802  1.00  0.00     0.131 A 
ATOM    100  C   UNL A   1      46.749  27.581  34.515  1.00  0.00     0.055 A 
ATOM    101  C   UNL A   1      45.254  25.922  35.407  1.00  0.00     0.041 A 
ATOM    102  F   UNL A   1      42.964  26.047  34.941  1.00  0.00    -0.206 F 
ATOM    103  C   UNL A   1      46.548  26.412  35.253  1.00  0.00     0.022 A 
BRANCH 100 104
ATOM    104  S   UNL A   1      48.436  28.153  34.169  1.00  0.00     0.124 S 
ATOM    105  O   UNL A   1      48.196  29.290  33.287  1.00  0.00    -0.237 OA
ATOM    106  O   UNL A   1      48.936  28.474  35.502  1.00  0.00    -0.237 OA
ATOM    107  O   UNL A   1      49.066  26.997  33.534  1.00  0.00    -0.744 OA
ENDBRANCH 100 104
ENDBRANCH  74  97
ENDBRANCH  48  49
ENDBRANCH  41  43
ENDBRANCH  40  41
ENDBRANCH  39  40
ENDBRANCH  38  39
ENDBRANCH  37  38
ENDBRANCH  36  37
ENDBRANCH  35  36
ENDBRANCH  34  35
ENDBRANCH   1  34
TORSDOF 29
ENDMDL
MODEL 3
REMARK VINA RESULT:      -8.2      7.021     13.588
REMARK SMILES CCOC(=O)c1c(NC(=O)/C=C/C(=O)OCCOCCOCCOCCOC(=O)c2ccc(-c3c4nc(c(-c5cc(S(=O)(=O)[O-])ccc5F)c5ccc([nH]5)c(-c5cc(S(=O)(=O)[O-])ccc5F)c5nc(c(-c6cc(S(=O)(=O)[O-])ccc6F)c6ccc3[nH]6)C=C5)C=C4)cc2)sc(C)c1-c1ccc(C)c(C)c1
REMARK SMILES IDX 20 1 19 2 18 3 17 4 16 5 15 6 13 7 14 8 12 9 11 10 9 11 8 12
REMARK SMILES IDX 10 14 7 15 6 16 96 17 93 18 94 19 95 20 4 21 5 22 3 23 2 24
REMARK SMILES IDX 1 25 97 26 98 27 104 28 99 29 102 30 100 31 103 32 101 33
REMARK SMILES IDX 21 34 22 35 23 36 24 37 25 38 26 39 27 40 28 41 29 42 30 43
REMARK SMILES IDX 31 44 92 45 32 46 91 47 33 48 34 49 35 50 85 51 36 52 90 53
REMARK SMILES IDX 84 54 86 55 37 56 89 57 83 58 82 59 38 61 70 62 50 63 69 64
REMARK SMILES IDX 51 65 54 66 68 67 87 68 52 69 53 70 67 72 88 73 55 74 39 75
REMARK SMILES IDX 40 76 48 77 41 78 47 79 49 80 46 81 42 82 43 83 44 84 45 85
REMARK SMILES IDX 71 86 72 87 80 88 73 89 79 90 81 91 78 92 74 93 75 94 76 95
REMARK SMILES IDX 77 96 56 97 57 98 65 99 58 100 64 101 66 102 63 103 59 104
REMARK SMILES IDX 60 105 61 106 62 107
REMARK H PARENT 8 13 86 60 54 71
REMARK Flexibility Score: inf
ROOT
ATOM      1  C   UNL A   1      52.889  32.646  24.400  1.00  0.00     0.188 C 
ENDROOT
BRANCH   1   2
ATOM      2  C   UNL A   1      51.924  32.998  25.545  1.00  0.00     0.188 C 
BRANCH   2   3
ATOM      3  O   UNL A   1      51.234  34.216  25.336  1.00  0.00    -0.376 OA
BRANCH   3   4
ATOM      4  C   UNL A   1      49.834  34.221  25.560  1.00  0.00     0.202 C 
BRANCH   4   5
ATOM      5  C   UNL A   1      49.196  33.204  26.528  1.00  0.00     0.261 C 
BRANCH   5   6
ATOM      6  O   UNL A   1      47.904  33.546  27.064  1.00  0.00    -0.460 OA
BRANCH   6   7
ATOM      7  C   UNL A   1      46.828  32.865  26.617  1.00  0.00     0.331 C 
ATOM      8  O   UNL A   1      45.946  33.308  25.898  1.00  0.00    -0.247 OA
BRANCH   7   9
ATOM      9  C   UNL A   1      46.880  31.430  26.992  1.00  0.00     0.099 C 
ATOM     10  C   UNL A   1      45.928  30.524  26.723  1.00  0.00     0.079 C 
BRANCH  10  11
ATOM     11  C   UNL A   1      45.978  29.149  27.275  1.00  0.00     0.249 C 
ATOM     12  N   UNL A   1      45.257  28.735  28.367  1.00  0.00    -0.313 N 
ATOM     13  H   UNL A   1      45.529  27.849  28.700  1.00  0.00     0.171 HD
ATOM     14  O   UNL A   1      46.704  28.331  26.707  1.00  0.00    -0.270 OA
BRANCH  12  15
ATOM     15  C   UNL A   1      44.223  29.301  29.101  1.00  0.00     0.111 A 
ATOM     16  C   UNL A   1      42.860  29.050  29.013  1.00  0.00     0.102 A 
ATOM     17  C   UNL A   1      42.114  29.796  30.017  1.00  0.00     0.012 A 
ATOM     18  S   UNL A   1      44.511  30.557  30.177  1.00  0.00    -0.122 S 
ATOM     19  C   UNL A   1      42.936  30.608  30.774  1.00  0.00     0.012 A 
ATOM     20  C   UNL A   1      42.659  31.493  31.946  1.00  0.00     0.057 C 
BRANCH  16  21
ATOM     21  C   UNL A   1      42.280  28.137  28.034  1.00  0.00     0.341 C 
ATOM     22  O   UNL A   1      41.592  27.184  28.335  1.00  0.00    -0.246 OA
BRANCH  21  23
ATOM     23  O   UNL A   1      42.651  28.473  26.763  1.00  0.00    -0.462 OA
BRANCH  23  24
ATOM     24  C   UNL A   1      41.603  28.734  25.824  1.00  0.00     0.230 C 
ATOM     25  C   UNL A   1      40.258  28.927  26.501  1.00  0.00     0.049 C 
ENDBRANCH  23  24
ENDBRANCH  21  23
ENDBRANCH  16  21
BRANCH  17  26
ATOM     26  C   UNL A   1      40.687  29.728  30.292  1.00  0.00    -0.016 A 
ATOM     27  C   UNL A   1      40.199  28.893  31.295  1.00  0.00     0.009 A 
ATOM     28  C   UNL A   1      39.800  30.520  29.555  1.00  0.00     0.012 A 
ATOM     29  C   UNL A   1      38.829  28.853  31.554  1.00  0.00     0.004 A 
ATOM     30  C   UNL A   1      38.423  30.505  29.818  1.00  0.00    -0.048 A 
ATOM     31  C   UNL A   1      37.930  29.655  30.827  1.00  0.00    -0.048 A 
ATOM     32  C   UNL A   1      37.530  31.403  29.010  1.00  0.00     0.044 C 
ATOM     33  C   UNL A   1      36.468  29.542  31.158  1.00  0.00     0.044 C 
ENDBRANCH  17  26
ENDBRANCH  12  15
ENDBRANCH  10  11
ENDBRANCH   7   9
ENDBRANCH   6   7
ENDBRANCH   5   6
ENDBRANCH   4   5
ENDBRANCH   3   4
ENDBRANCH   2   3
ENDBRANCH   1   2
BRANCH   1  34
ATOM     34  O   UNL A   1      52.352  32.748  23.097  1.00  0.00    -0.377 OA
BRANCH  34  35
ATOM     35  C   UNL A   1      52.337  31.587  22.269  1.00  0.00     0.188 C 
BRANCH  35  36
ATOM     36  C   UNL A   1      52.132  30.152  22.821  1.00  0.00     0.188 C 
BRANCH  36  37
ATOM     37  O   UNL A   1      52.094  29.114  21.849  1.00  0.00    -0.376 OA
BRANCH  37  38
ATOM     38  C   UNL A   1      53.255  28.945  21.050  1.00  0.00     0.202 C 
BRANCH  38  39
ATOM     39  C   UNL A   1      54.173  27.802  21.501  1.00  0.00     0.261 C 
BRANCH  39  40
ATOM     40  O   UNL A   1      53.596  26.904  22.462  1.00  0.00    -0.460 OA
BRANCH  40  41
ATOM     41  C   UNL A   1      54.355  26.604  23.542  1.00  0.00     0.338 C 
ATOM     42  O   UNL A   1      55.570  26.555  23.590  1.00  0.00    -0.246 OA
BRANCH  41  43
ATOM     43  C   UNL A   1      53.461  26.548  24.715  1.00  0.00     0.060 A 
ATOM     44  C   UNL A   1      53.255  25.316  25.349  1.00  0.00     0.016 A 
ATOM     45  C   UNL A   1      52.851  27.708  25.198  1.00  0.00     0.016 A 
ATOM     46  C   UNL A   1      52.404  25.236  26.451  1.00  0.00     0.010 A 
ATOM     47  C   UNL A   1      51.983  27.623  26.287  1.00  0.00     0.010 A 
ATOM     48  C   UNL A   1      51.727  26.381  26.895  1.00  0.00    -0.014 A 
BRANCH  48  49
ATOM     49  C   UNL A   1      50.588  26.236  27.833  1.00  0.00     0.031 A 
ATOM     50  C   UNL A   1      50.802  26.643  29.265  1.00  0.00     0.074 A 
ATOM     51  C   UNL A   1      49.389  25.786  27.423  1.00  0.00     0.049 A 
ATOM     52  N   UNL A   1      49.981  26.584  30.281  1.00  0.00    -0.248 NA
ATOM     53  C   UNL A   1      52.130  27.187  29.593  1.00  0.00     0.031 C 
ATOM     54  C   UNL A   1      49.051  25.406  26.053  1.00  0.00     0.029 A 
ATOM     55  N   UNL A   1      48.231  25.570  28.130  1.00  0.00    -0.354 N 
ATOM     56  C   UNL A   1      50.691  27.084  31.368  1.00  0.00     0.074 A 
ATOM     57  C   UNL A   1      52.022  27.396  30.895  1.00  0.00     0.031 C 
ATOM     58  C   UNL A   1      47.770  24.996  26.021  1.00  0.00     0.029 A 
ATOM     59  C   UNL A   1      47.210  25.049  27.371  1.00  0.00     0.049 A 
ATOM     60  H   UNL A   1      48.141  25.770  29.090  1.00  0.00     0.167 HD
ATOM     61  C   UNL A   1      50.268  27.275  32.642  1.00  0.00     0.034 A 
ATOM     62  C   UNL A   1      45.977  24.640  27.733  1.00  0.00     0.034 A 
ATOM     63  C   UNL A   1      48.945  26.936  33.102  1.00  0.00     0.049 A 
ATOM     64  C   UNL A   1      45.557  24.770  29.181  1.00  0.00     0.074 A 
ATOM     65  C   UNL A   1      48.407  27.088  34.369  1.00  0.00     0.029 A 
ATOM     66  N   UNL A   1      47.952  26.361  32.317  1.00  0.00    -0.354 N 
ATOM     67  N   UNL A   1      46.233  25.252  30.200  1.00  0.00    -0.248 NA
ATOM     68  C   UNL A   1      44.206  24.306  29.523  1.00  0.00     0.031 C 
ATOM     69  C   UNL A   1      47.122  26.534  34.368  1.00  0.00     0.029 A 
ATOM     70  C   UNL A   1      46.821  26.121  33.080  1.00  0.00     0.049 A 
ATOM     71  H   UNL A   1      48.040  26.155  31.359  1.00  0.00     0.167 HD
ATOM     72  C   UNL A   1      45.372  25.183  31.294  1.00  0.00     0.074 A 
ATOM     73  C   UNL A   1      44.127  24.626  30.806  1.00  0.00     0.031 C 
ATOM     74  C   UNL A   1      45.586  25.555  32.583  1.00  0.00     0.034 A 
BRANCH  61  75
ATOM     75  C   UNL A   1      51.273  27.819  33.628  1.00  0.00     0.023 A 
ATOM     76  C   UNL A   1      52.096  26.972  34.393  1.00  0.00     0.031 A 
ATOM     77  C   UNL A   1      51.379  29.204  33.840  1.00  0.00     0.131 A 
ATOM     78  C   UNL A   1      52.929  27.513  35.383  1.00  0.00     0.055 A 
ATOM     79  C   UNL A   1      52.274  29.741  34.767  1.00  0.00     0.041 A 
ATOM     80  F   UNL A   1      50.601  30.062  33.160  1.00  0.00    -0.206 F 
ATOM     81  C   UNL A   1      53.044  28.894  35.557  1.00  0.00     0.022 A 
BRANCH  78  82
ATOM     82  S   UNL A   1      53.743  26.381  36.545  1.00  0.00     0.124 S 
ATOM     83  O   UNL A   1      52.665  25.442  36.845  1.00  0.00    -0.237 OA
ATOM     84  O   UNL A   1      54.848  25.855  35.752  1.00  0.00    -0.237 OA
ATOM     85  O   UNL A   1      54.129  27.249  37.655  1.00  0.00    -0.744 OA
ENDBRANCH  78  82
ENDBRANCH  61  75
BRANCH  62  86
ATOM     86  C   UNL A   1      45.052  24.034  26.730  1.00  0.00     0.023 A 
ATOM     87  C   UNL A   1      45.133  22.673  26.392  1.00  0.00     0.031 A 
ATOM     88  C   UNL A   1      44.114  24.825  26.044  1.00  0.00     0.131 A 
ATOM     89  C   UNL A   1      44.328  22.157  25.363  1.00  0.00     0.055 A 
ATOM     90  C   UNL A   1      43.275  24.297  25.062  1.00  0.00     0.041 A 
ATOM     91  F   UNL A   1      43.997  26.135  26.322  1.00  0.00    -0.206 F 
ATOM     92  C   UNL A   1      43.389  22.956  24.706  1.00  0.00     0.022 A 
BRANCH  89  93
ATOM     93  S   UNL A   1      44.589  20.442  24.830  1.00  0.00     0.124 S 
ATOM     94  O   UNL A   1      43.462  19.762  25.460  1.00  0.00    -0.237 OA
ATOM     95  O   UNL A   1      44.534  20.565  23.378  1.00  0.00    -0.237 OA
ATOM     96  O   UNL A   1      45.904  20.112  25.378  1.00  0.00    -0.744 OA
ENDBRANCH  89  93
ENDBRANCH  62  86
BRANCH  74  97
ATOM     97  C   UNL A   1      44.428  25.422  33.545  1.00  0.00     0.023 A 
ATOM     98  C   UNL A   1      43.613  26.515  33.889  1.00  0.00     0.031 A 
ATOM     99  C   UNL A   1      44.140  24.176  34.132  1.00  0.00     0.131 A 
ATOM    100  C   UNL A   1      42.592  26.354  34.839  1.00  0.00     0.055 A 
ATOM    101  C   UNL A   1      43.081  24.007  35.024  1.00  0.00     0.041 A 
ATOM    102  F   UNL A   1      44.886  23.096  33.844  1.00  0.00    -0.206 F 
ATOM    103  C   UNL A   1      42.308  25.104  35.394  1.00  0.00     0.022 A 
BRANCH 100 104
ATOM    104  S   UNL A   1      41.702  27.825  35.421  1.00  0.00     0.124 S 
ATOM    105  O   UNL A   1      41.353  27.448  36.787  1.00  0.00    -0.237 OA
ATOM    106  O   UNL A   1      42.709  28.872  35.285  1.00  0.00    -0.237 OA
ATOM    107  O   UNL A   1      40.573  27.930  34.499  1.00  0.00    -0.744 OA
ENDBRANCH 100 104
ENDBRANCH  74  97
ENDBRANCH  48  49
ENDBRANCH  41  43
ENDBRANCH  40  41
ENDBRANCH  39  40
ENDBRANCH  38  39
ENDBRANCH  37  38
ENDBRANCH  36  37
ENDBRANCH  35  36
ENDBRANCH  34  35
ENDBRANCH   1  34
TORSDOF 29
ENDMDL
