MODEL 1
REMARK VINA RESULT:      -9.9      0.000      0.000
REMARK SMILES CC[C@H](NC(=O)[C@H]1[C@@H](C(=O)OCCOCCOCCOCCOC(=O)c2ccc(-c3c4nc(c(-c5cc(S(=O)(=O)[O-])ccc5F)c5ccc([nH]5)c(-c5cc(S(=O)(=O)[O-])ccc5F)c5nc(c(-c6cc(S(=O)(=O)[O-])ccc6F)c6ccc3[nH]6)C=C5)C=C4)cc2)[C@@H]2C=C[C@H]1C2)c1ccccc1
REMARK SMILES IDX 17 1 16 2 15 3 14 4 13 5 12 6 11 7 9 8 10 9 8 10 7 11 92 12
REMARK SMILES IDX 89 13 91 14 93 15 90 16 5 17 4 18 6 20 3 21 2 22 1 23 94 24
REMARK SMILES IDX 95 25 99 26 96 27 98 28 97 29 18 30 19 31 20 32 21 33 22 34
REMARK SMILES IDX 23 35 24 36 25 37 26 38 27 39 88 40 28 41 87 42 29 43 30 44
REMARK SMILES IDX 31 45 81 46 32 47 86 48 80 49 82 50 33 51 85 52 79 53 78 54
REMARK SMILES IDX 34 56 66 57 46 58 65 59 47 60 50 61 64 62 83 63 48 64 49 65
REMARK SMILES IDX 63 67 84 68 51 69 35 70 36 71 44 72 37 73 43 74 45 75 42 76
REMARK SMILES IDX 38 77 39 78 40 79 41 80 67 81 68 82 76 83 69 84 75 85 77 86
REMARK SMILES IDX 74 87 70 88 71 89 72 90 73 91 52 92 53 93 61 94 54 95 60 96
REMARK SMILES IDX 62 97 59 98 55 99 56 100 57 101 58 102
REMARK H PARENT 4 19 82 55 50 66
REMARK Flexibility Score: inf
ROOT
ATOM      1  O   UNL A   1      39.415  22.731  26.454  1.00  0.00    -0.377 OA
ENDROOT
BRANCH   1   2
ATOM      2  C   UNL A   1      38.111  22.696  25.904  1.00  0.00     0.188 C 
BRANCH   2   3
ATOM      3  C   UNL A   1      37.680  21.402  25.202  1.00  0.00     0.188 C 
BRANCH   3   4
ATOM      4  O   UNL A   1      36.729  21.606  24.170  1.00  0.00    -0.376 OA
BRANCH   4   5
ATOM      5  C   UNL A   1      36.643  22.909  23.626  1.00  0.00     0.202 C 
BRANCH   5   6
ATOM      6  C   UNL A   1      35.353  23.714  23.821  1.00  0.00     0.261 C 
BRANCH   6   7
ATOM      7  O   UNL A   1      34.767  24.538  22.782  1.00  0.00    -0.463 OA
BRANCH   7   8
ATOM      8  C   UNL A   1      33.620  25.229  22.866  1.00  0.00     0.310 C 
ATOM      9  O   UNL A   1      32.949  25.632  21.923  1.00  0.00    -0.252 OA
BRANCH   8  10
ATOM     10  C   UNL A   1      33.221  25.554  24.280  1.00  0.00     0.119 C 
ATOM     11  C   UNL A   1      32.240  24.589  25.013  1.00  0.00     0.100 C 
ATOM     12  C   UNL A   1      31.122  25.612  25.455  1.00  0.00     0.025 C 
ATOM     13  C   UNL A   1      32.554  26.946  24.390  1.00  0.00     0.027 C 
ATOM     14  C   UNL A   1      31.710  26.560  26.486  1.00  0.00    -0.027 C 
ATOM     15  C   UNL A   1      31.077  26.586  24.267  1.00  0.00     0.017 C 
ATOM     16  C   UNL A   1      32.571  27.361  25.844  1.00  0.00    -0.027 C 
BRANCH  11  17
ATOM     17  C   UNL A   1      31.610  23.366  24.324  1.00  0.00     0.225 C 
ATOM     18  N   UNL A   1      31.944  22.063  24.526  1.00  0.00    -0.349 N 
ATOM     19  H   UNL A   1      31.160  21.491  24.367  1.00  0.00     0.164 HD
ATOM     20  O   UNL A   1      30.601  23.524  23.623  1.00  0.00    -0.275 OA
BRANCH  18  21
ATOM     21  C   UNL A   1      33.106  21.226  24.907  1.00  0.00     0.112 C 
BRANCH  21  22
ATOM     22  C   UNL A   1      33.403  21.066  26.400  1.00  0.00     0.026 C 
ATOM     23  C   UNL A   1      34.372  21.944  27.174  1.00  0.00     0.006 C 
ENDBRANCH  21  22
BRANCH  21  24
ATOM     24  C   UNL A   1      33.214  19.920  24.155  1.00  0.00    -0.026 A 
ATOM     25  C   UNL A   1      32.287  19.517  23.195  1.00  0.00     0.006 A 
ATOM     26  C   UNL A   1      34.239  19.030  24.533  1.00  0.00     0.006 A 
ATOM     27  C   UNL A   1      32.320  18.208  22.715  1.00  0.00     0.000 A 
ATOM     28  C   UNL A   1      34.232  17.710  24.102  1.00  0.00     0.000 A 
ATOM     29  C   UNL A   1      33.259  17.295  23.202  1.00  0.00     0.000 A 
ENDBRANCH  21  24
ENDBRANCH  18  21
ENDBRANCH  11  17
ENDBRANCH   8  10
ENDBRANCH   7   8
ENDBRANCH   6   7
ENDBRANCH   5   6
ENDBRANCH   4   5
ENDBRANCH   3   4
ENDBRANCH   2   3
ENDBRANCH   1   2
BRANCH   1  30
ATOM     30  C   UNL A   1      40.218  21.554  26.445  1.00  0.00     0.188 C 
BRANCH  30  31
ATOM     31  C   UNL A   1      40.951  21.072  27.714  1.00  0.00     0.188 C 
BRANCH  31  32
ATOM     32  O   UNL A   1      41.714  19.890  27.560  1.00  0.00    -0.376 OA
BRANCH  32  33
ATOM     33  C   UNL A   1      41.823  19.270  26.295  1.00  0.00     0.202 C 
BRANCH  33  34
ATOM     34  C   UNL A   1      43.131  19.408  25.496  1.00  0.00     0.261 C 
BRANCH  34  35
ATOM     35  O   UNL A   1      43.378  20.671  24.868  1.00  0.00    -0.460 OA
BRANCH  35  36
ATOM     36  C   UNL A   1      44.479  21.347  25.261  1.00  0.00     0.338 C 
ATOM     37  O   UNL A   1      45.630  21.116  24.928  1.00  0.00    -0.246 OA
BRANCH  36  38
ATOM     38  C   UNL A   1      44.031  22.563  25.971  1.00  0.00     0.060 A 
ATOM     39  C   UNL A   1      43.538  23.635  25.215  1.00  0.00     0.016 A 
ATOM     40  C   UNL A   1      44.068  22.636  27.367  1.00  0.00     0.016 A 
ATOM     41  C   UNL A   1      43.138  24.807  25.845  1.00  0.00     0.010 A 
ATOM     42  C   UNL A   1      43.707  23.830  27.998  1.00  0.00     0.010 A 
ATOM     43  C   UNL A   1      43.296  24.934  27.231  1.00  0.00    -0.014 A 
BRANCH  43  44
ATOM     44  C   UNL A   1      43.359  26.308  27.784  1.00  0.00     0.031 A 
ATOM     45  C   UNL A   1      44.699  26.995  27.767  1.00  0.00     0.074 A 
ATOM     46  C   UNL A   1      42.257  26.961  28.186  1.00  0.00     0.049 A 
ATOM     47  N   UNL A   1      45.022  28.208  28.130  1.00  0.00    -0.248 NA
ATOM     48  C   UNL A   1      45.828  26.195  27.268  1.00  0.00     0.031 C 
ATOM     49  C   UNL A   1      40.903  26.412  28.191  1.00  0.00     0.029 A 
ATOM     50  N   UNL A   1      42.108  28.238  28.661  1.00  0.00    -0.354 N 
ATOM     51  C   UNL A   1      46.391  28.315  27.905  1.00  0.00     0.074 A 
ATOM     52  C   UNL A   1      46.841  27.029  27.421  1.00  0.00     0.031 C 
ATOM     53  C   UNL A   1      40.058  27.349  28.656  1.00  0.00     0.029 A 
ATOM     54  C   UNL A   1      40.815  28.550  29.006  1.00  0.00     0.049 A 
ATOM     55  H   UNL A   1      42.857  28.872  28.746  1.00  0.00     0.167 HD
ATOM     56  C   UNL A   1      47.197  29.391  28.075  1.00  0.00     0.034 A 
ATOM     57  C   UNL A   1      40.312  29.672  29.561  1.00  0.00     0.034 A 
ATOM     58  C   UNL A   1      46.730  30.656  28.584  1.00  0.00     0.049 A 
ATOM     59  C   UNL A   1      41.239  30.834  29.821  1.00  0.00     0.074 A 
ATOM     60  C   UNL A   1      47.448  31.817  28.802  1.00  0.00     0.029 A 
ATOM     61  N   UNL A   1      45.422  30.919  28.979  1.00  0.00    -0.354 N 
ATOM     62  N   UNL A   1      42.530  30.934  29.596  1.00  0.00    -0.248 NA
ATOM     63  C   UNL A   1      40.633  32.043  30.390  1.00  0.00     0.031 C 
ATOM     64  C   UNL A   1      46.599  32.749  29.409  1.00  0.00     0.029 A 
ATOM     65  C   UNL A   1      45.322  32.211  29.474  1.00  0.00     0.049 A 
ATOM     66  H   UNL A   1      44.675  30.282  28.915  1.00  0.00     0.167 HD
ATOM     67  C   UNL A   1      42.884  32.230  29.968  1.00  0.00     0.074 A 
ATOM     68  C   UNL A   1      41.664  32.875  30.412  1.00  0.00     0.031 C 
ATOM     69  C   UNL A   1      44.102  32.836  29.937  1.00  0.00     0.034 A 
BRANCH  56  70
ATOM     70  C   UNL A   1      48.668  29.197  27.783  1.00  0.00     0.023 A 
ATOM     71  C   UNL A   1      49.147  28.957  26.480  1.00  0.00     0.031 A 
ATOM     72  C   UNL A   1      49.598  29.165  28.836  1.00  0.00     0.131 A 
ATOM     73  C   UNL A   1      50.489  28.597  26.282  1.00  0.00     0.055 A 
ATOM     74  C   UNL A   1      50.952  28.904  28.620  1.00  0.00     0.041 A 
ATOM     75  F   UNL A   1      49.200  29.355  30.105  1.00  0.00    -0.206 F 
ATOM     76  C   UNL A   1      51.401  28.596  27.339  1.00  0.00     0.022 A 
BRANCH  73  77
ATOM     77  S   UNL A   1      50.980  27.937  24.663  1.00  0.00     0.124 S 
ATOM     78  O   UNL A   1      51.067  29.156  23.862  1.00  0.00    -0.237 OA
ATOM     79  O   UNL A   1      52.245  27.276  24.963  1.00  0.00    -0.237 OA
ATOM     80  O   UNL A   1      49.877  27.046  24.308  1.00  0.00    -0.744 OA
ENDBRANCH  73  77
ENDBRANCH  56  70
BRANCH  57  81
ATOM     81  C   UNL A   1      38.871  29.734  29.941  1.00  0.00     0.023 A 
ATOM     82  C   UNL A   1      37.927  30.413  29.155  1.00  0.00     0.031 A 
ATOM     83  C   UNL A   1      38.425  29.127  31.130  1.00  0.00     0.131 A 
ATOM     84  C   UNL A   1      36.591  30.495  29.582  1.00  0.00     0.055 A 
ATOM     85  C   UNL A   1      37.087  29.169  31.524  1.00  0.00     0.041 A 
ATOM     86  F   UNL A   1      39.286  28.469  31.921  1.00  0.00    -0.206 F 
ATOM     87  C   UNL A   1      36.163  29.864  30.752  1.00  0.00     0.022 A 
BRANCH  84  88
ATOM     88  S   UNL A   1      35.423  31.492  28.615  1.00  0.00     0.124 S 
ATOM     89  O   UNL A   1      36.323  32.303  27.804  1.00  0.00    -0.237 OA
ATOM     90  O   UNL A   1      34.666  30.467  27.903  1.00  0.00    -0.237 OA
ATOM     91  O   UNL A   1      34.672  32.221  29.634  1.00  0.00    -0.744 OA
ENDBRANCH  84  88
ENDBRANCH  57  81
BRANCH  69  92
ATOM     92  C   UNL A   1      44.156  34.290  30.353  1.00  0.00     0.023 A 
ATOM     93  C   UNL A   1      43.911  35.335  29.444  1.00  0.00     0.031 A 
ATOM     94  C   UNL A   1      44.496  34.635  31.674  1.00  0.00     0.131 A 
ATOM     95  C   UNL A   1      44.099  36.667  29.843  1.00  0.00     0.055 A 
ATOM     96  C   UNL A   1      44.597  35.964  32.088  1.00  0.00     0.041 A 
ATOM     97  F   UNL A   1      44.744  33.684  32.588  1.00  0.00    -0.206 F 
ATOM     98  C   UNL A   1      44.419  36.990  31.164  1.00  0.00     0.022 A 
BRANCH  95  99
ATOM     99  S   UNL A   1      44.070  37.966  28.575  1.00  0.00     0.124 S 
ATOM    100  O   UNL A   1      45.200  38.800  28.974  1.00  0.00    -0.237 OA
ATOM    101  O   UNL A   1      44.243  37.203  27.344  1.00  0.00    -0.237 OA
ATOM    102  O   UNL A   1      42.755  38.581  28.745  1.00  0.00    -0.744 OA
ENDBRANCH  95  99
ENDBRANCH  69  92
ENDBRANCH  43  44
ENDBRANCH  36  38
ENDBRANCH  35  36
ENDBRANCH  34  35
ENDBRANCH  33  34
ENDBRANCH  32  33
ENDBRANCH  31  32
ENDBRANCH  30  31
ENDBRANCH   1  30
TORSDOF 27
ENDMDL
MODEL 2
REMARK VINA RESULT:      -9.7      4.721      9.102
REMARK SMILES CC[C@H](NC(=O)[C@H]1[C@@H](C(=O)OCCOCCOCCOCCOC(=O)c2ccc(-c3c4nc(c(-c5cc(S(=O)(=O)[O-])ccc5F)c5ccc([nH]5)c(-c5cc(S(=O)(=O)[O-])ccc5F)c5nc(c(-c6cc(S(=O)(=O)[O-])ccc6F)c6ccc3[nH]6)C=C5)C=C4)cc2)[C@@H]2C=C[C@H]1C2)c1ccccc1
REMARK SMILES IDX 17 1 16 2 15 3 14 4 13 5 12 6 11 7 9 8 10 9 8 10 7 11 92 12
REMARK SMILES IDX 89 13 91 14 93 15 90 16 5 17 4 18 6 20 3 21 2 22 1 23 94 24
REMARK SMILES IDX 95 25 99 26 96 27 98 28 97 29 18 30 19 31 20 32 21 33 22 34
REMARK SMILES IDX 23 35 24 36 25 37 26 38 27 39 88 40 28 41 87 42 29 43 30 44
REMARK SMILES IDX 31 45 81 46 32 47 86 48 80 49 82 50 33 51 85 52 79 53 78 54
REMARK SMILES IDX 34 56 66 57 46 58 65 59 47 60 50 61 64 62 83 63 48 64 49 65
REMARK SMILES IDX 63 67 84 68 51 69 35 70 36 71 44 72 37 73 43 74 45 75 42 76
REMARK SMILES IDX 38 77 39 78 40 79 41 80 67 81 68 82 76 83 69 84 75 85 77 86
REMARK SMILES IDX 74 87 70 88 71 89 72 90 73 91 52 92 53 93 61 94 54 95 60 96
REMARK SMILES IDX 62 97 59 98 55 99 56 100 57 101 58 102
REMARK H PARENT 4 19 82 55 50 66
REMARK Flexibility Score: inf
ROOT
ATOM      1  O   UNL A   1      39.356  21.952  25.717  1.00  0.00    -0.377 OA
ENDROOT
BRANCH   1   2
ATOM      2  C   UNL A   1      37.955  21.914  25.913  1.00  0.00     0.188 C 
BRANCH   2   3
ATOM      3  C   UNL A   1      37.127  21.100  24.911  1.00  0.00     0.188 C 
BRANCH   3   4
ATOM      4  O   UNL A   1      36.083  21.840  24.303  1.00  0.00    -0.376 OA
BRANCH   4   5
ATOM      5  C   UNL A   1      34.769  21.344  24.462  1.00  0.00     0.202 C 
BRANCH   5   6
ATOM      6  C   UNL A   1      33.584  22.224  24.046  1.00  0.00     0.261 C 
BRANCH   6   7
ATOM      7  O   UNL A   1      33.739  23.540  23.458  1.00  0.00    -0.463 OA
BRANCH   7   8
ATOM      8  C   UNL A   1      33.331  24.703  23.988  1.00  0.00     0.310 C 
ATOM      9  O   UNL A   1      34.021  25.701  24.159  1.00  0.00    -0.252 OA
BRANCH   8  10
ATOM     10  C   UNL A   1      31.899  24.678  24.449  1.00  0.00     0.119 C 
ATOM     11  C   UNL A   1      30.924  25.762  23.895  1.00  0.00     0.100 C 
ATOM     12  C   UNL A   1      30.370  26.356  25.250  1.00  0.00     0.025 C 
ATOM     13  C   UNL A   1      31.782  24.798  25.988  1.00  0.00     0.027 C 
ATOM     14  C   UNL A   1      29.543  25.288  25.947  1.00  0.00    -0.027 C 
ATOM     15  C   UNL A   1      31.604  26.303  26.164  1.00  0.00     0.017 C 
ATOM     16  C   UNL A   1      30.393  24.353  26.389  1.00  0.00    -0.027 C 
BRANCH  11  17
ATOM     17  C   UNL A   1      31.386  26.893  22.961  1.00  0.00     0.225 C 
ATOM     18  N   UNL A   1      31.390  28.223  23.243  1.00  0.00    -0.349 N 
ATOM     19  H   UNL A   1      32.112  28.667  22.742  1.00  0.00     0.164 HD
ATOM     20  O   UNL A   1      31.953  26.602  21.899  1.00  0.00    -0.275 OA
BRANCH  18  21
ATOM     21  C   UNL A   1      30.662  29.222  24.060  1.00  0.00     0.112 C 
BRANCH  21  22
ATOM     22  C   UNL A   1      31.475  30.048  25.060  1.00  0.00     0.026 C 
ATOM     23  C   UNL A   1      31.661  29.674  26.521  1.00  0.00     0.006 C 
ENDBRANCH  21  22
BRANCH  21  24
ATOM     24  C   UNL A   1      29.671  30.063  23.289  1.00  0.00    -0.026 A 
ATOM     25  C   UNL A   1      29.331  29.811  21.961  1.00  0.00     0.006 A 
ATOM     26  C   UNL A   1      29.163  31.218  23.918  1.00  0.00     0.006 A 
ATOM     27  C   UNL A   1      28.595  30.758  21.248  1.00  0.00     0.000 A 
ATOM     28  C   UNL A   1      28.487  32.187  23.191  1.00  0.00     0.000 A 
ATOM     29  C   UNL A   1      28.216  31.961  21.847  1.00  0.00     0.000 A 
ENDBRANCH  21  24
ENDBRANCH  18  21
ENDBRANCH  11  17
ENDBRANCH   8  10
ENDBRANCH   7   8
ENDBRANCH   6   7
ENDBRANCH   5   6
ENDBRANCH   4   5
ENDBRANCH   3   4
ENDBRANCH   2   3
ENDBRANCH   1   2
BRANCH   1  30
ATOM     30  C   UNL A   1      40.157  20.841  26.110  1.00  0.00     0.188 C 
BRANCH  30  31
ATOM     31  C   UNL A   1      40.946  20.849  27.435  1.00  0.00     0.188 C 
BRANCH  31  32
ATOM     32  O   UNL A   1      42.334  20.598  27.314  1.00  0.00    -0.376 OA
BRANCH  32  33
ATOM     33  C   UNL A   1      42.908  20.357  26.046  1.00  0.00     0.202 C 
BRANCH  33  34
ATOM     34  C   UNL A   1      43.707  21.475  25.354  1.00  0.00     0.261 C 
BRANCH  34  35
ATOM     35  O   UNL A   1      43.004  22.687  25.059  1.00  0.00    -0.460 OA
BRANCH  35  36
ATOM     36  C   UNL A   1      43.713  23.836  25.105  1.00  0.00     0.338 C 
ATOM     37  O   UNL A   1      44.654  24.137  24.388  1.00  0.00    -0.246 OA
BRANCH  36  38
ATOM     38  C   UNL A   1      43.007  24.765  26.011  1.00  0.00     0.060 A 
ATOM     39  C   UNL A   1      43.305  26.132  25.929  1.00  0.00     0.016 A 
ATOM     40  C   UNL A   1      42.042  24.301  26.909  1.00  0.00     0.016 A 
ATOM     41  C   UNL A   1      42.686  27.033  26.787  1.00  0.00     0.010 A 
ATOM     42  C   UNL A   1      41.451  25.201  27.802  1.00  0.00     0.010 A 
ATOM     43  C   UNL A   1      41.817  26.558  27.777  1.00  0.00    -0.014 A 
BRANCH  43  44
ATOM     44  C   UNL A   1      41.592  27.426  28.957  1.00  0.00     0.031 A 
ATOM     45  C   UNL A   1      40.375  28.313  28.934  1.00  0.00     0.074 A 
ATOM     46  C   UNL A   1      42.370  27.355  30.048  1.00  0.00     0.049 A 
ATOM     47  N   UNL A   1      39.911  29.120  29.851  1.00  0.00    -0.248 NA
ATOM     48  C   UNL A   1      39.575  28.279  27.701  1.00  0.00     0.031 C 
ATOM     49  C   UNL A   1      43.538  26.491  30.200  1.00  0.00     0.029 A 
ATOM     50  N   UNL A   1      42.283  28.023  31.242  1.00  0.00    -0.354 N 
ATOM     51  C   UNL A   1      38.765  29.690  29.304  1.00  0.00     0.074 A 
ATOM     52  C   UNL A   1      38.636  29.172  27.959  1.00  0.00     0.031 C 
ATOM     53  C   UNL A   1      44.066  26.687  31.421  1.00  0.00     0.029 A 
ATOM     54  C   UNL A   1      43.291  27.709  32.123  1.00  0.00     0.049 A 
ATOM     55  H   UNL A   1      41.567  28.665  31.450  1.00  0.00     0.167 HD
ATOM     56  C   UNL A   1      37.894  30.558  29.873  1.00  0.00     0.034 A 
ATOM     57  C   UNL A   1      43.561  28.208  33.346  1.00  0.00     0.034 A 
ATOM     58  C   UNL A   1      38.058  31.081  31.206  1.00  0.00     0.049 A 
ATOM     59  C   UNL A   1      42.625  29.236  33.935  1.00  0.00     0.074 A 
ATOM     60  C   UNL A   1      37.246  31.965  31.893  1.00  0.00     0.029 A 
ATOM     61  N   UNL A   1      39.123  30.785  32.051  1.00  0.00    -0.354 N 
ATOM     62  N   UNL A   1      41.538  29.764  33.418  1.00  0.00    -0.248 NA
ATOM     63  C   UNL A   1      42.945  29.719  35.284  1.00  0.00     0.031 C 
ATOM     64  C   UNL A   1      37.863  32.271  33.111  1.00  0.00     0.029 A 
ATOM     65  C   UNL A   1      39.008  31.498  33.234  1.00  0.00     0.049 A 
ATOM     66  H   UNL A   1      39.853  30.159  31.839  1.00  0.00     0.167 HD
ATOM     67  C   UNL A   1      41.026  30.618  34.393  1.00  0.00     0.074 A 
ATOM     68  C   UNL A   1      41.917  30.517  35.533  1.00  0.00     0.031 C 
ATOM     69  C   UNL A   1      39.918  31.406  34.357  1.00  0.00     0.034 A 
BRANCH  56  70
ATOM     70  C   UNL A   1      36.748  31.041  29.013  1.00  0.00     0.023 A 
ATOM     71  C   UNL A   1      36.435  32.408  28.884  1.00  0.00     0.031 A 
ATOM     72  C   UNL A   1      35.902  30.115  28.380  1.00  0.00     0.131 A 
ATOM     73  C   UNL A   1      35.255  32.798  28.231  1.00  0.00     0.055 A 
ATOM     74  C   UNL A   1      34.784  30.515  27.647  1.00  0.00     0.041 A 
ATOM     75  F   UNL A   1      36.128  28.795  28.490  1.00  0.00    -0.206 F 
ATOM     76  C   UNL A   1      34.442  31.864  27.588  1.00  0.00     0.022 A 
BRANCH  73  77
ATOM     77  S   UNL A   1      34.694  34.516  28.406  1.00  0.00     0.124 S 
ATOM     78  O   UNL A   1      35.722  35.074  29.282  1.00  0.00    -0.237 OA
ATOM     79  O   UNL A   1      34.700  34.991  27.028  1.00  0.00    -0.237 OA
ATOM     80  O   UNL A   1      33.372  34.384  29.016  1.00  0.00    -0.744 OA
ENDBRANCH  73  77
ENDBRANCH  56  70
BRANCH  57  81
ATOM     81  C   UNL A   1      44.787  27.774  34.076  1.00  0.00     0.023 A 
ATOM     82  C   UNL A   1      44.802  26.622  34.877  1.00  0.00     0.031 A 
ATOM     83  C   UNL A   1      45.967  28.537  33.997  1.00  0.00     0.131 A 
ATOM     84  C   UNL A   1      45.962  26.282  35.592  1.00  0.00     0.055 A 
ATOM     85  C   UNL A   1      47.132  28.168  34.669  1.00  0.00     0.041 A 
ATOM     86  F   UNL A   1      46.006  29.651  33.249  1.00  0.00    -0.206 F 
ATOM     87  C   UNL A   1      47.131  27.038  35.480  1.00  0.00     0.022 A 
BRANCH  84  88
ATOM     88  S   UNL A   1      45.909  24.864  36.724  1.00  0.00     0.124 S 
ATOM     89  O   UNL A   1      45.642  25.512  38.002  1.00  0.00    -0.237 OA
ATOM     90  O   UNL A   1      44.818  24.071  36.166  1.00  0.00    -0.237 OA
ATOM     91  O   UNL A   1      47.237  24.270  36.589  1.00  0.00    -0.744 OA
ENDBRANCH  84  88
ENDBRANCH  57  81
BRANCH  69  92
ATOM     92  C   UNL A   1      39.585  32.183  35.612  1.00  0.00     0.023 A 
ATOM     93  C   UNL A   1      38.810  31.631  36.647  1.00  0.00     0.031 A 
ATOM     94  C   UNL A   1      40.023  33.513  35.757  1.00  0.00     0.131 A 
ATOM     95  C   UNL A   1      38.420  32.431  37.732  1.00  0.00     0.055 A 
ATOM     96  C   UNL A   1      39.704  34.277  36.881  1.00  0.00     0.041 A 
ATOM     97  F   UNL A   1      40.765  34.098  34.803  1.00  0.00    -0.206 F 
ATOM     98  C   UNL A   1      38.879  33.744  37.866  1.00  0.00     0.022 A 
BRANCH  95  99
ATOM     99  S   UNL A   1      37.179  31.784  38.888  1.00  0.00     0.124 S 
ATOM    100  O   UNL A   1      36.042  32.663  38.631  1.00  0.00    -0.237 OA
ATOM    101  O   UNL A   1      37.031  30.403  38.443  1.00  0.00    -0.237 OA
ATOM    102  O   UNL A   1      37.809  31.951  40.196  1.00  0.00    -0.744 OA
ENDBRANCH  95  99
ENDBRANCH  69  92
ENDBRANCH  43  44
ENDBRANCH  36  38
ENDBRANCH  35  36
ENDBRANCH  34  35
ENDBRANCH  33  34
ENDBRANCH  32  33
ENDBRANCH  31  32
ENDBRANCH  30  31
ENDBRANCH   1  30
TORSDOF 27
ENDMDL
MODEL 3
REMARK VINA RESULT:      -9.1      4.132      6.630
REMARK SMILES CC[C@H](NC(=O)[C@H]1[C@@H](C(=O)OCCOCCOCCOCCOC(=O)c2ccc(-c3c4nc(c(-c5cc(S(=O)(=O)[O-])ccc5F)c5ccc([nH]5)c(-c5cc(S(=O)(=O)[O-])ccc5F)c5nc(c(-c6cc(S(=O)(=O)[O-])ccc6F)c6ccc3[nH]6)C=C5)C=C4)cc2)[C@@H]2C=C[C@H]1C2)c1ccccc1
REMARK SMILES IDX 17 1 16 2 15 3 14 4 13 5 12 6 11 7 9 8 10 9 8 10 7 11 92 12
REMARK SMILES IDX 89 13 91 14 93 15 90 16 5 17 4 18 6 20 3 21 2 22 1 23 94 24
REMARK SMILES IDX 95 25 99 26 96 27 98 28 97 29 18 30 19 31 20 32 21 33 22 34
REMARK SMILES IDX 23 35 24 36 25 37 26 38 27 39 88 40 28 41 87 42 29 43 30 44
REMARK SMILES IDX 31 45 81 46 32 47 86 48 80 49 82 50 33 51 85 52 79 53 78 54
REMARK SMILES IDX 34 56 66 57 46 58 65 59 47 60 50 61 64 62 83 63 48 64 49 65
REMARK SMILES IDX 63 67 84 68 51 69 35 70 36 71 44 72 37 73 43 74 45 75 42 76
REMARK SMILES IDX 38 77 39 78 40 79 41 80 67 81 68 82 76 83 69 84 75 85 77 86
REMARK SMILES IDX 74 87 70 88 71 89 72 90 73 91 52 92 53 93 61 94 54 95 60 96
REMARK SMILES IDX 62 97 59 98 55 99 56 100 57 101 58 102
REMARK H PARENT 4 19 82 55 50 66
REMARK Flexibility Score: inf
ROOT
ATOM      1  O   UNL A   1      41.537  22.508  27.180  1.00  0.00    -0.377 OA
ENDROOT
BRANCH   1   2
ATOM      2  C   UNL A   1      40.904  23.689  26.725  1.00  0.00     0.188 C 
BRANCH   2   3
ATOM      3  C   UNL A   1      40.003  24.431  27.720  1.00  0.00     0.188 C 
BRANCH   3   4
ATOM      4  O   UNL A   1      38.629  24.406  27.371  1.00  0.00    -0.376 OA
BRANCH   4   5
ATOM      5  C   UNL A   1      38.302  23.888  26.096  1.00  0.00     0.202 C 
BRANCH   5   6
ATOM      6  C   UNL A   1      36.943  23.208  25.894  1.00  0.00     0.261 C 
BRANCH   6   7
ATOM      7  O   UNL A   1      35.728  23.935  25.585  1.00  0.00    -0.463 OA
BRANCH   7   8
ATOM      8  C   UNL A   1      35.201  24.126  24.366  1.00  0.00     0.310 C 
ATOM      9  O   UNL A   1      35.743  23.873  23.297  1.00  0.00    -0.252 OA
BRANCH   8  10
ATOM     10  C   UNL A   1      33.842  24.772  24.398  1.00  0.00     0.119 C 
ATOM     11  C   UNL A   1      32.710  24.159  23.519  1.00  0.00     0.100 C 
ATOM     12  C   UNL A   1      32.266  25.437  22.706  1.00  0.00     0.025 C 
ATOM     13  C   UNL A   1      33.898  26.261  23.980  1.00  0.00     0.027 C 
ATOM     14  C   UNL A   1      31.633  26.430  23.667  1.00  0.00    -0.027 C 
ATOM     15  C   UNL A   1      33.599  26.169  22.487  1.00  0.00     0.017 C 
ATOM     16  C   UNL A   1      32.615  26.923  24.432  1.00  0.00    -0.027 C 
BRANCH  11  17
ATOM     17  C   UNL A   1      32.948  22.972  22.570  1.00  0.00     0.225 C 
ATOM     18  N   UNL A   1      32.535  21.690  22.760  1.00  0.00    -0.349 N 
ATOM     19  H   UNL A   1      32.383  21.258  21.889  1.00  0.00     0.164 HD
ATOM     20  O   UNL A   1      33.426  23.186  21.448  1.00  0.00    -0.275 OA
BRANCH  18  21
ATOM     21  C   UNL A   1      32.239  20.733  23.852  1.00  0.00     0.112 C 
BRANCH  21  22
ATOM     22  C   UNL A   1      32.886  19.348  23.774  1.00  0.00     0.026 C 
ATOM     23  C   UNL A   1      32.426  18.246  22.835  1.00  0.00     0.006 C 
ENDBRANCH  21  22
BRANCH  21  24
ATOM     24  C   UNL A   1      32.309  21.324  25.241  1.00  0.00    -0.026 A 
ATOM     25  C   UNL A   1      31.380  22.244  25.724  1.00  0.00     0.006 A 
ATOM     26  C   UNL A   1      33.434  21.009  26.031  1.00  0.00     0.006 A 
ATOM     27  C   UNL A   1      31.636  22.918  26.918  1.00  0.00     0.000 A 
ATOM     28  C   UNL A   1      33.718  21.725  27.185  1.00  0.00     0.000 A 
ATOM     29  C   UNL A   1      32.823  22.694  27.620  1.00  0.00     0.000 A 
ENDBRANCH  21  24
ENDBRANCH  18  21
ENDBRANCH  11  17
ENDBRANCH   8  10
ENDBRANCH   7   8
ENDBRANCH   6   7
ENDBRANCH   5   6
ENDBRANCH   4   5
ENDBRANCH   3   4
ENDBRANCH   2   3
ENDBRANCH   1   2
BRANCH   1  30
ATOM     30  C   UNL A   1      41.418  21.306  26.424  1.00  0.00     0.188 C 
BRANCH  30  31
ATOM     31  C   UNL A   1      42.639  20.406  26.148  1.00  0.00     0.188 C 
BRANCH  31  32
ATOM     32  O   UNL A   1      43.357  20.706  24.966  1.00  0.00    -0.376 OA
BRANCH  32  33
ATOM     33  C   UNL A   1      44.686  21.180  25.039  1.00  0.00     0.202 C 
BRANCH  33  34
ATOM     34  C   UNL A   1      45.062  22.211  26.116  1.00  0.00     0.261 C 
BRANCH  34  35
ATOM     35  O   UNL A   1      44.426  23.492  26.040  1.00  0.00    -0.460 OA
BRANCH  35  36
ATOM     36  C   UNL A   1      45.084  24.466  25.376  1.00  0.00     0.338 C 
ATOM     37  O   UNL A   1      45.633  24.363  24.291  1.00  0.00    -0.246 OA
BRANCH  36  38
ATOM     38  C   UNL A   1      44.822  25.742  26.074  1.00  0.00     0.060 A 
ATOM     39  C   UNL A   1      45.879  26.357  26.760  1.00  0.00     0.016 A 
ATOM     40  C   UNL A   1      43.560  26.341  26.032  1.00  0.00     0.016 A 
ATOM     41  C   UNL A   1      45.664  27.540  27.456  1.00  0.00     0.010 A 
ATOM     42  C   UNL A   1      43.332  27.508  26.767  1.00  0.00     0.010 A 
ATOM     43  C   UNL A   1      44.371  28.074  27.526  1.00  0.00    -0.014 A 
BRANCH  43  44
ATOM     44  C   UNL A   1      44.076  28.993  28.651  1.00  0.00     0.031 A 
ATOM     45  C   UNL A   1      43.968  28.385  30.024  1.00  0.00     0.074 A 
ATOM     46  C   UNL A   1      44.012  30.323  28.481  1.00  0.00     0.049 A 
ATOM     47  N   UNL A   1      43.779  28.961  31.182  1.00  0.00    -0.248 NA
ATOM     48  C   UNL A   1      44.094  26.921  30.093  1.00  0.00     0.031 C 
ATOM     49  C   UNL A   1      44.159  31.022  27.207  1.00  0.00     0.029 A 
ATOM     50  N   UNL A   1      43.814  31.324  29.397  1.00  0.00    -0.354 N 
ATOM     51  C   UNL A   1      43.761  27.929  32.115  1.00  0.00     0.074 A 
ATOM     52  C   UNL A   1      43.910  26.692  31.381  1.00  0.00     0.031 C 
ATOM     53  C   UNL A   1      44.038  32.344  27.421  1.00  0.00     0.029 A 
ATOM     54  C   UNL A   1      43.778  32.580  28.841  1.00  0.00     0.049 A 
ATOM     55  H   UNL A   1      43.708  31.158  30.362  1.00  0.00     0.167 HD
ATOM     56  C   UNL A   1      43.643  28.006  33.463  1.00  0.00     0.034 A 
ATOM     57  C   UNL A   1      43.541  33.777  29.416  1.00  0.00     0.034 A 
ATOM     58  C   UNL A   1      43.469  29.250  34.171  1.00  0.00     0.049 A 
ATOM     59  C   UNL A   1      43.329  33.838  30.909  1.00  0.00     0.074 A 
ATOM     60  C   UNL A   1      43.336  29.457  35.532  1.00  0.00     0.029 A 
ATOM     61  N   UNL A   1      43.379  30.501  33.569  1.00  0.00    -0.354 N 
ATOM     62  N   UNL A   1      43.324  32.861  31.789  1.00  0.00    -0.248 NA
ATOM     63  C   UNL A   1      43.113  35.169  31.488  1.00  0.00     0.031 C 
ATOM     64  C   UNL A   1      43.079  30.816  35.744  1.00  0.00     0.029 A 
ATOM     65  C   UNL A   1      43.155  31.478  34.527  1.00  0.00     0.049 A 
ATOM     66  H   UNL A   1      43.463  30.669  32.603  1.00  0.00     0.167 HD
ATOM     67  C   UNL A   1      43.135  33.465  33.030  1.00  0.00     0.074 A 
ATOM     68  C   UNL A   1      43.051  34.891  32.782  1.00  0.00     0.031 C 
ATOM     69  C   UNL A   1      43.049  32.898  34.264  1.00  0.00     0.034 A 
BRANCH  56  70
ATOM     70  C   UNL A   1      43.616  26.699  34.224  1.00  0.00     0.023 A 
ATOM     71  C   UNL A   1      44.774  25.924  34.420  1.00  0.00     0.031 A 
ATOM     72  C   UNL A   1      42.395  26.178  34.686  1.00  0.00     0.131 A 
ATOM     73  C   UNL A   1      44.671  24.634  34.965  1.00  0.00     0.055 A 
ATOM     74  C   UNL A   1      42.313  24.936  35.318  1.00  0.00     0.041 A 
ATOM     75  F   UNL A   1      41.249  26.855  34.503  1.00  0.00    -0.206 F 
ATOM     76  C   UNL A   1      43.453  24.146  35.440  1.00  0.00     0.022 A 
BRANCH  73  77
ATOM     77  S   UNL A   1      46.108  23.530  34.859  1.00  0.00     0.124 S 
ATOM     78  O   UNL A   1      45.508  22.318  34.307  1.00  0.00    -0.237 OA
ATOM     79  O   UNL A   1      47.003  24.263  33.971  1.00  0.00    -0.237 OA
ATOM     80  O   UNL A   1      46.557  23.418  36.245  1.00  0.00    -0.744 OA
ENDBRANCH  73  77
ENDBRANCH  56  70
BRANCH  57  81
ATOM     81  C   UNL A   1      43.453  35.004  28.574  1.00  0.00     0.023 A 
ATOM     82  C   UNL A   1      44.600  35.695  28.150  1.00  0.00     0.031 A 
ATOM     83  C   UNL A   1      42.198  35.521  28.202  1.00  0.00     0.131 A 
ATOM     84  C   UNL A   1      44.468  36.880  27.406  1.00  0.00     0.055 A 
ATOM     85  C   UNL A   1      42.074  36.671  27.421  1.00  0.00     0.041 A 
ATOM     86  F   UNL A   1      41.070  34.903  28.584  1.00  0.00    -0.206 F 
ATOM     87  C   UNL A   1      43.213  37.362  27.026  1.00  0.00     0.022 A 
BRANCH  84  88
ATOM     88  S   UNL A   1      45.962  37.821  26.989  1.00  0.00     0.124 S 
ATOM     89  O   UNL A   1      46.584  36.966  25.986  1.00  0.00    -0.237 OA
ATOM     90  O   UNL A   1      45.402  39.079  26.502  1.00  0.00    -0.237 OA
ATOM     91  O   UNL A   1      46.674  37.913  28.262  1.00  0.00    -0.744 OA
ENDBRANCH  84  88
ENDBRANCH  57  81
BRANCH  69  92
ATOM     92  C   UNL A   1      42.902  33.834  35.443  1.00  0.00     0.023 A 
ATOM     93  C   UNL A   1      41.649  34.316  35.862  1.00  0.00     0.031 A 
ATOM     94  C   UNL A   1      44.043  34.281  36.136  1.00  0.00     0.131 A 
ATOM     95  C   UNL A   1      41.574  35.282  36.877  1.00  0.00     0.055 A 
ATOM     96  C   UNL A   1      43.954  35.177  37.203  1.00  0.00     0.041 A 
ATOM     97  F   UNL A   1      45.268  33.860  35.783  1.00  0.00    -0.206 F 
ATOM     98  C   UNL A   1      42.716  35.700  37.565  1.00  0.00     0.022 A 
BRANCH  95  99
ATOM     99  S   UNL A   1      39.983  36.100  37.183  1.00  0.00     0.124 S 
ATOM    100  O   UNL A   1      39.174  35.000  37.700  1.00  0.00    -0.237 OA
ATOM    101  O   UNL A   1      40.346  37.133  38.147  1.00  0.00    -0.237 OA
ATOM    102  O   UNL A   1      39.591  36.591  35.863  1.00  0.00    -0.744 OA
ENDBRANCH  95  99
ENDBRANCH  69  92
ENDBRANCH  43  44
ENDBRANCH  36  38
ENDBRANCH  35  36
ENDBRANCH  34  35
ENDBRANCH  33  34
ENDBRANCH  32  33
ENDBRANCH  31  32
ENDBRANCH  30  31
ENDBRANCH   1  30
TORSDOF 27
ENDMDL
