MODEL 1
REMARK VINA RESULT:      -8.7      0.000      0.000
REMARK SMILES CCOc1cc(N2CCOCC2)ccc1[C@H]([NH3+])C(=O)OCCOCCOCCOCCOC(=O)c1ccc(-c2c3nc(c(-c4cc(S(=O)(=O)[O-])ccc4F)c4ccc([nH]4)c(-c4cc(S(=O)(=O)[O-])ccc4F)c4nc(c(-c5cc(S(=O)(=O)[O-])ccc5F)c5ccc2[nH]5)C=C4)C=C3)cc1
REMARK SMILES IDX 26 1 25 2 24 3 23 4 22 5 21 6 20 7 18 8 19 9 16 10 15 11
REMARK SMILES IDX 4 12 5 13 6 14 14 15 13 16 3 17 2 18 1 19 7 20 8 21 12 22
REMARK SMILES IDX 9 23 11 24 10 25 17 26 27 30 28 31 29 32 30 33 31 34 32 35
REMARK SMILES IDX 33 36 34 37 35 38 36 39 97 40 37 41 96 42 38 43 39 44 40 45
REMARK SMILES IDX 90 46 41 47 95 48 89 49 91 50 42 51 94 52 88 53 87 54 43 56
REMARK SMILES IDX 75 57 55 58 74 59 56 60 59 61 73 62 92 63 57 64 58 65 72 67
REMARK SMILES IDX 93 68 60 69 44 70 45 71 53 72 46 73 52 74 54 75 51 76 47 77
REMARK SMILES IDX 48 78 49 79 50 80 76 81 77 82 85 83 78 84 84 85 86 86 83 87
REMARK SMILES IDX 79 88 80 89 81 90 82 91 61 92 62 93 70 94 63 95 69 96 71 97
REMARK SMILES IDX 68 98 64 99 65 100 66 101 67 102
REMARK H PARENT 17 27 17 28 17 29 91 55 59 66
REMARK Flexibility Score: inf
ROOT
ATOM      1  O   UNL A   1      34.378  36.989  33.022  1.00  0.00    -0.377 OA
ENDROOT
BRANCH   1   2
ATOM      2  C   UNL A   1      33.339  37.199  32.083  1.00  0.00     0.188 C 
BRANCH   2   3
ATOM      3  C   UNL A   1      32.439  35.993  31.759  1.00  0.00     0.188 C 
BRANCH   3   4
ATOM      4  O   UNL A   1      32.823  35.255  30.605  1.00  0.00    -0.376 OA
BRANCH   4   5
ATOM      5  C   UNL A   1      33.006  35.932  29.371  1.00  0.00     0.202 C 
BRANCH   5   6
ATOM      6  C   UNL A   1      34.128  35.392  28.449  1.00  0.00     0.261 C 
BRANCH   6   7
ATOM      7  O   UNL A   1      33.937  34.093  27.868  1.00  0.00    -0.459 OA
BRANCH   7   8
ATOM      8  C   UNL A   1      35.039  33.303  27.876  1.00  0.00     0.369 C 
ATOM      9  O   UNL A   1      36.086  33.673  27.360  1.00  0.00    -0.245 OA
BRANCH   8  10
ATOM     10  C   UNL A   1      34.899  32.019  28.741  1.00  0.00     0.326 C 
BRANCH  10  11
ATOM     11  C   UNL A   1      34.244  30.847  28.026  1.00  0.00     0.063 A 
ATOM     12  C   UNL A   1      34.916  29.684  27.628  1.00  0.00     0.131 A 
ATOM     13  C   UNL A   1      34.472  29.011  26.492  1.00  0.00     0.072 A 
ATOM     14  C   UNL A   1      33.301  29.397  25.842  1.00  0.00     0.040 A 
ATOM     15  C   UNL A   1      32.914  30.991  27.611  1.00  0.00     0.016 A 
ATOM     16  C   UNL A   1      32.455  30.273  26.518  1.00  0.00     0.027 A 
BRANCH  12  17
ATOM     17  O   UNL A   1      36.157  29.325  28.049  1.00  0.00    -0.493 OA
BRANCH  17  18
ATOM     18  C   UNL A   1      36.713  29.958  29.209  1.00  0.00     0.226 C 
ATOM     19  C   UNL A   1      37.101  29.094  30.404  1.00  0.00     0.049 C 
ENDBRANCH  17  18
ENDBRANCH  12  17
BRANCH  14  20
ATOM     20  N   UNL A   1      33.046  29.022  24.549  1.00  0.00    -0.367 N 
ATOM     21  C   UNL A   1      31.689  29.060  23.991  1.00  0.00     0.145 C 
ATOM     22  C   UNL A   1      34.040  28.417  23.675  1.00  0.00     0.145 C 
ATOM     23  C   UNL A   1      31.275  27.626  23.645  1.00  0.00     0.181 C 
ATOM     24  C   UNL A   1      33.550  26.997  23.346  1.00  0.00     0.181 C 
ATOM     25  O   UNL A   1      32.229  26.998  22.764  1.00  0.00    -0.378 OA
ENDBRANCH  14  20
ENDBRANCH  10  11
BRANCH  10  26
ATOM     26  N   UNL A   1      34.210  32.341  30.029  1.00  0.00    -0.342 N 
ATOM     27  H   UNL A   1      33.223  32.526  29.850  1.00  0.00     0.345 HD
ATOM     28  H   UNL A   1      34.639  33.167  30.447  1.00  0.00     0.345 HD
ATOM     29  H   UNL A   1      34.298  31.552  30.668  1.00  0.00     0.345 HD
ENDBRANCH  10  26
ENDBRANCH   8  10
ENDBRANCH   7   8
ENDBRANCH   6   7
ENDBRANCH   5   6
ENDBRANCH   4   5
ENDBRANCH   3   4
ENDBRANCH   2   3
ENDBRANCH   1   2
BRANCH   1  30
ATOM     30  C   UNL A   1      34.541  35.678  33.576  1.00  0.00     0.188 C 
BRANCH  30  31
ATOM     31  C   UNL A   1      35.744  34.787  33.182  1.00  0.00     0.188 C 
BRANCH  31  32
ATOM     32  O   UNL A   1      36.761  34.713  34.166  1.00  0.00    -0.376 OA
BRANCH  32  33
ATOM     33  C   UNL A   1      36.472  33.983  35.346  1.00  0.00     0.202 C 
BRANCH  33  34
ATOM     34  C   UNL A   1      37.666  33.477  36.171  1.00  0.00     0.261 C 
BRANCH  34  35
ATOM     35  O   UNL A   1      37.442  32.339  37.025  1.00  0.00    -0.460 OA
BRANCH  35  36
ATOM     36  C   UNL A   1      38.058  31.170  36.737  1.00  0.00     0.338 C 
ATOM     37  O   UNL A   1      37.716  30.057  37.099  1.00  0.00    -0.246 OA
BRANCH  36  38
ATOM     38  C   UNL A   1      39.082  31.446  35.698  1.00  0.00     0.060 A 
ATOM     39  C   UNL A   1      40.429  31.570  36.073  1.00  0.00     0.016 A 
ATOM     40  C   UNL A   1      38.717  31.560  34.356  1.00  0.00     0.016 A 
ATOM     41  C   UNL A   1      41.404  31.857  35.116  1.00  0.00     0.010 A 
ATOM     42  C   UNL A   1      39.688  31.878  33.401  1.00  0.00     0.010 A 
ATOM     43  C   UNL A   1      41.029  32.070  33.784  1.00  0.00    -0.014 A 
BRANCH  43  44
ATOM     44  C   UNL A   1      41.971  32.748  32.855  1.00  0.00     0.031 A 
ATOM     45  C   UNL A   1      42.510  31.939  31.701  1.00  0.00     0.074 A 
ATOM     46  C   UNL A   1      42.325  34.037  33.007  1.00  0.00     0.049 A 
ATOM     47  N   UNL A   1      43.399  32.262  30.800  1.00  0.00    -0.248 NA
ATOM     48  C   UNL A   1      41.970  30.576  31.550  1.00  0.00     0.031 C 
ATOM     49  C   UNL A   1      41.824  34.938  34.043  1.00  0.00     0.029 A 
ATOM     50  N   UNL A   1      43.205  34.811  32.288  1.00  0.00    -0.354 N 
ATOM     51  C   UNL A   1      43.540  31.140  29.990  1.00  0.00     0.074 A 
ATOM     52  C   UNL A   1      42.660  30.122  30.517  1.00  0.00     0.031 C 
ATOM     53  C   UNL A   1      42.416  36.139  33.901  1.00  0.00     0.029 A 
ATOM     54  C   UNL A   1      43.373  36.080  32.796  1.00  0.00     0.049 A 
ATOM     55  H   UNL A   1      43.673  34.488  31.484  1.00  0.00     0.167 HD
ATOM     56  C   UNL A   1      44.335  30.975  28.906  1.00  0.00     0.034 A 
ATOM     57  C   UNL A   1      44.224  37.062  32.429  1.00  0.00     0.034 A 
ATOM     58  C   UNL A   1      45.203  32.000  28.389  1.00  0.00     0.049 A 
ATOM     59  C   UNL A   1      45.166  36.817  31.265  1.00  0.00     0.074 A 
ATOM     60  C   UNL A   1      46.024  31.948  27.276  1.00  0.00     0.029 A 
ATOM     61  N   UNL A   1      45.376  33.257  28.952  1.00  0.00    -0.354 N 
ATOM     62  N   UNL A   1      45.273  35.757  30.494  1.00  0.00    -0.248 NA
ATOM     63  C   UNL A   1      46.094  37.902  30.918  1.00  0.00     0.031 C 
ATOM     64  C   UNL A   1      46.756  33.137  27.218  1.00  0.00     0.029 A 
ATOM     65  C   UNL A   1      46.323  33.970  28.236  1.00  0.00     0.049 A 
ATOM     66  H   UNL A   1      44.895  33.591  29.745  1.00  0.00     0.167 HD
ATOM     67  C   UNL A   1      46.248  36.074  29.548  1.00  0.00     0.074 A 
ATOM     68  C   UNL A   1      46.684  37.422  29.834  1.00  0.00     0.031 C 
ATOM     69  C   UNL A   1      46.738  35.320  28.530  1.00  0.00     0.034 A 
BRANCH  56  70
ATOM     70  C   UNL A   1      44.353  29.620  28.245  1.00  0.00     0.023 A 
ATOM     71  C   UNL A   1      43.461  29.274  27.216  1.00  0.00     0.031 A 
ATOM     72  C   UNL A   1      45.303  28.663  28.646  1.00  0.00     0.131 A 
ATOM     73  C   UNL A   1      43.513  27.991  26.650  1.00  0.00     0.055 A 
ATOM     74  C   UNL A   1      45.395  27.414  28.032  1.00  0.00     0.041 A 
ATOM     75  F   UNL A   1      46.160  28.929  29.645  1.00  0.00    -0.206 F 
ATOM     76  C   UNL A   1      44.492  27.069  27.032  1.00  0.00     0.022 A 
BRANCH  73  77
ATOM     77  S   UNL A   1      42.220  27.502  25.476  1.00  0.00     0.124 S 
ATOM     78  O   UNL A   1      42.155  28.674  24.605  1.00  0.00    -0.237 OA
ATOM     79  O   UNL A   1      42.775  26.293  24.879  1.00  0.00    -0.237 OA
ATOM     80  O   UNL A   1      41.047  27.298  26.322  1.00  0.00    -0.744 OA
ENDBRANCH  73  77
ENDBRANCH  56  70
BRANCH  57  81
ATOM     81  C   UNL A   1      44.297  38.350  33.187  1.00  0.00     0.023 A 
ATOM     82  C   UNL A   1      43.389  39.393  32.934  1.00  0.00     0.031 A 
ATOM     83  C   UNL A   1      45.347  38.602  34.087  1.00  0.00     0.131 A 
ATOM     84  C   UNL A   1      43.595  40.658  33.510  1.00  0.00     0.055 A 
ATOM     85  C   UNL A   1      45.504  39.840  34.716  1.00  0.00     0.041 A 
ATOM     86  F   UNL A   1      46.254  37.650  34.360  1.00  0.00    -0.206 F 
ATOM     87  C   UNL A   1      44.637  40.884  34.411  1.00  0.00     0.022 A 
BRANCH  84  88
ATOM     88  S   UNL A   1      42.570  42.045  32.943  1.00  0.00     0.124 S 
ATOM     89  O   UNL A   1      41.908  42.447  34.179  1.00  0.00    -0.237 OA
ATOM     90  O   UNL A   1      43.572  42.969  32.422  1.00  0.00    -0.237 OA
ATOM     91  O   UNL A   1      41.702  41.437  31.937  1.00  0.00    -0.744 OA
ENDBRANCH  84  88
ENDBRANCH  57  81
BRANCH  69  92
ATOM     92  C   UNL A   1      47.749  35.965  27.610  1.00  0.00     0.023 A 
ATOM     93  C   UNL A   1      49.133  35.860  27.832  1.00  0.00     0.031 A 
ATOM     94  C   UNL A   1      47.313  36.697  26.490  1.00  0.00     0.131 A 
ATOM     95  C   UNL A   1      50.029  36.526  26.981  1.00  0.00     0.055 A 
ATOM     96  C   UNL A   1      48.211  37.299  25.608  1.00  0.00     0.041 A 
ATOM     97  F   UNL A   1      46.003  36.831  26.229  1.00  0.00    -0.206 F 
ATOM     98  C   UNL A   1      49.578  37.228  25.860  1.00  0.00     0.022 A 
BRANCH  95  99
ATOM     99  S   UNL A   1      51.790  36.545  27.413  1.00  0.00     0.124 S 
ATOM    100  O   UNL A   1      52.339  37.447  26.407  1.00  0.00    -0.237 OA
ATOM    101  O   UNL A   1      51.772  37.052  28.782  1.00  0.00    -0.237 OA
ATOM    102  O   UNL A   1      52.193  35.146  27.277  1.00  0.00    -0.744 OA
ENDBRANCH  95  99
ENDBRANCH  69  92
ENDBRANCH  43  44
ENDBRANCH  36  38
ENDBRANCH  35  36
ENDBRANCH  34  35
ENDBRANCH  33  34
ENDBRANCH  32  33
ENDBRANCH  31  32
ENDBRANCH  30  31
ENDBRANCH   1  30
TORSDOF 28
ENDMDL
MODEL 2
REMARK VINA RESULT:      -8.5      5.691     11.210
REMARK SMILES CCOc1cc(N2CCOCC2)ccc1[C@H]([NH3+])C(=O)OCCOCCOCCOCCOC(=O)c1ccc(-c2c3nc(c(-c4cc(S(=O)(=O)[O-])ccc4F)c4ccc([nH]4)c(-c4cc(S(=O)(=O)[O-])ccc4F)c4nc(c(-c5cc(S(=O)(=O)[O-])ccc5F)c5ccc2[nH]5)C=C4)C=C3)cc1
REMARK SMILES IDX 26 1 25 2 24 3 23 4 22 5 21 6 20 7 18 8 19 9 16 10 15 11
REMARK SMILES IDX 4 12 5 13 6 14 14 15 13 16 3 17 2 18 1 19 7 20 8 21 12 22
REMARK SMILES IDX 9 23 11 24 10 25 17 26 27 30 28 31 29 32 30 33 31 34 32 35
REMARK SMILES IDX 33 36 34 37 35 38 36 39 97 40 37 41 96 42 38 43 39 44 40 45
REMARK SMILES IDX 90 46 41 47 95 48 89 49 91 50 42 51 94 52 88 53 87 54 43 56
REMARK SMILES IDX 75 57 55 58 74 59 56 60 59 61 73 62 92 63 57 64 58 65 72 67
REMARK SMILES IDX 93 68 60 69 44 70 45 71 53 72 46 73 52 74 54 75 51 76 47 77
REMARK SMILES IDX 48 78 49 79 50 80 76 81 77 82 85 83 78 84 84 85 86 86 83 87
REMARK SMILES IDX 79 88 80 89 81 90 82 91 61 92 62 93 70 94 63 95 69 96 71 97
REMARK SMILES IDX 68 98 64 99 65 100 66 101 67 102
REMARK H PARENT 17 27 17 28 17 29 91 55 59 66
REMARK Flexibility Score: inf
ROOT
ATOM      1  O   UNL A   1      34.406  36.659  33.603  1.00  0.00    -0.377 OA
ENDROOT
BRANCH   1   2
ATOM      2  C   UNL A   1      33.188  37.087  33.022  1.00  0.00     0.188 C 
BRANCH   2   3
ATOM      3  C   UNL A   1      32.145  35.997  32.709  1.00  0.00     0.188 C 
BRANCH   3   4
ATOM      4  O   UNL A   1      32.324  35.344  31.458  1.00  0.00    -0.376 OA
BRANCH   4   5
ATOM      5  C   UNL A   1      32.598  36.115  30.299  1.00  0.00     0.202 C 
BRANCH   5   6
ATOM      6  C   UNL A   1      33.651  35.539  29.320  1.00  0.00     0.261 C 
BRANCH   6   7
ATOM      7  O   UNL A   1      33.497  34.170  28.915  1.00  0.00    -0.459 OA
BRANCH   7   8
ATOM      8  C   UNL A   1      34.414  33.740  28.015  1.00  0.00     0.369 C 
ATOM      9  O   UNL A   1      34.773  34.455  27.087  1.00  0.00    -0.245 OA
BRANCH   8  10
ATOM     10  C   UNL A   1      35.079  32.382  28.376  1.00  0.00     0.326 C 
BRANCH  10  11
ATOM     11  C   UNL A   1      34.307  31.158  27.905  1.00  0.00     0.063 A 
ATOM     12  C   UNL A   1      34.795  29.846  27.952  1.00  0.00     0.131 A 
ATOM     13  C   UNL A   1      34.373  28.940  26.982  1.00  0.00     0.072 A 
ATOM     14  C   UNL A   1      33.378  29.282  26.067  1.00  0.00     0.040 A 
ATOM     15  C   UNL A   1      33.086  31.363  27.250  1.00  0.00     0.016 A 
ATOM     16  C   UNL A   1      32.635  30.430  26.331  1.00  0.00     0.027 A 
BRANCH  12  17
ATOM     17  O   UNL A   1      35.889  29.452  28.655  1.00  0.00    -0.493 OA
BRANCH  17  18
ATOM     18  C   UNL A   1      37.158  29.384  27.993  1.00  0.00     0.226 C 
ATOM     19  C   UNL A   1      38.320  28.691  28.697  1.00  0.00     0.049 C 
ENDBRANCH  17  18
ENDBRANCH  12  17
BRANCH  14  20
ATOM     20  N   UNL A   1      33.214  28.584  24.899  1.00  0.00    -0.367 N 
ATOM     21  C   UNL A   1      32.228  28.993  23.892  1.00  0.00     0.145 C 
ATOM     22  C   UNL A   1      33.869  27.315  24.620  1.00  0.00     0.145 C 
ATOM     23  C   UNL A   1      31.181  27.881  23.770  1.00  0.00     0.181 C 
ATOM     24  C   UNL A   1      32.765  26.255  24.482  1.00  0.00     0.181 C 
ATOM     25  O   UNL A   1      31.793  26.609  23.475  1.00  0.00    -0.378 OA
ENDBRANCH  14  20
ENDBRANCH  10  11
BRANCH  10  26
ATOM     26  N   UNL A   1      35.366  32.327  29.843  1.00  0.00    -0.342 N 
ATOM     27  H   UNL A   1      34.957  31.480  30.239  1.00  0.00     0.345 HD
ATOM     28  H   UNL A   1      34.962  33.144  30.300  1.00  0.00     0.345 HD
ATOM     29  H   UNL A   1      36.375  32.319  29.992  1.00  0.00     0.345 HD
ENDBRANCH  10  26
ENDBRANCH   8  10
ENDBRANCH   7   8
ENDBRANCH   6   7
ENDBRANCH   5   6
ENDBRANCH   4   5
ENDBRANCH   3   4
ENDBRANCH   2   3
ENDBRANCH   1   2
BRANCH   1  30
ATOM     30  C   UNL A   1      34.582  35.262  33.868  1.00  0.00     0.188 C 
BRANCH  30  31
ATOM     31  C   UNL A   1      35.690  34.446  33.159  1.00  0.00     0.188 C 
BRANCH  31  32
ATOM     32  O   UNL A   1      36.086  33.276  33.854  1.00  0.00    -0.376 OA
BRANCH  32  33
ATOM     33  C   UNL A   1      35.930  32.037  33.184  1.00  0.00     0.202 C 
BRANCH  33  34
ATOM     34  C   UNL A   1      37.211  31.282  32.795  1.00  0.00     0.261 C 
BRANCH  34  35
ATOM     35  O   UNL A   1      37.620  31.347  31.415  1.00  0.00    -0.460 OA
BRANCH  35  36
ATOM     36  C   UNL A   1      38.867  31.779  31.119  1.00  0.00     0.338 C 
ATOM     37  O   UNL A   1      39.414  31.735  30.031  1.00  0.00    -0.246 OA
BRANCH  36  38
ATOM     38  C   UNL A   1      39.367  32.545  32.290  1.00  0.00     0.060 A 
ATOM     39  C   UNL A   1      40.165  31.898  33.246  1.00  0.00     0.016 A 
ATOM     40  C   UNL A   1      39.066  33.900  32.430  1.00  0.00     0.016 A 
ATOM     41  C   UNL A   1      40.622  32.593  34.368  1.00  0.00     0.010 A 
ATOM     42  C   UNL A   1      39.498  34.588  33.569  1.00  0.00     0.010 A 
ATOM     43  C   UNL A   1      40.241  33.926  34.564  1.00  0.00    -0.014 A 
BRANCH  43  44
ATOM     44  C   UNL A   1      40.384  34.541  35.908  1.00  0.00     0.031 A 
ATOM     45  C   UNL A   1      41.443  35.603  36.077  1.00  0.00     0.074 A 
ATOM     46  C   UNL A   1      39.598  34.195  36.944  1.00  0.00     0.049 A 
ATOM     47  N   UNL A   1      41.825  36.236  37.154  1.00  0.00    -0.248 NA
ATOM     48  C   UNL A   1      42.170  35.999  34.858  1.00  0.00     0.031 C 
ATOM     49  C   UNL A   1      38.501  33.229  36.890  1.00  0.00     0.029 A 
ATOM     50  N   UNL A   1      39.610  34.612  38.254  1.00  0.00    -0.354 N 
ATOM     51  C   UNL A   1      42.848  37.087  36.748  1.00  0.00     0.074 A 
ATOM     52  C   UNL A   1      43.039  36.877  35.331  1.00  0.00     0.031 C 
ATOM     53  C   UNL A   1      37.956  33.119  38.116  1.00  0.00     0.029 A 
ATOM     54  C   UNL A   1      38.693  33.968  39.052  1.00  0.00     0.049 A 
ATOM     55  H   UNL A   1      40.220  35.309  38.590  1.00  0.00     0.167 HD
ATOM     56  C   UNL A   1      43.563  37.963  37.493  1.00  0.00     0.034 A 
ATOM     57  C   UNL A   1      38.499  34.033  40.387  1.00  0.00     0.034 A 
ATOM     58  C   UNL A   1      43.358  38.166  38.904  1.00  0.00     0.049 A 
ATOM     59  C   UNL A   1      39.375  34.959  41.210  1.00  0.00     0.074 A 
ATOM     60  C   UNL A   1      44.005  39.054  39.746  1.00  0.00     0.029 A 
ATOM     61  N   UNL A   1      42.449  37.467  39.685  1.00  0.00    -0.354 N 
ATOM     62  N   UNL A   1      40.325  35.774  40.809  1.00  0.00    -0.248 NA
ATOM     63  C   UNL A   1      39.147  34.977  42.661  1.00  0.00     0.031 C 
ATOM     64  C   UNL A   1      43.550  38.830  41.048  1.00  0.00     0.029 A 
ATOM     65  C   UNL A   1      42.551  37.872  41.006  1.00  0.00     0.049 A 
ATOM     66  H   UNL A   1      41.824  36.784  39.349  1.00  0.00     0.167 HD
ATOM     67  C   UNL A   1      40.770  36.431  41.956  1.00  0.00     0.074 A 
ATOM     68  C   UNL A   1      39.977  35.930  43.057  1.00  0.00     0.031 C 
ATOM     69  C   UNL A   1      41.744  37.368  42.090  1.00  0.00     0.034 A 
BRANCH  56  70
ATOM     70  C   UNL A   1      44.677  38.720  36.815  1.00  0.00     0.023 A 
ATOM     71  C   UNL A   1      44.494  40.008  36.283  1.00  0.00     0.031 A 
ATOM     72  C   UNL A   1      45.955  38.141  36.719  1.00  0.00     0.131 A 
ATOM     73  C   UNL A   1      45.564  40.657  35.646  1.00  0.00     0.055 A 
ATOM     74  C   UNL A   1      47.031  38.819  36.148  1.00  0.00     0.041 A 
ATOM     75  F   UNL A   1      46.179  36.900  37.184  1.00  0.00    -0.206 F 
ATOM     76  C   UNL A   1      46.837  40.083  35.601  1.00  0.00     0.022 A 
BRANCH  73  77
ATOM     77  S   UNL A   1      45.246  42.224  34.789  1.00  0.00     0.124 S 
ATOM     78  O   UNL A   1      46.551  42.876  34.875  1.00  0.00    -0.237 OA
ATOM     79  O   UNL A   1      44.841  41.781  33.460  1.00  0.00    -0.237 OA
ATOM     80  O   UNL A   1      44.193  42.845  35.588  1.00  0.00    -0.744 OA
ENDBRANCH  73  77
ENDBRANCH  56  70
BRANCH  57  81
ATOM     81  C   UNL A   1      37.486  33.167  41.068  1.00  0.00     0.023 A 
ATOM     82  C   UNL A   1      36.164  33.606  41.258  1.00  0.00     0.031 A 
ATOM     83  C   UNL A   1      37.855  31.938  41.644  1.00  0.00     0.131 A 
ATOM     84  C   UNL A   1      35.288  32.866  42.069  1.00  0.00     0.055 A 
ATOM     85  C   UNL A   1      36.956  31.169  42.388  1.00  0.00     0.041 A 
ATOM     86  F   UNL A   1      39.106  31.471  41.508  1.00  0.00    -0.206 F 
ATOM     87  C   UNL A   1      35.670  31.643  42.622  1.00  0.00     0.022 A 
BRANCH  84  88
ATOM     88  S   UNL A   1      33.690  33.604  42.516  1.00  0.00     0.124 S 
ATOM     89  O   UNL A   1      33.262  34.173  41.244  1.00  0.00    -0.237 OA
ATOM     90  O   UNL A   1      32.942  32.442  42.984  1.00  0.00    -0.237 OA
ATOM     91  O   UNL A   1      34.043  34.575  43.550  1.00  0.00    -0.744 OA
ENDBRANCH  84  88
ENDBRANCH  57  81
BRANCH  69  92
ATOM     92  C   UNL A   1      41.955  37.961  43.464  1.00  0.00     0.023 A 
ATOM     93  C   UNL A   1      42.886  37.427  44.372  1.00  0.00     0.031 A 
ATOM     94  C   UNL A   1      41.209  39.084  43.867  1.00  0.00     0.131 A 
ATOM     95  C   UNL A   1      43.003  37.979  45.657  1.00  0.00     0.055 A 
ATOM     96  C   UNL A   1      41.380  39.671  45.120  1.00  0.00     0.041 A 
ATOM     97  F   UNL A   1      40.306  39.637  43.041  1.00  0.00    -0.206 F 
ATOM     98  C   UNL A   1      42.271  39.110  46.030  1.00  0.00     0.022 A 
BRANCH  95  99
ATOM     99  S   UNL A   1      44.056  37.141  46.873  1.00  0.00     0.124 S 
ATOM    100  O   UNL A   1      43.249  35.977  47.221  1.00  0.00    -0.237 OA
ATOM    101  O   UNL A   1      45.267  36.871  46.105  1.00  0.00    -0.237 OA
ATOM    102  O   UNL A   1      44.207  38.132  47.938  1.00  0.00    -0.744 OA
ENDBRANCH  95  99
ENDBRANCH  69  92
ENDBRANCH  43  44
ENDBRANCH  36  38
ENDBRANCH  35  36
ENDBRANCH  34  35
ENDBRANCH  33  34
ENDBRANCH  32  33
ENDBRANCH  31  32
ENDBRANCH  30  31
ENDBRANCH   1  30
TORSDOF 28
ENDMDL
MODEL 3
REMARK VINA RESULT:      -8.4      5.403     13.155
REMARK SMILES CCOc1cc(N2CCOCC2)ccc1[C@H]([NH3+])C(=O)OCCOCCOCCOCCOC(=O)c1ccc(-c2c3nc(c(-c4cc(S(=O)(=O)[O-])ccc4F)c4ccc([nH]4)c(-c4cc(S(=O)(=O)[O-])ccc4F)c4nc(c(-c5cc(S(=O)(=O)[O-])ccc5F)c5ccc2[nH]5)C=C4)C=C3)cc1
REMARK SMILES IDX 26 1 25 2 24 3 23 4 22 5 21 6 20 7 18 8 19 9 16 10 15 11
REMARK SMILES IDX 4 12 5 13 6 14 14 15 13 16 3 17 2 18 1 19 7 20 8 21 12 22
REMARK SMILES IDX 9 23 11 24 10 25 17 26 27 30 28 31 29 32 30 33 31 34 32 35
REMARK SMILES IDX 33 36 34 37 35 38 36 39 97 40 37 41 96 42 38 43 39 44 40 45
REMARK SMILES IDX 90 46 41 47 95 48 89 49 91 50 42 51 94 52 88 53 87 54 43 56
REMARK SMILES IDX 75 57 55 58 74 59 56 60 59 61 73 62 92 63 57 64 58 65 72 67
REMARK SMILES IDX 93 68 60 69 44 70 45 71 53 72 46 73 52 74 54 75 51 76 47 77
REMARK SMILES IDX 48 78 49 79 50 80 76 81 77 82 85 83 78 84 84 85 86 86 83 87
REMARK SMILES IDX 79 88 80 89 81 90 82 91 61 92 62 93 70 94 63 95 69 96 71 97
REMARK SMILES IDX 68 98 64 99 65 100 66 101 67 102
REMARK H PARENT 17 27 17 28 17 29 91 55 59 66
REMARK Flexibility Score: inf
ROOT
ATOM      1  O   UNL A   1      42.494  43.642  20.223  1.00  0.00    -0.377 OA
ENDROOT
BRANCH   1   2
ATOM      2  C   UNL A   1      43.668  43.906  19.477  1.00  0.00     0.188 C 
BRANCH   2   3
ATOM      3  C   UNL A   1      45.013  43.697  20.198  1.00  0.00     0.188 C 
BRANCH   3   4
ATOM      4  O   UNL A   1      46.159  44.070  19.443  1.00  0.00    -0.376 OA
BRANCH   4   5
ATOM      5  C   UNL A   1      47.438  44.047  20.057  1.00  0.00     0.202 C 
BRANCH   5   6
ATOM      6  C   UNL A   1      47.933  42.672  20.569  1.00  0.00     0.261 C 
BRANCH   6   7
ATOM      7  O   UNL A   1      47.929  42.456  21.989  1.00  0.00    -0.459 OA
BRANCH   7   8
ATOM      8  C   UNL A   1      46.875  41.738  22.448  1.00  0.00     0.369 C 
ATOM      9  O   UNL A   1      46.401  40.819  21.792  1.00  0.00    -0.245 OA
BRANCH   8  10
ATOM     10  C   UNL A   1      46.471  42.060  23.915  1.00  0.00     0.326 C 
BRANCH  10  11
ATOM     11  C   UNL A   1      46.301  40.838  24.804  1.00  0.00     0.063 A 
ATOM     12  C   UNL A   1      45.638  40.840  26.038  1.00  0.00     0.131 A 
ATOM     13  C   UNL A   1      46.059  39.952  27.025  1.00  0.00     0.072 A 
ATOM     14  C   UNL A   1      47.021  38.981  26.751  1.00  0.00     0.040 A 
ATOM     15  C   UNL A   1      46.966  39.660  24.438  1.00  0.00     0.016 A 
ATOM     16  C   UNL A   1      47.330  38.747  25.414  1.00  0.00     0.027 A 
BRANCH  12  17
ATOM     17  O   UNL A   1      44.839  41.845  26.485  1.00  0.00    -0.493 OA
BRANCH  17  18
ATOM     18  C   UNL A   1      45.295  42.673  27.563  1.00  0.00     0.226 C 
ATOM     19  C   UNL A   1      46.117  43.916  27.239  1.00  0.00     0.049 C 
ENDBRANCH  17  18
ENDBRANCH  12  17
BRANCH  14  20
ATOM     20  N   UNL A   1      47.716  38.363  27.758  1.00  0.00    -0.367 N 
ATOM     21  C   UNL A   1      47.175  38.266  29.118  1.00  0.00     0.145 C 
ATOM     22  C   UNL A   1      49.087  37.895  27.620  1.00  0.00     0.145 C 
ATOM     23  C   UNL A   1      48.093  39.058  30.055  1.00  0.00     0.181 C 
ATOM     24  C   UNL A   1      49.945  38.708  28.603  1.00  0.00     0.181 C 
ATOM     25  O   UNL A   1      49.460  38.610  29.959  1.00  0.00    -0.378 OA
ENDBRANCH  14  20
ENDBRANCH  10  11
BRANCH  10  26
ATOM     26  N   UNL A   1      45.257  42.934  23.931  1.00  0.00    -0.342 N 
ATOM     27  H   UNL A   1      44.884  42.981  24.879  1.00  0.00     0.345 HD
ATOM     28  H   UNL A   1      44.550  42.546  23.306  1.00  0.00     0.345 HD
ATOM     29  H   UNL A   1      45.509  43.871  23.618  1.00  0.00     0.345 HD
ENDBRANCH  10  26
ENDBRANCH   8  10
ENDBRANCH   7   8
ENDBRANCH   6   7
ENDBRANCH   5   6
ENDBRANCH   4   5
ENDBRANCH   3   4
ENDBRANCH   2   3
ENDBRANCH   1   2
BRANCH   1  30
ATOM     30  C   UNL A   1      42.510  42.558  21.160  1.00  0.00     0.188 C 
BRANCH  30  31
ATOM     31  C   UNL A   1      41.686  42.621  22.469  1.00  0.00     0.188 C 
BRANCH  31  32
ATOM     32  O   UNL A   1      41.883  41.514  23.333  1.00  0.00    -0.376 OA
BRANCH  32  33
ATOM     33  C   UNL A   1      42.131  41.793  24.701  1.00  0.00     0.202 C 
BRANCH  33  34
ATOM     34  C   UNL A   1      41.228  41.102  25.735  1.00  0.00     0.261 C 
BRANCH  34  35
ATOM     35  O   UNL A   1      41.701  39.862  26.297  1.00  0.00    -0.460 OA
BRANCH  35  36
ATOM     36  C   UNL A   1      42.168  39.853  27.566  1.00  0.00     0.338 C 
ATOM     37  O   UNL A   1      42.003  40.717  28.410  1.00  0.00    -0.246 OA
BRANCH  36  38
ATOM     38  C   UNL A   1      42.706  38.495  27.836  1.00  0.00     0.060 A 
ATOM     39  C   UNL A   1      42.578  37.496  26.858  1.00  0.00     0.016 A 
ATOM     40  C   UNL A   1      43.353  38.215  29.041  1.00  0.00     0.016 A 
ATOM     41  C   UNL A   1      43.052  36.206  27.102  1.00  0.00     0.010 A 
ATOM     42  C   UNL A   1      43.801  36.916  29.298  1.00  0.00     0.010 A 
ATOM     43  C   UNL A   1      43.613  35.895  28.347  1.00  0.00    -0.014 A 
BRANCH  43  44
ATOM     44  C   UNL A   1      43.755  34.473  28.754  1.00  0.00     0.031 A 
ATOM     45  C   UNL A   1      42.567  33.819  29.415  1.00  0.00     0.074 A 
ATOM     46  C   UNL A   1      44.882  33.772  28.533  1.00  0.00     0.049 A 
ATOM     47  N   UNL A   1      42.454  32.625  29.933  1.00  0.00    -0.248 NA
ATOM     48  C   UNL A   1      41.340  34.630  29.503  1.00  0.00     0.031 C 
ATOM     49  C   UNL A   1      46.073  34.274  27.849  1.00  0.00     0.029 A 
ATOM     50  N   UNL A   1      45.212  32.482  28.875  1.00  0.00    -0.354 N 
ATOM     51  C   UNL A   1      41.155  32.549  30.425  1.00  0.00     0.074 A 
ATOM     52  C   UNL A   1      40.524  33.823  30.161  1.00  0.00     0.031 C 
ATOM     53  C   UNL A   1      47.008  33.305  27.834  1.00  0.00     0.029 A 
ATOM     54  C   UNL A   1      46.503  32.133  28.549  1.00  0.00     0.049 A 
ATOM     55  H   UNL A   1      44.582  31.864  29.312  1.00  0.00     0.167 HD
ATOM     56  C   UNL A   1      40.545  31.510  31.044  1.00  0.00     0.034 A 
ATOM     57  C   UNL A   1      47.201  31.010  28.827  1.00  0.00     0.034 A 
ATOM     58  C   UNL A   1      41.183  30.244  31.296  1.00  0.00     0.049 A 
ATOM     59  C   UNL A   1      46.519  29.897  29.599  1.00  0.00     0.074 A 
ATOM     60  C   UNL A   1      40.644  29.114  31.886  1.00  0.00     0.029 A 
ATOM     61  N   UNL A   1      42.502  29.943  30.988  1.00  0.00    -0.354 N 
ATOM     62  N   UNL A   1      45.282  29.831  30.041  1.00  0.00    -0.248 NA
ATOM     63  C   UNL A   1      47.325  28.706  29.903  1.00  0.00     0.031 C 
ATOM     64  C   UNL A   1      41.659  28.163  32.013  1.00  0.00     0.029 A 
ATOM     65  C   UNL A   1      42.806  28.661  31.416  1.00  0.00     0.049 A 
ATOM     66  H   UNL A   1      43.129  30.551  30.532  1.00  0.00     0.167 HD
ATOM     67  C   UNL A   1      45.157  28.574  30.631  1.00  0.00     0.074 A 
ATOM     68  C   UNL A   1      46.434  27.912  30.477  1.00  0.00     0.031 C 
ATOM     69  C   UNL A   1      44.083  28.012  31.244  1.00  0.00     0.034 A 
BRANCH  56  70
ATOM     70  C   UNL A   1      39.140  31.718  31.551  1.00  0.00     0.023 A 
ATOM     71  C   UNL A   1      38.873  32.262  32.819  1.00  0.00     0.031 A 
ATOM     72  C   UNL A   1      38.047  31.379  30.733  1.00  0.00     0.131 A 
ATOM     73  C   UNL A   1      37.544  32.416  33.245  1.00  0.00     0.055 A 
ATOM     74  C   UNL A   1      36.730  31.600  31.135  1.00  0.00     0.041 A 
ATOM     75  F   UNL A   1      38.244  30.827  29.524  1.00  0.00    -0.206 F 
ATOM     76  C   UNL A   1      36.472  32.116  32.400  1.00  0.00     0.022 A 
BRANCH  73  77
ATOM     77  S   UNL A   1      37.231  32.924  34.958  1.00  0.00     0.124 S 
ATOM     78  O   UNL A   1      38.183  34.021  35.118  1.00  0.00    -0.237 OA
ATOM     79  O   UNL A   1      35.823  33.300  34.924  1.00  0.00    -0.237 OA
ATOM     80  O   UNL A   1      37.537  31.724  35.732  1.00  0.00    -0.744 OA
ENDBRANCH  73  77
ENDBRANCH  56  70
BRANCH  57  81
ATOM     81  C   UNL A   1      48.642  30.877  28.444  1.00  0.00     0.023 A 
ATOM     82  C   UNL A   1      49.024  30.182  27.284  1.00  0.00     0.031 A 
ATOM     83  C   UNL A   1      49.662  31.338  29.295  1.00  0.00     0.131 A 
ATOM     84  C   UNL A   1      50.380  29.899  27.050  1.00  0.00     0.055 A 
ATOM     85  C   UNL A   1      51.013  31.119  29.019  1.00  0.00     0.041 A 
ATOM     86  F   UNL A   1      49.360  31.997  30.426  1.00  0.00    -0.206 F 
ATOM     87  C   UNL A   1      51.378  30.376  27.900  1.00  0.00     0.022 A 
BRANCH  84  88
ATOM     88  S   UNL A   1      50.807  28.766  25.697  1.00  0.00     0.124 S 
ATOM     89  O   UNL A   1      51.258  29.694  24.666  1.00  0.00    -0.237 OA
ATOM     90  O   UNL A   1      51.839  27.937  26.311  1.00  0.00    -0.237 OA
ATOM     91  O   UNL A   1      49.546  28.083  25.415  1.00  0.00    -0.744 OA
ENDBRANCH  84  88
ENDBRANCH  57  81
BRANCH  69  92
ATOM     92  C   UNL A   1      44.224  26.588  31.728  1.00  0.00     0.023 A 
ATOM     93  C   UNL A   1      44.422  26.276  33.085  1.00  0.00     0.031 A 
ATOM     94  C   UNL A   1      44.156  25.523  30.810  1.00  0.00     0.131 A 
ATOM     95  C   UNL A   1      44.605  24.941  33.475  1.00  0.00     0.055 A 
ATOM     96  C   UNL A   1      44.268  24.193  31.214  1.00  0.00     0.041 A 
ATOM     97  F   UNL A   1      43.968  25.760  29.502  1.00  0.00    -0.206 F 
ATOM     98  C   UNL A   1      44.509  23.896  32.552  1.00  0.00     0.022 A 
BRANCH  95  99
ATOM     99  S   UNL A   1      45.067  24.591  35.194  1.00  0.00     0.124 S 
ATOM    100  O   UNL A   1      44.861  23.149  35.276  1.00  0.00    -0.237 OA
ATOM    101  O   UNL A   1      46.454  25.041  35.244  1.00  0.00    -0.237 OA
ATOM    102  O   UNL A   1      44.128  25.397  35.973  1.00  0.00    -0.744 OA
ENDBRANCH  95  99
ENDBRANCH  69  92
ENDBRANCH  43  44
ENDBRANCH  36  38
ENDBRANCH  35  36
ENDBRANCH  34  35
ENDBRANCH  33  34
ENDBRANCH  32  33
ENDBRANCH  31  32
ENDBRANCH  30  31
ENDBRANCH   1  30
TORSDOF 28
ENDMDL
