MODEL 1
REMARK VINA RESULT:     -10.2      0.000      0.000
REMARK SMILES CCOc1cc2c(cc1C(=O)OCCOCCOCCOCCOC(=O)c1ccc(-c3c4nc(c(-c5cc(S(=O)(=O)[O-])ccc5F)c5ccc([nH]5)c(-c5cc(S(=O)(=O)[O-])ccc5F)c5nc(c(-c6cc(S(=O)(=O)[O-])ccc6F)c6ccc3[nH]6)C=C5)C=C4)cc1)CCC2
REMARK SMILES IDX 19 1 18 2 17 3 16 4 15 5 14 6 13 7 12 8 10 9 11 10 9 11 4 12
REMARK SMILES IDX 5 13 6 14 8 15 7 16 92 17 90 18 91 19 3 20 2 21 1 22 20 23
REMARK SMILES IDX 21 24 22 25 23 26 24 27 25 28 26 29 27 30 28 31 89 32 29 33
REMARK SMILES IDX 88 34 30 35 31 36 32 37 82 38 33 39 87 40 81 41 83 42 34 43
REMARK SMILES IDX 86 44 80 45 79 46 35 48 67 49 47 50 66 51 48 52 51 53 65 54
REMARK SMILES IDX 84 55 49 56 50 57 64 59 85 60 52 61 36 62 37 63 45 64 38 65
REMARK SMILES IDX 44 66 46 67 43 68 39 69 40 70 41 71 42 72 68 73 69 74 77 75
REMARK SMILES IDX 70 76 76 77 78 78 75 79 71 80 72 81 73 82 74 83 53 84 54 85
REMARK SMILES IDX 62 86 55 87 61 88 63 89 60 90 56 91 57 92 58 93 59 94
REMARK H PARENT 83 47 51 58
REMARK Flexibility Score: inf
ROOT
ATOM      1  C   UNL A   1      35.595  21.561  25.666  1.00  0.00     0.188 C 
ENDROOT
BRANCH   1   2
ATOM      2  O   UNL A   1      34.854  20.758  24.753  1.00  0.00    -0.377 OA
BRANCH   2   3
ATOM      3  C   UNL A   1      33.525  20.361  25.063  1.00  0.00     0.188 C 
BRANCH   3   4
ATOM      4  C   UNL A   1      32.320  21.021  24.356  1.00  0.00     0.188 C 
BRANCH   4   5
ATOM      5  O   UNL A   1      32.329  22.435  24.376  1.00  0.00    -0.376 OA
BRANCH   5   6
ATOM      6  C   UNL A   1      31.729  23.153  23.314  1.00  0.00     0.202 C 
BRANCH   6   7
ATOM      7  C   UNL A   1      31.326  24.625  23.503  1.00  0.00     0.261 C 
BRANCH   7   8
ATOM      8  O   UNL A   1      31.332  25.437  22.324  1.00  0.00    -0.460 OA
BRANCH   8   9
ATOM      9  C   UNL A   1      32.368  26.291  22.185  1.00  0.00     0.342 C 
ATOM     10  O   UNL A   1      33.179  26.296  21.271  1.00  0.00    -0.246 OA
BRANCH   9  11
ATOM     11  C   UNL A   1      32.238  27.404  23.156  1.00  0.00     0.102 A 
ATOM     12  C   UNL A   1      31.235  28.394  23.088  1.00  0.00     0.134 A 
ATOM     13  C   UNL A   1      31.114  29.330  24.122  1.00  0.00     0.051 A 
ATOM     14  C   UNL A   1      32.044  29.323  25.147  1.00  0.00    -0.041 A 
ATOM     15  C   UNL A   1      33.204  27.442  24.180  1.00  0.00     0.023 A 
ATOM     16  C   UNL A   1      33.105  28.419  25.153  1.00  0.00    -0.044 A 
ATOM     17  C   UNL A   1      32.086  30.208  26.353  1.00  0.00     0.036 C 
ATOM     18  C   UNL A   1      34.014  28.686  26.309  1.00  0.00     0.036 C 
ATOM     19  C   UNL A   1      33.051  29.418  27.252  1.00  0.00     0.010 C 
BRANCH  12  20
ATOM     20  O   UNL A   1      30.305  28.384  22.083  1.00  0.00    -0.493 OA
BRANCH  20  21
ATOM     21  C   UNL A   1      29.083  29.067  22.428  1.00  0.00     0.226 C 
ATOM     22  C   UNL A   1      28.831  30.259  21.512  1.00  0.00     0.049 C 
ENDBRANCH  20  21
ENDBRANCH  12  20
ENDBRANCH   9  11
ENDBRANCH   8   9
ENDBRANCH   7   8
ENDBRANCH   6   7
ENDBRANCH   5   6
ENDBRANCH   4   5
ENDBRANCH   3   4
ENDBRANCH   2   3
ENDBRANCH   1   2
BRANCH   1  23
ATOM     23  C   UNL A   1      37.130  21.701  25.536  1.00  0.00     0.188 C 
BRANCH  23  24
ATOM     24  O   UNL A   1      37.720  20.839  24.576  1.00  0.00    -0.376 OA
BRANCH  24  25
ATOM     25  C   UNL A   1      37.899  19.483  24.943  1.00  0.00     0.202 C 
BRANCH  25  26
ATOM     26  C   UNL A   1      39.079  19.150  25.868  1.00  0.00     0.261 C 
BRANCH  26  27
ATOM     27  O   UNL A   1      40.359  19.675  25.487  1.00  0.00    -0.460 OA
BRANCH  27  28
ATOM     28  C   UNL A   1      41.289  19.804  26.464  1.00  0.00     0.338 C 
ATOM     29  O   UNL A   1      42.044  18.947  26.867  1.00  0.00    -0.246 OA
BRANCH  28  30
ATOM     30  C   UNL A   1      41.352  21.240  26.820  1.00  0.00     0.060 A 
ATOM     31  C   UNL A   1      40.867  22.193  25.913  1.00  0.00     0.016 A 
ATOM     32  C   UNL A   1      41.872  21.637  28.054  1.00  0.00     0.016 A 
ATOM     33  C   UNL A   1      40.930  23.552  26.230  1.00  0.00     0.010 A 
ATOM     34  C   UNL A   1      41.954  22.998  28.359  1.00  0.00     0.010 A 
ATOM     35  C   UNL A   1      41.512  23.964  27.435  1.00  0.00    -0.014 A 
BRANCH  35  36
ATOM     36  C   UNL A   1      41.847  25.395  27.645  1.00  0.00     0.031 A 
ATOM     37  C   UNL A   1      43.150  25.907  27.092  1.00  0.00     0.074 A 
ATOM     38  C   UNL A   1      41.011  26.226  28.295  1.00  0.00     0.049 A 
ATOM     39  N   UNL A   1      43.693  27.091  27.198  1.00  0.00    -0.248 NA
ATOM     40  C   UNL A   1      43.950  24.944  26.318  1.00  0.00     0.031 C 
ATOM     41  C   UNL A   1      39.699  25.861  28.824  1.00  0.00     0.029 A 
ATOM     42  N   UNL A   1      41.149  27.553  28.623  1.00  0.00    -0.354 N 
ATOM     43  C   UNL A   1      44.904  27.013  26.517  1.00  0.00     0.074 A 
ATOM     44  C   UNL A   1      45.027  25.657  26.031  1.00  0.00     0.031 C 
ATOM     45  C   UNL A   1      39.154  26.939  29.416  1.00  0.00     0.029 A 
ATOM     46  C   UNL A   1      40.095  28.056  29.350  1.00  0.00     0.049 A 
ATOM     47  H   UNL A   1      41.930  28.094  28.362  1.00  0.00     0.167 HD
ATOM     48  C   UNL A   1      45.824  27.987  26.313  1.00  0.00     0.034 A 
ATOM     49  C   UNL A   1      39.926  29.269  29.917  1.00  0.00     0.034 A 
ATOM     50  C   UNL A   1      45.687  29.333  26.812  1.00  0.00     0.049 A 
ATOM     51  C   UNL A   1      41.015  30.309  29.761  1.00  0.00     0.074 A 
ATOM     52  C   UNL A   1      46.547  30.404  26.643  1.00  0.00     0.029 A 
ATOM     53  N   UNL A   1      44.634  29.790  27.593  1.00  0.00    -0.354 N 
ATOM     54  N   UNL A   1      42.150  30.229  29.102  1.00  0.00    -0.248 NA
ATOM     55  C   UNL A   1      40.797  31.603  30.421  1.00  0.00     0.031 C 
ATOM     56  C   UNL A   1      46.063  31.478  27.395  1.00  0.00     0.029 A 
ATOM     57  C   UNL A   1      44.846  31.113  27.951  1.00  0.00     0.049 A 
ATOM     58  H   UNL A   1      43.851  29.254  27.854  1.00  0.00     0.167 HD
ATOM     59  C   UNL A   1      42.756  31.478  29.236  1.00  0.00     0.074 A 
ATOM     60  C   UNL A   1      41.857  32.292  30.026  1.00  0.00     0.031 C 
ATOM     61  C   UNL A   1      43.944  31.915  28.744  1.00  0.00     0.034 A 
BRANCH  48  62
ATOM     62  C   UNL A   1      47.086  27.611  25.573  1.00  0.00     0.023 A 
ATOM     63  C   UNL A   1      47.265  27.892  24.208  1.00  0.00     0.031 A 
ATOM     64  C   UNL A   1      48.122  26.939  26.248  1.00  0.00     0.131 A 
ATOM     65  C   UNL A   1      48.419  27.446  23.546  1.00  0.00     0.055 A 
ATOM     66  C   UNL A   1      49.305  26.572  25.603  1.00  0.00     0.041 A 
ATOM     67  F   UNL A   1      47.997  26.617  27.544  1.00  0.00    -0.206 F 
ATOM     68  C   UNL A   1      49.453  26.814  24.241  1.00  0.00     0.022 A 
BRANCH  65  69
ATOM     69  S   UNL A   1      48.488  27.574  21.738  1.00  0.00     0.124 S 
ATOM     70  O   UNL A   1      48.684  26.179  21.351  1.00  0.00    -0.237 OA
ATOM     71  O   UNL A   1      47.189  28.152  21.413  1.00  0.00    -0.237 OA
ATOM     72  O   UNL A   1      49.637  28.446  21.500  1.00  0.00    -0.744 OA
ENDBRANCH  65  69
ENDBRANCH  48  62
BRANCH  49  73
ATOM     73  C   UNL A   1      38.706  29.574  30.724  1.00  0.00     0.023 A 
ATOM     74  C   UNL A   1      37.720  30.450  30.242  1.00  0.00     0.031 A 
ATOM     75  C   UNL A   1      38.548  29.059  32.023  1.00  0.00     0.131 A 
ATOM     76  C   UNL A   1      36.654  30.831  31.073  1.00  0.00     0.055 A 
ATOM     77  C   UNL A   1      37.451  29.389  32.821  1.00  0.00     0.041 A 
ATOM     78  F   UNL A   1      39.465  28.224  32.540  1.00  0.00    -0.206 F 
ATOM     79  C   UNL A   1      36.504  30.294  32.354  1.00  0.00     0.022 A 
BRANCH  76  80
ATOM     80  S   UNL A   1      35.527  32.132  30.498  1.00  0.00     0.124 S 
ATOM     81  O   UNL A   1      36.439  33.257  30.327  1.00  0.00    -0.237 OA
ATOM     82  O   UNL A   1      34.992  31.548  29.273  1.00  0.00    -0.237 OA
ATOM     83  O   UNL A   1      34.571  32.262  31.595  1.00  0.00    -0.744 OA
ENDBRANCH  76  80
ENDBRANCH  49  73
BRANCH  61  84
ATOM     84  C   UNL A   1      44.311  33.360  28.997  1.00  0.00     0.023 A 
ATOM     85  C   UNL A   1      43.652  34.422  28.354  1.00  0.00     0.031 A 
ATOM     86  C   UNL A   1      45.346  33.676  29.896  1.00  0.00     0.131 A 
ATOM     87  C   UNL A   1      44.072  35.742  28.573  1.00  0.00     0.055 A 
ATOM     88  C   UNL A   1      45.713  34.995  30.164  1.00  0.00     0.041 A 
ATOM     89  F   UNL A   1      46.017  32.705  30.536  1.00  0.00    -0.206 F 
ATOM     90  C   UNL A   1      45.084  36.037  29.490  1.00  0.00     0.022 A 
BRANCH  87  91
ATOM     91  S   UNL A   1      43.352  37.066  27.563  1.00  0.00     0.124 S 
ATOM     92  O   UNL A   1      44.413  38.068  27.575  1.00  0.00    -0.237 OA
ATOM     93  O   UNL A   1      43.122  36.396  26.288  1.00  0.00    -0.237 OA
ATOM     94  O   UNL A   1      42.141  37.436  28.295  1.00  0.00    -0.744 OA
ENDBRANCH  87  91
ENDBRANCH  61  84
ENDBRANCH  35  36
ENDBRANCH  28  30
ENDBRANCH  27  28
ENDBRANCH  26  27
ENDBRANCH  25  26
ENDBRANCH  24  25
ENDBRANCH  23  24
ENDBRANCH   1  23
TORSDOF 25
ENDMDL
MODEL 2
REMARK VINA RESULT:      -9.4      2.068      2.845
REMARK SMILES CCOc1cc2c(cc1C(=O)OCCOCCOCCOCCOC(=O)c1ccc(-c3c4nc(c(-c5cc(S(=O)(=O)[O-])ccc5F)c5ccc([nH]5)c(-c5cc(S(=O)(=O)[O-])ccc5F)c5nc(c(-c6cc(S(=O)(=O)[O-])ccc6F)c6ccc3[nH]6)C=C5)C=C4)cc1)CCC2
REMARK SMILES IDX 19 1 18 2 17 3 16 4 15 5 14 6 13 7 12 8 10 9 11 10 9 11 4 12
REMARK SMILES IDX 5 13 6 14 8 15 7 16 92 17 90 18 91 19 3 20 2 21 1 22 20 23
REMARK SMILES IDX 21 24 22 25 23 26 24 27 25 28 26 29 27 30 28 31 89 32 29 33
REMARK SMILES IDX 88 34 30 35 31 36 32 37 82 38 33 39 87 40 81 41 83 42 34 43
REMARK SMILES IDX 86 44 80 45 79 46 35 48 67 49 47 50 66 51 48 52 51 53 65 54
REMARK SMILES IDX 84 55 49 56 50 57 64 59 85 60 52 61 36 62 37 63 45 64 38 65
REMARK SMILES IDX 44 66 46 67 43 68 39 69 40 70 41 71 42 72 68 73 69 74 77 75
REMARK SMILES IDX 70 76 76 77 78 78 75 79 71 80 72 81 73 82 74 83 53 84 54 85
REMARK SMILES IDX 62 86 55 87 61 88 63 89 60 90 56 91 57 92 58 93 59 94
REMARK H PARENT 83 47 51 58
REMARK Flexibility Score: inf
ROOT
ATOM      1  C   UNL A   1      35.786  21.523  25.756  1.00  0.00     0.188 C 
ENDROOT
BRANCH   1   2
ATOM      2  O   UNL A   1      35.064  20.634  24.909  1.00  0.00    -0.377 OA
BRANCH   2   3
ATOM      3  C   UNL A   1      33.683  20.389  25.139  1.00  0.00     0.188 C 
BRANCH   3   4
ATOM      4  C   UNL A   1      32.606  21.070  24.263  1.00  0.00     0.188 C 
BRANCH   4   5
ATOM      5  O   UNL A   1      32.542  22.476  24.397  1.00  0.00    -0.376 OA
BRANCH   5   6
ATOM      6  C   UNL A   1      32.740  23.295  23.260  1.00  0.00     0.202 C 
BRANCH   6   7
ATOM      7  C   UNL A   1      31.919  24.583  23.080  1.00  0.00     0.261 C 
BRANCH   7   8
ATOM      8  O   UNL A   1      31.923  25.493  24.185  1.00  0.00    -0.460 OA
BRANCH   8   9
ATOM      9  C   UNL A   1      30.722  25.807  24.714  1.00  0.00     0.342 C 
ATOM     10  O   UNL A   1      30.120  25.168  25.563  1.00  0.00    -0.246 OA
BRANCH   9  11
ATOM     11  C   UNL A   1      30.342  27.186  24.320  1.00  0.00     0.102 A 
ATOM     12  C   UNL A   1      31.124  28.326  24.598  1.00  0.00     0.134 A 
ATOM     13  C   UNL A   1      30.747  29.569  24.074  1.00  0.00     0.051 A 
ATOM     14  C   UNL A   1      29.559  29.670  23.370  1.00  0.00    -0.041 A 
ATOM     15  C   UNL A   1      29.113  27.315  23.644  1.00  0.00     0.023 A 
ATOM     16  C   UNL A   1      28.728  28.564  23.196  1.00  0.00    -0.044 A 
ATOM     17  C   UNL A   1      28.987  30.883  22.707  1.00  0.00     0.036 C 
ATOM     18  C   UNL A   1      27.471  28.961  22.491  1.00  0.00     0.036 C 
ATOM     19  C   UNL A   1      27.945  30.236  21.781  1.00  0.00     0.010 C 
BRANCH  12  20
ATOM     20  O   UNL A   1      32.308  28.218  25.278  1.00  0.00    -0.493 OA
BRANCH  20  21
ATOM     21  C   UNL A   1      33.375  28.989  24.692  1.00  0.00     0.226 C 
ATOM     22  C   UNL A   1      34.021  28.254  23.523  1.00  0.00     0.049 C 
ENDBRANCH  20  21
ENDBRANCH  12  20
ENDBRANCH   9  11
ENDBRANCH   8   9
ENDBRANCH   7   8
ENDBRANCH   6   7
ENDBRANCH   5   6
ENDBRANCH   4   5
ENDBRANCH   3   4
ENDBRANCH   2   3
ENDBRANCH   1   2
BRANCH   1  23
ATOM     23  C   UNL A   1      37.303  21.750  25.559  1.00  0.00     0.188 C 
BRANCH  23  24
ATOM     24  O   UNL A   1      37.896  20.935  24.561  1.00  0.00    -0.376 OA
BRANCH  24  25
ATOM     25  C   UNL A   1      38.119  19.574  24.882  1.00  0.00     0.202 C 
BRANCH  25  26
ATOM     26  C   UNL A   1      39.232  19.258  25.893  1.00  0.00     0.261 C 
BRANCH  26  27
ATOM     27  O   UNL A   1      40.565  19.630  25.513  1.00  0.00    -0.460 OA
BRANCH  27  28
ATOM     28  C   UNL A   1      41.469  19.790  26.510  1.00  0.00     0.338 C 
ATOM     29  O   UNL A   1      42.198  18.942  26.975  1.00  0.00    -0.246 OA
BRANCH  28  30
ATOM     30  C   UNL A   1      41.544  21.240  26.802  1.00  0.00     0.060 A 
ATOM     31  C   UNL A   1      41.420  22.158  25.750  1.00  0.00     0.016 A 
ATOM     32  C   UNL A   1      41.718  21.686  28.113  1.00  0.00     0.016 A 
ATOM     33  C   UNL A   1      41.500  23.529  26.007  1.00  0.00     0.010 A 
ATOM     34  C   UNL A   1      41.821  23.057  28.365  1.00  0.00     0.010 A 
ATOM     35  C   UNL A   1      41.744  23.984  27.309  1.00  0.00    -0.014 A 
BRANCH  35  36
ATOM     36  C   UNL A   1      42.120  25.401  27.540  1.00  0.00     0.031 A 
ATOM     37  C   UNL A   1      43.458  25.871  27.036  1.00  0.00     0.074 A 
ATOM     38  C   UNL A   1      41.292  26.257  28.168  1.00  0.00     0.049 A 
ATOM     39  N   UNL A   1      44.037  27.034  27.168  1.00  0.00    -0.248 NA
ATOM     40  C   UNL A   1      44.250  24.885  26.282  1.00  0.00     0.031 C 
ATOM     41  C   UNL A   1      39.950  25.935  28.649  1.00  0.00     0.029 A 
ATOM     42  N   UNL A   1      41.464  27.576  28.509  1.00  0.00    -0.354 N 
ATOM     43  C   UNL A   1      45.267  26.918  26.527  1.00  0.00     0.074 A 
ATOM     44  C   UNL A   1      45.361  25.562  26.037  1.00  0.00     0.031 C 
ATOM     45  C   UNL A   1      39.423  27.027  29.230  1.00  0.00     0.029 A 
ATOM     46  C   UNL A   1      40.404  28.111  29.204  1.00  0.00     0.049 A 
ATOM     47  H   UNL A   1      42.271  28.091  28.279  1.00  0.00     0.167 HD
ATOM     48  C   UNL A   1      46.227  27.861  26.362  1.00  0.00     0.034 A 
ATOM     49  C   UNL A   1      40.258  29.326  29.774  1.00  0.00     0.034 A 
ATOM     50  C   UNL A   1      46.120  29.209  26.865  1.00  0.00     0.049 A 
ATOM     51  C   UNL A   1      41.386  30.328  29.661  1.00  0.00     0.074 A 
ATOM     52  C   UNL A   1      47.021  30.250  26.733  1.00  0.00     0.029 A 
ATOM     53  N   UNL A   1      45.057  29.697  27.614  1.00  0.00    -0.354 N 
ATOM     54  N   UNL A   1      42.539  30.213  29.041  1.00  0.00    -0.248 NA
ATOM     55  C   UNL A   1      41.190  31.625  30.322  1.00  0.00     0.031 C 
ATOM     56  C   UNL A   1      46.549  31.336  27.475  1.00  0.00     0.029 A 
ATOM     57  C   UNL A   1      45.302  31.010  27.988  1.00  0.00     0.049 A 
ATOM     58  H   UNL A   1      44.247  29.187  27.845  1.00  0.00     0.167 HD
ATOM     59  C   UNL A   1      43.183  31.439  29.204  1.00  0.00     0.074 A 
ATOM     60  C   UNL A   1      42.286  32.279  29.969  1.00  0.00     0.031 C 
ATOM     61  C   UNL A   1      44.401  31.838  28.756  1.00  0.00     0.034 A 
BRANCH  48  62
ATOM     62  C   UNL A   1      47.499  27.446  25.662  1.00  0.00     0.023 A 
ATOM     63  C   UNL A   1      48.605  26.933  26.362  1.00  0.00     0.031 A 
ATOM     64  C   UNL A   1      47.611  27.587  24.267  1.00  0.00     0.131 A 
ATOM     65  C   UNL A   1      49.794  26.642  25.676  1.00  0.00     0.055 A 
ATOM     66  C   UNL A   1      48.768  27.216  23.579  1.00  0.00     0.041 A 
ATOM     67  F   UNL A   1      46.600  28.098  23.548  1.00  0.00    -0.206 F 
ATOM     68  C   UNL A   1      49.873  26.753  24.286  1.00  0.00     0.022 A 
BRANCH  65  69
ATOM     69  S   UNL A   1      51.281  26.256  26.641  1.00  0.00     0.124 S 
ATOM     70  O   UNL A   1      51.199  27.241  27.717  1.00  0.00    -0.237 OA
ATOM     71  O   UNL A   1      51.055  24.868  27.026  1.00  0.00    -0.237 OA
ATOM     72  O   UNL A   1      52.371  26.472  25.691  1.00  0.00    -0.744 OA
ENDBRANCH  65  69
ENDBRANCH  48  62
BRANCH  49  73
ATOM     73  C   UNL A   1      39.022  29.668  30.540  1.00  0.00     0.023 A 
ATOM     74  C   UNL A   1      38.120  30.634  30.067  1.00  0.00     0.031 A 
ATOM     75  C   UNL A   1      38.767  29.093  31.799  1.00  0.00     0.131 A 
ATOM     76  C   UNL A   1      37.041  31.041  30.870  1.00  0.00     0.055 A 
ATOM     77  C   UNL A   1      37.656  29.453  32.564  1.00  0.00     0.041 A 
ATOM     78  F   UNL A   1      39.600  28.171  32.307  1.00  0.00    -0.206 F 
ATOM     79  C   UNL A   1      36.795  30.445  32.109  1.00  0.00     0.022 A 
BRANCH  76  80
ATOM     80  S   UNL A   1      36.033  32.445  30.322  1.00  0.00     0.124 S 
ATOM     81  O   UNL A   1      36.253  32.423  28.880  1.00  0.00    -0.237 OA
ATOM     82  O   UNL A   1      34.702  32.056  30.774  1.00  0.00    -0.237 OA
ATOM     83  O   UNL A   1      36.621  33.582  31.026  1.00  0.00    -0.744 OA
ENDBRANCH  76  80
ENDBRANCH  49  73
BRANCH  61  84
ATOM     84  C   UNL A   1      44.809  33.268  29.030  1.00  0.00     0.023 A 
ATOM     85  C   UNL A   1      45.533  33.631  30.179  1.00  0.00     0.031 A 
ATOM     86  C   UNL A   1      44.461  34.285  28.123  1.00  0.00     0.131 A 
ATOM     87  C   UNL A   1      45.832  34.980  30.420  1.00  0.00     0.055 A 
ATOM     88  C   UNL A   1      44.824  35.616  28.333  1.00  0.00     0.041 A 
ATOM     89  F   UNL A   1      43.765  34.001  27.010  1.00  0.00    -0.206 F 
ATOM     90  C   UNL A   1      45.501  35.972  29.495  1.00  0.00     0.022 A 
BRANCH  87  91
ATOM     91  S   UNL A   1      46.568  35.439  32.014  1.00  0.00     0.124 S 
ATOM     92  O   UNL A   1      47.996  35.359  31.724  1.00  0.00    -0.237 OA
ATOM     93  O   UNL A   1      46.036  36.780  32.229  1.00  0.00    -0.237 OA
ATOM     94  O   UNL A   1      46.063  34.419  32.932  1.00  0.00    -0.744 OA
ENDBRANCH  87  91
ENDBRANCH  61  84
ENDBRANCH  35  36
ENDBRANCH  28  30
ENDBRANCH  27  28
ENDBRANCH  26  27
ENDBRANCH  25  26
ENDBRANCH  24  25
ENDBRANCH  23  24
ENDBRANCH   1  23
TORSDOF 25
ENDMDL
MODEL 3
REMARK VINA RESULT:      -9.3      3.227      5.414
REMARK SMILES CCOc1cc2c(cc1C(=O)OCCOCCOCCOCCOC(=O)c1ccc(-c3c4nc(c(-c5cc(S(=O)(=O)[O-])ccc5F)c5ccc([nH]5)c(-c5cc(S(=O)(=O)[O-])ccc5F)c5nc(c(-c6cc(S(=O)(=O)[O-])ccc6F)c6ccc3[nH]6)C=C5)C=C4)cc1)CCC2
REMARK SMILES IDX 19 1 18 2 17 3 16 4 15 5 14 6 13 7 12 8 10 9 11 10 9 11 4 12
REMARK SMILES IDX 5 13 6 14 8 15 7 16 92 17 90 18 91 19 3 20 2 21 1 22 20 23
REMARK SMILES IDX 21 24 22 25 23 26 24 27 25 28 26 29 27 30 28 31 89 32 29 33
REMARK SMILES IDX 88 34 30 35 31 36 32 37 82 38 33 39 87 40 81 41 83 42 34 43
REMARK SMILES IDX 86 44 80 45 79 46 35 48 67 49 47 50 66 51 48 52 51 53 65 54
REMARK SMILES IDX 84 55 49 56 50 57 64 59 85 60 52 61 36 62 37 63 45 64 38 65
REMARK SMILES IDX 44 66 46 67 43 68 39 69 40 70 41 71 42 72 68 73 69 74 77 75
REMARK SMILES IDX 70 76 76 77 78 78 75 79 71 80 72 81 73 82 74 83 53 84 54 85
REMARK SMILES IDX 62 86 55 87 61 88 63 89 60 90 56 91 57 92 58 93 59 94
REMARK H PARENT 83 47 51 58
REMARK Flexibility Score: inf
ROOT
ATOM      1  C   UNL A   1      40.937  20.269  26.319  1.00  0.00     0.188 C 
ENDROOT
BRANCH   1   2
ATOM      2  O   UNL A   1      41.261  21.581  26.769  1.00  0.00    -0.377 OA
BRANCH   2   3
ATOM      3  C   UNL A   1      40.245  22.433  27.280  1.00  0.00     0.188 C 
BRANCH   3   4
ATOM      4  C   UNL A   1      39.996  23.825  26.655  1.00  0.00     0.188 C 
BRANCH   4   5
ATOM      5  O   UNL A   1      38.654  24.266  26.716  1.00  0.00    -0.376 OA
BRANCH   5   6
ATOM      6  C   UNL A   1      37.713  23.770  25.782  1.00  0.00     0.202 C 
BRANCH   6   7
ATOM      7  C   UNL A   1      36.254  23.530  26.203  1.00  0.00     0.261 C 
BRANCH   7   8
ATOM      8  O   UNL A   1      35.496  22.642  25.375  1.00  0.00    -0.460 OA
BRANCH   8   9
ATOM      9  C   UNL A   1      34.178  22.538  25.648  1.00  0.00     0.342 C 
ATOM     10  O   UNL A   1      33.512  23.335  26.291  1.00  0.00    -0.246 OA
BRANCH   9  11
ATOM     11  C   UNL A   1      33.578  21.456  24.832  1.00  0.00     0.102 A 
ATOM     12  C   UNL A   1      32.676  21.679  23.771  1.00  0.00     0.134 A 
ATOM     13  C   UNL A   1      32.263  20.602  22.976  1.00  0.00     0.051 A 
ATOM     14  C   UNL A   1      32.674  19.323  23.308  1.00  0.00    -0.041 A 
ATOM     15  C   UNL A   1      33.948  20.143  25.185  1.00  0.00     0.023 A 
ATOM     16  C   UNL A   1      33.471  19.090  24.427  1.00  0.00    -0.044 A 
ATOM     17  C   UNL A   1      32.376  18.048  22.585  1.00  0.00     0.036 C 
ATOM     18  C   UNL A   1      33.690  17.623  24.617  1.00  0.00     0.036 C 
ATOM     19  C   UNL A   1      33.444  17.122  23.188  1.00  0.00     0.010 C 
BRANCH  12  20
ATOM     20  O   UNL A   1      32.287  22.947  23.434  1.00  0.00    -0.493 OA
BRANCH  20  21
ATOM     21  C   UNL A   1      33.067  23.519  22.365  1.00  0.00     0.226 C 
ATOM     22  C   UNL A   1      33.665  24.863  22.765  1.00  0.00     0.049 C 
ENDBRANCH  20  21
ENDBRANCH  12  20
ENDBRANCH   9  11
ENDBRANCH   8   9
ENDBRANCH   7   8
ENDBRANCH   6   7
ENDBRANCH   5   6
ENDBRANCH   4   5
ENDBRANCH   3   4
ENDBRANCH   2   3
ENDBRANCH   1   2
BRANCH   1  23
ATOM     23  C   UNL A   1      42.041  19.203  26.121  1.00  0.00     0.188 C 
BRANCH  23  24
ATOM     24  O   UNL A   1      42.856  19.405  24.978  1.00  0.00    -0.376 OA
BRANCH  24  25
ATOM     25  C   UNL A   1      44.259  19.362  25.165  1.00  0.00     0.202 C 
BRANCH  25  26
ATOM     26  C   UNL A   1      45.011  20.701  25.187  1.00  0.00     0.261 C 
BRANCH  26  27
ATOM     27  O   UNL A   1      44.288  21.832  25.694  1.00  0.00    -0.460 OA
BRANCH  27  28
ATOM     28  C   UNL A   1      43.888  22.764  24.794  1.00  0.00     0.338 C 
ATOM     29  O   UNL A   1      43.638  22.583  23.623  1.00  0.00    -0.246 OA
BRANCH  28  30
ATOM     30  C   UNL A   1      43.624  24.012  25.547  1.00  0.00     0.060 A 
ATOM     31  C   UNL A   1      43.158  25.141  24.859  1.00  0.00     0.016 A 
ATOM     32  C   UNL A   1      43.822  24.056  26.928  1.00  0.00     0.016 A 
ATOM     33  C   UNL A   1      42.916  26.329  25.552  1.00  0.00     0.010 A 
ATOM     34  C   UNL A   1      43.601  25.252  27.616  1.00  0.00     0.010 A 
ATOM     35  C   UNL A   1      43.177  26.404  26.926  1.00  0.00    -0.014 A 
BRANCH  35  36
ATOM     36  C   UNL A   1      43.204  27.724  27.604  1.00  0.00     0.031 A 
ATOM     37  C   UNL A   1      44.535  28.410  27.767  1.00  0.00     0.074 A 
ATOM     38  C   UNL A   1      42.079  28.310  28.052  1.00  0.00     0.049 A 
ATOM     39  N   UNL A   1      44.827  29.528  28.375  1.00  0.00    -0.248 NA
ATOM     40  C   UNL A   1      45.693  27.732  27.162  1.00  0.00     0.031 C 
ATOM     41  C   UNL A   1      40.728  27.772  27.902  1.00  0.00     0.029 A 
ATOM     42  N   UNL A   1      41.896  29.491  28.729  1.00  0.00    -0.354 N 
ATOM     43  C   UNL A   1      46.203  29.684  28.239  1.00  0.00     0.074 A 
ATOM     44  C   UNL A   1      46.688  28.527  27.519  1.00  0.00     0.031 C 
ATOM     45  C   UNL A   1      39.856  28.619  28.476  1.00  0.00     0.029 A 
ATOM     46  C   UNL A   1      40.587  29.735  29.075  1.00  0.00     0.049 A 
ATOM     47  H   UNL A   1      42.634  30.106  28.948  1.00  0.00     0.167 HD
ATOM     48  C   UNL A   1      46.987  30.701  28.672  1.00  0.00     0.034 A 
ATOM     49  C   UNL A   1      40.050  30.729  29.813  1.00  0.00     0.034 A 
ATOM     50  C   UNL A   1      46.486  31.844  29.395  1.00  0.00     0.049 A 
ATOM     51  C   UNL A   1      40.961  31.801  30.371  1.00  0.00     0.074 A 
ATOM     52  C   UNL A   1      47.188  32.943  29.859  1.00  0.00     0.029 A 
ATOM     53  N   UNL A   1      45.163  32.028  29.778  1.00  0.00    -0.354 N 
ATOM     54  N   UNL A   1      42.259  31.946  30.224  1.00  0.00    -0.248 NA
ATOM     55  C   UNL A   1      40.332  32.846  31.191  1.00  0.00     0.031 C 
ATOM     56  C   UNL A   1      46.311  33.743  30.598  1.00  0.00     0.029 A 
ATOM     57  C   UNL A   1      45.039  33.199  30.510  1.00  0.00     0.049 A 
ATOM     58  H   UNL A   1      44.423  31.418  29.560  1.00  0.00     0.167 HD
ATOM     59  C   UNL A   1      42.590  33.121  30.898  1.00  0.00     0.074 A 
ATOM     60  C   UNL A   1      41.355  33.649  31.440  1.00  0.00     0.031 C 
ATOM     61  C   UNL A   1      43.802  33.714  31.050  1.00  0.00     0.034 A 
BRANCH  48  62
ATOM     62  C   UNL A   1      48.473  30.589  28.430  1.00  0.00     0.023 A 
ATOM     63  C   UNL A   1      49.311  29.823  29.258  1.00  0.00     0.031 A 
ATOM     64  C   UNL A   1      49.064  31.281  27.356  1.00  0.00     0.131 A 
ATOM     65  C   UNL A   1      50.697  29.820  29.042  1.00  0.00     0.055 A 
ATOM     66  C   UNL A   1      50.433  31.207  27.095  1.00  0.00     0.041 A 
ATOM     67  F   UNL A   1      48.320  32.053  26.548  1.00  0.00    -0.206 F 
ATOM     68  C   UNL A   1      51.260  30.483  27.949  1.00  0.00     0.022 A 
BRANCH  65  69
ATOM     69  S   UNL A   1      51.769  29.058  30.290  1.00  0.00     0.124 S 
ATOM     70  O   UNL A   1      53.068  29.085  29.621  1.00  0.00    -0.237 OA
ATOM     71  O   UNL A   1      51.617  29.957  31.428  1.00  0.00    -0.237 OA
ATOM     72  O   UNL A   1      51.196  27.724  30.466  1.00  0.00    -0.744 OA
ENDBRANCH  65  69
ENDBRANCH  48  62
BRANCH  49  73
ATOM     73  C   UNL A   1      38.586  30.755  30.112  1.00  0.00     0.023 A 
ATOM     74  C   UNL A   1      37.711  31.567  29.373  1.00  0.00     0.031 A 
ATOM     75  C   UNL A   1      38.055  30.033  31.195  1.00  0.00     0.131 A 
ATOM     76  C   UNL A   1      36.366  31.683  29.762  1.00  0.00     0.055 A 
ATOM     77  C   UNL A   1      36.703  30.101  31.537  1.00  0.00     0.041 A 
ATOM     78  F   UNL A   1      38.847  29.248  31.943  1.00  0.00    -0.206 F 
ATOM     79  C   UNL A   1      35.853  30.943  30.829  1.00  0.00     0.022 A 
BRANCH  76  80
ATOM     80  S   UNL A   1      35.323  32.909  28.923  1.00  0.00     0.124 S 
ATOM     81  O   UNL A   1      35.241  32.355  27.577  1.00  0.00    -0.237 OA
ATOM     82  O   UNL A   1      34.100  32.857  29.715  1.00  0.00    -0.237 OA
ATOM     83  O   UNL A   1      36.090  34.147  29.044  1.00  0.00    -0.744 OA
ENDBRANCH  76  80
ENDBRANCH  49  73
BRANCH  61  84
ATOM     84  C   UNL A   1      43.842  35.037  31.782  1.00  0.00     0.023 A 
ATOM     85  C   UNL A   1      43.792  36.267  31.105  1.00  0.00     0.031 A 
ATOM     86  C   UNL A   1      43.936  35.061  33.186  1.00  0.00     0.131 A 
ATOM     87  C   UNL A   1      43.897  37.467  31.825  1.00  0.00     0.055 A 
ATOM     88  C   UNL A   1      43.967  36.258  33.902  1.00  0.00     0.041 A 
ATOM     89  F   UNL A   1      43.992  33.918  33.888  1.00  0.00    -0.206 F 
ATOM     90  C   UNL A   1      43.963  37.471  33.220  1.00  0.00     0.022 A 
BRANCH  87  91
ATOM     91  S   UNL A   1      44.054  39.024  30.908  1.00  0.00     0.124 S 
ATOM     92  O   UNL A   1      45.502  39.205  30.863  1.00  0.00    -0.237 OA
ATOM     93  O   UNL A   1      43.413  38.704  29.637  1.00  0.00    -0.237 OA
ATOM     94  O   UNL A   1      43.334  39.987  31.739  1.00  0.00    -0.744 OA
ENDBRANCH  87  91
ENDBRANCH  61  84
ENDBRANCH  35  36
ENDBRANCH  28  30
ENDBRANCH  27  28
ENDBRANCH  26  27
ENDBRANCH  25  26
ENDBRANCH  24  25
ENDBRANCH  23  24
ENDBRANCH   1  23
TORSDOF 25
ENDMDL
