MODEL 1
REMARK VINA RESULT:      -9.9      0.000      0.000
REMARK SMILES CC(C)Cc1ccc([C@H](CC(=O)OCCOCCOCCOCCOC(=O)c2ccc(-c3c4nc(c(-c5cc(S(=O)(=O)[O-])ccc5F)c5ccc([nH]5)c(-c5cc(S(=O)(=O)[O-])ccc5F)c5nc(c(-c6cc(S(=O)(=O)[O-])ccc6F)c6ccc3[nH]6)C=C5)C=C4)cc2)C(F)(F)F)cc1
REMARK SMILES IDX 18 1 17 2 16 3 15 4 14 5 13 6 11 7 12 8 10 9 9 10 8 11 5 12
REMARK SMILES IDX 6 13 96 14 7 15 95 16 4 17 2 18 1 19 3 20 91 21 92 22 93 23
REMARK SMILES IDX 94 24 19 25 20 26 21 27 22 28 23 29 24 30 25 31 26 32 27 33
REMARK SMILES IDX 28 34 29 35 90 36 30 37 89 38 31 39 32 40 33 41 83 42 34 43
REMARK SMILES IDX 88 44 82 45 84 46 35 47 87 48 81 49 80 50 36 52 68 53 48 54
REMARK SMILES IDX 67 55 49 56 52 57 66 58 85 59 50 60 51 61 65 63 86 64 53 65
REMARK SMILES IDX 37 66 38 67 46 68 39 69 45 70 47 71 44 72 40 73 41 74 42 75
REMARK SMILES IDX 43 76 69 77 70 78 78 79 71 80 77 81 79 82 76 83 72 84 73 85
REMARK SMILES IDX 74 86 75 87 54 88 55 89 63 90 56 91 62 92 64 93 61 94 57 95
REMARK SMILES IDX 58 96 59 97 60 98
REMARK H PARENT 84 51 52 62
REMARK Flexibility Score: inf
ROOT
ATOM      1  C   UNL A   1      28.443  28.245  22.916  1.00  0.00     0.188 C 
ENDROOT
BRANCH   1   2
ATOM      2  C   UNL A   1      29.651  27.322  23.128  1.00  0.00     0.188 C 
BRANCH   2   3
ATOM      3  O   UNL A   1      29.674  26.374  24.185  1.00  0.00    -0.376 OA
BRANCH   3   4
ATOM      4  C   UNL A   1      30.198  26.716  25.465  1.00  0.00     0.202 C 
BRANCH   4   5
ATOM      5  C   UNL A   1      31.397  25.965  26.071  1.00  0.00     0.261 C 
BRANCH   5   6
ATOM      6  O   UNL A   1      31.028  24.872  26.925  1.00  0.00    -0.463 OA
BRANCH   6   7
ATOM      7  C   UNL A   1      31.640  23.688  26.717  1.00  0.00     0.306 C 
ATOM      8  O   UNL A   1      31.851  22.840  27.576  1.00  0.00    -0.252 OA
BRANCH   7   9
ATOM      9  C   UNL A   1      31.878  23.409  25.250  1.00  0.00     0.140 C 
BRANCH   9  10
ATOM     10  C   UNL A   1      33.276  22.919  24.833  1.00  0.00     0.136 C 
BRANCH  10  11
ATOM     11  C   UNL A   1      33.452  21.420  24.724  1.00  0.00    -0.035 A 
ATOM     12  C   UNL A   1      33.914  18.680  24.377  1.00  0.00    -0.048 A 
ATOM     13  C   UNL A   1      34.981  19.529  24.676  1.00  0.00     0.004 A 
ATOM     14  C   UNL A   1      32.612  19.193  24.347  1.00  0.00     0.004 A 
ATOM     15  C   UNL A   1      34.748  20.888  24.853  1.00  0.00     0.004 A 
ATOM     16  C   UNL A   1      32.383  20.553  24.495  1.00  0.00     0.004 A 
BRANCH  12  17
ATOM     17  C   UNL A   1      34.156  17.248  23.977  1.00  0.00     0.038 C 
BRANCH  17  18
ATOM     18  C   UNL A   1      34.107  16.319  25.212  1.00  0.00    -0.013 C 
ATOM     19  C   UNL A   1      32.903  15.372  25.171  1.00  0.00     0.008 C 
ATOM     20  C   UNL A   1      35.407  15.532  25.332  1.00  0.00     0.008 C 
ENDBRANCH  17  18
ENDBRANCH  12  17
ENDBRANCH  10  11
BRANCH  10  21
ATOM     21  C   UNL A   1      33.654  23.640  23.536  1.00  0.00     0.396 C 
ATOM     22  F   UNL A   1      34.963  24.007  23.566  1.00  0.00    -0.170 F 
ATOM     23  F   UNL A   1      33.498  22.873  22.436  1.00  0.00    -0.170 F 
ATOM     24  F   UNL A   1      32.936  24.773  23.360  1.00  0.00    -0.170 F 
ENDBRANCH  10  21
ENDBRANCH   9  10
ENDBRANCH   7   9
ENDBRANCH   6   7
ENDBRANCH   5   6
ENDBRANCH   4   5
ENDBRANCH   3   4
ENDBRANCH   2   3
ENDBRANCH   1   2
BRANCH   1  25
ATOM     25  O   UNL A   1      28.623  29.268  21.958  1.00  0.00    -0.377 OA
BRANCH  25  26
ATOM     26  C   UNL A   1      29.203  30.495  22.394  1.00  0.00     0.188 C 
BRANCH  26  27
ATOM     27  C   UNL A   1      29.684  30.614  23.854  1.00  0.00     0.188 C 
BRANCH  27  28
ATOM     28  O   UNL A   1      30.983  30.091  24.096  1.00  0.00    -0.376 OA
BRANCH  28  29
ATOM     29  C   UNL A   1      31.494  30.088  25.423  1.00  0.00     0.202 C 
BRANCH  29  30
ATOM     30  C   UNL A   1      31.525  31.413  26.209  1.00  0.00     0.261 C 
BRANCH  30  31
ATOM     31  O   UNL A   1      32.360  31.456  27.379  1.00  0.00    -0.460 OA
BRANCH  31  32
ATOM     32  C   UNL A   1      33.161  32.533  27.532  1.00  0.00     0.338 C 
ATOM     33  O   UNL A   1      32.817  33.696  27.550  1.00  0.00    -0.246 OA
BRANCH  32  34
ATOM     34  C   UNL A   1      34.515  32.059  27.892  1.00  0.00     0.060 A 
ATOM     35  C   UNL A   1      34.682  30.696  28.170  1.00  0.00     0.016 A 
ATOM     36  C   UNL A   1      35.592  32.941  28.007  1.00  0.00     0.016 A 
ATOM     37  C   UNL A   1      35.906  30.225  28.640  1.00  0.00     0.010 A 
ATOM     38  C   UNL A   1      36.816  32.470  28.500  1.00  0.00     0.010 A 
ATOM     39  C   UNL A   1      36.956  31.121  28.873  1.00  0.00    -0.014 A 
BRANCH  39  40
ATOM     40  C   UNL A   1      38.072  30.679  29.748  1.00  0.00     0.031 A 
ATOM     41  C   UNL A   1      39.090  29.727  29.170  1.00  0.00     0.074 A 
ATOM     42  C   UNL A   1      38.243  31.186  30.983  1.00  0.00     0.049 A 
ATOM     43  N   UNL A   1      40.176  29.237  29.710  1.00  0.00    -0.248 NA
ATOM     44  C   UNL A   1      38.847  29.268  27.793  1.00  0.00     0.031 C 
ATOM     45  C   UNL A   1      37.358  32.155  31.627  1.00  0.00     0.029 A 
ATOM     46  N   UNL A   1      39.231  30.964  31.910  1.00  0.00    -0.354 N 
ATOM     47  C   UNL A   1      40.742  28.413  28.742  1.00  0.00     0.074 A 
ATOM     48  C   UNL A   1      39.855  28.433  27.600  1.00  0.00     0.031 C 
ATOM     49  C   UNL A   1      37.845  32.445  32.846  1.00  0.00     0.029 A 
ATOM     50  C   UNL A   1      39.056  31.661  33.083  1.00  0.00     0.049 A 
ATOM     51  H   UNL A   1      39.992  30.362  31.750  1.00  0.00     0.167 HD
ATOM     52  C   UNL A   1      41.903  27.714  28.793  1.00  0.00     0.034 A 
ATOM     53  C   UNL A   1      39.782  31.651  34.219  1.00  0.00     0.034 A 
ATOM     54  C   UNL A   1      42.775  27.699  29.940  1.00  0.00     0.049 A 
ATOM     55  C   UNL A   1      41.032  30.800  34.281  1.00  0.00     0.074 A 
ATOM     56  C   UNL A   1      43.979  27.033  30.097  1.00  0.00     0.029 A 
ATOM     57  N   UNL A   1      42.536  28.370  31.133  1.00  0.00    -0.354 N 
ATOM     58  N   UNL A   1      41.562  30.034  33.354  1.00  0.00    -0.248 NA
ATOM     59  C   UNL A   1      41.787  30.827  35.540  1.00  0.00     0.031 C 
ATOM     60  C   UNL A   1      44.422  27.232  31.409  1.00  0.00     0.029 A 
ATOM     61  C   UNL A   1      43.549  28.103  32.042  1.00  0.00     0.049 A 
ATOM     62  H   UNL A   1      41.760  28.950  31.308  1.00  0.00     0.167 HD
ATOM     63  C   UNL A   1      42.733  29.520  33.909  1.00  0.00     0.074 A 
ATOM     64  C   UNL A   1      42.841  30.085  35.237  1.00  0.00     0.031 C 
ATOM     65  C   UNL A   1      43.639  28.662  33.372  1.00  0.00     0.034 A 
BRANCH  52  66
ATOM     66  C   UNL A   1      42.258  26.867  27.594  1.00  0.00     0.023 A 
ATOM     67  C   UNL A   1      42.033  25.479  27.567  1.00  0.00     0.031 A 
ATOM     68  C   UNL A   1      42.856  27.458  26.466  1.00  0.00     0.131 A 
ATOM     69  C   UNL A   1      42.461  24.722  26.465  1.00  0.00     0.055 A 
ATOM     70  C   UNL A   1      43.203  26.711  25.339  1.00  0.00     0.041 A 
ATOM     71  F   UNL A   1      43.123  28.773  26.445  1.00  0.00    -0.206 F 
ATOM     72  C   UNL A   1      43.018  25.333  25.339  1.00  0.00     0.022 A 
BRANCH  69  73
ATOM     73  S   UNL A   1      42.411  22.912  26.582  1.00  0.00     0.124 S 
ATOM     74  O   UNL A   1      41.195  22.702  27.365  1.00  0.00    -0.237 OA
ATOM     75  O   UNL A   1      42.348  22.507  25.183  1.00  0.00    -0.237 OA
ATOM     76  O   UNL A   1      43.653  22.579  27.275  1.00  0.00    -0.744 OA
ENDBRANCH  69  73
ENDBRANCH  52  66
BRANCH  53  77
ATOM     77  C   UNL A   1      39.342  32.434  35.413  1.00  0.00     0.023 A 
ATOM     78  C   UNL A   1      39.722  33.775  35.593  1.00  0.00     0.031 A 
ATOM     79  C   UNL A   1      38.603  31.820  36.441  1.00  0.00     0.131 A 
ATOM     80  C   UNL A   1      39.416  34.436  36.794  1.00  0.00     0.055 A 
ATOM     81  C   UNL A   1      38.244  32.502  37.604  1.00  0.00     0.041 A 
ATOM     82  F   UNL A   1      38.220  30.538  36.328  1.00  0.00    -0.206 F 
ATOM     83  C   UNL A   1      38.666  33.813  37.794  1.00  0.00     0.022 A 
BRANCH  80  84
ATOM     84  S   UNL A   1      40.111  36.088  37.080  1.00  0.00     0.124 S 
ATOM     85  O   UNL A   1      39.779  36.769  35.835  1.00  0.00    -0.237 OA
ATOM     86  O   UNL A   1      39.378  36.522  38.265  1.00  0.00    -0.237 OA
ATOM     87  O   UNL A   1      41.532  35.826  37.292  1.00  0.00    -0.744 OA
ENDBRANCH  80  84
ENDBRANCH  53  77
BRANCH  65  88
ATOM     88  C   UNL A   1      44.851  28.324  34.213  1.00  0.00     0.023 A 
ATOM     89  C   UNL A   1      46.075  28.995  34.052  1.00  0.00     0.031 A 
ATOM     90  C   UNL A   1      44.790  27.286  35.161  1.00  0.00     0.131 A 
ATOM     91  C   UNL A   1      47.209  28.563  34.758  1.00  0.00     0.055 A 
ATOM     92  C   UNL A   1      45.901  26.917  35.921  1.00  0.00     0.041 A 
ATOM     93  F   UNL A   1      43.650  26.605  35.360  1.00  0.00    -0.206 F 
ATOM     94  C   UNL A   1      47.125  27.542  35.707  1.00  0.00     0.022 A 
BRANCH  91  95
ATOM     95  S   UNL A   1      48.825  29.254  34.309  1.00  0.00     0.124 S 
ATOM     96  O   UNL A   1      48.786  30.560  34.959  1.00  0.00    -0.237 OA
ATOM     97  O   UNL A   1      49.750  28.284  34.884  1.00  0.00    -0.237 OA
ATOM     98  O   UNL A   1      48.790  29.287  32.848  1.00  0.00    -0.744 OA
ENDBRANCH  91  95
ENDBRANCH  65  88
ENDBRANCH  39  40
ENDBRANCH  32  34
ENDBRANCH  31  32
ENDBRANCH  30  31
ENDBRANCH  29  30
ENDBRANCH  28  29
ENDBRANCH  27  28
ENDBRANCH  26  27
ENDBRANCH  25  26
ENDBRANCH   1  25
TORSDOF 28
ENDMDL
MODEL 2
REMARK VINA RESULT:      -9.9      1.913      2.205
REMARK SMILES CC(C)Cc1ccc([C@H](CC(=O)OCCOCCOCCOCCOC(=O)c2ccc(-c3c4nc(c(-c5cc(S(=O)(=O)[O-])ccc5F)c5ccc([nH]5)c(-c5cc(S(=O)(=O)[O-])ccc5F)c5nc(c(-c6cc(S(=O)(=O)[O-])ccc6F)c6ccc3[nH]6)C=C5)C=C4)cc2)C(F)(F)F)cc1
REMARK SMILES IDX 18 1 17 2 16 3 15 4 14 5 13 6 11 7 12 8 10 9 9 10 8 11 5 12
REMARK SMILES IDX 6 13 96 14 7 15 95 16 4 17 2 18 1 19 3 20 91 21 92 22 93 23
REMARK SMILES IDX 94 24 19 25 20 26 21 27 22 28 23 29 24 30 25 31 26 32 27 33
REMARK SMILES IDX 28 34 29 35 90 36 30 37 89 38 31 39 32 40 33 41 83 42 34 43
REMARK SMILES IDX 88 44 82 45 84 46 35 47 87 48 81 49 80 50 36 52 68 53 48 54
REMARK SMILES IDX 67 55 49 56 52 57 66 58 85 59 50 60 51 61 65 63 86 64 53 65
REMARK SMILES IDX 37 66 38 67 46 68 39 69 45 70 47 71 44 72 40 73 41 74 42 75
REMARK SMILES IDX 43 76 69 77 70 78 78 79 71 80 77 81 79 82 76 83 72 84 73 85
REMARK SMILES IDX 74 86 75 87 54 88 55 89 63 90 56 91 62 92 64 93 61 94 57 95
REMARK SMILES IDX 58 96 59 97 60 98
REMARK H PARENT 84 51 52 62
REMARK Flexibility Score: inf
ROOT
ATOM      1  C   UNL A   1      28.841  27.935  23.011  1.00  0.00     0.188 C 
ENDROOT
BRANCH   1   2
ATOM      2  C   UNL A   1      29.884  26.809  22.991  1.00  0.00     0.188 C 
BRANCH   2   3
ATOM      3  O   UNL A   1      29.966  25.866  24.050  1.00  0.00    -0.376 OA
BRANCH   3   4
ATOM      4  C   UNL A   1      30.038  26.291  25.407  1.00  0.00     0.202 C 
BRANCH   4   5
ATOM      5  C   UNL A   1      31.261  25.974  26.286  1.00  0.00     0.261 C 
BRANCH   5   6
ATOM      6  O   UNL A   1      31.106  24.800  27.097  1.00  0.00    -0.463 OA
BRANCH   6   7
ATOM      7  C   UNL A   1      31.963  23.780  26.882  1.00  0.00     0.306 C 
ATOM      8  O   UNL A   1      32.289  22.943  27.716  1.00  0.00    -0.252 OA
BRANCH   7   9
ATOM      9  C   UNL A   1      32.349  23.644  25.427  1.00  0.00     0.140 C 
BRANCH   9  10
ATOM     10  C   UNL A   1      33.568  22.769  25.090  1.00  0.00     0.136 C 
BRANCH  10  11
ATOM     11  C   UNL A   1      33.288  21.303  24.842  1.00  0.00    -0.035 A 
ATOM     12  C   UNL A   1      32.964  18.553  24.421  1.00  0.00    -0.048 A 
ATOM     13  C   UNL A   1      33.481  19.011  25.633  1.00  0.00     0.004 A 
ATOM     14  C   UNL A   1      32.527  19.477  23.465  1.00  0.00     0.004 A 
ATOM     15  C   UNL A   1      33.636  20.377  25.842  1.00  0.00     0.004 A 
ATOM     16  C   UNL A   1      32.708  20.839  23.661  1.00  0.00     0.004 A 
BRANCH  12  17
ATOM     17  C   UNL A   1      32.976  17.085  24.081  1.00  0.00     0.038 C 
BRANCH  17  18
ATOM     18  C   UNL A   1      33.399  16.244  25.307  1.00  0.00    -0.013 C 
ATOM     19  C   UNL A   1      32.391  15.132  25.615  1.00  0.00     0.008 C 
ATOM     20  C   UNL A   1      34.792  15.663  25.094  1.00  0.00     0.008 C 
ENDBRANCH  17  18
ENDBRANCH  12  17
ENDBRANCH  10  11
BRANCH  10  21
ATOM     21  C   UNL A   1      34.301  23.423  23.914  1.00  0.00     0.396 C 
ATOM     22  F   UNL A   1      35.020  22.494  23.232  1.00  0.00    -0.170 F 
ATOM     23  F   UNL A   1      33.466  23.993  23.019  1.00  0.00    -0.170 F 
ATOM     24  F   UNL A   1      35.176  24.367  24.328  1.00  0.00    -0.170 F 
ENDBRANCH  10  21
ENDBRANCH   9  10
ENDBRANCH   7   9
ENDBRANCH   6   7
ENDBRANCH   5   6
ENDBRANCH   4   5
ENDBRANCH   3   4
ENDBRANCH   2   3
ENDBRANCH   1   2
BRANCH   1  25
ATOM     25  O   UNL A   1      29.034  28.957  22.055  1.00  0.00    -0.377 OA
BRANCH  25  26
ATOM     26  C   UNL A   1      29.719  30.137  22.469  1.00  0.00     0.188 C 
BRANCH  26  27
ATOM     27  C   UNL A   1      30.075  30.307  23.959  1.00  0.00     0.188 C 
BRANCH  27  28
ATOM     28  O   UNL A   1      31.296  29.696  24.352  1.00  0.00    -0.376 OA
BRANCH  28  29
ATOM     29  C   UNL A   1      31.727  29.811  25.702  1.00  0.00     0.202 C 
BRANCH  29  30
ATOM     30  C   UNL A   1      31.804  31.213  26.340  1.00  0.00     0.261 C 
BRANCH  30  31
ATOM     31  O   UNL A   1      32.585  31.340  27.540  1.00  0.00    -0.460 OA
BRANCH  31  32
ATOM     32  C   UNL A   1      33.444  32.380  27.616  1.00  0.00     0.338 C 
ATOM     33  O   UNL A   1      33.161  33.559  27.585  1.00  0.00    -0.246 OA
BRANCH  32  34
ATOM     34  C   UNL A   1      34.782  31.852  27.962  1.00  0.00     0.060 A 
ATOM     35  C   UNL A   1      34.898  30.486  28.247  1.00  0.00     0.016 A 
ATOM     36  C   UNL A   1      35.896  32.691  28.057  1.00  0.00     0.016 A 
ATOM     37  C   UNL A   1      36.108  29.969  28.704  1.00  0.00     0.010 A 
ATOM     38  C   UNL A   1      37.106  32.174  28.536  1.00  0.00     0.010 A 
ATOM     39  C   UNL A   1      37.196  30.823  28.917  1.00  0.00    -0.014 A 
BRANCH  39  40
ATOM     40  C   UNL A   1      38.305  30.342  29.780  1.00  0.00     0.031 A 
ATOM     41  C   UNL A   1      39.262  29.327  29.204  1.00  0.00     0.074 A 
ATOM     42  C   UNL A   1      38.526  30.863  31.001  1.00  0.00     0.049 A 
ATOM     43  N   UNL A   1      40.332  28.793  29.734  1.00  0.00    -0.248 NA
ATOM     44  C   UNL A   1      38.970  28.854  27.840  1.00  0.00     0.031 C 
ATOM     45  C   UNL A   1      37.703  31.889  31.641  1.00  0.00     0.029 A 
ATOM     46  N   UNL A   1      39.519  30.609  31.914  1.00  0.00    -0.354 N 
ATOM     47  C   UNL A   1      40.836  27.923  28.772  1.00  0.00     0.074 A 
ATOM     48  C   UNL A   1      39.930  27.966  27.647  1.00  0.00     0.031 C 
ATOM     49  C   UNL A   1      38.228  32.177  32.845  1.00  0.00     0.029 A 
ATOM     50  C   UNL A   1      39.402  31.337  33.075  1.00  0.00     0.049 A 
ATOM     51  H   UNL A   1      40.245  29.966  31.753  1.00  0.00     0.167 HD
ATOM     52  C   UNL A   1      41.961  27.166  28.816  1.00  0.00     0.034 A 
ATOM     53  C   UNL A   1      40.149  31.312  34.199  1.00  0.00     0.034 A 
ATOM     54  C   UNL A   1      42.854  27.129  29.948  1.00  0.00     0.049 A 
ATOM     55  C   UNL A   1      41.354  30.399  34.255  1.00  0.00     0.074 A 
ATOM     56  C   UNL A   1      44.025  26.405  30.097  1.00  0.00     0.029 A 
ATOM     57  N   UNL A   1      42.672  27.834  31.131  1.00  0.00    -0.354 N 
ATOM     58  N   UNL A   1      41.827  29.590  33.334  1.00  0.00    -0.248 NA
ATOM     59  C   UNL A   1      42.134  30.412  35.499  1.00  0.00     0.031 C 
ATOM     60  C   UNL A   1      44.502  26.607  31.395  1.00  0.00     0.029 A 
ATOM     61  C   UNL A   1      43.687  27.533  32.026  1.00  0.00     0.049 A 
ATOM     62  H   UNL A   1      41.930  28.457  31.308  1.00  0.00     0.167 HD
ATOM     63  C   UNL A   1      42.981  29.027  33.878  1.00  0.00     0.074 A 
ATOM     64  C   UNL A   1      43.143  29.611  35.193  1.00  0.00     0.031 C 
ATOM     65  C   UNL A   1      43.831  28.113  33.342  1.00  0.00     0.034 A 
BRANCH  52  66
ATOM     66  C   UNL A   1      42.250  26.279  27.629  1.00  0.00     0.023 A 
ATOM     67  C   UNL A   1      42.002  24.895  27.653  1.00  0.00     0.031 A 
ATOM     68  C   UNL A   1      42.806  26.826  26.458  1.00  0.00     0.131 A 
ATOM     69  C   UNL A   1      42.369  24.099  26.556  1.00  0.00     0.055 A 
ATOM     70  C   UNL A   1      43.091  26.041  25.340  1.00  0.00     0.041 A 
ATOM     71  F   UNL A   1      43.093  28.136  26.387  1.00  0.00    -0.206 F 
ATOM     72  C   UNL A   1      42.885  24.667  25.390  1.00  0.00     0.022 A 
BRANCH  69  73
ATOM     73  S   UNL A   1      42.295  22.294  26.729  1.00  0.00     0.124 S 
ATOM     74  O   UNL A   1      43.634  21.902  26.294  1.00  0.00    -0.237 OA
ATOM     75  O   UNL A   1      42.008  22.124  28.148  1.00  0.00    -0.237 OA
ATOM     76  O   UNL A   1      41.216  21.907  25.823  1.00  0.00    -0.744 OA
ENDBRANCH  69  73
ENDBRANCH  52  66
BRANCH  53  77
ATOM     77  C   UNL A   1      39.772  32.140  35.384  1.00  0.00     0.023 A 
ATOM     78  C   UNL A   1      38.970  31.623  36.415  1.00  0.00     0.031 A 
ATOM     79  C   UNL A   1      40.142  33.496  35.458  1.00  0.00     0.131 A 
ATOM     80  C   UNL A   1      38.513  32.470  37.439  1.00  0.00     0.055 A 
ATOM     81  C   UNL A   1      39.739  34.316  36.513  1.00  0.00     0.041 A 
ATOM     82  F   UNL A   1      40.901  34.046  34.497  1.00  0.00    -0.206 F 
ATOM     83  C   UNL A   1      38.905  33.808  37.503  1.00  0.00     0.022 A 
BRANCH  80  84
ATOM     84  S   UNL A   1      37.303  31.824  38.628  1.00  0.00     0.124 S 
ATOM     85  O   UNL A   1      37.026  30.502  38.080  1.00  0.00    -0.237 OA
ATOM     86  O   UNL A   1      38.059  31.857  39.876  1.00  0.00    -0.237 OA
ATOM     87  O   UNL A   1      36.202  32.780  38.545  1.00  0.00    -0.744 OA
ENDBRANCH  80  84
ENDBRANCH  53  77
BRANCH  65  88
ATOM     88  C   UNL A   1      45.041  27.730  34.168  1.00  0.00     0.023 A 
ATOM     89  C   UNL A   1      45.011  26.654  35.072  1.00  0.00     0.031 A 
ATOM     90  C   UNL A   1      46.228  28.479  34.077  1.00  0.00     0.131 A 
ATOM     91  C   UNL A   1      46.109  26.415  35.913  1.00  0.00     0.055 A 
ATOM     92  C   UNL A   1      47.347  28.183  34.857  1.00  0.00     0.041 A 
ATOM     93  F   UNL A   1      46.319  29.521  33.234  1.00  0.00    -0.206 F 
ATOM     94  C   UNL A   1      47.285  27.160  35.797  1.00  0.00     0.022 A 
BRANCH  91  95
ATOM     95  S   UNL A   1      45.924  25.215  37.261  1.00  0.00     0.124 S 
ATOM     96  O   UNL A   1      44.536  24.795  37.102  1.00  0.00    -0.237 OA
ATOM     97  O   UNL A   1      46.935  24.217  36.930  1.00  0.00    -0.237 OA
ATOM     98  O   UNL A   1      46.200  26.003  38.461  1.00  0.00    -0.744 OA
ENDBRANCH  91  95
ENDBRANCH  65  88
ENDBRANCH  39  40
ENDBRANCH  32  34
ENDBRANCH  31  32
ENDBRANCH  30  31
ENDBRANCH  29  30
ENDBRANCH  28  29
ENDBRANCH  27  28
ENDBRANCH  26  27
ENDBRANCH  25  26
ENDBRANCH   1  25
TORSDOF 28
ENDMDL
MODEL 3
REMARK VINA RESULT:      -9.8      2.309      8.306
REMARK SMILES CC(C)Cc1ccc([C@H](CC(=O)OCCOCCOCCOCCOC(=O)c2ccc(-c3c4nc(c(-c5cc(S(=O)(=O)[O-])ccc5F)c5ccc([nH]5)c(-c5cc(S(=O)(=O)[O-])ccc5F)c5nc(c(-c6cc(S(=O)(=O)[O-])ccc6F)c6ccc3[nH]6)C=C5)C=C4)cc2)C(F)(F)F)cc1
REMARK SMILES IDX 18 1 17 2 16 3 15 4 14 5 13 6 11 7 12 8 10 9 9 10 8 11 5 12
REMARK SMILES IDX 6 13 96 14 7 15 95 16 4 17 2 18 1 19 3 20 91 21 92 22 93 23
REMARK SMILES IDX 94 24 19 25 20 26 21 27 22 28 23 29 24 30 25 31 26 32 27 33
REMARK SMILES IDX 28 34 29 35 90 36 30 37 89 38 31 39 32 40 33 41 83 42 34 43
REMARK SMILES IDX 88 44 82 45 84 46 35 47 87 48 81 49 80 50 36 52 68 53 48 54
REMARK SMILES IDX 67 55 49 56 52 57 66 58 85 59 50 60 51 61 65 63 86 64 53 65
REMARK SMILES IDX 37 66 38 67 46 68 39 69 45 70 47 71 44 72 40 73 41 74 42 75
REMARK SMILES IDX 43 76 69 77 70 78 78 79 71 80 77 81 79 82 76 83 72 84 73 85
REMARK SMILES IDX 74 86 75 87 54 88 55 89 63 90 56 91 62 92 64 93 61 94 57 95
REMARK SMILES IDX 58 96 59 97 60 98
REMARK H PARENT 84 51 52 62
REMARK Flexibility Score: inf
ROOT
ATOM      1  C   UNL A   1      32.557  27.390  26.816  1.00  0.00     0.188 C 
ENDROOT
BRANCH   1   2
ATOM      2  C   UNL A   1      32.150  26.028  26.237  1.00  0.00     0.188 C 
BRANCH   2   3
ATOM      3  O   UNL A   1      31.388  25.103  27.000  1.00  0.00    -0.376 OA
BRANCH   3   4
ATOM      4  C   UNL A   1      31.677  23.709  26.963  1.00  0.00     0.202 C 
BRANCH   4   5
ATOM      5  C   UNL A   1      30.934  22.758  26.007  1.00  0.00     0.261 C 
BRANCH   5   6
ATOM      6  O   UNL A   1      31.753  22.243  24.946  1.00  0.00    -0.463 OA
BRANCH   6   7
ATOM      7  C   UNL A   1      32.550  21.192  25.232  1.00  0.00     0.306 C 
ATOM      8  O   UNL A   1      32.181  20.027  25.314  1.00  0.00    -0.252 OA
BRANCH   7   9
ATOM      9  C   UNL A   1      34.015  21.565  25.254  1.00  0.00     0.140 C 
BRANCH   9  10
ATOM     10  C   UNL A   1      34.668  21.974  23.922  1.00  0.00     0.136 C 
BRANCH  10  11
ATOM     11  C   UNL A   1      34.070  23.178  23.228  1.00  0.00    -0.035 A 
ATOM     12  C   UNL A   1      32.876  25.455  22.119  1.00  0.00    -0.048 A 
ATOM     13  C   UNL A   1      33.695  25.582  23.242  1.00  0.00     0.004 A 
ATOM     14  C   UNL A   1      32.736  24.206  21.505  1.00  0.00     0.004 A 
ATOM     15  C   UNL A   1      34.291  24.450  23.788  1.00  0.00     0.004 A 
ATOM     16  C   UNL A   1      33.306  23.073  22.066  1.00  0.00     0.004 A 
BRANCH  12  17
ATOM     17  C   UNL A   1      32.053  26.619  21.629  1.00  0.00     0.038 C 
BRANCH  17  18
ATOM     18  C   UNL A   1      31.143  27.158  22.755  1.00  0.00    -0.013 C 
ATOM     19  C   UNL A   1      30.327  28.373  22.300  1.00  0.00     0.008 C 
ATOM     20  C   UNL A   1      30.225  26.055  23.267  1.00  0.00     0.008 C 
ENDBRANCH  17  18
ENDBRANCH  12  17
ENDBRANCH  10  11
BRANCH  10  21
ATOM     21  C   UNL A   1      36.170  22.138  24.171  1.00  0.00     0.396 C 
ATOM     22  F   UNL A   1      36.393  23.143  25.058  1.00  0.00    -0.170 F 
ATOM     23  F   UNL A   1      36.746  21.034  24.692  1.00  0.00    -0.170 F 
ATOM     24  F   UNL A   1      36.837  22.462  23.040  1.00  0.00    -0.170 F 
ENDBRANCH  10  21
ENDBRANCH   9  10
ENDBRANCH   7   9
ENDBRANCH   6   7
ENDBRANCH   5   6
ENDBRANCH   4   5
ENDBRANCH   3   4
ENDBRANCH   2   3
ENDBRANCH   1   2
BRANCH   1  25
ATOM     25  O   UNL A   1      33.586  28.062  26.120  1.00  0.00    -0.377 OA
BRANCH  25  26
ATOM     26  C   UNL A   1      33.267  29.304  25.496  1.00  0.00     0.188 C 
BRANCH  26  27
ATOM     27  C   UNL A   1      31.790  29.637  25.210  1.00  0.00     0.188 C 
BRANCH  27  28
ATOM     28  O   UNL A   1      31.322  30.834  25.817  1.00  0.00    -0.376 OA
BRANCH  28  29
ATOM     29  C   UNL A   1      32.064  31.407  26.885  1.00  0.00     0.202 C 
BRANCH  29  30
ATOM     30  C   UNL A   1      31.921  32.917  27.162  1.00  0.00     0.261 C 
BRANCH  30  31
ATOM     31  O   UNL A   1      33.137  33.669  27.307  1.00  0.00    -0.460 OA
BRANCH  31  32
ATOM     32  C   UNL A   1      33.626  33.827  28.557  1.00  0.00     0.338 C 
ATOM     33  O   UNL A   1      33.071  34.369  29.489  1.00  0.00    -0.246 OA
BRANCH  32  34
ATOM     34  C   UNL A   1      34.871  33.037  28.672  1.00  0.00     0.060 A 
ATOM     35  C   UNL A   1      34.775  31.723  29.146  1.00  0.00     0.016 A 
ATOM     36  C   UNL A   1      36.118  33.590  28.369  1.00  0.00     0.016 A 
ATOM     37  C   UNL A   1      35.929  30.985  29.395  1.00  0.00     0.010 A 
ATOM     38  C   UNL A   1      37.279  32.855  28.640  1.00  0.00     0.010 A 
ATOM     39  C   UNL A   1      37.187  31.572  29.210  1.00  0.00    -0.014 A 
BRANCH  39  40
ATOM     40  C   UNL A   1      38.359  30.938  29.865  1.00  0.00     0.031 A 
ATOM     41  C   UNL A   1      38.631  31.274  31.311  1.00  0.00     0.074 A 
ATOM     42  C   UNL A   1      39.103  30.010  29.235  1.00  0.00     0.049 A 
ATOM     43  N   UNL A   1      39.555  30.817  32.115  1.00  0.00    -0.248 NA
ATOM     44  C   UNL A   1      37.731  32.261  31.932  1.00  0.00     0.031 C 
ATOM     45  C   UNL A   1      38.902  29.561  27.858  1.00  0.00     0.029 A 
ATOM     46  N   UNL A   1      40.168  29.267  29.679  1.00  0.00    -0.354 N 
ATOM     47  C   UNL A   1      39.349  31.460  33.332  1.00  0.00     0.074 A 
ATOM     48  C   UNL A   1      38.244  32.373  33.146  1.00  0.00     0.031 C 
ATOM     49  C   UNL A   1      39.817  28.619  27.570  1.00  0.00     0.029 A 
ATOM     50  C   UNL A   1      40.687  28.419  28.729  1.00  0.00     0.049 A 
ATOM     51  H   UNL A   1      40.529  29.337  30.592  1.00  0.00     0.167 HD
ATOM     52  C   UNL A   1      40.012  31.296  34.504  1.00  0.00     0.034 A 
ATOM     53  C   UNL A   1      41.751  27.591  28.785  1.00  0.00     0.034 A 
ATOM     54  C   UNL A   1      41.117  30.385  34.675  1.00  0.00     0.049 A 
ATOM     55  C   UNL A   1      42.525  27.485  30.081  1.00  0.00     0.074 A 
ATOM     56  C   UNL A   1      41.855  30.133  35.818  1.00  0.00     0.029 A 
ATOM     57  N   UNL A   1      41.653  29.585  33.673  1.00  0.00    -0.354 N 
ATOM     58  N   UNL A   1      42.313  28.090  31.228  1.00  0.00    -0.248 NA
ATOM     59  C   UNL A   1      43.673  26.568  30.090  1.00  0.00     0.031 C 
ATOM     60  C   UNL A   1      42.886  29.248  35.488  1.00  0.00     0.029 A 
ATOM     61  C   UNL A   1      42.734  28.869  34.164  1.00  0.00     0.049 A 
ATOM     62  H   UNL A   1      41.314  29.535  32.750  1.00  0.00     0.167 HD
ATOM     63  C   UNL A   1      43.280  27.597  32.103  1.00  0.00     0.074 A 
ATOM     64  C   UNL A   1      44.054  26.627  31.357  1.00  0.00     0.031 C 
ATOM     65  C   UNL A   1      43.509  27.913  33.405  1.00  0.00     0.034 A 
BRANCH  52  66
ATOM     66  C   UNL A   1      39.593  32.161  35.668  1.00  0.00     0.023 A 
ATOM     67  C   UNL A   1      40.185  33.412  35.921  1.00  0.00     0.031 A 
ATOM     68  C   UNL A   1      38.597  31.715  36.556  1.00  0.00     0.131 A 
ATOM     69  C   UNL A   1      39.823  34.139  37.066  1.00  0.00     0.055 A 
ATOM     70  C   UNL A   1      38.183  32.482  37.646  1.00  0.00     0.041 A 
ATOM     71  F   UNL A   1      38.016  30.517  36.384  1.00  0.00    -0.206 F 
ATOM     72  C   UNL A   1      38.806  33.696  37.913  1.00  0.00     0.022 A 
BRANCH  69  73
ATOM     73  S   UNL A   1      40.799  35.603  37.510  1.00  0.00     0.124 S 
ATOM     74  O   UNL A   1      39.832  36.677  37.297  1.00  0.00    -0.237 OA
ATOM     75  O   UNL A   1      41.160  35.333  38.896  1.00  0.00    -0.237 OA
ATOM     76  O   UNL A   1      41.908  35.577  36.558  1.00  0.00    -0.744 OA
ENDBRANCH  69  73
ENDBRANCH  52  66
BRANCH  53  77
ATOM     77  C   UNL A   1      42.185  26.822  27.580  1.00  0.00     0.023 A 
ATOM     78  C   UNL A   1      42.086  25.422  27.528  1.00  0.00     0.031 A 
ATOM     79  C   UNL A   1      42.790  27.478  26.492  1.00  0.00     0.131 A 
ATOM     80  C   UNL A   1      42.638  24.720  26.444  1.00  0.00     0.055 A 
ATOM     81  C   UNL A   1      43.278  26.780  25.386  1.00  0.00     0.041 A 
ATOM     82  F   UNL A   1      42.919  28.814  26.491  1.00  0.00    -0.206 F 
ATOM     83  C   UNL A   1      43.219  25.390  25.366  1.00  0.00     0.022 A 
BRANCH  80  84
ATOM     84  S   UNL A   1      42.688  22.907  26.515  1.00  0.00     0.124 S 
ATOM     85  O   UNL A   1      41.794  22.630  27.632  1.00  0.00    -0.237 OA
ATOM     86  O   UNL A   1      42.196  22.540  25.191  1.00  0.00    -0.237 OA
ATOM     87  O   UNL A   1      44.099  22.616  26.754  1.00  0.00    -0.744 OA
ENDBRANCH  80  84
ENDBRANCH  53  77
BRANCH  65  88
ATOM     88  C   UNL A   1      44.615  27.160  34.112  1.00  0.00     0.023 A 
ATOM     89  C   UNL A   1      44.391  25.914  34.723  1.00  0.00     0.031 A 
ATOM     90  C   UNL A   1      45.902  27.719  34.212  1.00  0.00     0.131 A 
ATOM     91  C   UNL A   1      45.408  25.313  35.481  1.00  0.00     0.055 A 
ATOM     92  C   UNL A   1      46.934  27.074  34.896  1.00  0.00     0.041 A 
ATOM     93  F   UNL A   1      46.179  28.907  33.651  1.00  0.00    -0.206 F 
ATOM     94  C   UNL A   1      46.684  25.875  35.555  1.00  0.00     0.022 A 
BRANCH  91  95
ATOM     95  S   UNL A   1      44.994  23.864  36.491  1.00  0.00     0.124 S 
ATOM     96  O   UNL A   1      44.674  24.474  37.778  1.00  0.00    -0.237 OA
ATOM     97  O   UNL A   1      43.870  23.286  35.762  1.00  0.00    -0.237 OA
ATOM     98  O   UNL A   1      46.222  23.069  36.470  1.00  0.00    -0.744 OA
ENDBRANCH  91  95
ENDBRANCH  65  88
ENDBRANCH  39  40
ENDBRANCH  32  34
ENDBRANCH  31  32
ENDBRANCH  30  31
ENDBRANCH  29  30
ENDBRANCH  28  29
ENDBRANCH  27  28
ENDBRANCH  26  27
ENDBRANCH  25  26
ENDBRANCH   1  25
TORSDOF 28
ENDMDL
