MODEL 1
REMARK VINA RESULT:      -8.4      0.000      0.000
REMARK SMILES O=C(OCCOCCOCCOCCOC(=O)[C@H]1N=c2ccccc2=C1C[NH2+]CCc1ccccc1)c1ccc(-c2c3nc(c(-c4cc(S(=O)(=O)[O-])ccc4F)c4ccc([nH]4)c(-c4cc(S(=O)(=O)[O-])ccc4F)c4nc(c(-c5cc(S(=O)(=O)[O-])ccc5F)c5ccc2[nH]5)C=C4)C=C3)cc1
REMARK SMILES IDX 10 1 9 2 8 3 7 4 6 5 5 6 4 7 3 8 2 9 1 10 37 11 38 12 99 13
REMARK SMILES IDX 39 14 98 15 40 16 41 17 42 18 92 19 43 20 97 21 91 22 93 23
REMARK SMILES IDX 44 24 96 25 90 26 89 27 45 29 77 30 57 31 76 32 58 33 61 34
REMARK SMILES IDX 75 35 94 36 59 37 60 38 74 40 95 41 62 42 46 43 47 44 55 45
REMARK SMILES IDX 48 46 54 47 56 48 53 49 49 50 50 51 51 52 52 53 78 54 79 55
REMARK SMILES IDX 87 56 80 57 86 58 88 59 85 60 81 61 82 62 83 63 84 64 63 65
REMARK SMILES IDX 64 66 72 67 65 68 71 69 73 70 70 71 66 72 67 73 68 74 69 75
REMARK SMILES IDX 11 76 12 77 13 78 14 79 15 80 16 81 17 82 18 83 19 84 26 85
REMARK SMILES IDX 20 86 25 87 21 88 24 89 22 90 23 91 27 92 28 93 29 96 30 97
REMARK SMILES IDX 31 98 32 99 36 100 33 101 35 102 34 103
REMARK H PARENT 93 28 61 39 28 94 28 95
REMARK Flexibility Score: inf
ROOT
ATOM      1  C   UNL A   1      41.752  20.481  26.206  1.00  0.00     0.188 C 
ENDROOT
BRANCH   1   2
ATOM      2  O   UNL A   1      42.082  19.193  26.705  1.00  0.00    -0.377 OA
BRANCH   2   3
ATOM      3  C   UNL A   1      43.070  18.462  25.992  1.00  0.00     0.188 C 
BRANCH   3   4
ATOM      4  C   UNL A   1      43.796  19.234  24.890  1.00  0.00     0.188 C 
BRANCH   4   5
ATOM      5  O   UNL A   1      45.210  19.279  25.085  1.00  0.00    -0.376 OA
BRANCH   5   6
ATOM      6  C   UNL A   1      45.739  20.498  25.585  1.00  0.00     0.202 C 
BRANCH   6   7
ATOM      7  C   UNL A   1      46.367  21.437  24.564  1.00  0.00     0.261 C 
BRANCH   7   8
ATOM      8  O   UNL A   1      45.516  22.429  23.975  1.00  0.00    -0.460 OA
BRANCH   8   9
ATOM      9  C   UNL A   1      44.371  23.018  24.376  1.00  0.00     0.338 C 
ATOM     10  O   UNL A   1      43.334  22.641  23.822  1.00  0.00    -0.246 OA
BRANCH   9  11
ATOM     11  C   UNL A   1      44.248  24.118  25.388  1.00  0.00     0.060 A 
ATOM     12  C   UNL A   1      43.624  23.772  26.605  1.00  0.00     0.016 A 
ATOM     13  C   UNL A   1      44.658  25.441  25.229  1.00  0.00     0.016 A 
ATOM     14  C   UNL A   1      43.399  24.716  27.610  1.00  0.00     0.010 A 
ATOM     15  C   UNL A   1      44.378  26.407  26.197  1.00  0.00     0.010 A 
ATOM     16  C   UNL A   1      43.773  26.045  27.402  1.00  0.00    -0.014 A 
BRANCH  16  17
ATOM     17  C   UNL A   1      43.785  27.025  28.503  1.00  0.00     0.031 A 
ATOM     18  C   UNL A   1      44.892  27.060  29.506  1.00  0.00     0.074 A 
ATOM     19  C   UNL A   1      42.668  27.765  28.646  1.00  0.00     0.049 A 
ATOM     20  N   UNL A   1      45.008  27.821  30.560  1.00  0.00    -0.248 NA
ATOM     21  C   UNL A   1      46.005  26.114  29.320  1.00  0.00     0.031 C 
ATOM     22  C   UNL A   1      41.511  27.691  27.746  1.00  0.00     0.029 A 
ATOM     23  N   UNL A   1      42.285  28.660  29.607  1.00  0.00    -0.354 N 
ATOM     24  C   UNL A   1      46.210  27.464  31.159  1.00  0.00     0.074 A 
ATOM     25  C   UNL A   1      46.771  26.388  30.372  1.00  0.00     0.031 C 
ATOM     26  C   UNL A   1      40.531  28.465  28.227  1.00  0.00     0.029 A 
ATOM     27  C   UNL A   1      40.985  29.088  29.465  1.00  0.00     0.049 A 
ATOM     28  H   UNL A   1      42.881  28.968  30.328  1.00  0.00     0.167 HD
ATOM     29  C   UNL A   1      46.777  28.013  32.258  1.00  0.00     0.034 A 
ATOM     30  C   UNL A   1      40.235  29.883  30.254  1.00  0.00     0.034 A 
ATOM     31  C   UNL A   1      46.153  29.074  33.012  1.00  0.00     0.049 A 
ATOM     32  C   UNL A   1      40.904  30.507  31.447  1.00  0.00     0.074 A 
ATOM     33  C   UNL A   1      46.673  29.779  34.082  1.00  0.00     0.029 A 
ATOM     34  N   UNL A   1      44.875  29.570  32.788  1.00  0.00    -0.354 N 
ATOM     35  N   UNL A   1      42.116  30.291  31.906  1.00  0.00    -0.248 NA
ATOM     36  C   UNL A   1      40.145  31.505  32.207  1.00  0.00     0.031 C 
ATOM     37  C   UNL A   1      45.683  30.637  34.555  1.00  0.00     0.029 A 
ATOM     38  C   UNL A   1      44.578  30.546  33.722  1.00  0.00     0.049 A 
ATOM     39  H   UNL A   1      44.271  29.272  32.070  1.00  0.00     0.167 HD
ATOM     40  C   UNL A   1      42.277  31.149  32.985  1.00  0.00     0.074 A 
ATOM     41  C   UNL A   1      41.043  31.899  33.103  1.00  0.00     0.031 C 
ATOM     42  C   UNL A   1      43.348  31.300  33.802  1.00  0.00     0.034 A 
BRANCH  29  43
ATOM     43  C   UNL A   1      48.143  27.558  32.716  1.00  0.00     0.023 A 
ATOM     44  C   UNL A   1      49.303  28.122  32.148  1.00  0.00     0.031 A 
ATOM     45  C   UNL A   1      48.290  26.418  33.525  1.00  0.00     0.131 A 
ATOM     46  C   UNL A   1      50.546  27.502  32.338  1.00  0.00     0.055 A 
ATOM     47  C   UNL A   1      49.537  25.831  33.748  1.00  0.00     0.041 A 
ATOM     48  F   UNL A   1      47.217  25.835  34.083  1.00  0.00    -0.206 F 
ATOM     49  C   UNL A   1      50.669  26.362  33.136  1.00  0.00     0.022 A 
BRANCH  46  50
ATOM     50  S   UNL A   1      52.031  28.094  31.479  1.00  0.00     0.124 S 
ATOM     51  O   UNL A   1      52.984  27.017  31.747  1.00  0.00    -0.237 OA
ATOM     52  O   UNL A   1      51.569  28.187  30.097  1.00  0.00    -0.237 OA
ATOM     53  O   UNL A   1      52.334  29.362  32.133  1.00  0.00    -0.744 OA
ENDBRANCH  46  50
ENDBRANCH  29  43
BRANCH  30  54
ATOM     54  C   UNL A   1      38.828  30.169  29.855  1.00  0.00     0.023 A 
ATOM     55  C   UNL A   1      38.453  31.451  29.405  1.00  0.00     0.031 A 
ATOM     56  C   UNL A   1      37.811  29.225  30.074  1.00  0.00     0.131 A 
ATOM     57  C   UNL A   1      37.097  31.771  29.256  1.00  0.00     0.055 A 
ATOM     58  C   UNL A   1      36.466  29.527  29.855  1.00  0.00     0.041 A 
ATOM     59  F   UNL A   1      38.113  28.000  30.533  1.00  0.00    -0.206 F 
ATOM     60  C   UNL A   1      36.102  30.811  29.463  1.00  0.00     0.022 A 
BRANCH  57  61
ATOM     61  S   UNL A   1      36.572  33.483  28.954  1.00  0.00     0.124 S 
ATOM     62  O   UNL A   1      37.851  34.176  28.834  1.00  0.00    -0.237 OA
ATOM     63  O   UNL A   1      35.808  33.351  27.715  1.00  0.00    -0.237 OA
ATOM     64  O   UNL A   1      35.780  33.815  30.134  1.00  0.00    -0.744 OA
ENDBRANCH  57  61
ENDBRANCH  30  54
BRANCH  42  65
ATOM     65  C   UNL A   1      43.278  32.324  34.905  1.00  0.00     0.023 A 
ATOM     66  C   UNL A   1      42.599  32.008  36.097  1.00  0.00     0.031 A 
ATOM     67  C   UNL A   1      43.673  33.654  34.688  1.00  0.00     0.131 A 
ATOM     68  C   UNL A   1      42.261  33.029  36.992  1.00  0.00     0.055 A 
ATOM     69  C   UNL A   1      43.386  34.657  35.613  1.00  0.00     0.041 A 
ATOM     70  F   UNL A   1      44.315  34.000  33.561  1.00  0.00    -0.206 F 
ATOM     71  C   UNL A   1      42.657  34.349  36.760  1.00  0.00     0.022 A 
BRANCH  68  72
ATOM     72  S   UNL A   1      41.189  32.698  38.417  1.00  0.00     0.124 S 
ATOM     73  O   UNL A   1      40.058  32.015  37.792  1.00  0.00    -0.237 OA
ATOM     74  O   UNL A   1      42.041  31.858  39.252  1.00  0.00    -0.237 OA
ATOM     75  O   UNL A   1      40.893  34.023  38.952  1.00  0.00    -0.744 OA
ENDBRANCH  68  72
ENDBRANCH  42  65
ENDBRANCH  16  17
ENDBRANCH   9  11
ENDBRANCH   8   9
ENDBRANCH   7   8
ENDBRANCH   6   7
ENDBRANCH   5   6
ENDBRANCH   4   5
ENDBRANCH   3   4
ENDBRANCH   2   3
ENDBRANCH   1   2
BRANCH   1  76
ATOM     76  C   UNL A   1      40.380  21.127  26.527  1.00  0.00     0.188 C 
BRANCH  76  77
ATOM     77  O   UNL A   1      40.429  22.425  27.110  1.00  0.00    -0.376 OA
BRANCH  77  78
ATOM     78  C   UNL A   1      39.528  23.377  26.535  1.00  0.00     0.202 C 
BRANCH  78  79
ATOM     79  C   UNL A   1      38.219  22.783  25.993  1.00  0.00     0.261 C 
BRANCH  79  80
ATOM     80  O   UNL A   1      37.088  23.271  26.725  1.00  0.00    -0.461 OA
BRANCH  80  81
ATOM     81  C   UNL A   1      35.878  23.329  26.107  1.00  0.00     0.335 C 
ATOM     82  O   UNL A   1      35.016  24.142  26.371  1.00  0.00    -0.249 OA
BRANCH  81  83
ATOM     83  C   UNL A   1      35.851  22.294  24.939  1.00  0.00     0.248 C 
ATOM     84  N   UNL A   1      35.498  20.961  25.503  1.00  0.00    -0.265 NA
ATOM     85  C   UNL A   1      34.862  22.544  23.840  1.00  0.00     0.029 C 
ATOM     86  C   UNL A   1      34.400  20.670  24.889  1.00  0.00     0.066 A 
ATOM     87  C   UNL A   1      33.908  21.610  23.867  1.00  0.00     0.007 A 
ATOM     88  C   UNL A   1      33.636  19.429  25.101  1.00  0.00     0.028 A 
ATOM     89  C   UNL A   1      32.724  21.323  23.121  1.00  0.00     0.010 A 
ATOM     90  C   UNL A   1      32.524  19.230  24.379  1.00  0.00     0.002 A 
ATOM     91  C   UNL A   1      32.052  20.189  23.392  1.00  0.00     0.001 A 
BRANCH  85  92
ATOM     92  C   UNL A   1      35.112  23.640  22.849  1.00  0.00     0.296 C 
BRANCH  92  93
ATOM     93  N   UNL A   1      34.300  24.808  23.160  1.00  0.00    -0.342 N 
ATOM     94  H   UNL A   1      34.932  25.593  23.318  1.00  0.00     0.346 HD
ATOM     95  H   UNL A   1      33.744  24.547  23.974  1.00  0.00     0.346 HD
BRANCH  93  96
ATOM     96  C   UNL A   1      33.335  25.211  22.140  1.00  0.00     0.265 C 
BRANCH  96  97
ATOM     97  C   UNL A   1      31.861  24.884  22.445  1.00  0.00     0.097 C 
BRANCH  97  98
ATOM     98  C   UNL A   1      31.358  25.290  23.815  1.00  0.00    -0.042 A 
ATOM     99  C   UNL A   1      30.875  24.313  24.699  1.00  0.00     0.004 A 
ATOM    100  C   UNL A   1      31.362  26.629  24.230  1.00  0.00     0.004 A 
ATOM    101  C   UNL A   1      30.419  24.663  25.971  1.00  0.00     0.000 A 
ATOM    102  C   UNL A   1      30.910  26.977  25.506  1.00  0.00     0.000 A 
ATOM    103  C   UNL A   1      30.436  25.995  26.374  1.00  0.00     0.000 A 
ENDBRANCH  97  98
ENDBRANCH  96  97
ENDBRANCH  93  96
ENDBRANCH  92  93
ENDBRANCH  85  92
ENDBRANCH  81  83
ENDBRANCH  80  81
ENDBRANCH  79  80
ENDBRANCH  78  79
ENDBRANCH  77  78
ENDBRANCH  76  77
ENDBRANCH   1  76
TORSDOF 28
ENDMDL
MODEL 2
REMARK VINA RESULT:      -7.7      2.691      7.762
REMARK SMILES O=C(OCCOCCOCCOCCOC(=O)[C@H]1N=c2ccccc2=C1C[NH2+]CCc1ccccc1)c1ccc(-c2c3nc(c(-c4cc(S(=O)(=O)[O-])ccc4F)c4ccc([nH]4)c(-c4cc(S(=O)(=O)[O-])ccc4F)c4nc(c(-c5cc(S(=O)(=O)[O-])ccc5F)c5ccc2[nH]5)C=C4)C=C3)cc1
REMARK SMILES IDX 10 1 9 2 8 3 7 4 6 5 5 6 4 7 3 8 2 9 1 10 37 11 38 12 99 13
REMARK SMILES IDX 39 14 98 15 40 16 41 17 42 18 92 19 43 20 97 21 91 22 93 23
REMARK SMILES IDX 44 24 96 25 90 26 89 27 45 29 77 30 57 31 76 32 58 33 61 34
REMARK SMILES IDX 75 35 94 36 59 37 60 38 74 40 95 41 62 42 46 43 47 44 55 45
REMARK SMILES IDX 48 46 54 47 56 48 53 49 49 50 50 51 51 52 52 53 78 54 79 55
REMARK SMILES IDX 87 56 80 57 86 58 88 59 85 60 81 61 82 62 83 63 84 64 63 65
REMARK SMILES IDX 64 66 72 67 65 68 71 69 73 70 70 71 66 72 67 73 68 74 69 75
REMARK SMILES IDX 11 76 12 77 13 78 14 79 15 80 16 81 17 82 18 83 19 84 26 85
REMARK SMILES IDX 20 86 25 87 21 88 24 89 22 90 23 91 27 92 28 93 29 96 30 97
REMARK SMILES IDX 31 98 32 99 36 100 33 101 35 102 34 103
REMARK H PARENT 93 28 61 39 28 94 28 95
REMARK Flexibility Score: inf
ROOT
ATOM      1  C   UNL A   1      42.909  21.910  25.457  1.00  0.00     0.188 C 
ENDROOT
BRANCH   1   2
ATOM      2  O   UNL A   1      43.808  20.891  25.047  1.00  0.00    -0.377 OA
BRANCH   2   3
ATOM      3  C   UNL A   1      44.815  21.259  24.114  1.00  0.00     0.188 C 
BRANCH   3   4
ATOM      4  C   UNL A   1      44.819  22.728  23.694  1.00  0.00     0.188 C 
BRANCH   4   5
ATOM      5  O   UNL A   1      45.920  23.456  24.240  1.00  0.00    -0.376 OA
BRANCH   5   6
ATOM      6  C   UNL A   1      46.119  23.338  25.642  1.00  0.00     0.202 C 
BRANCH   6   7
ATOM      7  C   UNL A   1      46.235  24.640  26.424  1.00  0.00     0.261 C 
BRANCH   7   8
ATOM      8  O   UNL A   1      47.549  25.189  26.590  1.00  0.00    -0.460 OA
BRANCH   8   9
ATOM      9  C   UNL A   1      48.023  26.265  27.250  1.00  0.00     0.338 C 
ATOM     10  O   UNL A   1      49.148  26.658  26.928  1.00  0.00    -0.246 OA
BRANCH   9  11
ATOM     11  C   UNL A   1      47.336  26.991  28.368  1.00  0.00     0.060 A 
ATOM     12  C   UNL A   1      47.134  28.374  28.175  1.00  0.00     0.016 A 
ATOM     13  C   UNL A   1      46.913  26.442  29.578  1.00  0.00     0.016 A 
ATOM     14  C   UNL A   1      46.554  29.177  29.161  1.00  0.00     0.010 A 
ATOM     15  C   UNL A   1      46.396  27.245  30.596  1.00  0.00     0.010 A 
ATOM     16  C   UNL A   1      46.189  28.609  30.383  1.00  0.00    -0.014 A 
BRANCH  16  17
ATOM     17  C   UNL A   1      45.361  29.343  31.358  1.00  0.00     0.031 A 
ATOM     18  C   UNL A   1      43.896  29.546  31.142  1.00  0.00     0.074 A 
ATOM     19  C   UNL A   1      46.028  29.954  32.356  1.00  0.00     0.049 A 
ATOM     20  N   UNL A   1      43.054  30.220  31.878  1.00  0.00    -0.248 NA
ATOM     21  C   UNL A   1      43.296  28.935  29.945  1.00  0.00     0.031 C 
ATOM     22  C   UNL A   1      47.480  29.868  32.550  1.00  0.00     0.029 A 
ATOM     23  N   UNL A   1      45.611  30.804  33.343  1.00  0.00    -0.354 N 
ATOM     24  C   UNL A   1      41.820  30.105  31.248  1.00  0.00     0.074 A 
ATOM     25  C   UNL A   1      42.030  29.329  30.047  1.00  0.00     0.031 C 
ATOM     26  C   UNL A   1      47.838  30.674  33.556  1.00  0.00     0.029 A 
ATOM     27  C   UNL A   1      46.647  31.335  34.078  1.00  0.00     0.049 A 
ATOM     28  H   UNL A   1      44.664  31.014  33.512  1.00  0.00     0.167 HD
ATOM     29  C   UNL A   1      40.633  30.602  31.668  1.00  0.00     0.034 A 
ATOM     30  C   UNL A   1      46.640  32.263  35.055  1.00  0.00     0.034 A 
ATOM     31  C   UNL A   1      40.496  31.388  32.870  1.00  0.00     0.049 A 
ATOM     32  C   UNL A   1      45.303  32.768  35.524  1.00  0.00     0.074 A 
ATOM     33  C   UNL A   1      39.334  31.862  33.451  1.00  0.00     0.029 A 
ATOM     34  N   UNL A   1      41.549  31.828  33.663  1.00  0.00    -0.354 N 
ATOM     35  N   UNL A   1      44.115  32.510  35.024  1.00  0.00    -0.248 NA
ATOM     36  C   UNL A   1      45.281  33.644  36.699  1.00  0.00     0.031 C 
ATOM     37  C   UNL A   1      39.687  32.653  34.541  1.00  0.00     0.029 A 
ATOM     38  C   UNL A   1      41.063  32.596  34.706  1.00  0.00     0.049 A 
ATOM     39  H   UNL A   1      42.499  31.623  33.505  1.00  0.00     0.167 HD
ATOM     40  C   UNL A   1      43.205  33.164  35.843  1.00  0.00     0.074 A 
ATOM     41  C   UNL A   1      43.977  33.817  36.881  1.00  0.00     0.031 C 
ATOM     42  C   UNL A   1      41.854  33.216  35.744  1.00  0.00     0.034 A 
BRANCH  29  43
ATOM     43  C   UNL A   1      39.369  30.297  30.899  1.00  0.00     0.023 A 
ATOM     44  C   UNL A   1      38.717  31.318  30.178  1.00  0.00     0.031 A 
ATOM     45  C   UNL A   1      38.694  29.077  31.076  1.00  0.00     0.131 A 
ATOM     46  C   UNL A   1      37.405  31.123  29.724  1.00  0.00     0.055 A 
ATOM     47  C   UNL A   1      37.403  28.873  30.581  1.00  0.00     0.041 A 
ATOM     48  F   UNL A   1      39.265  28.075  31.762  1.00  0.00    -0.206 F 
ATOM     49  C   UNL A   1      36.746  29.906  29.921  1.00  0.00     0.022 A 
BRANCH  46  50
ATOM     50  S   UNL A   1      36.469  32.473  28.951  1.00  0.00     0.124 S 
ATOM     51  O   UNL A   1      37.506  33.485  28.754  1.00  0.00    -0.237 OA
ATOM     52  O   UNL A   1      35.976  31.841  27.730  1.00  0.00    -0.237 OA
ATOM     53  O   UNL A   1      35.456  32.812  29.943  1.00  0.00    -0.744 OA
ENDBRANCH  46  50
ENDBRANCH  29  43
BRANCH  30  54
ATOM     54  C   UNL A   1      47.935  32.666  35.672  1.00  0.00     0.023 A 
ATOM     55  C   UNL A   1      48.720  33.686  35.098  1.00  0.00     0.031 A 
ATOM     56  C   UNL A   1      48.485  31.933  36.736  1.00  0.00     0.131 A 
ATOM     57  C   UNL A   1      50.032  33.895  35.545  1.00  0.00     0.055 A 
ATOM     58  C   UNL A   1      49.766  32.194  37.227  1.00  0.00     0.041 A 
ATOM     59  F   UNL A   1      47.790  30.931  37.297  1.00  0.00    -0.206 F 
ATOM     60  C   UNL A   1      50.553  33.165  36.617  1.00  0.00     0.022 A 
BRANCH  57  61
ATOM     61  S   UNL A   1      51.158  34.999  34.645  1.00  0.00     0.124 S 
ATOM     62  O   UNL A   1      52.075  35.423  35.698  1.00  0.00    -0.237 OA
ATOM     63  O   UNL A   1      51.724  34.101  33.640  1.00  0.00    -0.237 OA
ATOM     64  O   UNL A   1      50.277  36.036  34.117  1.00  0.00    -0.744 OA
ENDBRANCH  57  61
ENDBRANCH  30  54
BRANCH  42  65
ATOM     65  C   UNL A   1      41.081  33.989  36.782  1.00  0.00     0.023 A 
ATOM     66  C   UNL A   1      40.572  33.313  37.907  1.00  0.00     0.031 A 
ATOM     67  C   UNL A   1      40.665  35.309  36.543  1.00  0.00     0.131 A 
ATOM     68  C   UNL A   1      39.609  33.934  38.709  1.00  0.00     0.055 A 
ATOM     69  C   UNL A   1      39.748  35.943  37.382  1.00  0.00     0.041 A 
ATOM     70  F   UNL A   1      41.118  35.986  35.477  1.00  0.00    -0.206 F 
ATOM     71  C   UNL A   1      39.200  35.247  38.457  1.00  0.00     0.022 A 
BRANCH  68  72
ATOM     72  S   UNL A   1      38.762  33.015  40.024  1.00  0.00     0.124 S 
ATOM     73  O   UNL A   1      38.180  31.897  39.285  1.00  0.00    -0.237 OA
ATOM     74  O   UNL A   1      39.866  32.668  40.913  1.00  0.00    -0.237 OA
ATOM     75  O   UNL A   1      37.800  33.971  40.560  1.00  0.00    -0.744 OA
ENDBRANCH  68  72
ENDBRANCH  42  65
ENDBRANCH  16  17
ENDBRANCH   9  11
ENDBRANCH   8   9
ENDBRANCH   7   8
ENDBRANCH   6   7
ENDBRANCH   5   6
ENDBRANCH   4   5
ENDBRANCH   3   4
ENDBRANCH   2   3
ENDBRANCH   1   2
BRANCH   1  76
ATOM     76  C   UNL A   1      42.090  21.766  26.765  1.00  0.00     0.188 C 
BRANCH  76  77
ATOM     77  O   UNL A   1      41.443  22.949  27.224  1.00  0.00    -0.376 OA
BRANCH  77  78
ATOM     78  C   UNL A   1      40.147  23.183  26.664  1.00  0.00     0.202 C 
BRANCH  78  79
ATOM     79  C   UNL A   1      39.347  21.912  26.336  1.00  0.00     0.261 C 
BRANCH  79  80
ATOM     80  O   UNL A   1      37.940  22.180  26.311  1.00  0.00    -0.461 OA
BRANCH  80  81
ATOM     81  C   UNL A   1      37.266  22.058  25.135  1.00  0.00     0.335 C 
ATOM     82  O   UNL A   1      37.643  21.377  24.203  1.00  0.00    -0.249 OA
BRANCH  81  83
ATOM     83  C   UNL A   1      35.901  22.804  25.248  1.00  0.00     0.248 C 
ATOM     84  N   UNL A   1      35.646  23.509  23.960  1.00  0.00    -0.265 NA
ATOM     85  C   UNL A   1      34.688  21.957  25.494  1.00  0.00     0.029 C 
ATOM     86  C   UNL A   1      34.549  22.967  23.548  1.00  0.00     0.066 A 
ATOM     87  C   UNL A   1      33.902  21.966  24.415  1.00  0.00     0.007 A 
ATOM     88  C   UNL A   1      33.867  23.327  22.292  1.00  0.00     0.028 A 
ATOM     89  C   UNL A   1      32.663  21.365  24.037  1.00  0.00     0.010 A 
ATOM     90  C   UNL A   1      32.715  22.710  21.990  1.00  0.00     0.002 A 
ATOM     91  C   UNL A   1      32.114  21.709  22.857  1.00  0.00     0.001 A 
BRANCH  85  92
ATOM     92  C   UNL A   1      34.461  21.359  26.849  1.00  0.00     0.296 C 
BRANCH  92  93
ATOM     93  N   UNL A   1      33.108  21.632  27.310  1.00  0.00    -0.342 N 
ATOM     94  H   UNL A   1      32.938  21.054  28.134  1.00  0.00     0.346 HD
ATOM     95  H   UNL A   1      32.501  21.421  26.518  1.00  0.00     0.346 HD
BRANCH  93  96
ATOM     96  C   UNL A   1      32.816  23.017  27.669  1.00  0.00     0.265 C 
BRANCH  96  97
ATOM     97  C   UNL A   1      31.697  23.699  26.860  1.00  0.00     0.097 C 
BRANCH  97  98
ATOM     98  C   UNL A   1      32.144  24.710  25.824  1.00  0.00    -0.042 A 
ATOM     99  C   UNL A   1      31.356  24.939  24.686  1.00  0.00     0.004 A 
ATOM    100  C   UNL A   1      33.335  25.434  25.974  1.00  0.00     0.004 A 
ATOM    101  C   UNL A   1      31.742  25.876  23.726  1.00  0.00     0.000 A 
ATOM    102  C   UNL A   1      33.717  26.376  25.015  1.00  0.00     0.000 A 
ATOM    103  C   UNL A   1      32.923  26.595  23.891  1.00  0.00     0.000 A 
ENDBRANCH  97  98
ENDBRANCH  96  97
ENDBRANCH  93  96
ENDBRANCH  92  93
ENDBRANCH  85  92
ENDBRANCH  81  83
ENDBRANCH  80  81
ENDBRANCH  79  80
ENDBRANCH  78  79
ENDBRANCH  77  78
ENDBRANCH  76  77
ENDBRANCH   1  76
TORSDOF 28
ENDMDL
MODEL 3
REMARK VINA RESULT:      -7.4      5.780     12.289
REMARK SMILES O=C(OCCOCCOCCOCCOC(=O)[C@H]1N=c2ccccc2=C1C[NH2+]CCc1ccccc1)c1ccc(-c2c3nc(c(-c4cc(S(=O)(=O)[O-])ccc4F)c4ccc([nH]4)c(-c4cc(S(=O)(=O)[O-])ccc4F)c4nc(c(-c5cc(S(=O)(=O)[O-])ccc5F)c5ccc2[nH]5)C=C4)C=C3)cc1
REMARK SMILES IDX 10 1 9 2 8 3 7 4 6 5 5 6 4 7 3 8 2 9 1 10 37 11 38 12 99 13
REMARK SMILES IDX 39 14 98 15 40 16 41 17 42 18 92 19 43 20 97 21 91 22 93 23
REMARK SMILES IDX 44 24 96 25 90 26 89 27 45 29 77 30 57 31 76 32 58 33 61 34
REMARK SMILES IDX 75 35 94 36 59 37 60 38 74 40 95 41 62 42 46 43 47 44 55 45
REMARK SMILES IDX 48 46 54 47 56 48 53 49 49 50 50 51 51 52 52 53 78 54 79 55
REMARK SMILES IDX 87 56 80 57 86 58 88 59 85 60 81 61 82 62 83 63 84 64 63 65
REMARK SMILES IDX 64 66 72 67 65 68 71 69 73 70 70 71 66 72 67 73 68 74 69 75
REMARK SMILES IDX 11 76 12 77 13 78 14 79 15 80 16 81 17 82 18 83 19 84 26 85
REMARK SMILES IDX 20 86 25 87 21 88 24 89 22 90 23 91 27 92 28 93 29 96 30 97
REMARK SMILES IDX 31 98 32 99 36 100 33 101 35 102 34 103
REMARK H PARENT 93 28 61 39 28 94 28 95
REMARK Flexibility Score: inf
ROOT
ATOM      1  C   UNL A   1      39.427  34.565  30.074  1.00  0.00     0.188 C 
ENDROOT
BRANCH   1   2
ATOM      2  O   UNL A   1      40.464  33.624  29.838  1.00  0.00    -0.377 OA
BRANCH   2   3
ATOM      3  C   UNL A   1      41.745  33.932  30.369  1.00  0.00     0.188 C 
BRANCH   3   4
ATOM      4  C   UNL A   1      42.803  34.340  29.346  1.00  0.00     0.188 C 
BRANCH   4   5
ATOM      5  O   UNL A   1      42.392  35.439  28.533  1.00  0.00    -0.376 OA
BRANCH   5   6
ATOM      6  C   UNL A   1      42.903  36.715  28.892  1.00  0.00     0.202 C 
BRANCH   6   7
ATOM      7  C   UNL A   1      44.104  36.728  29.829  1.00  0.00     0.261 C 
BRANCH   7   8
ATOM      8  O   UNL A   1      43.880  37.173  31.174  1.00  0.00    -0.460 OA
BRANCH   8   9
ATOM      9  C   UNL A   1      44.190  36.658  32.381  1.00  0.00     0.338 C 
ATOM     10  O   UNL A   1      44.201  37.446  33.330  1.00  0.00    -0.246 OA
BRANCH   9  11
ATOM     11  C   UNL A   1      44.571  35.235  32.664  1.00  0.00     0.060 A 
ATOM     12  C   UNL A   1      43.604  34.458  33.335  1.00  0.00     0.016 A 
ATOM     13  C   UNL A   1      45.789  34.626  32.361  1.00  0.00     0.016 A 
ATOM     14  C   UNL A   1      43.854  33.134  33.706  1.00  0.00     0.010 A 
ATOM     15  C   UNL A   1      46.075  33.328  32.786  1.00  0.00     0.010 A 
ATOM     16  C   UNL A   1      45.101  32.567  33.436  1.00  0.00    -0.014 A 
BRANCH  16  17
ATOM     17  C   UNL A   1      45.338  31.119  33.582  1.00  0.00     0.031 A 
ATOM     18  C   UNL A   1      44.887  30.145  32.543  1.00  0.00     0.074 A 
ATOM     19  C   UNL A   1      45.831  30.719  34.770  1.00  0.00     0.049 A 
ATOM     20  N   UNL A   1      44.969  28.843  32.562  1.00  0.00    -0.248 NA
ATOM     21  C   UNL A   1      44.244  30.691  31.336  1.00  0.00     0.031 C 
ATOM     22  C   UNL A   1      46.192  31.632  35.861  1.00  0.00     0.029 A 
ATOM     23  N   UNL A   1      46.052  29.474  35.292  1.00  0.00    -0.354 N 
ATOM     24  C   UNL A   1      44.408  28.406  31.367  1.00  0.00     0.074 A 
ATOM     25  C   UNL A   1      43.950  29.582  30.662  1.00  0.00     0.031 C 
ATOM     26  C   UNL A   1      46.540  30.916  36.937  1.00  0.00     0.029 A 
ATOM     27  C   UNL A   1      46.425  29.497  36.617  1.00  0.00     0.049 A 
ATOM     28  H   UNL A   1      45.956  28.644  34.771  1.00  0.00     0.167 HD
ATOM     29  C   UNL A   1      44.311  27.133  30.920  1.00  0.00     0.034 A 
ATOM     30  C   UNL A   1      46.636  28.487  37.483  1.00  0.00     0.034 A 
ATOM     31  C   UNL A   1      44.771  25.999  31.685  1.00  0.00     0.049 A 
ATOM     32  C   UNL A   1      46.556  27.085  36.947  1.00  0.00     0.074 A 
ATOM     33  C   UNL A   1      44.818  24.672  31.298  1.00  0.00     0.029 A 
ATOM     34  N   UNL A   1      45.246  26.053  32.990  1.00  0.00    -0.354 N 
ATOM     35  N   UNL A   1      46.188  26.691  35.749  1.00  0.00    -0.248 NA
ATOM     36  C   UNL A   1      46.954  25.992  37.841  1.00  0.00     0.031 C 
ATOM     37  C   UNL A   1      45.240  23.918  32.391  1.00  0.00     0.029 A 
ATOM     38  C   UNL A   1      45.554  24.780  33.432  1.00  0.00     0.049 A 
ATOM     39  H   UNL A   1      45.348  26.877  33.520  1.00  0.00     0.167 HD
ATOM     40  C   UNL A   1      46.342  25.312  35.733  1.00  0.00     0.074 A 
ATOM     41  C   UNL A   1      46.851  24.939  37.038  1.00  0.00     0.031 C 
ATOM     42  C   UNL A   1      46.086  24.436  34.731  1.00  0.00     0.034 A 
BRANCH  29  43
ATOM     43  C   UNL A   1      43.750  26.852  29.546  1.00  0.00     0.023 A 
ATOM     44  C   UNL A   1      42.428  26.386  29.404  1.00  0.00     0.031 A 
ATOM     45  C   UNL A   1      44.589  26.816  28.418  1.00  0.00     0.131 A 
ATOM     46  C   UNL A   1      42.007  25.839  28.183  1.00  0.00     0.055 A 
ATOM     47  C   UNL A   1      44.150  26.312  27.191  1.00  0.00     0.041 A 
ATOM     48  F   UNL A   1      45.861  27.238  28.500  1.00  0.00    -0.206 F 
ATOM     49  C   UNL A   1      42.861  25.802  27.077  1.00  0.00     0.022 A 
BRANCH  46  50
ATOM     50  S   UNL A   1      40.373  25.068  28.013  1.00  0.00     0.124 S 
ATOM     51  O   UNL A   1      40.017  25.416  26.638  1.00  0.00    -0.237 OA
ATOM     52  O   UNL A   1      40.676  23.658  28.240  1.00  0.00    -0.237 OA
ATOM     53  O   UNL A   1      39.569  25.718  29.042  1.00  0.00    -0.744 OA
ENDBRANCH  46  50
ENDBRANCH  29  43
BRANCH  30  54
ATOM     54  C   UNL A   1      47.020  28.813  38.886  1.00  0.00     0.023 A 
ATOM     55  C   UNL A   1      48.327  28.561  39.352  1.00  0.00     0.031 A 
ATOM     56  C   UNL A   1      46.055  29.219  39.821  1.00  0.00     0.131 A 
ATOM     57  C   UNL A   1      48.611  28.651  40.720  1.00  0.00     0.055 A 
ATOM     58  C   UNL A   1      46.362  29.378  41.174  1.00  0.00     0.041 A 
ATOM     59  F   UNL A   1      44.789  29.441  39.434  1.00  0.00    -0.206 F 
ATOM     60  C   UNL A   1      47.639  29.074  41.632  1.00  0.00     0.022 A 
BRANCH  57  61
ATOM     61  S   UNL A   1      50.196  28.064  41.383  1.00  0.00     0.124 S 
ATOM     62  O   UNL A   1      50.981  29.294  41.427  1.00  0.00    -0.237 OA
ATOM     63  O   UNL A   1      49.799  27.523  42.682  1.00  0.00    -0.237 OA
ATOM     64  O   UNL A   1      50.631  27.069  40.408  1.00  0.00    -0.744 OA
ENDBRANCH  57  61
ENDBRANCH  30  54
BRANCH  42  65
ATOM     65  C   UNL A   1      46.356  22.972  34.961  1.00  0.00     0.023 A 
ATOM     66  C   UNL A   1      47.593  22.428  34.567  1.00  0.00     0.031 A 
ATOM     67  C   UNL A   1      45.328  22.096  35.347  1.00  0.00     0.131 A 
ATOM     68  C   UNL A   1      47.744  21.040  34.489  1.00  0.00     0.055 A 
ATOM     69  C   UNL A   1      45.506  20.713  35.324  1.00  0.00     0.041 A 
ATOM     70  F   UNL A   1      44.130  22.572  35.721  1.00  0.00    -0.206 F 
ATOM     71  C   UNL A   1      46.711  20.180  34.872  1.00  0.00     0.022 A 
BRANCH  68  72
ATOM     72  S   UNL A   1      49.239  20.307  33.767  1.00  0.00     0.124 S 
ATOM     73  O   UNL A   1      48.689  19.529  32.659  1.00  0.00    -0.237 OA
ATOM     74  O   UNL A   1      50.002  21.490  33.380  1.00  0.00    -0.237 OA
ATOM     75  O   UNL A   1      49.807  19.519  34.855  1.00  0.00    -0.744 OA
ENDBRANCH  68  72
ENDBRANCH  42  65
ENDBRANCH  16  17
ENDBRANCH   9  11
ENDBRANCH   8   9
ENDBRANCH   7   8
ENDBRANCH   6   7
ENDBRANCH   5   6
ENDBRANCH   4   5
ENDBRANCH   3   4
ENDBRANCH   2   3
ENDBRANCH   1   2
BRANCH   1  76
ATOM     76  C   UNL A   1      38.520  34.447  31.325  1.00  0.00     0.188 C 
BRANCH  76  77
ATOM     77  O   UNL A   1      37.841  33.205  31.482  1.00  0.00    -0.376 OA
BRANCH  77  78
ATOM     78  C   UNL A   1      36.879  32.913  30.464  1.00  0.00     0.202 C 
BRANCH  78  79
ATOM     79  C   UNL A   1      36.302  31.489  30.510  1.00  0.00     0.261 C 
BRANCH  79  80
ATOM     80  O   UNL A   1      37.316  30.512  30.246  1.00  0.00    -0.461 OA
BRANCH  80  81
ATOM     81  C   UNL A   1      37.470  30.049  28.976  1.00  0.00     0.335 C 
ATOM     82  O   UNL A   1      36.866  30.483  28.015  1.00  0.00    -0.249 OA
BRANCH  81  83
ATOM     83  C   UNL A   1      38.624  29.000  28.950  1.00  0.00     0.248 C 
ATOM     84  N   UNL A   1      38.840  28.576  27.538  1.00  0.00    -0.265 NA
ATOM     85  C   UNL A   1      39.963  29.459  29.444  1.00  0.00     0.029 C 
ATOM     86  C   UNL A   1      40.062  28.927  27.315  1.00  0.00     0.066 A 
ATOM     87  C   UNL A   1      40.826  29.519  28.427  1.00  0.00     0.007 A 
ATOM     88  C   UNL A   1      40.763  28.722  26.036  1.00  0.00     0.028 A 
ATOM     89  C   UNL A   1      42.196  29.885  28.258  1.00  0.00     0.010 A 
ATOM     90  C   UNL A   1      42.044  29.106  25.940  1.00  0.00     0.002 A 
ATOM     91  C   UNL A   1      42.765  29.708  27.051  1.00  0.00     0.001 A 
BRANCH  85  92
ATOM     92  C   UNL A   1      40.187  29.654  30.913  1.00  0.00     0.296 C 
BRANCH  92  93
ATOM     93  N   UNL A   1      39.945  31.040  31.290  1.00  0.00    -0.342 N 
ATOM     94  H   UNL A   1      38.950  31.226  31.169  1.00  0.00     0.346 HD
ATOM     95  H   UNL A   1      40.552  31.597  30.688  1.00  0.00     0.346 HD
BRANCH  93  96
ATOM     96  C   UNL A   1      40.305  31.407  32.657  1.00  0.00     0.265 C 
BRANCH  96  97
ATOM     97  C   UNL A   1      39.936  30.382  33.746  1.00  0.00     0.097 C 
BRANCH  97  98
ATOM     98  C   UNL A   1      41.003  30.098  34.783  1.00  0.00    -0.042 A 
ATOM     99  C   UNL A   1      41.481  31.137  35.597  1.00  0.00     0.004 A 
ATOM    100  C   UNL A   1      41.531  28.811  34.957  1.00  0.00     0.004 A 
ATOM    101  C   UNL A   1      42.455  30.894  36.568  1.00  0.00     0.000 A 
ATOM    102  C   UNL A   1      42.501  28.569  35.934  1.00  0.00     0.000 A 
ATOM    103  C   UNL A   1      42.964  29.610  36.736  1.00  0.00     0.000 A 
ENDBRANCH  97  98
ENDBRANCH  96  97
ENDBRANCH  93  96
ENDBRANCH  92  93
ENDBRANCH  85  92
ENDBRANCH  81  83
ENDBRANCH  80  81
ENDBRANCH  79  80
ENDBRANCH  78  79
ENDBRANCH  77  78
ENDBRANCH  76  77
ENDBRANCH   1  76
TORSDOF 28
ENDMDL
