MODEL 1
REMARK VINA RESULT:     -11.5      0.000      0.000
REMARK SMILES O=C(OCCOCCOCCOCCOC(=O)c1ccc(-c2c3nc(c(-c4cc(S(=O)(=O)[O-])ccc4F)c4ccc([nH]4)c(-c4cc(S(=O)(=O)[O-])ccc4F)c4nc(c(-c5cc(S(=O)(=O)[O-])ccc5F)c5ccc2[nH]5)C=C4)C=C3)cc1)C1=Cc2cc(Cl)cc(-c3ccc(O)cc3)c2O[C@@H]1C(F)(F)F
REMARK SMILES IDX 10 1 9 2 8 3 7 4 6 5 5 6 4 7 3 8 2 9 1 10 81 11 82 12 98 13
REMARK SMILES IDX 83 14 97 15 84 16 96 17 85 18 88 19 86 20 87 21 99 22 100 23
REMARK SMILES IDX 101 24 102 25 89 26 90 27 95 28 91 29 94 30 92 31 93 32
REMARK SMILES IDX 11 34 12 35 13 36 14 37 15 38 16 39 17 40 18 41 19 42 80 43
REMARK SMILES IDX 20 44 79 45 21 46 22 47 23 48 73 49 24 50 78 51 72 52 74 53
REMARK SMILES IDX 25 54 77 55 71 56 70 57 26 59 58 60 38 61 57 62 39 63 42 64
REMARK SMILES IDX 56 65 75 66 40 67 41 68 55 70 76 71 43 72 27 73 28 74 36 75
REMARK SMILES IDX 29 76 35 77 37 78 34 79 30 80 31 81 32 82 33 83 59 84 60 85
REMARK SMILES IDX 68 86 61 87 67 88 69 89 66 90 62 91 63 92 64 93 65 94 44 95
REMARK SMILES IDX 45 96 53 97 46 98 52 99 54 100 51 101 47 102 48 103 49 104
REMARK SMILES IDX 50 105
REMARK H PARENT 93 33 74 58 42 69
REMARK Flexibility Score: inf
ROOT
ATOM      1  C   UNL A   1      34.486  20.338  25.074  1.00  0.00     0.188 C 
ENDROOT
BRANCH   1   2
ATOM      2  O   UNL A   1      33.602  21.357  25.482  1.00  0.00    -0.377 OA
BRANCH   2   3
ATOM      3  C   UNL A   1      34.279  22.291  26.279  1.00  0.00     0.188 C 
BRANCH   3   4
ATOM      4  C   UNL A   1      33.758  22.276  27.710  1.00  0.00     0.188 C 
BRANCH   4   5
ATOM      5  O   UNL A   1      32.401  22.620  28.147  1.00  0.00    -0.376 OA
BRANCH   5   6
ATOM      6  C   UNL A   1      30.974  23.001  27.405  1.00  0.00     0.202 C 
BRANCH   6   7
ATOM      7  C   UNL A   1      30.536  24.785  26.224  1.00  0.00     0.261 C 
BRANCH   7   8
ATOM      8  O   UNL A   1      30.092  24.820  24.774  1.00  0.00    -0.460 OA
BRANCH   8   9
ATOM      9  C   UNL A   1      30.704  23.889  24.034  1.00  0.00     0.338 C 
ATOM     10  O   UNL A   1      31.021  22.769  24.352  1.00  0.00    -0.246 OA
BRANCH   9  11
ATOM     11  C   UNL A   1      31.250  24.789  23.030  1.00  0.00     0.087 C 
ATOM     12  C   UNL A   1      30.384  25.912  22.691  1.00  0.00     0.027 C 
ATOM     13  C   UNL A   1      32.942  24.940  23.927  1.00  0.00     0.316 C 
ATOM     14  C   UNL A   1      30.633  27.595  23.267  1.00  0.00     0.019 A 
ATOM     15  O   UNL A   1      33.176  26.727  24.691  1.00  0.00    -0.475 OA
ATOM     16  C   UNL A   1      29.686  28.525  22.923  1.00  0.00     0.032 A 
ATOM     17  C   UNL A   1      31.909  28.031  24.362  1.00  0.00     0.135 A 
ATOM     18  C   UNL A   1      29.834  29.781  23.520  1.00  0.00     0.042 A 
ATOM     19  C   UNL A   1      31.909  29.283  24.971  1.00  0.00     0.026 A 
ATOM     20  Cl  UNL A   1      28.671  30.995  23.099  1.00  0.00    -0.084 Cl
ATOM     21  C   UNL A   1      30.857  30.128  24.481  1.00  0.00     0.033 A 
BRANCH  13  22
ATOM     22  C   UNL A   1      33.666  24.083  22.638  1.00  0.00     0.430 C 
ATOM     23  F   UNL A   1      33.482  24.482  21.365  1.00  0.00    -0.167 F 
ATOM     24  F   UNL A   1      35.022  24.220  22.811  1.00  0.00    -0.167 F 
ATOM     25  F   UNL A   1      33.466  22.740  22.662  1.00  0.00    -0.167 F 
ENDBRANCH  13  22
BRANCH  19  26
ATOM     26  C   UNL A   1      32.757  29.823  26.020  1.00  0.00    -0.014 A 
ATOM     27  C   UNL A   1      33.959  29.224  26.419  1.00  0.00     0.012 A 
ATOM     28  C   UNL A   1      32.311  30.897  26.774  1.00  0.00     0.012 A 
ATOM     29  C   UNL A   1      34.766  29.812  27.407  1.00  0.00     0.047 A 
ATOM     30  C   UNL A   1      33.177  31.572  27.629  1.00  0.00     0.047 A 
ATOM     31  C   UNL A   1      34.396  31.024  27.958  1.00  0.00     0.115 A 
BRANCH  31  32
ATOM     32  O   UNL A   1      35.207  31.638  28.858  1.00  0.00    -0.508 OA
ATOM     33  H   UNL A   1      36.072  31.309  29.010  1.00  0.00     0.293 HD
ENDBRANCH  31  32
ENDBRANCH  19  26
ENDBRANCH   9  11
ENDBRANCH   8   9
ENDBRANCH   7   8
ENDBRANCH   6   7
ENDBRANCH   5   6
ENDBRANCH   4   5
ENDBRANCH   3   4
ENDBRANCH   2   3
ENDBRANCH   1   2
BRANCH   1  34
ATOM     34  C   UNL A   1      35.975  20.647  25.130  1.00  0.00     0.188 C 
BRANCH  34  35
ATOM     35  O   UNL A   1      36.787  19.515  24.945  1.00  0.00    -0.376 OA
BRANCH  35  36
ATOM     36  C   UNL A   1      38.192  19.702  24.855  1.00  0.00     0.202 C 
BRANCH  36  37
ATOM     37  C   UNL A   1      38.993  20.657  25.772  1.00  0.00     0.261 C 
BRANCH  37  38
ATOM     38  O   UNL A   1      39.963  20.110  26.692  1.00  0.00    -0.460 OA
BRANCH  38  39
ATOM     39  C   UNL A   1      41.246  19.935  26.298  1.00  0.00     0.338 C 
ATOM     40  O   UNL A   1      41.671  19.019  25.621  1.00  0.00    -0.246 OA
BRANCH  39  41
ATOM     41  C   UNL A   1      41.993  21.187  26.631  1.00  0.00     0.060 A 
ATOM     42  C   UNL A   1      42.202  21.538  27.976  1.00  0.00     0.016 A 
ATOM     43  C   UNL A   1      42.548  21.982  25.626  1.00  0.00     0.016 A 
ATOM     44  C   UNL A   1      42.977  22.665  28.321  1.00  0.00     0.010 A 
ATOM     45  C   UNL A   1      43.309  23.113  25.971  1.00  0.00     0.010 A 
ATOM     46  C   UNL A   1      43.538  23.473  27.323  1.00  0.00    -0.014 A 
BRANCH  46  47
ATOM     47  C   UNL A   1      44.145  24.813  27.618  1.00  0.00     0.031 A 
ATOM     48  C   UNL A   1      43.175  25.894  28.008  1.00  0.00     0.074 A 
ATOM     49  C   UNL A   1      45.459  25.129  27.525  1.00  0.00     0.049 A 
ATOM     50  N   UNL A   1      43.374  27.173  28.179  1.00  0.00    -0.248 NA
ATOM     51  C   UNL A   1      41.786  25.460  28.230  1.00  0.00     0.031 C 
ATOM     52  C   UNL A   1      46.552  24.196  27.299  1.00  0.00     0.029 A 
ATOM     53  N   UNL A   1      46.101  26.353  27.578  1.00  0.00    -0.354 N 
ATOM     54  C   UNL A   1      42.139  27.687  28.549  1.00  0.00     0.074 A 
ATOM     55  C   UNL A   1      41.181  26.610  28.462  1.00  0.00     0.031 C 
ATOM     56  C   UNL A   1      47.702  24.870  27.116  1.00  0.00     0.029 A 
ATOM     57  C   UNL A   1      47.446  26.299  27.257  1.00  0.00     0.049 A 
ATOM     58  H   UNL A   1      45.642  27.188  27.824  1.00  0.00     0.167 HD
ATOM     59  C   UNL A   1      41.836  28.933  28.982  1.00  0.00     0.034 A 
ATOM     60  C   UNL A   1      48.368  27.277  27.101  1.00  0.00     0.034 A 
ATOM     61  C   UNL A   1      42.785  30.007  29.057  1.00  0.00     0.049 A 
ATOM     62  C   UNL A   1      47.968  28.706  27.404  1.00  0.00     0.074 A 
ATOM     63  C   UNL A   1      42.576  31.302  29.492  1.00  0.00     0.029 A 
ATOM     64  N   UNL A   1      44.115  29.923  28.668  1.00  0.00    -0.354 N 
ATOM     65  N   UNL A   1      46.803  29.166  27.798  1.00  0.00    -0.248 NA
ATOM     66  C   UNL A   1      49.012  29.736  27.292  1.00  0.00     0.031 C 
ATOM     67  C   UNL A   1      43.749  32.027  29.270  1.00  0.00     0.029 A 
ATOM     68  C   UNL A   1      44.723  31.160  28.803  1.00  0.00     0.049 A 
ATOM     69  H   UNL A   1      44.560  29.106  28.346  1.00  0.00     0.167 HD
ATOM     70  C   UNL A   1      46.996  30.523  28.048  1.00  0.00     0.074 A 
ATOM     71  C   UNL A   1      48.383  30.809  27.750  1.00  0.00     0.031 C 
ATOM     72  C   UNL A   1      46.108  31.441  28.506  1.00  0.00     0.034 A 
BRANCH  59  73
ATOM     73  C   UNL A   1      40.403  29.179  29.365  1.00  0.00     0.023 A 
ATOM     74  C   UNL A   1      39.984  29.128  30.707  1.00  0.00     0.031 A 
ATOM     75  C   UNL A   1      39.431  29.386  28.373  1.00  0.00     0.131 A 
ATOM     76  C   UNL A   1      38.618  29.180  31.011  1.00  0.00     0.055 A 
ATOM     77  C   UNL A   1      38.083  29.544  28.693  1.00  0.00     0.041 A 
ATOM     78  F   UNL A   1      39.772  29.406  27.076  1.00  0.00    -0.206 F 
ATOM     79  C   UNL A   1      37.667  29.421  30.016  1.00  0.00     0.022 A 
BRANCH  76  80
ATOM     80  S   UNL A   1      38.094  28.734  32.688  1.00  0.00     0.124 S 
ATOM     81  O   UNL A   1      36.744  29.295  32.731  1.00  0.00    -0.237 OA
ATOM     82  O   UNL A   1      38.180  27.279  32.670  1.00  0.00    -0.237 OA
ATOM     83  O   UNL A   1      39.069  29.410  33.542  1.00  0.00    -0.744 OA
ENDBRANCH  76  80
ENDBRANCH  59  73
BRANCH  60  84
ATOM     84  C   UNL A   1      49.764  26.980  26.640  1.00  0.00     0.023 A 
ATOM     85  C   UNL A   1      50.841  26.918  27.543  1.00  0.00     0.031 A 
ATOM     86  C   UNL A   1      50.061  26.864  25.269  1.00  0.00     0.131 A 
ATOM     87  C   UNL A   1      52.161  26.809  27.065  1.00  0.00     0.055 A 
ATOM     88  C   UNL A   1      51.370  26.702  24.802  1.00  0.00     0.041 A 
ATOM     89  F   UNL A   1      49.081  26.931  24.355  1.00  0.00    -0.206 F 
ATOM     90  C   UNL A   1      52.431  26.688  25.702  1.00  0.00     0.022 A 
BRANCH  87  91
ATOM     91  S   UNL A   1      53.534  26.944  28.247  1.00  0.00     0.124 S 
ATOM     92  O   UNL A   1      54.577  26.175  27.578  1.00  0.00    -0.237 OA
ATOM     93  O   UNL A   1      53.738  28.387  28.310  1.00  0.00    -0.237 OA
ATOM     94  O   UNL A   1      52.997  26.340  29.466  1.00  0.00    -0.744 OA
ENDBRANCH  87  91
ENDBRANCH  60  84
BRANCH  72  95
ATOM     95  C   UNL A   1      46.613  32.836  28.780  1.00  0.00     0.023 A 
ATOM     96  C   UNL A   1      46.603  33.840  27.799  1.00  0.00     0.031 A 
ATOM     97  C   UNL A   1      47.083  33.172  30.064  1.00  0.00     0.131 A 
ATOM     98  C   UNL A   1      47.096  35.118  28.102  1.00  0.00     0.055 A 
ATOM     99  C   UNL A   1      47.498  34.466  30.382  1.00  0.00     0.041 A 
ATOM    100  F   UNL A   1      47.124  32.251  31.041  1.00  0.00    -0.206 F 
ATOM    101  C   UNL A   1      47.517  35.445  29.394  1.00  0.00     0.022 A 
BRANCH  98 102
ATOM    102  S   UNL A   1      47.274  36.321  26.758  1.00  0.00     0.124 S 
ATOM    103  O   UNL A   1      46.686  37.519  27.347  1.00  0.00    -0.237 OA
ATOM    104  O   UNL A   1      48.719  36.353  26.558  1.00  0.00    -0.237 OA
ATOM    105  O   UNL A   1      46.510  35.727  25.663  1.00  0.00    -0.744 OA
ENDBRANCH  98 102
ENDBRANCH  72  95
ENDBRANCH  46  47
ENDBRANCH  39  41
ENDBRANCH  38  39
ENDBRANCH  37  38
ENDBRANCH  36  37
ENDBRANCH  35  36
ENDBRANCH  34  35
ENDBRANCH   1  34
TORSDOF 26
ENDMDL
MODEL 2
REMARK VINA RESULT:     -11.5      1.658      2.101
REMARK SMILES O=C(OCCOCCOCCOCCOC(=O)c1ccc(-c2c3nc(c(-c4cc(S(=O)(=O)[O-])ccc4F)c4ccc([nH]4)c(-c4cc(S(=O)(=O)[O-])ccc4F)c4nc(c(-c5cc(S(=O)(=O)[O-])ccc5F)c5ccc2[nH]5)C=C4)C=C3)cc1)C1=Cc2cc(Cl)cc(-c3ccc(O)cc3)c2O[C@@H]1C(F)(F)F
REMARK SMILES IDX 10 1 9 2 8 3 7 4 6 5 5 6 4 7 3 8 2 9 1 10 81 11 82 12 98 13
REMARK SMILES IDX 83 14 97 15 84 16 96 17 85 18 88 19 86 20 87 21 99 22 100 23
REMARK SMILES IDX 101 24 102 25 89 26 90 27 95 28 91 29 94 30 92 31 93 32
REMARK SMILES IDX 11 34 12 35 13 36 14 37 15 38 16 39 17 40 18 41 19 42 80 43
REMARK SMILES IDX 20 44 79 45 21 46 22 47 23 48 73 49 24 50 78 51 72 52 74 53
REMARK SMILES IDX 25 54 77 55 71 56 70 57 26 59 58 60 38 61 57 62 39 63 42 64
REMARK SMILES IDX 56 65 75 66 40 67 41 68 55 70 76 71 43 72 27 73 28 74 36 75
REMARK SMILES IDX 29 76 35 77 37 78 34 79 30 80 31 81 32 82 33 83 59 84 60 85
REMARK SMILES IDX 68 86 61 87 67 88 69 89 66 90 62 91 63 92 64 93 65 94 44 95
REMARK SMILES IDX 45 96 53 97 46 98 52 99 54 100 51 101 47 102 48 103 49 104
REMARK SMILES IDX 50 105
REMARK H PARENT 93 33 74 58 42 69
REMARK Flexibility Score: inf
ROOT
ATOM      1  C   UNL A   1      37.710  22.686  25.301  1.00  0.00     0.188 C 
ENDROOT
BRANCH   1   2
ATOM      2  O   UNL A   1      36.454  22.651  25.940  1.00  0.00    -0.377 OA
BRANCH   2   3
ATOM      3  C   UNL A   1      35.872  21.385  25.787  1.00  0.00     0.188 C 
BRANCH   3   4
ATOM      4  C   UNL A   1      34.477  21.342  26.393  1.00  0.00     0.188 C 
BRANCH   4   5
ATOM      5  O   UNL A   1      34.026  22.052  27.595  1.00  0.00    -0.376 OA
BRANCH   5   6
ATOM      6  C   UNL A   1      32.638  22.809  28.078  1.00  0.00     0.202 C 
BRANCH   6   7
ATOM      7  C   UNL A   1      30.921  23.335  26.836  1.00  0.00     0.261 C 
BRANCH   7   8
ATOM      8  O   UNL A   1      30.963  23.826  25.401  1.00  0.00    -0.460 OA
BRANCH   8   9
ATOM      9  C   UNL A   1      31.274  22.850  24.541  1.00  0.00     0.338 C 
ATOM     10  O   UNL A   1      31.515  21.692  24.778  1.00  0.00    -0.246 OA
BRANCH   9  11
ATOM     11  C   UNL A   1      31.684  23.706  23.439  1.00  0.00     0.087 C 
ATOM     12  C   UNL A   1      30.699  24.711  23.056  1.00  0.00     0.027 C 
ATOM     13  C   UNL A   1      33.393  24.090  24.229  1.00  0.00     0.316 C 
ATOM     14  C   UNL A   1      30.810  26.453  23.478  1.00  0.00     0.019 A 
ATOM     15  O   UNL A   1      33.486  25.951  24.832  1.00  0.00    -0.475 OA
ATOM     16  C   UNL A   1      29.763  27.258  23.111  1.00  0.00     0.032 A 
ATOM     17  C   UNL A   1      32.085  27.099  24.465  1.00  0.00     0.135 A 
ATOM     18  C   UNL A   1      29.815  28.569  23.594  1.00  0.00     0.042 A 
ATOM     19  C   UNL A   1      31.992  28.392  24.968  1.00  0.00     0.026 A 
ATOM     20  Cl  UNL A   1      28.523  29.629  23.138  1.00  0.00    -0.084 Cl
ATOM     21  C   UNL A   1      30.843  29.091  24.468  1.00  0.00     0.033 A 
BRANCH  13  22
ATOM     22  C   UNL A   1      34.137  23.195  22.978  1.00  0.00     0.430 C 
ATOM     23  F   UNL A   1      33.832  23.440  21.690  1.00  0.00    -0.167 F 
ATOM     24  F   UNL A   1      35.474  23.503  23.042  1.00  0.00    -0.167 F 
ATOM     25  F   UNL A   1      34.101  21.848  23.142  1.00  0.00    -0.167 F 
ENDBRANCH  13  22
BRANCH  19  26
ATOM     26  C   UNL A   1      32.831  29.098  25.924  1.00  0.00    -0.014 A 
ATOM     27  C   UNL A   1      34.012  28.559  26.451  1.00  0.00     0.012 A 
ATOM     28  C   UNL A   1      32.392  30.296  26.463  1.00  0.00     0.012 A 
ATOM     29  C   UNL A   1      34.811  29.301  27.336  1.00  0.00     0.047 A 
ATOM     30  C   UNL A   1      33.255  31.099  27.203  1.00  0.00     0.047 A 
ATOM     31  C   UNL A   1      34.455  30.599  27.653  1.00  0.00     0.115 A 
BRANCH  31  32
ATOM     32  O   UNL A   1      35.262  31.350  28.447  1.00  0.00    -0.508 OA
ATOM     33  H   UNL A   1      35.985  30.952  28.891  1.00  0.00     0.293 HD
ENDBRANCH  31  32
ENDBRANCH  19  26
ENDBRANCH   9  11
ENDBRANCH   8   9
ENDBRANCH   7   8
ENDBRANCH   6   7
ENDBRANCH   5   6
ENDBRANCH   4   5
ENDBRANCH   3   4
ENDBRANCH   2   3
ENDBRANCH   1   2
BRANCH   1  34
ATOM     34  C   UNL A   1      38.918  22.250  26.118  1.00  0.00     0.188 C 
BRANCH  34  35
ATOM     35  O   UNL A   1      39.397  20.975  25.769  1.00  0.00    -0.376 OA
BRANCH  35  36
ATOM     36  C   UNL A   1      40.445  20.414  26.546  1.00  0.00     0.202 C 
BRANCH  36  37
ATOM     37  C   UNL A   1      41.407  19.318  26.027  1.00  0.00     0.261 C 
BRANCH  37  38
ATOM     38  O   UNL A   1      42.828  19.460  26.249  1.00  0.00    -0.460 OA
BRANCH  38  39
ATOM     39  C   UNL A   1      43.612  19.999  25.287  1.00  0.00     0.338 C 
ATOM     40  O   UNL A   1      43.858  19.509  24.202  1.00  0.00    -0.246 OA
BRANCH  39  41
ATOM     41  C   UNL A   1      43.922  21.404  25.695  1.00  0.00     0.060 A 
ATOM     42  C   UNL A   1      44.101  22.393  24.712  1.00  0.00     0.016 A 
ATOM     43  C   UNL A   1      43.969  21.768  27.042  1.00  0.00     0.016 A 
ATOM     44  C   UNL A   1      44.307  23.742  25.067  1.00  0.00     0.010 A 
ATOM     45  C   UNL A   1      44.189  23.112  27.395  1.00  0.00     0.010 A 
ATOM     46  C   UNL A   1      44.359  24.121  26.414  1.00  0.00    -0.014 A 
BRANCH  46  47
ATOM     47  C   UNL A   1      44.829  25.478  26.852  1.00  0.00     0.031 A 
ATOM     48  C   UNL A   1      43.751  26.425  27.302  1.00  0.00     0.074 A 
ATOM     49  C   UNL A   1      46.109  25.919  26.838  1.00  0.00     0.049 A 
ATOM     50  N   UNL A   1      43.823  27.695  27.596  1.00  0.00    -0.248 NA
ATOM     51  C   UNL A   1      42.402  25.847  27.432  1.00  0.00     0.031 C 
ATOM     52  C   UNL A   1      47.291  25.114  26.569  1.00  0.00     0.029 A 
ATOM     53  N   UNL A   1      46.631  27.186  27.025  1.00  0.00    -0.354 N 
ATOM     54  C   UNL A   1      42.536  28.057  27.964  1.00  0.00     0.074 A 
ATOM     55  C   UNL A   1      41.686  26.910  27.744  1.00  0.00     0.031 C 
ATOM     56  C   UNL A   1      48.377  25.905  26.491  1.00  0.00     0.029 A 
ATOM     57  C   UNL A   1      47.984  27.285  26.751  1.00  0.00     0.049 A 
ATOM     58  H   UNL A   1      46.089  27.949  27.328  1.00  0.00     0.167 HD
ATOM     59  C   UNL A   1      42.104  29.224  28.497  1.00  0.00     0.034 A 
ATOM     60  C   UNL A   1      48.814  28.354  26.719  1.00  0.00     0.034 A 
ATOM     61  C   UNL A   1      42.946  30.368  28.705  1.00  0.00     0.049 A 
ATOM     62  C   UNL A   1      48.273  29.705  27.135  1.00  0.00     0.074 A 
ATOM     63  C   UNL A   1      42.603  31.593  29.247  1.00  0.00     0.029 A 
ATOM     64  N   UNL A   1      44.288  30.442  28.359  1.00  0.00    -0.354 N 
ATOM     65  N   UNL A   1      47.059  30.019  27.525  1.00  0.00    -0.248 NA
ATOM     66  C   UNL A   1      49.218  30.832  27.156  1.00  0.00     0.031 C 
ATOM     67  C   UNL A   1      43.708  32.439  29.136  1.00  0.00     0.029 A 
ATOM     68  C   UNL A   1      44.773  31.712  28.628  1.00  0.00     0.049 A 
ATOM     69  H   UNL A   1      44.817  29.703  27.981  1.00  0.00     0.167 HD
ATOM     70  C   UNL A   1      47.117  31.358  27.904  1.00  0.00     0.074 A 
ATOM     71  C   UNL A   1      48.478  31.795  27.686  1.00  0.00     0.031 C 
ATOM     72  C   UNL A   1      46.133  32.144  28.410  1.00  0.00     0.034 A 
BRANCH  59  73
ATOM     73  C   UNL A   1      40.643  29.302  28.847  1.00  0.00     0.023 A 
ATOM     74  C   UNL A   1      40.205  29.222  30.181  1.00  0.00     0.031 A 
ATOM     75  C   UNL A   1      39.676  29.375  27.832  1.00  0.00     0.131 A 
ATOM     76  C   UNL A   1      38.836  29.114  30.456  1.00  0.00     0.055 A 
ATOM     77  C   UNL A   1      38.312  29.375  28.123  1.00  0.00     0.041 A 
ATOM     78  F   UNL A   1      40.040  29.417  26.541  1.00  0.00    -0.206 F 
ATOM     79  C   UNL A   1      37.885  29.223  29.439  1.00  0.00     0.022 A 
BRANCH  76  80
ATOM     80  S   UNL A   1      38.333  28.633  32.130  1.00  0.00     0.124 S 
ATOM     81  O   UNL A   1      39.302  29.360  32.948  1.00  0.00    -0.237 OA
ATOM     82  O   UNL A   1      36.957  29.110  32.196  1.00  0.00    -0.237 OA
ATOM     83  O   UNL A   1      38.493  27.180  32.131  1.00  0.00    -0.744 OA
ENDBRANCH  76  80
ENDBRANCH  59  73
BRANCH  60  84
ATOM     84  C   UNL A   1      50.245  28.229  26.285  1.00  0.00     0.023 A 
ATOM     85  C   UNL A   1      50.605  28.207  24.926  1.00  0.00     0.031 A 
ATOM     86  C   UNL A   1      51.267  28.014  27.229  1.00  0.00     0.131 A 
ATOM     87  C   UNL A   1      51.929  27.917  24.547  1.00  0.00     0.055 A 
ATOM     88  C   UNL A   1      52.593  27.778  26.849  1.00  0.00     0.041 A 
ATOM     89  F   UNL A   1      50.988  28.006  28.542  1.00  0.00    -0.206 F 
ATOM     90  C   UNL A   1      52.928  27.715  25.500  1.00  0.00     0.022 A 
BRANCH  87  91
ATOM     91  S   UNL A   1      52.307  27.692  22.784  1.00  0.00     0.124 S 
ATOM     92  O   UNL A   1      52.764  29.024  22.407  1.00  0.00    -0.237 OA
ATOM     93  O   UNL A   1      53.327  26.649  22.825  1.00  0.00    -0.237 OA
ATOM     94  O   UNL A   1      51.026  27.284  22.209  1.00  0.00    -0.744 OA
ENDBRANCH  87  91
ENDBRANCH  60  84
BRANCH  72  95
ATOM     95  C   UNL A   1      46.496  33.547  28.828  1.00  0.00     0.023 A 
ATOM     96  C   UNL A   1      46.361  34.643  27.961  1.00  0.00     0.031 A 
ATOM     97  C   UNL A   1      46.957  33.793  30.136  1.00  0.00     0.131 A 
ATOM     98  C   UNL A   1      46.725  35.927  28.396  1.00  0.00     0.055 A 
ATOM     99  C   UNL A   1      47.243  35.082  30.587  1.00  0.00     0.041 A 
ATOM    100  F   UNL A   1      47.116  32.783  31.007  1.00  0.00    -0.206 F 
ATOM    101  C   UNL A   1      47.138  36.157  29.711  1.00  0.00     0.022 A 
BRANCH  98 102
ATOM    102  S   UNL A   1      46.747  37.279  27.188  1.00  0.00     0.124 S 
ATOM    103  O   UNL A   1      47.760  38.166  27.750  1.00  0.00    -0.237 OA
ATOM    104  O   UNL A   1      47.115  36.590  25.956  1.00  0.00    -0.237 OA
ATOM    105  O   UNL A   1      45.380  37.794  27.226  1.00  0.00    -0.744 OA
ENDBRANCH  98 102
ENDBRANCH  72  95
ENDBRANCH  46  47
ENDBRANCH  39  41
ENDBRANCH  38  39
ENDBRANCH  37  38
ENDBRANCH  36  37
ENDBRANCH  35  36
ENDBRANCH  34  35
ENDBRANCH   1  34
TORSDOF 26
ENDMDL
MODEL 3
REMARK VINA RESULT:     -10.8      3.208      8.302
REMARK SMILES O=C(OCCOCCOCCOCCOC(=O)c1ccc(-c2c3nc(c(-c4cc(S(=O)(=O)[O-])ccc4F)c4ccc([nH]4)c(-c4cc(S(=O)(=O)[O-])ccc4F)c4nc(c(-c5cc(S(=O)(=O)[O-])ccc5F)c5ccc2[nH]5)C=C4)C=C3)cc1)C1=Cc2cc(Cl)cc(-c3ccc(O)cc3)c2O[C@@H]1C(F)(F)F
REMARK SMILES IDX 10 1 9 2 8 3 7 4 6 5 5 6 4 7 3 8 2 9 1 10 81 11 82 12 98 13
REMARK SMILES IDX 83 14 97 15 84 16 96 17 85 18 88 19 86 20 87 21 99 22 100 23
REMARK SMILES IDX 101 24 102 25 89 26 90 27 95 28 91 29 94 30 92 31 93 32
REMARK SMILES IDX 11 34 12 35 13 36 14 37 15 38 16 39 17 40 18 41 19 42 80 43
REMARK SMILES IDX 20 44 79 45 21 46 22 47 23 48 73 49 24 50 78 51 72 52 74 53
REMARK SMILES IDX 25 54 77 55 71 56 70 57 26 59 58 60 38 61 57 62 39 63 42 64
REMARK SMILES IDX 56 65 75 66 40 67 41 68 55 70 76 71 43 72 27 73 28 74 36 75
REMARK SMILES IDX 29 76 35 77 37 78 34 79 30 80 31 81 32 82 33 83 59 84 60 85
REMARK SMILES IDX 68 86 61 87 67 88 69 89 66 90 62 91 63 92 64 93 65 94 44 95
REMARK SMILES IDX 45 96 53 97 46 98 52 99 54 100 51 101 47 102 48 103 49 104
REMARK SMILES IDX 50 105
REMARK H PARENT 93 33 74 58 42 69
REMARK Flexibility Score: inf
ROOT
ATOM      1  C   UNL A   1      38.703  21.334  25.704  1.00  0.00     0.188 C 
ENDROOT
BRANCH   1   2
ATOM      2  O   UNL A   1      37.595  22.180  25.495  1.00  0.00    -0.377 OA
BRANCH   2   3
ATOM      3  C   UNL A   1      36.404  21.480  25.732  1.00  0.00     0.188 C 
BRANCH   3   4
ATOM      4  C   UNL A   1      35.445  22.296  26.589  1.00  0.00     0.188 C 
BRANCH   4   5
ATOM      5  O   UNL A   1      34.061  21.943  26.923  1.00  0.00    -0.376 OA
BRANCH   5   6
ATOM      6  C   UNL A   1      32.815  22.661  27.737  1.00  0.00     0.202 C 
BRANCH   6   7
ATOM      7  C   UNL A   1      31.036  23.588  26.874  1.00  0.00     0.261 C 
BRANCH   7   8
ATOM      8  O   UNL A   1      30.849  24.009  25.429  1.00  0.00    -0.460 OA
BRANCH   8   9
ATOM      9  C   UNL A   1      31.096  23.010  24.575  1.00  0.00     0.338 C 
ATOM     10  O   UNL A   1      31.241  21.837  24.816  1.00  0.00    -0.246 OA
BRANCH   9  11
ATOM     11  C   UNL A   1      31.591  23.829  23.479  1.00  0.00     0.087 C 
ATOM     12  C   UNL A   1      30.680  24.886  23.056  1.00  0.00     0.027 C 
ATOM     13  C   UNL A   1      33.293  24.121  24.321  1.00  0.00     0.316 C 
ATOM     14  C   UNL A   1      30.879  26.623  23.466  1.00  0.00     0.019 A 
ATOM     15  O   UNL A   1      33.477  25.979  24.910  1.00  0.00    -0.475 OA
ATOM     16  C   UNL A   1      29.894  27.484  23.058  1.00  0.00     0.032 A 
ATOM     17  C   UNL A   1      32.159  27.203  24.489  1.00  0.00     0.135 A 
ATOM     18  C   UNL A   1      30.008  28.795  23.531  1.00  0.00     0.042 A 
ATOM     19  C   UNL A   1      32.125  28.505  24.977  1.00  0.00     0.026 A 
ATOM     20  Cl  UNL A   1      28.795  29.924  23.024  1.00  0.00    -0.084 Cl
ATOM     21  C   UNL A   1      31.036  29.264  24.434  1.00  0.00     0.033 A 
BRANCH  13  22
ATOM     22  C   UNL A   1      34.023  23.171  23.103  1.00  0.00     0.430 C 
ATOM     23  F   UNL A   1      33.532  23.175  21.849  1.00  0.00    -0.167 F 
ATOM     24  F   UNL A   1      35.289  23.678  22.940  1.00  0.00    -0.167 F 
ATOM     25  F   UNL A   1      34.231  21.872  23.440  1.00  0.00    -0.167 F 
ENDBRANCH  13  22
BRANCH  19  26
ATOM     26  C   UNL A   1      32.973  29.170  25.953  1.00  0.00    -0.014 A 
ATOM     27  C   UNL A   1      34.173  28.623  26.426  1.00  0.00     0.012 A 
ATOM     28  C   UNL A   1      32.528  30.330  26.566  1.00  0.00     0.012 A 
ATOM     29  C   UNL A   1      34.979  29.327  27.335  1.00  0.00     0.047 A 
ATOM     30  C   UNL A   1      33.394  31.104  27.332  1.00  0.00     0.047 A 
ATOM     31  C   UNL A   1      34.611  30.599  27.730  1.00  0.00     0.115 A 
BRANCH  31  32
ATOM     32  O   UNL A   1      35.423  31.319  28.548  1.00  0.00    -0.508 OA
ATOM     33  H   UNL A   1      36.091  30.887  29.043  1.00  0.00     0.293 HD
ENDBRANCH  31  32
ENDBRANCH  19  26
ENDBRANCH   9  11
ENDBRANCH   8   9
ENDBRANCH   7   8
ENDBRANCH   6   7
ENDBRANCH   5   6
ENDBRANCH   4   5
ENDBRANCH   3   4
ENDBRANCH   2   3
ENDBRANCH   1   2
BRANCH   1  34
ATOM     34  C   UNL A   1      39.842  21.879  26.554  1.00  0.00     0.188 C 
BRANCH  34  35
ATOM     35  O   UNL A   1      40.452  20.902  27.360  1.00  0.00    -0.376 OA
BRANCH  35  36
ATOM     36  C   UNL A   1      41.815  20.583  27.116  1.00  0.00     0.202 C 
BRANCH  36  37
ATOM     37  C   UNL A   1      42.712  21.354  26.119  1.00  0.00     0.261 C 
BRANCH  37  38
ATOM     38  O   UNL A   1      43.258  22.636  26.500  1.00  0.00    -0.460 OA
BRANCH  38  39
ATOM     39  C   UNL A   1      43.469  23.588  25.562  1.00  0.00     0.338 C 
ATOM     40  O   UNL A   1      43.557  23.408  24.363  1.00  0.00    -0.246 OA
BRANCH  39  41
ATOM     41  C   UNL A   1      43.328  24.918  26.231  1.00  0.00     0.060 A 
ATOM     42  C   UNL A   1      42.816  26.011  25.512  1.00  0.00     0.016 A 
ATOM     43  C   UNL A   1      43.635  25.078  27.585  1.00  0.00     0.016 A 
ATOM     44  C   UNL A   1      42.591  27.254  26.140  1.00  0.00     0.010 A 
ATOM     45  C   UNL A   1      43.424  26.321  28.207  1.00  0.00     0.010 A 
ATOM     46  C   UNL A   1      42.896  27.429  27.496  1.00  0.00    -0.014 A 
BRANCH  46  47
ATOM     47  C   UNL A   1      42.924  28.781  28.147  1.00  0.00     0.031 A 
ATOM     48  C   UNL A   1      44.268  29.453  28.192  1.00  0.00     0.074 A 
ATOM     49  C   UNL A   1      41.870  29.410  28.719  1.00  0.00     0.049 A 
ATOM     50  N   UNL A   1      44.637  30.544  28.808  1.00  0.00    -0.248 NA
ATOM     51  C   UNL A   1      45.343  28.791  27.434  1.00  0.00     0.031 C 
ATOM     52  C   UNL A   1      40.479  28.985  28.655  1.00  0.00     0.029 A 
ATOM     53  N   UNL A   1      41.812  30.544  29.507  1.00  0.00    -0.354 N 
ATOM     54  C   UNL A   1      45.978  30.705  28.491  1.00  0.00     0.074 A 
ATOM     55  C   UNL A   1      46.383  29.545  27.732  1.00  0.00     0.031 C 
ATOM     56  C   UNL A   1      39.725  29.760  29.455  1.00  0.00     0.029 A 
ATOM     57  C   UNL A   1      40.568  30.782  30.065  1.00  0.00     0.049 A 
ATOM     58  H   UNL A   1      42.587  31.131  29.658  1.00  0.00     0.167 HD
ATOM     59  C   UNL A   1      46.790  31.754  28.756  1.00  0.00     0.034 A 
ATOM     60  C   UNL A   1      40.149  31.711  30.955  1.00  0.00     0.034 A 
ATOM     61  C   UNL A   1      46.391  32.902  29.521  1.00  0.00     0.049 A 
ATOM     62  C   UNL A   1      41.125  32.780  31.400  1.00  0.00     0.074 A 
ATOM     63  C   UNL A   1      47.140  34.021  29.835  1.00  0.00     0.029 A 
ATOM     64  N   UNL A   1      45.147  33.071  30.112  1.00  0.00    -0.354 N 
ATOM     65  N   UNL A   1      42.381  32.941  31.053  1.00  0.00    -0.248 NA
ATOM     66  C   UNL A   1      40.619  33.816  32.314  1.00  0.00     0.031 C 
ATOM     67  C   UNL A   1      46.385  34.816  30.699  1.00  0.00     0.029 A 
ATOM     68  C   UNL A   1      45.128  34.252  30.835  1.00  0.00     0.049 A 
ATOM     69  H   UNL A   1      44.392  32.446  30.030  1.00  0.00     0.167 HD
ATOM     70  C   UNL A   1      42.789  34.133  31.647  1.00  0.00     0.074 A 
ATOM     71  C   UNL A   1      41.652  34.643  32.383  1.00  0.00     0.031 C 
ATOM     72  C   UNL A   1      43.991  34.758  31.568  1.00  0.00     0.034 A 
BRANCH  59  73
ATOM     73  C   UNL A   1      48.197  31.662  28.233  1.00  0.00     0.023 A 
ATOM     74  C   UNL A   1      49.211  31.021  28.968  1.00  0.00     0.031 A 
ATOM     75  C   UNL A   1      48.547  32.291  27.028  1.00  0.00     0.131 A 
ATOM     76  C   UNL A   1      50.542  31.112  28.540  1.00  0.00     0.055 A 
ATOM     77  C   UNL A   1      49.858  32.286  26.554  1.00  0.00     0.041 A 
ATOM     78  F   UNL A   1      47.625  32.948  26.307  1.00  0.00    -0.206 F 
ATOM     79  C   UNL A   1      50.868  31.712  27.321  1.00  0.00     0.022 A 
BRANCH  76  80
ATOM     80  S   UNL A   1      51.850  30.612  29.691  1.00  0.00     0.124 S 
ATOM     81  O   UNL A   1      52.736  31.775  29.651  1.00  0.00    -0.237 OA
ATOM     82  O   UNL A   1      51.117  30.411  30.935  1.00  0.00    -0.237 OA
ATOM     83  O   UNL A   1      52.396  29.401  29.083  1.00  0.00    -0.744 OA
ENDBRANCH  76  80
ENDBRANCH  59  73
BRANCH  60  84
ATOM     84  C   UNL A   1      38.753  31.707  31.503  1.00  0.00     0.023 A 
ATOM     85  C   UNL A   1      37.729  32.476  30.920  1.00  0.00     0.031 A 
ATOM     86  C   UNL A   1      38.447  31.018  32.692  1.00  0.00     0.131 A 
ATOM     87  C   UNL A   1      36.478  32.588  31.554  1.00  0.00     0.055 A 
ATOM     88  C   UNL A   1      37.184  31.089  33.291  1.00  0.00     0.041 A 
ATOM     89  F   UNL A   1      39.384  30.279  33.307  1.00  0.00    -0.206 F 
ATOM     90  C   UNL A   1      36.194  31.889  32.728  1.00  0.00     0.022 A 
BRANCH  87  91
ATOM     91  S   UNL A   1      35.256  33.754  30.883  1.00  0.00     0.124 S 
ATOM     92  O   UNL A   1      35.179  34.747  31.947  1.00  0.00    -0.237 OA
ATOM     93  O   UNL A   1      35.899  34.184  29.645  1.00  0.00    -0.237 OA
ATOM     94  O   UNL A   1      34.060  32.932  30.707  1.00  0.00    -0.744 OA
ENDBRANCH  87  91
ENDBRANCH  60  84
BRANCH  72  95
ATOM     95  C   UNL A   1      44.134  36.101  32.241  1.00  0.00     0.023 A 
ATOM     96  C   UNL A   1      44.451  36.223  33.603  1.00  0.00     0.031 A 
ATOM     97  C   UNL A   1      43.980  37.282  31.489  1.00  0.00     0.131 A 
ATOM     98  C   UNL A   1      44.560  37.496  34.183  1.00  0.00     0.055 A 
ATOM     99  C   UNL A   1      44.167  38.544  32.054  1.00  0.00     0.041 A 
ATOM    100  F   UNL A   1      43.668  37.228  30.184  1.00  0.00    -0.206 F 
ATOM    101  C   UNL A   1      44.448  38.656  33.411  1.00  0.00     0.022 A 
BRANCH  98 102
ATOM    102  S   UNL A   1      44.750  37.618  35.982  1.00  0.00     0.124 S 
ATOM    103  O   UNL A   1      44.416  39.016  36.225  1.00  0.00    -0.237 OA
ATOM    104  O   UNL A   1      43.783  36.638  36.464  1.00  0.00    -0.237 OA
ATOM    105  O   UNL A   1      46.151  37.266  36.202  1.00  0.00    -0.744 OA
ENDBRANCH  98 102
ENDBRANCH  72  95
ENDBRANCH  46  47
ENDBRANCH  39  41
ENDBRANCH  38  39
ENDBRANCH  37  38
ENDBRANCH  36  37
ENDBRANCH  35  36
ENDBRANCH  34  35
ENDBRANCH   1  34
TORSDOF 26
ENDMDL
