MODEL 1
REMARK VINA RESULT:      -9.9      0.000      0.000
REMARK SMILES Cc1cc(C)c(NS(=O)(=O)c2cccc3cc(C)cnc23)c(C(=O)OCCOCCOCCOCCOC(=O)c2ccc(-c3c4nc(c(-c5cc(S(=O)(=O)[O-])ccc5F)c5ccc([nH]5)c(-c5cc(S(=O)(=O)[O-])ccc5F)c5nc(c(-c6cc(S(=O)(=O)[O-])ccc6F)c6ccc3[nH]6)C=C5)C=C4)cc2)c1
REMARK SMILES IDX 31 1 30 2 29 3 28 4 27 5 26 6 25 7 23 8 24 9 22 10 1 11 2 12
REMARK SMILES IDX 3 13 103 14 4 15 5 16 6 17 7 18 8 20 9 21 10 22 11 23 12 24
REMARK SMILES IDX 21 25 13 26 15 27 20 28 14 29 16 30 19 31 17 32 18 33 32 34
REMARK SMILES IDX 33 35 34 36 35 37 36 38 37 39 38 40 39 41 40 42 41 43 102 44
REMARK SMILES IDX 42 45 101 46 43 47 44 48 45 49 95 50 46 51 100 52 94 53
REMARK SMILES IDX 96 54 47 55 99 56 93 57 92 58 48 60 80 61 60 62 79 63 61 64
REMARK SMILES IDX 64 65 78 66 97 67 62 68 63 69 77 71 98 72 65 73 49 74 50 75
REMARK SMILES IDX 58 76 51 77 57 78 59 79 56 80 52 81 53 82 54 83 55 84 81 85
REMARK SMILES IDX 82 86 90 87 83 88 89 89 91 90 88 91 84 92 85 93 86 94 87 95
REMARK SMILES IDX 66 96 67 97 75 98 68 99 74 100 76 101 73 102 69 103 70 104
REMARK SMILES IDX 71 105 72 106
REMARK H PARENT 7 19 96 59 64 70
REMARK Flexibility Score: inf
ROOT
ATOM      1  O   UNL A   1      31.544  25.580  26.670  1.00  0.00    -0.377 OA
ENDROOT
BRANCH   1   2
ATOM      2  C   UNL A   1      30.666  24.734  25.945  1.00  0.00     0.188 C 
BRANCH   2   3
ATOM      3  C   UNL A   1      30.360  23.353  26.561  1.00  0.00     0.188 C 
BRANCH   3   4
ATOM      4  O   UNL A   1      31.253  22.966  27.593  1.00  0.00    -0.376 OA
BRANCH   4   5
ATOM      5  C   UNL A   1      32.538  22.500  27.225  1.00  0.00     0.202 C 
BRANCH   5   6
ATOM      6  C   UNL A   1      32.609  21.225  26.379  1.00  0.00     0.261 C 
BRANCH   6   7
ATOM      7  O   UNL A   1      32.336  21.374  24.979  1.00  0.00    -0.460 OA
BRANCH   7   8
ATOM      8  C   UNL A   1      33.379  21.480  24.129  1.00  0.00     0.340 C 
ATOM      9  O   UNL A   1      34.024  20.561  23.659  1.00  0.00    -0.246 OA
BRANCH   8  10
ATOM     10  C   UNL A   1      33.597  22.909  23.785  1.00  0.00     0.084 A 
ATOM     11  C   UNL A   1      31.992  25.549  21.603  1.00  0.00     0.044 C 
ATOM     12  C   UNL A   1      32.767  24.909  22.714  1.00  0.00    -0.050 A 
ATOM     13  C   UNL A   1      33.532  25.651  23.618  1.00  0.00     0.009 A 
ATOM     14  C   UNL A   1      32.737  23.529  22.867  1.00  0.00     0.021 A 
ATOM     15  C   UNL A   1      34.400  25.022  24.539  1.00  0.00    -0.026 A 
ATOM     16  C   UNL A   1      34.944  25.826  25.682  1.00  0.00     0.046 C 
ATOM     17  C   UNL A   1      34.603  23.643  24.450  1.00  0.00     0.066 A 
BRANCH  17  18
ATOM     18  N   UNL A   1      35.927  23.054  24.382  1.00  0.00    -0.278 N 
ATOM     19  H   UNL A   1      36.450  23.350  23.601  1.00  0.00     0.180 HD
BRANCH  18  20
ATOM     20  S   UNL A   1      36.739  21.983  25.357  1.00  0.00     0.264 S 
ATOM     21  O   UNL A   1      35.802  21.583  26.390  1.00  0.00    -0.201 OA
ATOM     22  O   UNL A   1      37.276  20.972  24.464  1.00  0.00    -0.201 OA
BRANCH  20  23
ATOM     23  C   UNL A   1      38.141  22.678  26.189  1.00  0.00     0.114 A 
ATOM     24  C   UNL A   1      38.068  24.077  26.379  1.00  0.00     0.024 A 
ATOM     25  C   UNL A   1      39.328  21.973  26.363  1.00  0.00     0.091 A 
ATOM     26  C   UNL A   1      39.216  24.816  26.615  1.00  0.00     0.002 A 
ATOM     27  C   UNL A   1      40.499  22.761  26.484  1.00  0.00     0.002 A 
ATOM     28  N   UNL A   1      39.406  20.625  26.339  1.00  0.00    -0.255 NA
ATOM     29  C   UNL A   1      40.438  24.160  26.619  1.00  0.00     0.010 A 
ATOM     30  C   UNL A   1      41.742  22.130  26.364  1.00  0.00     0.015 A 
ATOM     31  C   UNL A   1      40.627  20.045  26.264  1.00  0.00     0.115 A 
ATOM     32  C   UNL A   1      41.814  20.752  26.187  1.00  0.00    -0.032 A 
ATOM     33  C   UNL A   1      43.112  20.090  25.850  1.00  0.00     0.046 C 
ENDBRANCH  20  23
ENDBRANCH  18  20
ENDBRANCH  17  18
ENDBRANCH   8  10
ENDBRANCH   7   8
ENDBRANCH   6   7
ENDBRANCH   5   6
ENDBRANCH   4   5
ENDBRANCH   3   4
ENDBRANCH   2   3
ENDBRANCH   1   2
BRANCH   1  34
ATOM     34  C   UNL A   1      31.382  26.996  26.588  1.00  0.00     0.188 C 
BRANCH  34  35
ATOM     35  C   UNL A   1      31.307  27.750  25.235  1.00  0.00     0.188 C 
BRANCH  35  36
ATOM     36  O   UNL A   1      31.398  29.162  25.333  1.00  0.00    -0.376 OA
BRANCH  36  37
ATOM     37  C   UNL A   1      31.562  29.729  26.619  1.00  0.00     0.202 C 
BRANCH  37  38
ATOM     38  C   UNL A   1      32.343  31.046  26.665  1.00  0.00     0.261 C 
BRANCH  38  39
ATOM     39  O   UNL A   1      33.745  30.931  26.951  1.00  0.00    -0.460 OA
BRANCH  39  40
ATOM     40  C   UNL A   1      34.316  31.938  27.654  1.00  0.00     0.338 C 
ATOM     41  O   UNL A   1      33.832  33.021  27.907  1.00  0.00    -0.246 OA
BRANCH  40  42
ATOM     42  C   UNL A   1      35.566  31.404  28.240  1.00  0.00     0.060 A 
ATOM     43  C   UNL A   1      35.625  30.058  28.626  1.00  0.00     0.016 A 
ATOM     44  C   UNL A   1      36.682  32.232  28.375  1.00  0.00     0.016 A 
ATOM     45  C   UNL A   1      36.798  29.544  29.179  1.00  0.00     0.010 A 
ATOM     46  C   UNL A   1      37.845  31.722  28.951  1.00  0.00     0.010 A 
ATOM     47  C   UNL A   1      37.898  30.386  29.385  1.00  0.00    -0.014 A 
BRANCH  47  48
ATOM     48  C   UNL A   1      39.013  29.942  30.255  1.00  0.00     0.031 A 
ATOM     49  C   UNL A   1      39.081  30.505  31.648  1.00  0.00     0.074 A 
ATOM     50  C   UNL A   1      39.934  29.062  29.829  1.00  0.00     0.049 A 
ATOM     51  N   UNL A   1      39.990  30.338  32.572  1.00  0.00    -0.248 NA
ATOM     52  C   UNL A   1      37.970  31.384  32.045  1.00  0.00     0.031 C 
ATOM     53  C   UNL A   1      39.943  28.415  28.520  1.00  0.00     0.029 A 
ATOM     54  N   UNL A   1      41.051  28.569  30.457  1.00  0.00    -0.354 N 
ATOM     55  C   UNL A   1      39.563  31.093  33.659  1.00  0.00     0.074 A 
ATOM     56  C   UNL A   1      38.340  31.754  33.259  1.00  0.00     0.031 C 
ATOM     57  C   UNL A   1      41.023  27.617  28.436  1.00  0.00     0.029 A 
ATOM     58  C   UNL A   1      41.804  27.733  29.668  1.00  0.00     0.049 A 
ATOM     59  H   UNL A   1      41.290  28.793  31.386  1.00  0.00     0.167 HD
ATOM     60  C   UNL A   1      40.135  31.214  34.883  1.00  0.00     0.034 A 
ATOM     61  C   UNL A   1      43.000  27.154  29.904  1.00  0.00     0.034 A 
ATOM     62  C   UNL A   1      41.369  30.567  35.253  1.00  0.00     0.049 A 
ATOM     63  C   UNL A   1      43.675  27.385  31.237  1.00  0.00     0.074 A 
ATOM     64  C   UNL A   1      42.039  30.618  36.463  1.00  0.00     0.029 A 
ATOM     65  N   UNL A   1      42.130  29.765  34.412  1.00  0.00    -0.354 N 
ATOM     66  N   UNL A   1      43.264  28.098  32.262  1.00  0.00    -0.248 NA
ATOM     67  C   UNL A   1      44.973  26.729  31.446  1.00  0.00     0.031 C 
ATOM     68  C   UNL A   1      43.241  29.915  36.326  1.00  0.00     0.029 A 
ATOM     69  C   UNL A   1      43.280  29.346  35.063  1.00  0.00     0.049 A 
ATOM     70  H   UNL A   1      41.887  29.528  33.488  1.00  0.00     0.167 HD
ATOM     71  C   UNL A   1      44.237  27.946  33.248  1.00  0.00     0.074 A 
ATOM     72  C   UNL A   1      45.248  27.066  32.697  1.00  0.00     0.031 C 
ATOM     73  C   UNL A   1      44.288  28.477  34.497  1.00  0.00     0.034 A 
BRANCH  60  74
ATOM     74  C   UNL A   1      39.454  32.131  35.872  1.00  0.00     0.023 A 
ATOM     75  C   UNL A   1      39.819  33.483  36.002  1.00  0.00     0.031 A 
ATOM     76  C   UNL A   1      38.464  31.633  36.737  1.00  0.00     0.131 A 
ATOM     77  C   UNL A   1      39.263  34.264  37.026  1.00  0.00     0.055 A 
ATOM     78  C   UNL A   1      37.848  32.441  37.695  1.00  0.00     0.041 A 
ATOM     79  F   UNL A   1      38.092  30.344  36.682  1.00  0.00    -0.206 F 
ATOM     80  C   UNL A   1      38.260  33.760  37.856  1.00  0.00     0.022 A 
BRANCH  77  81
ATOM     81  S   UNL A   1      39.992  35.890  37.367  1.00  0.00     0.124 S 
ATOM     82  O   UNL A   1      39.694  36.611  36.132  1.00  0.00    -0.237 OA
ATOM     83  O   UNL A   1      39.261  36.322  38.552  1.00  0.00    -0.237 OA
ATOM     84  O   UNL A   1      41.408  35.593  37.579  1.00  0.00    -0.744 OA
ENDBRANCH  77  81
ENDBRANCH  60  74
BRANCH  61  85
ATOM     85  C   UNL A   1      43.665  26.339  28.846  1.00  0.00     0.023 A 
ATOM     86  C   UNL A   1      44.507  26.929  27.891  1.00  0.00     0.031 A 
ATOM     87  C   UNL A   1      43.422  24.957  28.745  1.00  0.00     0.131 A 
ATOM     88  C   UNL A   1      45.046  26.149  26.854  1.00  0.00     0.055 A 
ATOM     89  C   UNL A   1      44.004  24.175  27.745  1.00  0.00     0.041 A 
ATOM     90  F   UNL A   1      42.619  24.341  29.627  1.00  0.00    -0.206 F 
ATOM     91  C   UNL A   1      44.813  24.773  26.784  1.00  0.00     0.022 A 
BRANCH  88  92
ATOM     92  S   UNL A   1      45.993  26.973  25.545  1.00  0.00     0.124 S 
ATOM     93  O   UNL A   1      45.141  28.116  25.238  1.00  0.00    -0.237 OA
ATOM     94  O   UNL A   1      47.251  27.272  26.223  1.00  0.00    -0.237 OA
ATOM     95  O   UNL A   1      46.079  25.958  24.497  1.00  0.00    -0.744 OA
ENDBRANCH  88  92
ENDBRANCH  61  85
BRANCH  73  96
ATOM     96  C   UNL A   1      45.452  28.078  35.374  1.00  0.00     0.023 A 
ATOM     97  C   UNL A   1      46.648  28.817  35.408  1.00  0.00     0.031 A 
ATOM     98  C   UNL A   1      45.360  26.935  36.190  1.00  0.00     0.131 A 
ATOM     99  C   UNL A   1      47.722  28.375  36.198  1.00  0.00     0.055 A 
ATOM    100  C   UNL A   1      46.407  26.538  37.024  1.00  0.00     0.041 A 
ATOM    101  F   UNL A   1      44.245  26.188  36.197  1.00  0.00    -0.206 F 
ATOM    102  C   UNL A   1      47.601  27.252  37.020  1.00  0.00     0.022 A 
BRANCH  99 103
ATOM    103  S   UNL A   1      49.316  29.229  36.059  1.00  0.00     0.124 S 
ATOM    104  O   UNL A   1      50.185  28.170  35.558  1.00  0.00    -0.237 OA
ATOM    105  O   UNL A   1      49.013  30.305  35.120  1.00  0.00    -0.237 OA
ATOM    106  O   UNL A   1      49.592  29.664  37.428  1.00  0.00    -0.744 OA
ENDBRANCH  99 103
ENDBRANCH  73  96
ENDBRANCH  47  48
ENDBRANCH  40  42
ENDBRANCH  39  40
ENDBRANCH  38  39
ENDBRANCH  37  38
ENDBRANCH  36  37
ENDBRANCH  35  36
ENDBRANCH  34  35
ENDBRANCH   1  34
TORSDOF 26
ENDMDL
MODEL 2
REMARK VINA RESULT:      -9.8      1.860      7.353
REMARK SMILES Cc1cc(C)c(NS(=O)(=O)c2cccc3cc(C)cnc23)c(C(=O)OCCOCCOCCOCCOC(=O)c2ccc(-c3c4nc(c(-c5cc(S(=O)(=O)[O-])ccc5F)c5ccc([nH]5)c(-c5cc(S(=O)(=O)[O-])ccc5F)c5nc(c(-c6cc(S(=O)(=O)[O-])ccc6F)c6ccc3[nH]6)C=C5)C=C4)cc2)c1
REMARK SMILES IDX 31 1 30 2 29 3 28 4 27 5 26 6 25 7 23 8 24 9 22 10 1 11 2 12
REMARK SMILES IDX 3 13 103 14 4 15 5 16 6 17 7 18 8 20 9 21 10 22 11 23 12 24
REMARK SMILES IDX 21 25 13 26 15 27 20 28 14 29 16 30 19 31 17 32 18 33 32 34
REMARK SMILES IDX 33 35 34 36 35 37 36 38 37 39 38 40 39 41 40 42 41 43 102 44
REMARK SMILES IDX 42 45 101 46 43 47 44 48 45 49 95 50 46 51 100 52 94 53
REMARK SMILES IDX 96 54 47 55 99 56 93 57 92 58 48 60 80 61 60 62 79 63 61 64
REMARK SMILES IDX 64 65 78 66 97 67 62 68 63 69 77 71 98 72 65 73 49 74 50 75
REMARK SMILES IDX 58 76 51 77 57 78 59 79 56 80 52 81 53 82 54 83 55 84 81 85
REMARK SMILES IDX 82 86 90 87 83 88 89 89 91 90 88 91 84 92 85 93 86 94 87 95
REMARK SMILES IDX 66 96 67 97 75 98 68 99 74 100 76 101 73 102 69 103 70 104
REMARK SMILES IDX 71 105 72 106
REMARK H PARENT 7 19 96 59 64 70
REMARK Flexibility Score: inf
ROOT
ATOM      1  O   UNL A   1      31.754  26.308  26.822  1.00  0.00    -0.377 OA
ENDROOT
BRANCH   1   2
ATOM      2  C   UNL A   1      30.853  25.810  25.847  1.00  0.00     0.188 C 
BRANCH   2   3
ATOM      3  C   UNL A   1      30.075  24.527  26.205  1.00  0.00     0.188 C 
BRANCH   3   4
ATOM      4  O   UNL A   1      30.694  23.732  27.203  1.00  0.00    -0.376 OA
BRANCH   4   5
ATOM      5  C   UNL A   1      31.895  23.060  26.873  1.00  0.00     0.202 C 
BRANCH   5   6
ATOM      6  C   UNL A   1      31.772  21.708  26.161  1.00  0.00     0.261 C 
BRANCH   6   7
ATOM      7  O   UNL A   1      31.297  21.742  24.809  1.00  0.00    -0.460 OA
BRANCH   7   8
ATOM      8  C   UNL A   1      32.181  21.525  23.813  1.00  0.00     0.340 C 
ATOM      9  O   UNL A   1      32.378  20.469  23.238  1.00  0.00    -0.246 OA
BRANCH   8  10
ATOM     10  C   UNL A   1      32.853  22.801  23.457  1.00  0.00     0.084 A 
ATOM     11  C   UNL A   1      32.201  25.797  21.241  1.00  0.00     0.044 C 
ATOM     12  C   UNL A   1      32.723  24.951  22.363  1.00  0.00    -0.050 A 
ATOM     13  C   UNL A   1      33.684  25.414  23.266  1.00  0.00     0.009 A 
ATOM     14  C   UNL A   1      32.245  23.658  22.528  1.00  0.00     0.021 A 
ATOM     15  C   UNL A   1      34.297  24.546  24.198  1.00  0.00    -0.026 A 
ATOM     16  C   UNL A   1      35.068  25.142  25.338  1.00  0.00     0.046 C 
ATOM     17  C   UNL A   1      34.041  23.175  24.123  1.00  0.00     0.066 A 
BRANCH  17  18
ATOM     18  N   UNL A   1      35.102  22.187  24.069  1.00  0.00    -0.278 N 
ATOM     19  H   UNL A   1      35.558  22.147  23.197  1.00  0.00     0.180 HD
BRANCH  18  20
ATOM     20  S   UNL A   1      35.703  21.112  25.183  1.00  0.00     0.264 S 
ATOM     21  O   UNL A   1      35.222  21.558  26.478  1.00  0.00    -0.201 OA
ATOM     22  O   UNL A   1      35.318  19.798  24.703  1.00  0.00    -0.201 OA
BRANCH  20  23
ATOM     23  C   UNL A   1      37.472  21.086  25.283  1.00  0.00     0.114 A 
ATOM     24  C   UNL A   1      38.044  19.803  25.119  1.00  0.00     0.024 A 
ATOM     25  C   UNL A   1      38.204  22.160  25.779  1.00  0.00     0.091 A 
ATOM     26  C   UNL A   1      39.325  19.540  25.576  1.00  0.00     0.002 A 
ATOM     27  C   UNL A   1      39.462  21.837  26.345  1.00  0.00     0.002 A 
ATOM     28  N   UNL A   1      37.743  23.428  25.809  1.00  0.00    -0.255 NA
ATOM     29  C   UNL A   1      40.015  20.547  26.233  1.00  0.00     0.010 A 
ATOM     30  C   UNL A   1      40.114  22.805  27.118  1.00  0.00     0.015 A 
ATOM     31  C   UNL A   1      38.419  24.351  26.533  1.00  0.00     0.115 A 
ATOM     32  C   UNL A   1      39.556  24.070  27.272  1.00  0.00    -0.032 A 
ATOM     33  C   UNL A   1      40.124  25.042  28.256  1.00  0.00     0.046 C 
ENDBRANCH  20  23
ENDBRANCH  18  20
ENDBRANCH  17  18
ENDBRANCH   8  10
ENDBRANCH   7   8
ENDBRANCH   6   7
ENDBRANCH   5   6
ENDBRANCH   4   5
ENDBRANCH   3   4
ENDBRANCH   2   3
ENDBRANCH   1   2
BRANCH   1  34
ATOM     34  C   UNL A   1      32.457  27.526  26.572  1.00  0.00     0.188 C 
BRANCH  34  35
ATOM     35  C   UNL A   1      32.626  28.113  25.147  1.00  0.00     0.188 C 
BRANCH  35  36
ATOM     36  O   UNL A   1      32.211  29.463  25.005  1.00  0.00    -0.376 OA
BRANCH  36  37
ATOM     37  C   UNL A   1      31.515  30.060  26.083  1.00  0.00     0.202 C 
BRANCH  37  38
ATOM     38  C   UNL A   1      32.103  31.377  26.600  1.00  0.00     0.261 C 
BRANCH  38  39
ATOM     39  O   UNL A   1      33.266  31.257  27.431  1.00  0.00    -0.460 OA
BRANCH  39  40
ATOM     40  C   UNL A   1      33.949  32.395  27.705  1.00  0.00     0.338 C 
ATOM     41  O   UNL A   1      33.535  33.533  27.628  1.00  0.00    -0.246 OA
BRANCH  40  42
ATOM     42  C   UNL A   1      35.235  31.994  28.317  1.00  0.00     0.060 A 
ATOM     43  C   UNL A   1      35.400  30.679  28.772  1.00  0.00     0.016 A 
ATOM     44  C   UNL A   1      36.280  32.915  28.408  1.00  0.00     0.016 A 
ATOM     45  C   UNL A   1      36.609  30.289  29.349  1.00  0.00     0.010 A 
ATOM     46  C   UNL A   1      37.479  32.531  29.009  1.00  0.00     0.010 A 
ATOM     47  C   UNL A   1      37.637  31.227  29.511  1.00  0.00    -0.014 A 
BRANCH  47  48
ATOM     48  C   UNL A   1      38.781  30.919  30.402  1.00  0.00     0.031 A 
ATOM     49  C   UNL A   1      39.883  30.053  29.855  1.00  0.00     0.074 A 
ATOM     50  C   UNL A   1      38.848  31.397  31.656  1.00  0.00     0.049 A 
ATOM     51  N   UNL A   1      40.945  29.579  30.451  1.00  0.00    -0.248 NA
ATOM     52  C   UNL A   1      39.758  29.664  28.442  1.00  0.00     0.031 C 
ATOM     53  C   UNL A   1      37.866  32.284  32.276  1.00  0.00     0.029 A 
ATOM     54  N   UNL A   1      39.785  31.193  32.638  1.00  0.00    -0.354 N 
ATOM     55  C   UNL A   1      41.614  28.834  29.486  1.00  0.00     0.074 A 
ATOM     56  C   UNL A   1      40.811  28.882  28.284  1.00  0.00     0.031 C 
ATOM     57  C   UNL A   1      38.247  32.536  33.542  1.00  0.00     0.029 A 
ATOM     58  C   UNL A   1      39.474  31.795  33.833  1.00  0.00     0.049 A 
ATOM     59  H   UNL A   1      40.605  30.663  32.498  1.00  0.00     0.167 HD
ATOM     60  C   UNL A   1      42.797  28.179  29.592  1.00  0.00     0.034 A 
ATOM     61  C   UNL A   1      40.093  31.729  35.030  1.00  0.00     0.034 A 
ATOM     62  C   UNL A   1      43.570  28.122  30.808  1.00  0.00     0.049 A 
ATOM     63  C   UNL A   1      41.355  30.907  35.158  1.00  0.00     0.074 A 
ATOM     64  C   UNL A   1      44.781  27.490  31.031  1.00  0.00     0.029 A 
ATOM     65  N   UNL A   1      43.200  28.705  32.014  1.00  0.00    -0.354 N 
ATOM     66  N   UNL A   1      41.985  30.206  34.240  1.00  0.00    -0.248 NA
ATOM     67  C   UNL A   1      41.994  30.871  36.480  1.00  0.00     0.031 C 
ATOM     68  C   UNL A   1      45.099  27.622  32.386  1.00  0.00     0.029 A 
ATOM     69  C   UNL A   1      44.138  28.415  32.992  1.00  0.00     0.049 A 
ATOM     70  H   UNL A   1      42.388  29.245  32.153  1.00  0.00     0.167 HD
ATOM     71  C   UNL A   1      43.110  29.677  34.868  1.00  0.00     0.074 A 
ATOM     72  C   UNL A   1      43.077  30.148  36.239  1.00  0.00     0.031 C 
ATOM     73  C   UNL A   1      44.086  28.881  34.360  1.00  0.00     0.034 A 
BRANCH  60  74
ATOM     74  C   UNL A   1      43.277  27.426  28.374  1.00  0.00     0.023 A 
ATOM     75  C   UNL A   1      43.229  26.022  28.304  1.00  0.00     0.031 A 
ATOM     76  C   UNL A   1      43.843  28.117  27.289  1.00  0.00     0.131 A 
ATOM     77  C   UNL A   1      43.814  25.353  27.218  1.00  0.00     0.055 A 
ATOM     78  C   UNL A   1      44.341  27.449  26.168  1.00  0.00     0.041 A 
ATOM     79  F   UNL A   1      43.944  29.456  27.308  1.00  0.00    -0.206 F 
ATOM     80  C   UNL A   1      44.344  26.059  26.136  1.00  0.00     0.022 A 
BRANCH  77  81
ATOM     81  S   UNL A   1      44.023  23.554  27.320  1.00  0.00     0.124 S 
ATOM     82  O   UNL A   1      45.476  23.430  27.387  1.00  0.00    -0.237 OA
ATOM     83  O   UNL A   1      43.295  23.220  28.539  1.00  0.00    -0.237 OA
ATOM     84  O   UNL A   1      43.421  23.068  26.079  1.00  0.00    -0.744 OA
ENDBRANCH  77  81
ENDBRANCH  60  74
BRANCH  61  85
ATOM     85  C   UNL A   1      39.510  32.418  36.219  1.00  0.00     0.023 A 
ATOM     86  C   UNL A   1      40.022  33.642  36.677  1.00  0.00     0.031 A 
ATOM     87  C   UNL A   1      38.459  31.830  36.946  1.00  0.00     0.131 A 
ATOM     88  C   UNL A   1      39.510  34.219  37.851  1.00  0.00     0.055 A 
ATOM     89  C   UNL A   1      37.916  32.435  38.081  1.00  0.00     0.041 A 
ATOM     90  F   UNL A   1      37.936  30.657  36.557  1.00  0.00    -0.206 F 
ATOM     91  C   UNL A   1      38.450  33.633  38.546  1.00  0.00     0.022 A 
BRANCH  88  92
ATOM     92  S   UNL A   1      40.305  35.712  38.506  1.00  0.00     0.124 S 
ATOM     93  O   UNL A   1      41.693  35.508  38.109  1.00  0.00    -0.237 OA
ATOM     94  O   UNL A   1      39.585  36.771  37.805  1.00  0.00    -0.237 OA
ATOM     95  O   UNL A   1      40.048  35.633  39.942  1.00  0.00    -0.744 OA
ENDBRANCH  88  92
ENDBRANCH  61  85
BRANCH  73  96
ATOM     96  C   UNL A   1      45.229  28.512  35.278  1.00  0.00     0.023 A 
ATOM     97  C   UNL A   1      45.169  27.398  36.133  1.00  0.00     0.031 A 
ATOM     98  C   UNL A   1      46.400  29.293  35.294  1.00  0.00     0.131 A 
ATOM     99  C   UNL A   1      46.234  27.128  37.007  1.00  0.00     0.055 A 
ATOM    100  C   UNL A   1      47.484  28.981  36.117  1.00  0.00     0.041 A 
ATOM    101  F   UNL A   1      46.514  30.371  34.502  1.00  0.00    -0.206 F 
ATOM    102  C   UNL A   1      47.398  27.901  36.990  1.00  0.00     0.022 A 
BRANCH  99 103
ATOM    103  S   UNL A   1      46.038  25.813  38.241  1.00  0.00     0.124 S 
ATOM    104  O   UNL A   1      45.326  26.504  39.311  1.00  0.00    -0.237 OA
ATOM    105  O   UNL A   1      45.272  24.810  37.509  1.00  0.00    -0.237 OA
ATOM    106  O   UNL A   1      47.414  25.431  38.557  1.00  0.00    -0.744 OA
ENDBRANCH  99 103
ENDBRANCH  73  96
ENDBRANCH  47  48
ENDBRANCH  40  42
ENDBRANCH  39  40
ENDBRANCH  38  39
ENDBRANCH  37  38
ENDBRANCH  36  37
ENDBRANCH  35  36
ENDBRANCH  34  35
ENDBRANCH   1  34
TORSDOF 26
ENDMDL
MODEL 3
REMARK VINA RESULT:      -9.3      5.811      9.817
REMARK SMILES Cc1cc(C)c(NS(=O)(=O)c2cccc3cc(C)cnc23)c(C(=O)OCCOCCOCCOCCOC(=O)c2ccc(-c3c4nc(c(-c5cc(S(=O)(=O)[O-])ccc5F)c5ccc([nH]5)c(-c5cc(S(=O)(=O)[O-])ccc5F)c5nc(c(-c6cc(S(=O)(=O)[O-])ccc6F)c6ccc3[nH]6)C=C5)C=C4)cc2)c1
REMARK SMILES IDX 31 1 30 2 29 3 28 4 27 5 26 6 25 7 23 8 24 9 22 10 1 11 2 12
REMARK SMILES IDX 3 13 103 14 4 15 5 16 6 17 7 18 8 20 9 21 10 22 11 23 12 24
REMARK SMILES IDX 21 25 13 26 15 27 20 28 14 29 16 30 19 31 17 32 18 33 32 34
REMARK SMILES IDX 33 35 34 36 35 37 36 38 37 39 38 40 39 41 40 42 41 43 102 44
REMARK SMILES IDX 42 45 101 46 43 47 44 48 45 49 95 50 46 51 100 52 94 53
REMARK SMILES IDX 96 54 47 55 99 56 93 57 92 58 48 60 80 61 60 62 79 63 61 64
REMARK SMILES IDX 64 65 78 66 97 67 62 68 63 69 77 71 98 72 65 73 49 74 50 75
REMARK SMILES IDX 58 76 51 77 57 78 59 79 56 80 52 81 53 82 54 83 55 84 81 85
REMARK SMILES IDX 82 86 90 87 83 88 89 89 91 90 88 91 84 92 85 93 86 94 87 95
REMARK SMILES IDX 66 96 67 97 75 98 68 99 74 100 76 101 73 102 69 103 70 104
REMARK SMILES IDX 71 105 72 106
REMARK H PARENT 7 19 96 59 64 70
REMARK Flexibility Score: inf
ROOT
ATOM      1  O   UNL A   1      35.431  33.430  29.051  1.00  0.00    -0.377 OA
ENDROOT
BRANCH   1   2
ATOM      2  C   UNL A   1      34.903  33.014  27.802  1.00  0.00     0.188 C 
BRANCH   2   3
ATOM      3  C   UNL A   1      34.479  31.535  27.680  1.00  0.00     0.188 C 
BRANCH   3   4
ATOM      4  O   UNL A   1      33.079  31.323  27.753  1.00  0.00    -0.376 OA
BRANCH   4   5
ATOM      5  C   UNL A   1      32.425  30.777  26.623  1.00  0.00     0.202 C 
BRANCH   5   6
ATOM      6  C   UNL A   1      33.143  29.652  25.871  1.00  0.00     0.261 C 
BRANCH   6   7
ATOM      7  O   UNL A   1      33.123  28.358  26.489  1.00  0.00    -0.460 OA
BRANCH   7   8
ATOM      8  C   UNL A   1      31.962  27.671  26.502  1.00  0.00     0.340 C 
ATOM      9  O   UNL A   1      31.301  27.387  27.485  1.00  0.00    -0.246 OA
BRANCH   8  10
ATOM     10  C   UNL A   1      31.554  27.357  25.109  1.00  0.00     0.084 A 
ATOM     11  C   UNL A   1      29.113  28.667  22.532  1.00  0.00     0.044 C 
ATOM     12  C   UNL A   1      30.313  28.006  23.140  1.00  0.00    -0.050 A 
ATOM     13  C   UNL A   1      31.227  27.270  22.382  1.00  0.00     0.009 A 
ATOM     14  C   UNL A   1      30.542  28.117  24.506  1.00  0.00     0.021 A 
ATOM     15  C   UNL A   1      32.244  26.503  22.994  1.00  0.00    -0.026 A 
ATOM     16  C   UNL A   1      33.377  26.002  22.149  1.00  0.00     0.046 C 
ATOM     17  C   UNL A   1      32.250  26.365  24.384  1.00  0.00     0.066 A 
BRANCH  17  18
ATOM     18  N   UNL A   1      32.313  25.071  25.037  1.00  0.00    -0.278 N 
ATOM     19  H   UNL A   1      32.914  25.052  25.816  1.00  0.00     0.180 HD
BRANCH  18  20
ATOM     20  S   UNL A   1      31.572  23.615  24.734  1.00  0.00     0.264 S 
ATOM     21  O   UNL A   1      30.843  23.272  25.942  1.00  0.00    -0.201 OA
ATOM     22  O   UNL A   1      30.837  23.801  23.497  1.00  0.00    -0.201 OA
BRANCH  20  23
ATOM     23  C   UNL A   1      32.696  22.280  24.427  1.00  0.00     0.114 A 
ATOM     24  C   UNL A   1      32.087  21.005  24.389  1.00  0.00     0.024 A 
ATOM     25  C   UNL A   1      34.076  22.433  24.519  1.00  0.00     0.091 A 
ATOM     26  C   UNL A   1      32.840  19.859  24.580  1.00  0.00     0.002 A 
ATOM     27  C   UNL A   1      34.805  21.260  24.832  1.00  0.00     0.002 A 
ATOM     28  N   UNL A   1      34.704  23.622  24.406  1.00  0.00    -0.255 NA
ATOM     29  C   UNL A   1      34.194  19.992  24.850  1.00  0.00     0.010 A 
ATOM     30  C   UNL A   1      36.141  21.391  25.229  1.00  0.00     0.015 A 
ATOM     31  C   UNL A   1      36.009  23.707  24.760  1.00  0.00     0.115 A 
ATOM     32  C   UNL A   1      36.744  22.644  25.256  1.00  0.00    -0.032 A 
ATOM     33  C   UNL A   1      38.093  22.831  25.872  1.00  0.00     0.046 C 
ENDBRANCH  20  23
ENDBRANCH  18  20
ENDBRANCH  17  18
ENDBRANCH   8  10
ENDBRANCH   7   8
ENDBRANCH   6   7
ENDBRANCH   5   6
ENDBRANCH   4   5
ENDBRANCH   3   4
ENDBRANCH   2   3
ENDBRANCH   1   2
BRANCH   1  34
ATOM     34  C   UNL A   1      36.795  33.147  29.365  1.00  0.00     0.188 C 
BRANCH  34  35
ATOM     35  C   UNL A   1      37.608  33.990  30.381  1.00  0.00     0.188 C 
BRANCH  35  36
ATOM     36  O   UNL A   1      37.705  33.427  31.680  1.00  0.00    -0.376 OA
BRANCH  36  37
ATOM     37  C   UNL A   1      36.521  33.317  32.446  1.00  0.00     0.202 C 
BRANCH  37  38
ATOM     38  C   UNL A   1      36.158  31.900  32.903  1.00  0.00     0.261 C 
BRANCH  38  39
ATOM     39  O   UNL A   1      36.447  30.850  31.968  1.00  0.00    -0.460 OA
BRANCH  39  40
ATOM     40  C   UNL A   1      37.306  29.884  32.373  1.00  0.00     0.338 C 
ATOM     41  O   UNL A   1      37.036  28.877  32.995  1.00  0.00    -0.246 OA
BRANCH  40  42
ATOM     42  C   UNL A   1      38.612  30.172  31.740  1.00  0.00     0.060 A 
ATOM     43  C   UNL A   1      39.724  30.441  32.549  1.00  0.00     0.016 A 
ATOM     44  C   UNL A   1      38.734  30.143  30.349  1.00  0.00     0.016 A 
ATOM     45  C   UNL A   1      40.961  30.713  31.963  1.00  0.00     0.010 A 
ATOM     46  C   UNL A   1      39.966  30.440  29.765  1.00  0.00     0.010 A 
ATOM     47  C   UNL A   1      41.076  30.758  30.568  1.00  0.00    -0.014 A 
BRANCH  47  48
ATOM     48  C   UNL A   1      42.281  31.357  29.946  1.00  0.00     0.031 A 
ATOM     49  C   UNL A   1      43.378  30.427  29.506  1.00  0.00     0.074 A 
ATOM     50  C   UNL A   1      42.399  32.684  29.770  1.00  0.00     0.049 A 
ATOM     51  N   UNL A   1      44.555  30.702  29.010  1.00  0.00    -0.248 NA
ATOM     52  C   UNL A   1      43.106  28.989  29.656  1.00  0.00     0.031 C 
ATOM     53  C   UNL A   1      41.383  33.676  30.112  1.00  0.00     0.029 A 
ATOM     54  N   UNL A   1      43.438  33.425  29.264  1.00  0.00    -0.354 N 
ATOM     55  C   UNL A   1      45.166  29.472  28.791  1.00  0.00     0.074 A 
ATOM     56  C   UNL A   1      44.246  28.456  29.253  1.00  0.00     0.031 C 
ATOM     57  C   UNL A   1      41.855  34.901  29.819  1.00  0.00     0.029 A 
ATOM     58  C   UNL A   1      43.221  34.781  29.310  1.00  0.00     0.049 A 
ATOM     59  H   UNL A   1      44.261  33.022  28.902  1.00  0.00     0.167 HD
ATOM     60  C   UNL A   1      46.380  29.215  28.244  1.00  0.00     0.034 A 
ATOM     61  C   UNL A   1      44.045  35.806  29.005  1.00  0.00     0.034 A 
ATOM     62  C   UNL A   1      47.293  30.243  27.812  1.00  0.00     0.049 A 
ATOM     63  C   UNL A   1      45.435  35.502  28.495  1.00  0.00     0.074 A 
ATOM     64  C   UNL A   1      48.548  30.100  27.244  1.00  0.00     0.029 A 
ATOM     65  N   UNL A   1      47.061  31.609  27.918  1.00  0.00    -0.354 N 
ATOM     66  N   UNL A   1      46.005  34.336  28.288  1.00  0.00    -0.248 NA
ATOM     67  C   UNL A   1      46.290  36.653  28.172  1.00  0.00     0.031 C 
ATOM     68  C   UNL A   1      49.102  31.374  27.083  1.00  0.00     0.029 A 
ATOM     69  C   UNL A   1      48.161  32.318  27.461  1.00  0.00     0.049 A 
ATOM     70  H   UNL A   1      46.234  32.014  28.266  1.00  0.00     0.167 HD
ATOM     71  C   UNL A   1      47.272  34.616  27.778  1.00  0.00     0.074 A 
ATOM     72  C   UNL A   1      47.376  36.059  27.700  1.00  0.00     0.031 C 
ATOM     73  C   UNL A   1      48.257  33.759  27.401  1.00  0.00     0.034 A 
BRANCH  60  74
ATOM     74  C   UNL A   1      46.798  27.766  28.149  1.00  0.00     0.023 A 
ATOM     75  C   UNL A   1      46.473  26.973  27.033  1.00  0.00     0.031 A 
ATOM     76  C   UNL A   1      47.484  27.153  29.211  1.00  0.00     0.131 A 
ATOM     77  C   UNL A   1      46.755  25.599  27.043  1.00  0.00     0.055 A 
ATOM     78  C   UNL A   1      47.844  25.804  29.176  1.00  0.00     0.041 A 
ATOM     79  F   UNL A   1      47.798  27.849  30.315  1.00  0.00    -0.206 F 
ATOM     80  C   UNL A   1      47.463  25.015  28.096  1.00  0.00     0.022 A 
BRANCH  77  81
ATOM     81  S   UNL A   1      46.034  24.558  25.745  1.00  0.00     0.124 S 
ATOM     82  O   UNL A   1      46.421  25.283  24.537  1.00  0.00    -0.237 OA
ATOM     83  O   UNL A   1      46.698  23.278  25.962  1.00  0.00    -0.237 OA
ATOM     84  O   UNL A   1      44.603  24.579  26.043  1.00  0.00    -0.744 OA
ENDBRANCH  77  81
ENDBRANCH  60  74
BRANCH  61  85
ATOM     85  C   UNL A   1      43.603  37.216  29.215  1.00  0.00     0.023 A 
ATOM     86  C   UNL A   1      42.905  37.919  28.221  1.00  0.00     0.031 A 
ATOM     87  C   UNL A   1      43.921  37.899  30.404  1.00  0.00     0.131 A 
ATOM     88  C   UNL A   1      42.582  39.272  28.416  1.00  0.00     0.055 A 
ATOM     89  C   UNL A   1      43.549  39.228  30.616  1.00  0.00     0.041 A 
ATOM     90  F   UNL A   1      44.593  37.278  31.386  1.00  0.00    -0.206 F 
ATOM     91  C   UNL A   1      42.885  39.926  29.613  1.00  0.00     0.022 A 
BRANCH  88  92
ATOM     92  S   UNL A   1      41.829  40.194  27.047  1.00  0.00     0.124 S 
ATOM     93  O   UNL A   1      41.245  39.121  26.253  1.00  0.00    -0.237 OA
ATOM     94  O   UNL A   1      40.887  41.062  27.748  1.00  0.00    -0.237 OA
ATOM     95  O   UNL A   1      42.965  40.879  26.433  1.00  0.00    -0.744 OA
ENDBRANCH  88  92
ENDBRANCH  61  85
BRANCH  73  96
ATOM     96  C   UNL A   1      49.515  34.362  26.819  1.00  0.00     0.023 A 
ATOM     97  C   UNL A   1      50.707  34.457  27.560  1.00  0.00     0.031 A 
ATOM     98  C   UNL A   1      49.519  34.850  25.500  1.00  0.00     0.131 A 
ATOM     99  C   UNL A   1      51.834  35.075  26.994  1.00  0.00     0.055 A 
ATOM    100  C   UNL A   1      50.662  35.402  24.920  1.00  0.00     0.041 A 
ATOM    101  F   UNL A   1      48.409  34.789  24.745  1.00  0.00    -0.206 F 
ATOM    102  C   UNL A   1      51.824  35.530  25.673  1.00  0.00     0.022 A 
BRANCH  99 103
ATOM    103  S   UNL A   1      53.285  35.370  28.043  1.00  0.00     0.124 S 
ATOM    104  O   UNL A   1      53.846  34.029  28.167  1.00  0.00    -0.237 OA
ATOM    105  O   UNL A   1      54.060  36.315  27.246  1.00  0.00    -0.237 OA
ATOM    106  O   UNL A   1      52.714  35.920  29.272  1.00  0.00    -0.744 OA
ENDBRANCH  99 103
ENDBRANCH  73  96
ENDBRANCH  47  48
ENDBRANCH  40  42
ENDBRANCH  39  40
ENDBRANCH  38  39
ENDBRANCH  37  38
ENDBRANCH  36  37
ENDBRANCH  35  36
ENDBRANCH  34  35
ENDBRANCH   1  34
TORSDOF 26
ENDMDL
