MODEL 1
REMARK VINA RESULT:      -7.8      0.000      0.000
REMARK SMILES Cc1cc(Br)cc([N+](=O)[O-])c1OCCC[C@@](C)([NH3+])C(=O)OCCOCCOCCOCCOC(=O)c1ccc(-c2c3nc(c(-c4cc(S(=O)(=O)[O-])ccc4F)c4ccc([nH]4)c(-c4cc(S(=O)(=O)[O-])ccc4F)c4nc(c(-c5cc(S(=O)(=O)[O-])ccc5F)c5ccc2[nH]5)C=C4)C=C3)cc1
REMARK SMILES IDX 25 1 24 2 23 3 22 4 21 5 19 6 20 7 16 8 17 9 15 10 14 11
REMARK SMILES IDX 13 12 12 13 11 14 1 15 2 16 3 17 4 18 7 19 5 20 6 21 8 22
REMARK SMILES IDX 9 23 10 24 18 25 26 29 27 30 28 31 29 32 30 33 31 34 32 35
REMARK SMILES IDX 33 36 34 37 35 38 36 39 37 40 98 41 38 42 97 43 39 44 40 45
REMARK SMILES IDX 41 46 91 47 42 48 96 49 90 50 92 51 43 52 95 53 89 54 88 55
REMARK SMILES IDX 44 57 76 58 56 59 75 60 57 61 60 62 74 63 93 64 58 65 59 66
REMARK SMILES IDX 73 68 94 69 61 70 45 71 46 72 54 73 47 74 53 75 55 76 52 77
REMARK SMILES IDX 48 78 49 79 50 80 51 81 77 82 78 83 86 84 79 85 85 86 87 87
REMARK SMILES IDX 84 88 80 89 81 90 82 91 83 92 62 93 63 94 71 95 64 96 70 97
REMARK SMILES IDX 72 98 69 99 65 100 66 101 67 102 68 103
REMARK H PARENT 18 26 18 27 18 28 92 56 60 67
REMARK Flexibility Score: inf
ROOT
ATOM      1  C   UNL A   1      33.051  32.878  27.469  1.00  0.00     0.188 C 
ENDROOT
BRANCH   1   2
ATOM      2  O   UNL A   1      32.323  31.729  27.088  1.00  0.00    -0.376 OA
BRANCH   2   3
ATOM      3  C   UNL A   1      31.280  31.804  26.124  1.00  0.00     0.202 C 
BRANCH   3   4
ATOM      4  C   UNL A   1      30.964  30.654  25.161  1.00  0.00     0.261 C 
BRANCH   4   5
ATOM      5  O   UNL A   1      32.049  29.761  24.875  1.00  0.00    -0.459 OA
BRANCH   5   6
ATOM      6  C   UNL A   1      31.891  28.435  25.138  1.00  0.00     0.367 C 
ATOM      7  O   UNL A   1      31.150  27.688  24.515  1.00  0.00    -0.245 OA
BRANCH   6   8
ATOM      8  C   UNL A   1      32.746  28.029  26.376  1.00  0.00     0.190 C 
ATOM      9  C   UNL A   1      31.789  28.104  27.579  1.00  0.00     0.092 C 
BRANCH   8  10
ATOM     10  C   UNL A   1      33.425  26.621  26.301  1.00  0.00     0.084 C 
BRANCH  10  11
ATOM     11  C   UNL A   1      34.181  26.159  25.034  1.00  0.00     0.049 C 
BRANCH  11  12
ATOM     12  C   UNL A   1      33.806  24.828  24.345  1.00  0.00     0.230 C 
BRANCH  12  13
ATOM     13  O   UNL A   1      34.089  23.707  25.200  1.00  0.00    -0.487 OA
BRANCH  13  14
ATOM     14  C   UNL A   1      33.680  22.449  24.810  1.00  0.00     0.200 A 
ATOM     15  C   UNL A   1      36.117  21.854  24.416  1.00  0.00     0.049 C 
ATOM     16  C   UNL A   1      34.698  21.477  24.680  1.00  0.00    -0.001 A 
ATOM     17  C   UNL A   1      34.416  20.108  24.803  1.00  0.00     0.023 A 
ATOM     18  C   UNL A   1      33.114  19.680  24.996  1.00  0.00     0.025 A 
ATOM     19  C   UNL A   1      32.350  21.989  24.893  1.00  0.00     0.312 A 
ATOM     20  Br  UNL A   1      32.770  17.842  25.256  1.00  0.00    -0.051 Br
ATOM     21  C   UNL A   1      32.075  20.603  24.991  1.00  0.00     0.105 A 
BRANCH  19  22
ATOM     22  N   UNL A   1      31.186  22.885  24.853  1.00  0.00     0.066 N 
ATOM     23  O   UNL A   1      30.761  23.216  23.733  1.00  0.00    -0.258 OA
ATOM     24  O   UNL A   1      30.695  23.286  25.912  1.00  0.00    -0.258 OA
ENDBRANCH  19  22
ENDBRANCH  13  14
ENDBRANCH  12  13
ENDBRANCH  11  12
ENDBRANCH  10  11
ENDBRANCH   8  10
BRANCH   8  25
ATOM     25  N   UNL A   1      33.747  29.084  26.726  1.00  0.00    -0.344 N 
ATOM     26  H   UNL A   1      33.483  29.525  27.607  1.00  0.00     0.345 HD
ATOM     27  H   UNL A   1      33.772  29.787  25.987  1.00  0.00     0.345 HD
ATOM     28  H   UNL A   1      34.670  28.660  26.821  1.00  0.00     0.345 HD
ENDBRANCH   8  25
ENDBRANCH   6   8
ENDBRANCH   5   6
ENDBRANCH   4   5
ENDBRANCH   3   4
ENDBRANCH   2   3
ENDBRANCH   1   2
BRANCH   1  29
ATOM     29  C   UNL A   1      32.272  34.106  27.927  1.00  0.00     0.188 C 
BRANCH  29  30
ATOM     30  O   UNL A   1      33.068  34.972  28.715  1.00  0.00    -0.377 OA
BRANCH  30  31
ATOM     31  C   UNL A   1      34.417  34.535  28.832  1.00  0.00     0.188 C 
BRANCH  31  32
ATOM     32  C   UNL A   1      34.928  34.361  30.271  1.00  0.00     0.188 C 
BRANCH  32  33
ATOM     33  O   UNL A   1      35.095  32.984  30.635  1.00  0.00    -0.376 OA
BRANCH  33  34
ATOM     34  C   UNL A   1      34.853  32.651  31.998  1.00  0.00     0.202 C 
BRANCH  34  35
ATOM     35  C   UNL A   1      35.996  31.821  32.595  1.00  0.00     0.261 C 
BRANCH  35  36
ATOM     36  O   UNL A   1      36.841  31.208  31.611  1.00  0.00    -0.460 OA
BRANCH  36  37
ATOM     37  C   UNL A   1      37.577  30.155  32.037  1.00  0.00     0.338 C 
ATOM     38  O   UNL A   1      37.175  29.191  32.666  1.00  0.00    -0.246 OA
BRANCH  37  39
ATOM     39  C   UNL A   1      38.897  30.248  31.387  1.00  0.00     0.060 A 
ATOM     40  C   UNL A   1      40.030  30.300  32.208  1.00  0.00     0.016 A 
ATOM     41  C   UNL A   1      39.026  30.196  29.994  1.00  0.00     0.016 A 
ATOM     42  C   UNL A   1      41.297  30.328  31.635  1.00  0.00     0.010 A 
ATOM     43  C   UNL A   1      40.296  30.249  29.419  1.00  0.00     0.010 A 
ATOM     44  C   UNL A   1      41.431  30.351  30.239  1.00  0.00    -0.014 A 
BRANCH  44  45
ATOM     45  C   UNL A   1      42.732  30.765  29.672  1.00  0.00     0.031 A 
ATOM     46  C   UNL A   1      43.022  32.240  29.631  1.00  0.00     0.074 A 
ATOM     47  C   UNL A   1      43.648  29.862  29.281  1.00  0.00     0.049 A 
ATOM     48  N   UNL A   1      44.114  32.866  29.284  1.00  0.00    -0.248 NA
ATOM     49  C   UNL A   1      41.923  33.128  30.048  1.00  0.00     0.031 C 
ATOM     50  C   UNL A   1      43.471  28.411  29.308  1.00  0.00     0.029 A 
ATOM     51  N   UNL A   1      44.917  30.038  28.796  1.00  0.00    -0.354 N 
ATOM     52  C   UNL A   1      43.843  34.219  29.465  1.00  0.00     0.074 A 
ATOM     53  C   UNL A   1      42.467  34.324  29.896  1.00  0.00     0.031 C 
ATOM     54  C   UNL A   1      44.598  27.828  28.861  1.00  0.00     0.029 A 
ATOM     55  C   UNL A   1      45.567  28.862  28.503  1.00  0.00     0.049 A 
ATOM     56  H   UNL A   1      45.327  30.924  28.669  1.00  0.00     0.167 HD
ATOM     57  C   UNL A   1      44.673  35.276  29.304  1.00  0.00     0.034 A 
ATOM     58  C   UNL A   1      46.802  28.657  28.004  1.00  0.00     0.034 A 
ATOM     59  C   UNL A   1      46.027  35.148  28.828  1.00  0.00     0.049 A 
ATOM     60  C   UNL A   1      47.685  29.858  27.751  1.00  0.00     0.074 A 
ATOM     61  C   UNL A   1      46.960  36.142  28.596  1.00  0.00     0.029 A 
ATOM     62  N   UNL A   1      46.637  33.943  28.494  1.00  0.00    -0.354 N 
ATOM     63  N   UNL A   1      47.430  31.132  27.951  1.00  0.00    -0.248 NA
ATOM     64  C   UNL A   1      49.031  29.591  27.228  1.00  0.00     0.031 C 
ATOM     65  C   UNL A   1      48.106  35.547  28.056  1.00  0.00     0.029 A 
ATOM     66  C   UNL A   1      47.922  34.173  28.031  1.00  0.00     0.049 A 
ATOM     67  H   UNL A   1      46.216  33.057  28.575  1.00  0.00     0.167 HD
ATOM     68  C   UNL A   1      48.597  31.813  27.611  1.00  0.00     0.074 A 
ATOM     69  C   UNL A   1      49.559  30.804  27.213  1.00  0.00     0.031 C 
ATOM     70  C   UNL A   1      48.857  33.147  27.630  1.00  0.00     0.034 A 
BRANCH  57  71
ATOM     71  C   UNL A   1      44.103  36.643  29.587  1.00  0.00     0.023 A 
ATOM     72  C   UNL A   1      43.352  37.345  28.624  1.00  0.00     0.031 A 
ATOM     73  C   UNL A   1      44.371  37.287  30.808  1.00  0.00     0.131 A 
ATOM     74  C   UNL A   1      42.964  38.671  28.868  1.00  0.00     0.055 A 
ATOM     75  C   UNL A   1      43.910  38.577  31.076  1.00  0.00     0.041 A 
ATOM     76  F   UNL A   1      45.109  36.682  31.751  1.00  0.00    -0.206 F 
ATOM     77  C   UNL A   1      43.216  39.283  30.097  1.00  0.00     0.022 A 
BRANCH  74  78
ATOM     78  S   UNL A   1      42.264  39.637  27.501  1.00  0.00     0.124 S 
ATOM     79  O   UNL A   1      41.664  38.590  26.677  1.00  0.00    -0.237 OA
ATOM     80  O   UNL A   1      41.331  40.524  28.186  1.00  0.00    -0.237 OA
ATOM     81  O   UNL A   1      43.430  40.292  26.912  1.00  0.00    -0.744 OA
ENDBRANCH  74  78
ENDBRANCH  57  71
BRANCH  58  82
ATOM     82  C   UNL A   1      47.281  27.277  27.694  1.00  0.00     0.023 A 
ATOM     83  C   UNL A   1      46.864  26.598  26.536  1.00  0.00     0.031 A 
ATOM     84  C   UNL A   1      48.118  26.589  28.591  1.00  0.00     0.131 A 
ATOM     85  C   UNL A   1      47.245  25.261  26.331  1.00  0.00     0.055 A 
ATOM     86  C   UNL A   1      48.537  25.278  28.357  1.00  0.00     0.041 A 
ATOM     87  F   UNL A   1      48.546  27.188  29.715  1.00  0.00    -0.206 F 
ATOM     88  C   UNL A   1      48.088  24.601  27.228  1.00  0.00     0.022 A 
BRANCH  85  89
ATOM     89  S   UNL A   1      46.549  24.363  24.917  1.00  0.00     0.124 S 
ATOM     90  O   UNL A   1      45.221  24.956  24.811  1.00  0.00    -0.237 OA
ATOM     91  O   UNL A   1      47.489  24.701  23.853  1.00  0.00    -0.237 OA
ATOM     92  O   UNL A   1      46.578  22.968  25.351  1.00  0.00    -0.744 OA
ENDBRANCH  85  89
ENDBRANCH  58  82
BRANCH  70  93
ATOM     93  C   UNL A   1      50.256  33.575  27.252  1.00  0.00     0.023 A 
ATOM     94  C   UNL A   1      50.652  33.711  25.910  1.00  0.00     0.031 A 
ATOM     95  C   UNL A   1      51.211  33.828  28.253  1.00  0.00     0.131 A 
ATOM     96  C   UNL A   1      51.986  34.017  25.604  1.00  0.00     0.055 A 
ATOM     97  C   UNL A   1      52.519  34.201  27.942  1.00  0.00     0.041 A 
ATOM     98  F   UNL A   1      50.888  33.714  29.550  1.00  0.00    -0.206 F 
ATOM     99  C   UNL A   1      52.918  34.280  26.611  1.00  0.00     0.022 A 
BRANCH  96 100
ATOM    100  S   UNL A   1      52.517  33.945  23.872  1.00  0.00     0.124 S 
ATOM    101  O   UNL A   1      52.105  35.253  23.373  1.00  0.00    -0.237 OA
ATOM    102  O   UNL A   1      53.956  33.736  23.996  1.00  0.00    -0.237 OA
ATOM    103  O   UNL A   1      51.770  32.811  23.331  1.00  0.00    -0.744 OA
ENDBRANCH  96 100
ENDBRANCH  70  93
ENDBRANCH  44  45
ENDBRANCH  37  39
ENDBRANCH  36  37
ENDBRANCH  35  36
ENDBRANCH  34  35
ENDBRANCH  33  34
ENDBRANCH  32  33
ENDBRANCH  31  32
ENDBRANCH  30  31
ENDBRANCH  29  30
ENDBRANCH   1  29
TORSDOF 30
ENDMDL
MODEL 2
REMARK VINA RESULT:      -7.5      9.593     14.142
REMARK SMILES Cc1cc(Br)cc([N+](=O)[O-])c1OCCC[C@@](C)([NH3+])C(=O)OCCOCCOCCOCCOC(=O)c1ccc(-c2c3nc(c(-c4cc(S(=O)(=O)[O-])ccc4F)c4ccc([nH]4)c(-c4cc(S(=O)(=O)[O-])ccc4F)c4nc(c(-c5cc(S(=O)(=O)[O-])ccc5F)c5ccc2[nH]5)C=C4)C=C3)cc1
REMARK SMILES IDX 25 1 24 2 23 3 22 4 21 5 19 6 20 7 16 8 17 9 15 10 14 11
REMARK SMILES IDX 13 12 12 13 11 14 1 15 2 16 3 17 4 18 7 19 5 20 6 21 8 22
REMARK SMILES IDX 9 23 10 24 18 25 26 29 27 30 28 31 29 32 30 33 31 34 32 35
REMARK SMILES IDX 33 36 34 37 35 38 36 39 37 40 98 41 38 42 97 43 39 44 40 45
REMARK SMILES IDX 41 46 91 47 42 48 96 49 90 50 92 51 43 52 95 53 89 54 88 55
REMARK SMILES IDX 44 57 76 58 56 59 75 60 57 61 60 62 74 63 93 64 58 65 59 66
REMARK SMILES IDX 73 68 94 69 61 70 45 71 46 72 54 73 47 74 53 75 55 76 52 77
REMARK SMILES IDX 48 78 49 79 50 80 51 81 77 82 78 83 86 84 79 85 85 86 87 87
REMARK SMILES IDX 84 88 80 89 81 90 82 91 83 92 62 93 63 94 71 95 64 96 70 97
REMARK SMILES IDX 72 98 69 99 65 100 66 101 67 102 68 103
REMARK H PARENT 18 26 18 27 18 28 92 56 60 67
REMARK Flexibility Score: inf
ROOT
ATOM      1  C   UNL A   1      45.670  16.519  40.986  1.00  0.00     0.188 C 
ENDROOT
BRANCH   1   2
ATOM      2  O   UNL A   1      45.669  16.955  39.642  1.00  0.00    -0.376 OA
BRANCH   2   3
ATOM      3  C   UNL A   1      44.533  16.768  38.808  1.00  0.00     0.202 C 
BRANCH   3   4
ATOM      4  C   UNL A   1      44.417  17.409  37.420  1.00  0.00     0.261 C 
BRANCH   4   5
ATOM      5  O   UNL A   1      45.327  18.484  37.148  1.00  0.00    -0.459 OA
BRANCH   5   6
ATOM      6  C   UNL A   1      45.630  18.771  35.852  1.00  0.00     0.367 C 
ATOM      7  O   UNL A   1      45.389  18.037  34.905  1.00  0.00    -0.245 OA
BRANCH   6   8
ATOM      8  C   UNL A   1      46.374  20.138  35.766  1.00  0.00     0.190 C 
ATOM      9  C   UNL A   1      47.401  20.119  36.913  1.00  0.00     0.092 C 
BRANCH   8  10
ATOM     10  C   UNL A   1      47.078  20.445  34.403  1.00  0.00     0.084 C 
BRANCH  10  11
ATOM     11  C   UNL A   1      48.297  19.624  33.925  1.00  0.00     0.049 C 
BRANCH  11  12
ATOM     12  C   UNL A   1      49.725  20.022  34.364  1.00  0.00     0.230 C 
BRANCH  12  13
ATOM     13  O   UNL A   1      50.122  21.267  33.763  1.00  0.00    -0.487 OA
BRANCH  13  14
ATOM     14  C   UNL A   1      51.261  21.897  34.220  1.00  0.00     0.200 A 
ATOM     15  C   UNL A   1      49.833  23.924  34.774  1.00  0.00     0.049 C 
ATOM     16  C   UNL A   1      51.059  23.091  34.949  1.00  0.00    -0.001 A 
ATOM     17  C   UNL A   1      52.007  23.543  35.879  1.00  0.00     0.023 A 
ATOM     18  C   UNL A   1      53.193  22.851  36.057  1.00  0.00     0.025 A 
ATOM     19  C   UNL A   1      52.519  21.271  34.333  1.00  0.00     0.312 A 
ATOM     20  Br  UNL A   1      54.410  23.421  37.383  1.00  0.00    -0.051 Br
ATOM     21  C   UNL A   1      53.478  21.751  35.258  1.00  0.00     0.105 A 
BRANCH  19  22
ATOM     22  N   UNL A   1      52.925  20.130  33.501  1.00  0.00     0.066 N 
ATOM     23  O   UNL A   1      52.904  19.004  34.028  1.00  0.00    -0.258 OA
ATOM     24  O   UNL A   1      53.286  20.329  32.338  1.00  0.00    -0.258 OA
ENDBRANCH  19  22
ENDBRANCH  13  14
ENDBRANCH  12  13
ENDBRANCH  11  12
ENDBRANCH  10  11
ENDBRANCH   8  10
BRANCH   8  25
ATOM     25  N   UNL A   1      45.491  21.274  36.176  1.00  0.00    -0.344 N 
ATOM     26  H   UNL A   1      44.562  20.919  36.402  1.00  0.00     0.345 HD
ATOM     27  H   UNL A   1      45.423  21.945  35.411  1.00  0.00     0.345 HD
ATOM     28  H   UNL A   1      45.887  21.733  36.997  1.00  0.00     0.345 HD
ENDBRANCH   8  25
ENDBRANCH   6   8
ENDBRANCH   5   6
ENDBRANCH   4   5
ENDBRANCH   3   4
ENDBRANCH   2   3
ENDBRANCH   1   2
BRANCH   1  29
ATOM     29  C   UNL A   1      46.716  17.101  41.931  1.00  0.00     0.188 C 
BRANCH  29  30
ATOM     30  O   UNL A   1      46.257  18.283  42.560  1.00  0.00    -0.377 OA
BRANCH  30  31
ATOM     31  C   UNL A   1      46.414  19.442  41.750  1.00  0.00     0.188 C 
BRANCH  31  32
ATOM     32  C   UNL A   1      45.129  20.248  41.499  1.00  0.00     0.188 C 
BRANCH  32  33
ATOM     33  O   UNL A   1      45.388  21.638  41.262  1.00  0.00    -0.376 OA
BRANCH  33  34
ATOM     34  C   UNL A   1      45.690  22.010  39.921  1.00  0.00     0.202 C 
BRANCH  34  35
ATOM     35  C   UNL A   1      45.161  23.409  39.582  1.00  0.00     0.261 C 
BRANCH  35  36
ATOM     36  O   UNL A   1      45.090  23.675  38.175  1.00  0.00    -0.460 OA
BRANCH  36  37
ATOM     37  C   UNL A   1      44.854  24.962  37.828  1.00  0.00     0.338 C 
ATOM     38  O   UNL A   1      44.671  25.900  38.585  1.00  0.00    -0.246 OA
BRANCH  37  39
ATOM     39  C   UNL A   1      45.114  25.084  36.382  1.00  0.00     0.060 A 
ATOM     40  C   UNL A   1      46.113  24.276  35.824  1.00  0.00     0.016 A 
ATOM     41  C   UNL A   1      44.332  25.915  35.571  1.00  0.00     0.016 A 
ATOM     42  C   UNL A   1      46.349  24.316  34.454  1.00  0.00     0.010 A 
ATOM     43  C   UNL A   1      44.585  25.974  34.200  1.00  0.00     0.010 A 
ATOM     44  C   UNL A   1      45.619  25.201  33.647  1.00  0.00    -0.014 A 
BRANCH  44  45
ATOM     45  C   UNL A   1      46.141  25.503  32.297  1.00  0.00     0.031 A 
ATOM     46  C   UNL A   1      47.287  26.473  32.208  1.00  0.00     0.074 A 
ATOM     47  C   UNL A   1      45.667  24.881  31.204  1.00  0.00     0.049 A 
ATOM     48  N   UNL A   1      47.996  26.834  31.173  1.00  0.00    -0.248 NA
ATOM     49  C   UNL A   1      47.688  27.119  33.470  1.00  0.00     0.031 C 
ATOM     50  C   UNL A   1      44.579  23.905  31.191  1.00  0.00     0.029 A 
ATOM     51  N   UNL A   1      46.054  24.972  29.893  1.00  0.00    -0.354 N 
ATOM     52  C   UNL A   1      48.943  27.728  31.662  1.00  0.00     0.074 A 
ATOM     53  C   UNL A   1      48.680  27.898  33.074  1.00  0.00     0.031 C 
ATOM     54  C   UNL A   1      44.388  23.483  29.928  1.00  0.00     0.029 A 
ATOM     55  C   UNL A   1      45.328  24.169  29.043  1.00  0.00     0.049 A 
ATOM     56  H   UNL A   1      46.784  25.557  29.586  1.00  0.00     0.167 HD
ATOM     57  C   UNL A   1      49.952  28.338  30.997  1.00  0.00     0.034 A 
ATOM     58  C   UNL A   1      45.422  24.014  27.707  1.00  0.00     0.034 A 
ATOM     59  C   UNL A   1      50.165  28.188  29.580  1.00  0.00     0.049 A 
ATOM     60  C   UNL A   1      46.504  24.769  26.969  1.00  0.00     0.074 A 
ATOM     61  C   UNL A   1      51.132  28.772  28.783  1.00  0.00     0.029 A 
ATOM     62  N   UNL A   1      49.379  27.404  28.742  1.00  0.00    -0.354 N 
ATOM     63  N   UNL A   1      47.413  25.593  27.445  1.00  0.00    -0.248 NA
ATOM     64  C   UNL A   1      46.588  24.557  25.520  1.00  0.00     0.031 C 
ATOM     65  C   UNL A   1      50.889  28.399  27.457  1.00  0.00     0.029 A 
ATOM     66  C   UNL A   1      49.823  27.513  27.434  1.00  0.00     0.049 A 
ATOM     67  H   UNL A   1      48.619  26.852  29.035  1.00  0.00     0.167 HD
ATOM     68  C   UNL A   1      48.197  25.966  26.355  1.00  0.00     0.074 A 
ATOM     69  C   UNL A   1      47.663  25.262  25.206  1.00  0.00     0.031 C 
ATOM     70  C   UNL A   1      49.263  26.807  26.304  1.00  0.00     0.034 A 
BRANCH  57  71
ATOM     71  C   UNL A   1      50.842  29.258  31.796  1.00  0.00     0.023 A 
ATOM     72  C   UNL A   1      51.741  28.763  32.759  1.00  0.00     0.031 A 
ATOM     73  C   UNL A   1      50.742  30.652  31.644  1.00  0.00     0.131 A 
ATOM     74  C   UNL A   1      52.445  29.654  33.585  1.00  0.00     0.055 A 
ATOM     75  C   UNL A   1      51.507  31.532  32.412  1.00  0.00     0.041 A 
ATOM     76  F   UNL A   1      49.878  31.183  30.765  1.00  0.00    -0.206 F 
ATOM     77  C   UNL A   1      52.352  31.035  33.401  1.00  0.00     0.022 A 
BRANCH  74  78
ATOM     78  S   UNL A   1      53.359  28.987  35.003  1.00  0.00     0.124 S 
ATOM     79  O   UNL A   1      53.542  30.183  35.824  1.00  0.00    -0.237 OA
ATOM     80  O   UNL A   1      52.439  27.986  35.529  1.00  0.00    -0.237 OA
ATOM     81  O   UNL A   1      54.583  28.459  34.405  1.00  0.00    -0.744 OA
ENDBRANCH  74  78
ENDBRANCH  57  71
BRANCH  58  82
ATOM     82  C   UNL A   1      44.470  23.129  26.973  1.00  0.00     0.023 A 
ATOM     83  C   UNL A   1      44.854  21.856  26.518  1.00  0.00     0.031 A 
ATOM     84  C   UNL A   1      43.173  23.574  26.659  1.00  0.00     0.131 A 
ATOM     85  C   UNL A   1      43.970  21.094  25.736  1.00  0.00     0.055 A 
ATOM     86  C   UNL A   1      42.279  22.792  25.926  1.00  0.00     0.041 A 
ATOM     87  F   UNL A   1      42.753  24.783  27.067  1.00  0.00    -0.206 F 
ATOM     88  C   UNL A   1      42.681  21.549  25.447  1.00  0.00     0.022 A 
BRANCH  85  89
ATOM     89  S   UNL A   1      44.559  19.534  25.021  1.00  0.00     0.124 S 
ATOM     90  O   UNL A   1      45.995  19.621  25.261  1.00  0.00    -0.237 OA
ATOM     91  O   UNL A   1      43.834  18.547  25.815  1.00  0.00    -0.237 OA
ATOM     92  O   UNL A   1      44.151  19.625  23.622  1.00  0.00    -0.744 OA
ENDBRANCH  85  89
ENDBRANCH  58  82
BRANCH  70  93
ATOM     93  C   UNL A   1      49.944  26.965  24.964  1.00  0.00     0.023 A 
ATOM     94  C   UNL A   1      49.269  27.490  23.848  1.00  0.00     0.031 A 
ATOM     95  C   UNL A   1      51.282  26.564  24.801  1.00  0.00     0.131 A 
ATOM     96  C   UNL A   1      49.911  27.529  22.601  1.00  0.00     0.055 A 
ATOM     97  C   UNL A   1      51.936  26.672  23.573  1.00  0.00     0.041 A 
ATOM     98  F   UNL A   1      51.975  26.058  25.833  1.00  0.00    -0.206 F 
ATOM     99  C   UNL A   1      51.244  27.141  22.460  1.00  0.00     0.022 A 
BRANCH  96 100
ATOM    100  S   UNL A   1      48.936  27.980  21.139  1.00  0.00     0.124 S 
ATOM    101  O   UNL A   1      47.949  28.895  21.703  1.00  0.00    -0.237 OA
ATOM    102  O   UNL A   1      49.941  28.584  20.271  1.00  0.00    -0.237 OA
ATOM    103  O   UNL A   1      48.403  26.701  20.674  1.00  0.00    -0.744 OA
ENDBRANCH  96 100
ENDBRANCH  70  93
ENDBRANCH  44  45
ENDBRANCH  37  39
ENDBRANCH  36  37
ENDBRANCH  35  36
ENDBRANCH  34  35
ENDBRANCH  33  34
ENDBRANCH  32  33
ENDBRANCH  31  32
ENDBRANCH  30  31
ENDBRANCH  29  30
ENDBRANCH   1  29
TORSDOF 30
ENDMDL
MODEL 3
REMARK VINA RESULT:      -7.2      7.329     10.622
REMARK SMILES Cc1cc(Br)cc([N+](=O)[O-])c1OCCC[C@@](C)([NH3+])C(=O)OCCOCCOCCOCCOC(=O)c1ccc(-c2c3nc(c(-c4cc(S(=O)(=O)[O-])ccc4F)c4ccc([nH]4)c(-c4cc(S(=O)(=O)[O-])ccc4F)c4nc(c(-c5cc(S(=O)(=O)[O-])ccc5F)c5ccc2[nH]5)C=C4)C=C3)cc1
REMARK SMILES IDX 25 1 24 2 23 3 22 4 21 5 19 6 20 7 16 8 17 9 15 10 14 11
REMARK SMILES IDX 13 12 12 13 11 14 1 15 2 16 3 17 4 18 7 19 5 20 6 21 8 22
REMARK SMILES IDX 9 23 10 24 18 25 26 29 27 30 28 31 29 32 30 33 31 34 32 35
REMARK SMILES IDX 33 36 34 37 35 38 36 39 37 40 98 41 38 42 97 43 39 44 40 45
REMARK SMILES IDX 41 46 91 47 42 48 96 49 90 50 92 51 43 52 95 53 89 54 88 55
REMARK SMILES IDX 44 57 76 58 56 59 75 60 57 61 60 62 74 63 93 64 58 65 59 66
REMARK SMILES IDX 73 68 94 69 61 70 45 71 46 72 54 73 47 74 53 75 55 76 52 77
REMARK SMILES IDX 48 78 49 79 50 80 51 81 77 82 78 83 86 84 79 85 85 86 87 87
REMARK SMILES IDX 84 88 80 89 81 90 82 91 83 92 62 93 63 94 71 95 64 96 70 97
REMARK SMILES IDX 72 98 69 99 65 100 66 101 67 102 68 103
REMARK H PARENT 18 26 18 27 18 28 92 56 60 67
REMARK Flexibility Score: inf
ROOT
ATOM      1  C   UNL A   1      39.595  33.262  40.021  1.00  0.00     0.188 C 
ENDROOT
BRANCH   1   2
ATOM      2  O   UNL A   1      38.386  33.192  39.293  1.00  0.00    -0.376 OA
BRANCH   2   3
ATOM      3  C   UNL A   1      38.360  32.719  37.952  1.00  0.00     0.202 C 
BRANCH   3   4
ATOM      4  C   UNL A   1      37.626  33.464  36.831  1.00  0.00     0.261 C 
BRANCH   4   5
ATOM      5  O   UNL A   1      37.932  33.044  35.494  1.00  0.00    -0.459 OA
BRANCH   5   6
ATOM      6  C   UNL A   1      37.748  33.926  34.474  1.00  0.00     0.367 C 
ATOM      7  O   UNL A   1      38.330  34.995  34.369  1.00  0.00    -0.245 OA
BRANCH   6   8
ATOM      8  C   UNL A   1      36.653  33.396  33.499  1.00  0.00     0.190 C 
ATOM      9  C   UNL A   1      35.309  33.794  34.134  1.00  0.00     0.092 C 
BRANCH   8  10
ATOM     10  C   UNL A   1      36.743  33.920  32.027  1.00  0.00     0.084 C 
BRANCH  10  11
ATOM     11  C   UNL A   1      37.836  33.415  31.058  1.00  0.00     0.049 C 
BRANCH  11  12
ATOM     12  C   UNL A   1      37.448  32.839  29.678  1.00  0.00     0.230 C 
BRANCH  12  13
ATOM     13  O   UNL A   1      36.547  31.728  29.817  1.00  0.00    -0.487 OA
BRANCH  13  14
ATOM     14  C   UNL A   1      35.810  31.323  28.723  1.00  0.00     0.200 A 
ATOM     15  C   UNL A   1      37.344  29.309  28.521  1.00  0.00     0.049 C 
ATOM     16  C   UNL A   1      36.052  30.009  28.263  1.00  0.00    -0.001 A 
ATOM     17  C   UNL A   1      35.076  29.299  27.546  1.00  0.00     0.023 A 
ATOM     18  C   UNL A   1      33.873  29.902  27.223  1.00  0.00     0.025 A 
ATOM     19  C   UNL A   1      34.627  31.957  28.289  1.00  0.00     0.312 A 
ATOM     20  Br  UNL A   1      32.538  28.898  26.344  1.00  0.00    -0.051 Br
ATOM     21  C   UNL A   1      33.661  31.238  27.544  1.00  0.00     0.105 A 
BRANCH  19  22
ATOM     22  N   UNL A   1      34.336  33.375  28.543  1.00  0.00     0.066 N 
ATOM     23  O   UNL A   1      34.680  34.191  27.672  1.00  0.00    -0.258 OA
ATOM     24  O   UNL A   1      33.789  33.699  29.601  1.00  0.00    -0.258 OA
ENDBRANCH  19  22
ENDBRANCH  13  14
ENDBRANCH  12  13
ENDBRANCH  11  12
ENDBRANCH  10  11
ENDBRANCH   8  10
BRANCH   8  25
ATOM     25  N   UNL A   1      36.565  31.903  33.526  1.00  0.00    -0.344 N 
ATOM     26  H   UNL A   1      35.901  31.588  32.819  1.00  0.00     0.345 HD
ATOM     27  H   UNL A   1      36.252  31.598  34.448  1.00  0.00     0.345 HD
ATOM     28  H   UNL A   1      37.484  31.504  33.331  1.00  0.00     0.345 HD
ENDBRANCH   8  25
ENDBRANCH   6   8
ENDBRANCH   5   6
ENDBRANCH   4   5
ENDBRANCH   3   4
ENDBRANCH   2   3
ENDBRANCH   1   2
BRANCH   1  29
ATOM     29  C   UNL A   1      39.678  32.521  41.351  1.00  0.00     0.188 C 
BRANCH  29  30
ATOM     30  O   UNL A   1      40.700  31.540  41.344  1.00  0.00    -0.377 OA
BRANCH  30  31
ATOM     31  C   UNL A   1      40.993  31.033  42.640  1.00  0.00     0.188 C 
BRANCH  31  32
ATOM     32  C   UNL A   1      42.423  30.500  42.829  1.00  0.00     0.188 C 
BRANCH  32  33
ATOM     33  O   UNL A   1      43.402  31.296  42.149  1.00  0.00    -0.376 OA
BRANCH  33  34
ATOM     34  C   UNL A   1      44.352  31.973  42.966  1.00  0.00     0.202 C 
BRANCH  34  35
ATOM     35  C   UNL A   1      44.925  31.059  44.056  1.00  0.00     0.261 C 
BRANCH  35  36
ATOM     36  O   UNL A   1      46.306  30.724  43.862  1.00  0.00    -0.460 OA
BRANCH  36  37
ATOM     37  C   UNL A   1      46.595  29.402  43.829  1.00  0.00     0.338 C 
ATOM     38  O   UNL A   1      46.847  28.687  44.783  1.00  0.00    -0.246 OA
BRANCH  37  39
ATOM     39  C   UNL A   1      46.298  28.920  42.467  1.00  0.00     0.060 A 
ATOM     40  C   UNL A   1      47.139  29.333  41.427  1.00  0.00     0.016 A 
ATOM     41  C   UNL A   1      45.263  28.008  42.230  1.00  0.00     0.016 A 
ATOM     42  C   UNL A   1      46.930  28.852  40.138  1.00  0.00     0.010 A 
ATOM     43  C   UNL A   1      45.037  27.546  40.933  1.00  0.00     0.010 A 
ATOM     44  C   UNL A   1      45.849  27.997  39.880  1.00  0.00    -0.014 A 
BRANCH  44  45
ATOM     45  C   UNL A   1      45.425  27.818  38.475  1.00  0.00     0.031 A 
ATOM     46  C   UNL A   1      44.817  29.009  37.787  1.00  0.00     0.074 A 
ATOM     47  C   UNL A   1      45.641  26.666  37.816  1.00  0.00     0.049 A 
ATOM     48  N   UNL A   1      44.457  29.158  36.541  1.00  0.00    -0.248 NA
ATOM     49  C   UNL A   1      44.594  30.198  38.628  1.00  0.00     0.031 C 
ATOM     50  C   UNL A   1      46.248  25.465  38.388  1.00  0.00     0.029 A 
ATOM     51  N   UNL A   1      45.384  26.327  36.514  1.00  0.00    -0.354 N 
ATOM     52  C   UNL A   1      43.988  30.465  36.442  1.00  0.00     0.074 A 
ATOM     53  C   UNL A   1      44.057  31.044  37.766  1.00  0.00     0.031 C 
ATOM     54  C   UNL A   1      46.320  24.519  37.434  1.00  0.00     0.029 A 
ATOM     55  C   UNL A   1      45.752  25.041  36.193  1.00  0.00     0.049 A 
ATOM     56  H   UNL A   1      44.974  26.946  35.867  1.00  0.00     0.167 HD
ATOM     57  C   UNL A   1      43.557  31.127  35.343  1.00  0.00     0.034 A 
ATOM     58  C   UNL A   1      45.638  24.374  35.027  1.00  0.00     0.034 A 
ATOM     59  C   UNL A   1      43.454  30.513  34.044  1.00  0.00     0.049 A 
ATOM     60  C   UNL A   1      45.075  25.106  33.830  1.00  0.00     0.074 A 
ATOM     61  C   UNL A   1      43.007  31.065  32.858  1.00  0.00     0.029 A 
ATOM     62  N   UNL A   1      43.790  29.192  33.766  1.00  0.00    -0.354 N 
ATOM     63  N   UNL A   1      44.659  26.351  33.739  1.00  0.00    -0.248 NA
ATOM     64  C   UNL A   1      44.988  24.352  32.574  1.00  0.00     0.031 C 
ATOM     65  C   UNL A   1      43.005  30.062  31.882  1.00  0.00     0.029 A 
ATOM     66  C   UNL A   1      43.532  28.905  32.436  1.00  0.00     0.049 A 
ATOM     67  H   UNL A   1      44.156  28.554  34.419  1.00  0.00     0.167 HD
ATOM     68  C   UNL A   1      44.296  26.535  32.407  1.00  0.00     0.074 A 
ATOM     69  C   UNL A   1      44.561  25.280  31.732  1.00  0.00     0.031 C 
ATOM     70  C   UNL A   1      43.796  27.639  31.791  1.00  0.00     0.034 A 
BRANCH  57  71
ATOM     71  C   UNL A   1      43.115  32.556  35.534  1.00  0.00     0.023 A 
ATOM     72  C   UNL A   1      44.024  33.628  35.455  1.00  0.00     0.031 A 
ATOM     73  C   UNL A   1      41.781  32.850  35.868  1.00  0.00     0.131 A 
ATOM     74  C   UNL A   1      43.607  34.927  35.782  1.00  0.00     0.055 A 
ATOM     75  C   UNL A   1      41.354  34.156  36.111  1.00  0.00     0.041 A 
ATOM     76  F   UNL A   1      40.876  31.866  35.990  1.00  0.00    -0.206 F 
ATOM     77  C   UNL A   1      42.272  35.203  36.085  1.00  0.00     0.022 A 
BRANCH  74  78
ATOM     78  S   UNL A   1      44.863  36.225  35.960  1.00  0.00     0.124 S 
ATOM     79  O   UNL A   1      46.095  35.441  35.985  1.00  0.00    -0.237 OA
ATOM     80  O   UNL A   1      44.647  37.038  34.769  1.00  0.00    -0.237 OA
ATOM     81  O   UNL A   1      44.516  36.867  37.226  1.00  0.00    -0.744 OA
ENDBRANCH  74  78
ENDBRANCH  57  71
BRANCH  58  82
ATOM     82  C   UNL A   1      46.044  22.940  34.925  1.00  0.00     0.023 A 
ATOM     83  C   UNL A   1      47.384  22.570  34.723  1.00  0.00     0.031 A 
ATOM     84  C   UNL A   1      45.080  21.917  34.967  1.00  0.00     0.131 A 
ATOM     85  C   UNL A   1      47.717  21.220  34.522  1.00  0.00     0.055 A 
ATOM     86  C   UNL A   1      45.421  20.572  34.818  1.00  0.00     0.041 A 
ATOM     87  F   UNL A   1      43.783  22.213  35.155  1.00  0.00    -0.206 F 
ATOM     88  C   UNL A   1      46.745  20.217  34.580  1.00  0.00     0.022 A 
BRANCH  85  89
ATOM     89  S   UNL A   1      49.428  20.797  34.092  1.00  0.00     0.124 S 
ATOM     90  O   UNL A   1      50.004  22.112  33.837  1.00  0.00    -0.237 OA
ATOM     91  O   UNL A   1      49.883  20.119  35.301  1.00  0.00    -0.237 OA
ATOM     92  O   UNL A   1      49.282  19.939  32.918  1.00  0.00    -0.744 OA
ENDBRANCH  85  89
ENDBRANCH  58  82
BRANCH  70  93
ATOM     93  C   UNL A   1      43.551  27.538  30.303  1.00  0.00     0.023 A 
ATOM     94  C   UNL A   1      44.605  27.593  29.375  1.00  0.00     0.031 A 
ATOM     95  C   UNL A   1      42.240  27.408  29.811  1.00  0.00     0.131 A 
ATOM     96  C   UNL A   1      44.323  27.592  28.000  1.00  0.00     0.055 A 
ATOM     97  C   UNL A   1      41.973  27.337  28.443  1.00  0.00     0.041 A 
ATOM     98  F   UNL A   1      41.197  27.350  30.653  1.00  0.00    -0.206 F 
ATOM     99  C   UNL A   1      43.016  27.447  27.529  1.00  0.00     0.022 A 
BRANCH  96 100
ATOM    100  S   UNL A   1      45.678  27.909  26.837  1.00  0.00     0.124 S 
ATOM    101  O   UNL A   1      44.958  28.299  25.630  1.00  0.00    -0.237 OA
ATOM    102  O   UNL A   1      46.421  28.972  27.507  1.00  0.00    -0.237 OA
ATOM    103  O   UNL A   1      46.371  26.623  26.759  1.00  0.00    -0.744 OA
ENDBRANCH  96 100
ENDBRANCH  70  93
ENDBRANCH  44  45
ENDBRANCH  37  39
ENDBRANCH  36  37
ENDBRANCH  35  36
ENDBRANCH  34  35
ENDBRANCH  33  34
ENDBRANCH  32  33
ENDBRANCH  31  32
ENDBRANCH  30  31
ENDBRANCH  29  30
ENDBRANCH   1  29
TORSDOF 30
ENDMDL
