MODEL 1
REMARK VINA RESULT:      -6.7      0.000      0.000
REMARK SMILES O=C(OCCOCCOCCOCCOC(=O)c1cc(S(=O)(=O)Nc2cc(F)ccc2F)cc2c1OCCO2)c1ccc(-c2c3nc(c(-c4cc(S(=O)(=O)[O-])ccc4F)c4ccc([nH]4)c(-c4cc(S(=O)(=O)[O-])ccc4F)c4nc(c(-c5cc(S(=O)(=O)[O-])ccc5F)c5ccc2[nH]5)C=C4)C=C3)cc1
REMARK SMILES IDX 9 1 8 2 7 3 6 4 5 5 4 6 3 7 2 8 1 9 40 10 41 11 102 12 42 13
REMARK SMILES IDX 101 14 43 15 44 16 45 17 95 18 46 19 100 20 94 21 96 22
REMARK SMILES IDX 47 23 99 24 93 25 92 26 48 28 80 29 60 30 79 31 61 32 64 33
REMARK SMILES IDX 78 34 97 35 62 36 63 37 77 39 98 40 65 41 49 42 50 43 58 44
REMARK SMILES IDX 51 45 57 46 59 47 56 48 52 49 53 50 54 51 55 52 81 53 82 54
REMARK SMILES IDX 90 55 83 56 89 57 91 58 88 59 84 60 85 61 86 62 87 63 66 64
REMARK SMILES IDX 67 65 75 66 68 67 74 68 76 69 73 70 69 71 70 72 71 73 72 74
REMARK SMILES IDX 10 75 11 76 12 77 13 78 14 79 15 80 16 81 17 82 18 83 19 84
REMARK SMILES IDX 35 85 20 86 34 87 36 88 33 89 39 90 37 91 38 92 21 93 22 94
REMARK SMILES IDX 23 95 24 96 25 98 26 99 31 100 27 101 30 102 32 103 28 104
REMARK SMILES IDX 29 105
REMARK H PARENT 96 27 64 38 24 97
REMARK Flexibility Score: inf
ROOT
ATOM      1  O   UNL A   1      40.055  24.295  26.996  1.00  0.00    -0.377 OA
ENDROOT
BRANCH   1   2
ATOM      2  C   UNL A   1      40.741  23.046  27.036  1.00  0.00     0.188 C 
BRANCH   2   3
ATOM      3  C   UNL A   1      39.960  21.844  26.505  1.00  0.00     0.188 C 
BRANCH   3   4
ATOM      4  O   UNL A   1      40.827  20.847  25.974  1.00  0.00    -0.376 OA
BRANCH   4   5
ATOM      5  C   UNL A   1      41.527  20.072  26.946  1.00  0.00     0.202 C 
BRANCH   5   6
ATOM      6  C   UNL A   1      42.327  18.937  26.312  1.00  0.00     0.261 C 
BRANCH   6   7
ATOM      7  O   UNL A   1      42.701  19.282  24.970  1.00  0.00    -0.460 OA
BRANCH   7   8
ATOM      8  C   UNL A   1      43.833  19.915  24.577  1.00  0.00     0.338 C 
ATOM      9  O   UNL A   1      44.550  19.364  23.741  1.00  0.00    -0.246 OA
BRANCH   8  10
ATOM     10  C   UNL A   1      44.236  21.278  25.046  1.00  0.00     0.060 A 
ATOM     11  C   UNL A   1      43.598  22.480  24.722  1.00  0.00     0.016 A 
ATOM     12  C   UNL A   1      45.283  21.321  25.981  1.00  0.00     0.016 A 
ATOM     13  C   UNL A   1      44.003  23.694  25.276  1.00  0.00     0.010 A 
ATOM     14  C   UNL A   1      45.677  22.529  26.563  1.00  0.00     0.010 A 
ATOM     15  C   UNL A   1      45.038  23.723  26.206  1.00  0.00    -0.014 A 
BRANCH  15  16
ATOM     16  C   UNL A   1      45.507  25.014  26.751  1.00  0.00     0.031 A 
ATOM     17  C   UNL A   1      46.707  25.653  26.118  1.00  0.00     0.074 A 
ATOM     18  C   UNL A   1      44.859  25.592  27.779  1.00  0.00     0.049 A 
ATOM     19  N   UNL A   1      47.408  26.676  26.520  1.00  0.00    -0.248 NA
ATOM     20  C   UNL A   1      47.176  25.053  24.858  1.00  0.00     0.031 C 
ATOM     21  C   UNL A   1      43.624  25.089  28.388  1.00  0.00     0.029 A 
ATOM     22  N   UNL A   1      45.149  26.720  28.502  1.00  0.00    -0.354 N 
ATOM     23  C   UNL A   1      48.428  26.819  25.587  1.00  0.00     0.074 A 
ATOM     24  C   UNL A   1      48.249  25.783  24.594  1.00  0.00     0.031 C 
ATOM     25  C   UNL A   1      43.276  25.897  29.403  1.00  0.00     0.029 A 
ATOM     26  C   UNL A   1      44.298  26.926  29.566  1.00  0.00     0.049 A 
ATOM     27  H   UNL A   1      45.894  27.325  28.282  1.00  0.00     0.167 HD
ATOM     28  C   UNL A   1      49.430  27.729  25.581  1.00  0.00     0.034 A 
ATOM     29  C   UNL A   1      44.381  27.807  30.584  1.00  0.00     0.034 A 
ATOM     30  C   UNL A   1      49.574  28.742  26.594  1.00  0.00     0.049 A 
ATOM     31  C   UNL A   1      45.567  28.746  30.605  1.00  0.00     0.074 A 
ATOM     32  C   UNL A   1      50.548  29.717  26.709  1.00  0.00     0.029 A 
ATOM     33  N   UNL A   1      48.720  28.899  27.680  1.00  0.00    -0.354 N 
ATOM     34  N   UNL A   1      46.542  28.867  29.729  1.00  0.00    -0.248 NA
ATOM     35  C   UNL A   1      45.675  29.657  31.750  1.00  0.00     0.031 C 
ATOM     36  C   UNL A   1      50.324  30.414  27.901  1.00  0.00     0.029 A 
ATOM     37  C   UNL A   1      49.167  29.927  28.491  1.00  0.00     0.049 A 
ATOM     38  H   UNL A   1      47.915  28.358  27.847  1.00  0.00     0.167 HD
ATOM     39  C   UNL A   1      47.366  29.879  30.213  1.00  0.00     0.074 A 
ATOM     40  C   UNL A   1      46.756  30.356  31.437  1.00  0.00     0.031 C 
ATOM     41  C   UNL A   1      48.527  30.368  29.707  1.00  0.00     0.034 A 
BRANCH  28  42
ATOM     42  C   UNL A   1      50.481  27.603  24.509  1.00  0.00     0.023 A 
ATOM     43  C   UNL A   1      50.442  28.364  23.328  1.00  0.00     0.031 A 
ATOM     44  C   UNL A   1      51.526  26.674  24.663  1.00  0.00     0.131 A 
ATOM     45  C   UNL A   1      51.399  28.143  22.324  1.00  0.00     0.055 A 
ATOM     46  C   UNL A   1      52.514  26.509  23.691  1.00  0.00     0.041 A 
ATOM     47  F   UNL A   1      51.595  25.899  25.756  1.00  0.00    -0.206 F 
ATOM     48  C   UNL A   1      52.448  27.240  22.508  1.00  0.00     0.022 A 
BRANCH  45  49
ATOM     49  S   UNL A   1      51.190  28.974  20.725  1.00  0.00     0.124 S 
ATOM     50  O   UNL A   1      50.826  27.857  19.857  1.00  0.00    -0.237 OA
ATOM     51  O   UNL A   1      50.130  29.936  21.003  1.00  0.00    -0.237 OA
ATOM     52  O   UNL A   1      52.506  29.553  20.465  1.00  0.00    -0.744 OA
ENDBRANCH  45  49
ENDBRANCH  28  42
BRANCH  29  53
ATOM     53  C   UNL A   1      43.397  27.794  31.710  1.00  0.00     0.023 A 
ATOM     54  C   UNL A   1      42.201  28.526  31.642  1.00  0.00     0.031 A 
ATOM     55  C   UNL A   1      43.683  27.128  32.918  1.00  0.00     0.131 A 
ATOM     56  C   UNL A   1      41.373  28.632  32.774  1.00  0.00     0.055 A 
ATOM     57  C   UNL A   1      42.822  27.178  34.017  1.00  0.00     0.041 A 
ATOM     58  F   UNL A   1      44.816  26.422  33.055  1.00  0.00    -0.206 F 
ATOM     59  C   UNL A   1      41.668  27.951  33.955  1.00  0.00     0.022 A 
BRANCH  56  60
ATOM     60  S   UNL A   1      39.978  29.793  32.724  1.00  0.00     0.124 S 
ATOM     61  O   UNL A   1      40.662  31.080  32.754  1.00  0.00    -0.237 OA
ATOM     62  O   UNL A   1      39.334  29.436  31.466  1.00  0.00    -0.237 OA
ATOM     63  O   UNL A   1      39.218  29.463  33.928  1.00  0.00    -0.744 OA
ENDBRANCH  56  60
ENDBRANCH  29  53
BRANCH  41  64
ATOM     64  C   UNL A   1      49.178  31.493  30.470  1.00  0.00     0.023 A 
ATOM     65  C   UNL A   1      48.882  32.837  30.186  1.00  0.00     0.031 A 
ATOM     66  C   UNL A   1      50.099  31.215  31.495  1.00  0.00     0.131 A 
ATOM     67  C   UNL A   1      49.541  33.856  30.887  1.00  0.00     0.055 A 
ATOM     68  C   UNL A   1      50.703  32.232  32.232  1.00  0.00     0.041 A 
ATOM     69  F   UNL A   1      50.417  29.947  31.802  1.00  0.00    -0.206 F 
ATOM     70  C   UNL A   1      50.434  33.563  31.921  1.00  0.00     0.022 A 
BRANCH  67  71
ATOM     71  S   UNL A   1      49.278  35.574  30.371  1.00  0.00     0.124 S 
ATOM     72  O   UNL A   1      47.847  35.742  30.600  1.00  0.00    -0.237 OA
ATOM     73  O   UNL A   1      50.158  36.310  31.271  1.00  0.00    -0.237 OA
ATOM     74  O   UNL A   1      49.687  35.576  28.967  1.00  0.00    -0.744 OA
ENDBRANCH  67  71
ENDBRANCH  41  64
ENDBRANCH  15  16
ENDBRANCH   8  10
ENDBRANCH   7   8
ENDBRANCH   6   7
ENDBRANCH   5   6
ENDBRANCH   4   5
ENDBRANCH   3   4
ENDBRANCH   2   3
ENDBRANCH   1   2
BRANCH   1  75
ATOM     75  C   UNL A   1      40.651  25.332  26.222  1.00  0.00     0.188 C 
BRANCH  75  76
ATOM     76  C   UNL A   1      40.758  26.760  26.800  1.00  0.00     0.188 C 
BRANCH  76  77
ATOM     77  O   UNL A   1      41.228  27.733  25.881  1.00  0.00    -0.376 OA
BRANCH  77  78
ATOM     78  C   UNL A   1      42.617  28.021  25.963  1.00  0.00     0.202 C 
BRANCH  78  79
ATOM     79  C   UNL A   1      42.977  29.105  26.982  1.00  0.00     0.261 C 
BRANCH  79  80
ATOM     80  O   UNL A   1      43.671  30.248  26.452  1.00  0.00    -0.460 OA
BRANCH  80  81
ATOM     81  C   UNL A   1      44.922  30.540  26.900  1.00  0.00     0.342 C 
ATOM     82  O   UNL A   1      45.886  29.825  26.885  1.00  0.00    -0.246 OA
BRANCH  81  83
ATOM     83  C   UNL A   1      44.939  31.986  27.277  1.00  0.00     0.107 A 
ATOM     84  C   UNL A   1      43.840  32.533  27.994  1.00  0.00     0.042 A 
ATOM     85  C   UNL A   1      46.076  32.767  27.004  1.00  0.00     0.175 A 
ATOM     86  C   UNL A   1      43.935  33.844  28.480  1.00  0.00     0.092 A 
ATOM     87  C   UNL A   1      46.100  34.103  27.415  1.00  0.00     0.163 A 
ATOM     88  O   UNL A   1      47.130  32.206  26.322  1.00  0.00    -0.485 OA
ATOM     89  C   UNL A   1      45.058  34.624  28.169  1.00  0.00     0.072 A 
ATOM     90  O   UNL A   1      47.123  34.971  27.132  1.00  0.00    -0.486 OA
ATOM     91  C   UNL A   1      48.316  33.006  26.417  1.00  0.00     0.271 C 
ATOM     92  C   UNL A   1      47.971  34.449  26.105  1.00  0.00     0.271 C 
BRANCH  86  93
ATOM     93  S   UNL A   1      42.778  34.674  29.546  1.00  0.00     0.262 S 
ATOM     94  O   UNL A   1      42.433  35.919  28.896  1.00  0.00    -0.201 OA
ATOM     95  O   UNL A   1      41.759  33.683  29.835  1.00  0.00    -0.201 OA
BRANCH  93  96
ATOM     96  N   UNL A   1      43.432  35.000  31.017  1.00  0.00    -0.277 N 
ATOM     97  H   UNL A   1      43.841  35.893  31.085  1.00  0.00     0.180 HD
BRANCH  96  98
ATOM     98  C   UNL A   1      43.515  34.233  32.204  1.00  0.00     0.087 A 
ATOM     99  C   UNL A   1      42.555  34.135  33.200  1.00  0.00     0.069 A 
ATOM    100  C   UNL A   1      44.723  33.531  32.349  1.00  0.00     0.147 A 
ATOM    101  C   UNL A   1      42.867  33.401  34.352  1.00  0.00     0.125 A 
ATOM    102  C   UNL A   1      45.039  32.830  33.502  1.00  0.00     0.044 A 
ATOM    103  F   UNL A   1      45.611  33.560  31.340  1.00  0.00    -0.205 F 
ATOM    104  F   UNL A   1      41.958  33.290  35.328  1.00  0.00    -0.207 F 
ATOM    105  C   UNL A   1      44.106  32.783  34.528  1.00  0.00     0.042 A 
ENDBRANCH  96  98
ENDBRANCH  93  96
ENDBRANCH  86  93
ENDBRANCH  81  83
ENDBRANCH  80  81
ENDBRANCH  79  80
ENDBRANCH  78  79
ENDBRANCH  77  78
ENDBRANCH  76  77
ENDBRANCH  75  76
ENDBRANCH   1  75
TORSDOF 26
ENDMDL
MODEL 2
REMARK VINA RESULT:      -6.7      5.424     11.313
REMARK SMILES O=C(OCCOCCOCCOCCOC(=O)c1cc(S(=O)(=O)Nc2cc(F)ccc2F)cc2c1OCCO2)c1ccc(-c2c3nc(c(-c4cc(S(=O)(=O)[O-])ccc4F)c4ccc([nH]4)c(-c4cc(S(=O)(=O)[O-])ccc4F)c4nc(c(-c5cc(S(=O)(=O)[O-])ccc5F)c5ccc2[nH]5)C=C4)C=C3)cc1
REMARK SMILES IDX 9 1 8 2 7 3 6 4 5 5 4 6 3 7 2 8 1 9 40 10 41 11 102 12 42 13
REMARK SMILES IDX 101 14 43 15 44 16 45 17 95 18 46 19 100 20 94 21 96 22
REMARK SMILES IDX 47 23 99 24 93 25 92 26 48 28 80 29 60 30 79 31 61 32 64 33
REMARK SMILES IDX 78 34 97 35 62 36 63 37 77 39 98 40 65 41 49 42 50 43 58 44
REMARK SMILES IDX 51 45 57 46 59 47 56 48 52 49 53 50 54 51 55 52 81 53 82 54
REMARK SMILES IDX 90 55 83 56 89 57 91 58 88 59 84 60 85 61 86 62 87 63 66 64
REMARK SMILES IDX 67 65 75 66 68 67 74 68 76 69 73 70 69 71 70 72 71 73 72 74
REMARK SMILES IDX 10 75 11 76 12 77 13 78 14 79 15 80 16 81 17 82 18 83 19 84
REMARK SMILES IDX 35 85 20 86 34 87 36 88 33 89 39 90 37 91 38 92 21 93 22 94
REMARK SMILES IDX 23 95 24 96 25 98 26 99 31 100 27 101 30 102 32 103 28 104
REMARK SMILES IDX 29 105
REMARK H PARENT 96 27 64 38 24 97
REMARK Flexibility Score: inf
ROOT
ATOM      1  O   UNL A   1      39.847  27.699  28.348  1.00  0.00    -0.377 OA
ENDROOT
BRANCH   1   2
ATOM      2  C   UNL A   1      39.575  26.450  27.718  1.00  0.00     0.188 C 
BRANCH   2   3
ATOM      3  C   UNL A   1      40.330  25.246  28.280  1.00  0.00     0.188 C 
BRANCH   3   4
ATOM      4  O   UNL A   1      39.628  24.029  28.044  1.00  0.00    -0.376 OA
BRANCH   4   5
ATOM      5  C   UNL A   1      39.262  23.793  26.686  1.00  0.00     0.202 C 
BRANCH   5   6
ATOM      6  C   UNL A   1      39.312  22.310  26.325  1.00  0.00     0.261 C 
BRANCH   6   7
ATOM      7  O   UNL A   1      40.500  21.708  26.859  1.00  0.00    -0.460 OA
BRANCH   7   8
ATOM      8  C   UNL A   1      41.753  21.787  26.349  1.00  0.00     0.338 C 
ATOM      9  O   UNL A   1      42.144  20.877  25.617  1.00  0.00    -0.246 OA
BRANCH   8  10
ATOM     10  C   UNL A   1      42.673  22.948  26.565  1.00  0.00     0.060 A 
ATOM     11  C   UNL A   1      42.801  24.061  25.728  1.00  0.00     0.016 A 
ATOM     12  C   UNL A   1      43.382  22.952  27.777  1.00  0.00     0.016 A 
ATOM     13  C   UNL A   1      43.630  25.132  26.059  1.00  0.00     0.010 A 
ATOM     14  C   UNL A   1      44.193  24.033  28.131  1.00  0.00     0.010 A 
ATOM     15  C   UNL A   1      44.324  25.128  27.266  1.00  0.00    -0.014 A 
BRANCH  15  16
ATOM     16  C   UNL A   1      45.248  26.233  27.593  1.00  0.00     0.031 A 
ATOM     17  C   UNL A   1      44.752  27.326  28.492  1.00  0.00     0.074 A 
ATOM     18  C   UNL A   1      46.499  26.240  27.098  1.00  0.00     0.049 A 
ATOM     19  N   UNL A   1      45.298  28.475  28.778  1.00  0.00    -0.248 NA
ATOM     20  C   UNL A   1      43.461  27.085  29.159  1.00  0.00     0.031 C 
ATOM     21  C   UNL A   1      47.096  25.166  26.299  1.00  0.00     0.029 A 
ATOM     22  N   UNL A   1      47.492  27.181  27.183  1.00  0.00    -0.354 N 
ATOM     23  C   UNL A   1      44.400  29.115  29.624  1.00  0.00     0.074 A 
ATOM     24  C   UNL A   1      43.278  28.222  29.813  1.00  0.00     0.031 C 
ATOM     25  C   UNL A   1      48.345  25.520  25.953  1.00  0.00     0.029 A 
ATOM     26  C   UNL A   1      48.609  26.871  26.437  1.00  0.00     0.049 A 
ATOM     27  H   UNL A   1      47.415  28.000  27.723  1.00  0.00     0.167 HD
ATOM     28  C   UNL A   1      44.508  30.346  30.175  1.00  0.00     0.034 A 
ATOM     29  C   UNL A   1      49.686  27.625  26.137  1.00  0.00     0.034 A 
ATOM     30  C   UNL A   1      45.643  31.205  29.957  1.00  0.00     0.049 A 
ATOM     31  C   UNL A   1      49.733  29.034  26.685  1.00  0.00     0.074 A 
ATOM     32  C   UNL A   1      45.871  32.477  30.448  1.00  0.00     0.029 A 
ATOM     33  N   UNL A   1      46.739  30.879  29.165  1.00  0.00    -0.354 N 
ATOM     34  N   UNL A   1      48.872  29.644  27.472  1.00  0.00    -0.248 NA
ATOM     35  C   UNL A   1      50.881  29.862  26.299  1.00  0.00     0.031 C 
ATOM     36  C   UNL A   1      47.067  32.947  29.895  1.00  0.00     0.029 A 
ATOM     37  C   UNL A   1      47.625  31.940  29.121  1.00  0.00     0.049 A 
ATOM     38  H   UNL A   1      46.864  30.019  28.703  1.00  0.00     0.167 HD
ATOM     39  C   UNL A   1      49.388  30.919  27.686  1.00  0.00     0.074 A 
ATOM     40  C   UNL A   1      50.648  30.977  26.974  1.00  0.00     0.031 C 
ATOM     41  C   UNL A   1      48.872  31.956  28.394  1.00  0.00     0.034 A 
BRANCH  28  42
ATOM     42  C   UNL A   1      43.339  30.857  30.976  1.00  0.00     0.023 A 
ATOM     43  C   UNL A   1      42.338  31.663  30.409  1.00  0.00     0.031 A 
ATOM     44  C   UNL A   1      43.245  30.552  32.346  1.00  0.00     0.131 A 
ATOM     45  C   UNL A   1      41.316  32.183  31.221  1.00  0.00     0.055 A 
ATOM     46  C   UNL A   1      42.190  31.014  33.133  1.00  0.00     0.041 A 
ATOM     47  F   UNL A   1      44.190  29.811  32.946  1.00  0.00    -0.206 F 
ATOM     48  C   UNL A   1      41.222  31.842  32.573  1.00  0.00     0.022 A 
BRANCH  45  49
ATOM     49  S   UNL A   1      40.174  33.400  30.512  1.00  0.00     0.124 S 
ATOM     50  O   UNL A   1      41.068  34.184  29.664  1.00  0.00    -0.237 OA
ATOM     51  O   UNL A   1      39.208  32.560  29.814  1.00  0.00    -0.237 OA
ATOM     52  O   UNL A   1      39.656  34.107  31.682  1.00  0.00    -0.744 OA
ENDBRANCH  45  49
ENDBRANCH  28  42
BRANCH  29  53
ATOM     53  C   UNL A   1      50.752  27.130  25.211  1.00  0.00     0.023 A 
ATOM     54  C   UNL A   1      51.931  26.545  25.701  1.00  0.00     0.031 A 
ATOM     55  C   UNL A   1      50.655  27.326  23.819  1.00  0.00     0.131 A 
ATOM     56  C   UNL A   1      52.985  26.241  24.823  1.00  0.00     0.055 A 
ATOM     57  C   UNL A   1      51.677  26.956  22.942  1.00  0.00     0.041 A 
ATOM     58  F   UNL A   1      49.561  27.893  23.286  1.00  0.00    -0.206 F 
ATOM     59  C   UNL A   1      52.860  26.428  23.446  1.00  0.00     0.022 A 
BRANCH  56  60
ATOM     60  S   UNL A   1      54.580  25.730  25.525  1.00  0.00     0.124 S 
ATOM     61  O   UNL A   1      55.483  26.731  24.969  1.00  0.00    -0.237 OA
ATOM     62  O   UNL A   1      54.322  25.821  26.957  1.00  0.00    -0.237 OA
ATOM     63  O   UNL A   1      54.759  24.374  25.009  1.00  0.00    -0.744 OA
ENDBRANCH  56  60
ENDBRANCH  29  53
BRANCH  41  64
ATOM     64  C   UNL A   1      49.695  33.217  28.448  1.00  0.00     0.023 A 
ATOM     65  C   UNL A   1      49.548  34.230  27.486  1.00  0.00     0.031 A 
ATOM     66  C   UNL A   1      50.633  33.408  29.478  1.00  0.00     0.131 A 
ATOM     67  C   UNL A   1      50.363  35.367  27.544  1.00  0.00     0.055 A 
ATOM     68  C   UNL A   1      51.395  34.571  29.567  1.00  0.00     0.041 A 
ATOM     69  F   UNL A   1      50.812  32.468  30.421  1.00  0.00    -0.206 F 
ATOM     70  C   UNL A   1      51.272  35.554  28.590  1.00  0.00     0.022 A 
BRANCH  67  71
ATOM     71  S   UNL A   1      50.280  36.565  26.185  1.00  0.00     0.124 S 
ATOM     72  O   UNL A   1      51.657  36.574  25.706  1.00  0.00    -0.237 OA
ATOM     73  O   UNL A   1      49.299  35.957  25.292  1.00  0.00    -0.237 OA
ATOM     74  O   UNL A   1      49.841  37.796  26.840  1.00  0.00    -0.744 OA
ENDBRANCH  67  71
ENDBRANCH  41  64
ENDBRANCH  15  16
ENDBRANCH   8  10
ENDBRANCH   7   8
ENDBRANCH   6   7
ENDBRANCH   5   6
ENDBRANCH   4   5
ENDBRANCH   3   4
ENDBRANCH   2   3
ENDBRANCH   1   2
BRANCH   1  75
ATOM     75  C   UNL A   1      38.994  28.789  28.012  1.00  0.00     0.188 C 
BRANCH  75  76
ATOM     76  C   UNL A   1      37.879  29.225  28.987  1.00  0.00     0.188 C 
BRANCH  76  77
ATOM     77  O   UNL A   1      36.913  30.098  28.425  1.00  0.00    -0.376 OA
BRANCH  77  78
ATOM     78  C   UNL A   1      35.583  29.601  28.416  1.00  0.00     0.202 C 
BRANCH  78  79
ATOM     79  C   UNL A   1      34.867  29.737  27.069  1.00  0.00     0.261 C 
BRANCH  79  80
ATOM     80  O   UNL A   1      34.476  28.500  26.448  1.00  0.00    -0.460 OA
BRANCH  80  81
ATOM     81  C   UNL A   1      33.254  27.970  26.720  1.00  0.00     0.342 C 
ATOM     82  O   UNL A   1      32.436  28.385  27.494  1.00  0.00    -0.246 OA
BRANCH  81  83
ATOM     83  C   UNL A   1      33.026  26.847  25.760  1.00  0.00     0.107 A 
ATOM     84  C   UNL A   1      33.669  25.599  25.980  1.00  0.00     0.042 A 
ATOM     85  C   UNL A   1      32.110  27.004  24.705  1.00  0.00     0.175 A 
ATOM     86  C   UNL A   1      33.327  24.509  25.169  1.00  0.00     0.092 A 
ATOM     87  C   UNL A   1      31.865  25.926  23.850  1.00  0.00     0.163 A 
ATOM     88  O   UNL A   1      31.492  28.219  24.525  1.00  0.00    -0.485 OA
ATOM     89  C   UNL A   1      32.441  24.688  24.097  1.00  0.00     0.072 A 
ATOM     90  O   UNL A   1      31.052  25.995  22.747  1.00  0.00    -0.486 OA
ATOM     91  C   UNL A   1      30.366  28.122  23.642  1.00  0.00     0.271 C 
ATOM     92  C   UNL A   1      30.772  27.354  22.399  1.00  0.00     0.271 C 
BRANCH  86  93
ATOM     93  S   UNL A   1      33.857  22.823  25.367  1.00  0.00     0.262 S 
ATOM     94  O   UNL A   1      34.875  22.587  24.367  1.00  0.00    -0.201 OA
ATOM     95  O   UNL A   1      34.162  22.690  26.779  1.00  0.00    -0.201 OA
BRANCH  93  96
ATOM     96  N   UNL A   1      32.622  21.765  25.134  1.00  0.00    -0.277 N 
ATOM     97  H   UNL A   1      31.728  22.158  25.263  1.00  0.00     0.180 HD
BRANCH  96  98
ATOM     98  C   UNL A   1      32.606  20.394  24.784  1.00  0.00     0.087 A 
ATOM     99  C   UNL A   1      32.872  19.319  25.620  1.00  0.00     0.069 A 
ATOM    100  C   UNL A   1      32.299  20.151  23.436  1.00  0.00     0.147 A 
ATOM    101  C   UNL A   1      32.905  18.036  25.059  1.00  0.00     0.125 A 
ATOM    102  C   UNL A   1      32.360  18.883  22.879  1.00  0.00     0.044 A 
ATOM    103  F   UNL A   1      31.956  21.189  22.655  1.00  0.00    -0.205 F 
ATOM    104  F   UNL A   1      33.159  16.981  25.843  1.00  0.00    -0.207 F 
ATOM    105  C   UNL A   1      32.690  17.812  23.698  1.00  0.00     0.042 A 
ENDBRANCH  96  98
ENDBRANCH  93  96
ENDBRANCH  86  93
ENDBRANCH  81  83
ENDBRANCH  80  81
ENDBRANCH  79  80
ENDBRANCH  78  79
ENDBRANCH  77  78
ENDBRANCH  76  77
ENDBRANCH  75  76
ENDBRANCH   1  75
TORSDOF 26
ENDMDL
MODEL 3
REMARK VINA RESULT:      -6.6      1.783      2.446
REMARK SMILES O=C(OCCOCCOCCOCCOC(=O)c1cc(S(=O)(=O)Nc2cc(F)ccc2F)cc2c1OCCO2)c1ccc(-c2c3nc(c(-c4cc(S(=O)(=O)[O-])ccc4F)c4ccc([nH]4)c(-c4cc(S(=O)(=O)[O-])ccc4F)c4nc(c(-c5cc(S(=O)(=O)[O-])ccc5F)c5ccc2[nH]5)C=C4)C=C3)cc1
REMARK SMILES IDX 9 1 8 2 7 3 6 4 5 5 4 6 3 7 2 8 1 9 40 10 41 11 102 12 42 13
REMARK SMILES IDX 101 14 43 15 44 16 45 17 95 18 46 19 100 20 94 21 96 22
REMARK SMILES IDX 47 23 99 24 93 25 92 26 48 28 80 29 60 30 79 31 61 32 64 33
REMARK SMILES IDX 78 34 97 35 62 36 63 37 77 39 98 40 65 41 49 42 50 43 58 44
REMARK SMILES IDX 51 45 57 46 59 47 56 48 52 49 53 50 54 51 55 52 81 53 82 54
REMARK SMILES IDX 90 55 83 56 89 57 91 58 88 59 84 60 85 61 86 62 87 63 66 64
REMARK SMILES IDX 67 65 75 66 68 67 74 68 76 69 73 70 69 71 70 72 71 73 72 74
REMARK SMILES IDX 10 75 11 76 12 77 13 78 14 79 15 80 16 81 17 82 18 83 19 84
REMARK SMILES IDX 35 85 20 86 34 87 36 88 33 89 39 90 37 91 38 92 21 93 22 94
REMARK SMILES IDX 23 95 24 96 25 98 26 99 31 100 27 101 30 102 32 103 28 104
REMARK SMILES IDX 29 105
REMARK H PARENT 96 27 64 38 24 97
REMARK Flexibility Score: inf
ROOT
ATOM      1  O   UNL A   1      39.932  24.910  26.782  1.00  0.00    -0.377 OA
ENDROOT
BRANCH   1   2
ATOM      2  C   UNL A   1      40.503  23.621  26.985  1.00  0.00     0.188 C 
BRANCH   2   3
ATOM      3  C   UNL A   1      39.652  22.439  26.520  1.00  0.00     0.188 C 
BRANCH   3   4
ATOM      4  O   UNL A   1      40.459  21.323  26.152  1.00  0.00    -0.376 OA
BRANCH   4   5
ATOM      5  C   UNL A   1      41.140  20.687  27.231  1.00  0.00     0.202 C 
BRANCH   5   6
ATOM      6  C   UNL A   1      42.069  19.575  26.750  1.00  0.00     0.261 C 
BRANCH   6   7
ATOM      7  O   UNL A   1      42.454  19.803  25.386  1.00  0.00    -0.460 OA
BRANCH   7   8
ATOM      8  C   UNL A   1      43.607  20.363  24.948  1.00  0.00     0.338 C 
ATOM      9  O   UNL A   1      44.268  19.755  24.106  1.00  0.00    -0.246 OA
BRANCH   8  10
ATOM     10  C   UNL A   1      44.097  21.712  25.374  1.00  0.00     0.060 A 
ATOM     11  C   UNL A   1      43.536  22.942  25.013  1.00  0.00     0.016 A 
ATOM     12  C   UNL A   1      45.149  21.718  26.304  1.00  0.00     0.016 A 
ATOM     13  C   UNL A   1      44.019  24.143  25.528  1.00  0.00     0.010 A 
ATOM     14  C   UNL A   1      45.620  22.915  26.847  1.00  0.00     0.010 A 
ATOM     15  C   UNL A   1      45.057  24.136  26.455  1.00  0.00    -0.014 A 
BRANCH  15  16
ATOM     16  C   UNL A   1      45.609  25.411  26.958  1.00  0.00     0.031 A 
ATOM     17  C   UNL A   1      46.890  25.910  26.361  1.00  0.00     0.074 A 
ATOM     18  C   UNL A   1      44.962  26.098  27.917  1.00  0.00     0.049 A 
ATOM     19  N   UNL A   1      47.657  26.891  26.748  1.00  0.00    -0.248 NA
ATOM     20  C   UNL A   1      47.369  25.203  25.161  1.00  0.00     0.031 C 
ATOM     21  C   UNL A   1      43.659  25.737  28.482  1.00  0.00     0.029 A 
ATOM     22  N   UNL A   1      45.313  27.236  28.597  1.00  0.00    -0.354 N 
ATOM     23  C   UNL A   1      48.732  26.895  25.867  1.00  0.00     0.074 A 
ATOM     24  C   UNL A   1      48.514  25.823  24.920  1.00  0.00     0.031 C 
ATOM     25  C   UNL A   1      43.332  26.626  29.433  1.00  0.00     0.029 A 
ATOM     26  C   UNL A   1      44.431  27.572  29.600  1.00  0.00     0.049 A 
ATOM     27  H   UNL A   1      46.119  27.762  28.389  1.00  0.00     0.167 HD
ATOM     28  C   UNL A   1      49.809  27.715  25.870  1.00  0.00     0.034 A 
ATOM     29  C   UNL A   1      44.538  28.498  30.575  1.00  0.00     0.034 A 
ATOM     30  C   UNL A   1      49.989  28.767  26.836  1.00  0.00     0.049 A 
ATOM     31  C   UNL A   1      45.799  29.334  30.614  1.00  0.00     0.074 A 
ATOM     32  C   UNL A   1      51.038  29.660  26.955  1.00  0.00     0.029 A 
ATOM     33  N   UNL A   1      49.098  29.056  27.864  1.00  0.00    -0.354 N 
ATOM     34  N   UNL A   1      46.824  29.322  29.788  1.00  0.00    -0.248 NA
ATOM     35  C   UNL A   1      45.929  30.294  31.715  1.00  0.00     0.031 C 
ATOM     36  C   UNL A   1      50.815  30.439  28.096  1.00  0.00     0.029 A 
ATOM     37  C   UNL A   1      49.591  30.086  28.645  1.00  0.00     0.049 A 
ATOM     38  H   UNL A   1      48.242  28.594  28.014  1.00  0.00     0.167 HD
ATOM     39  C   UNL A   1      47.709  30.286  30.264  1.00  0.00     0.074 A 
ATOM     40  C   UNL A   1      47.081  30.880  31.427  1.00  0.00     0.031 C 
ATOM     41  C   UNL A   1      48.932  30.647  29.799  1.00  0.00     0.034 A 
BRANCH  28  42
ATOM     42  C   UNL A   1      50.897  27.440  24.866  1.00  0.00     0.023 A 
ATOM     43  C   UNL A   1      50.952  28.092  23.622  1.00  0.00     0.031 A 
ATOM     44  C   UNL A   1      51.884  26.479  25.151  1.00  0.00     0.131 A 
ATOM     45  C   UNL A   1      51.939  27.735  22.689  1.00  0.00     0.055 A 
ATOM     46  C   UNL A   1      52.903  26.178  24.247  1.00  0.00     0.041 A 
ATOM     47  F   UNL A   1      51.863  25.803  26.311  1.00  0.00    -0.206 F 
ATOM     48  C   UNL A   1      52.929  26.801  23.003  1.00  0.00     0.022 A 
BRANCH  45  49
ATOM     49  S   UNL A   1      51.845  28.427  21.015  1.00  0.00     0.124 S 
ATOM     50  O   UNL A   1      53.258  28.631  20.701  1.00  0.00    -0.237 OA
ATOM     51  O   UNL A   1      51.174  27.369  20.270  1.00  0.00    -0.237 OA
ATOM     52  O   UNL A   1      51.071  29.653  21.193  1.00  0.00    -0.744 OA
ENDBRANCH  45  49
ENDBRANCH  28  42
BRANCH  29  53
ATOM     53  C   UNL A   1      43.501  28.631  31.644  1.00  0.00     0.023 A 
ATOM     54  C   UNL A   1      43.618  27.947  32.864  1.00  0.00     0.031 A 
ATOM     55  C   UNL A   1      42.320  29.368  31.424  1.00  0.00     0.131 A 
ATOM     56  C   UNL A   1      42.555  27.955  33.783  1.00  0.00     0.055 A 
ATOM     57  C   UNL A   1      41.295  29.431  32.371  1.00  0.00     0.041 A 
ATOM     58  F   UNL A   1      42.137  30.034  30.273  1.00  0.00    -0.206 F 
ATOM     59  C   UNL A   1      41.401  28.705  33.552  1.00  0.00     0.022 A 
BRANCH  56  60
ATOM     60  S   UNL A   1      42.643  26.853  35.223  1.00  0.00     0.124 S 
ATOM     61  O   UNL A   1      43.121  27.759  36.261  1.00  0.00    -0.237 OA
ATOM     62  O   UNL A   1      41.260  26.407  35.347  1.00  0.00    -0.237 OA
ATOM     63  O   UNL A   1      43.594  25.824  34.807  1.00  0.00    -0.744 OA
ENDBRANCH  56  60
ENDBRANCH  29  53
BRANCH  41  64
ATOM     64  C   UNL A   1      49.639  31.753  30.538  1.00  0.00     0.023 A 
ATOM     65  C   UNL A   1      49.667  33.066  30.039  1.00  0.00     0.031 A 
ATOM     66  C   UNL A   1      50.286  31.490  31.759  1.00  0.00     0.131 A 
ATOM     67  C   UNL A   1      50.373  34.058  30.732  1.00  0.00     0.055 A 
ATOM     68  C   UNL A   1      50.932  32.496  32.476  1.00  0.00     0.041 A 
ATOM     69  F   UNL A   1      50.290  30.251  32.276  1.00  0.00    -0.206 F 
ATOM     70  C   UNL A   1      50.988  33.786  31.957  1.00  0.00     0.022 A 
BRANCH  67  71
ATOM     71  S   UNL A   1      50.547  35.692  29.968  1.00  0.00     0.124 S 
ATOM     72  O   UNL A   1      49.207  36.246  30.129  1.00  0.00    -0.237 OA
ATOM     73  O   UNL A   1      51.592  36.308  30.779  1.00  0.00    -0.237 OA
ATOM     74  O   UNL A   1      50.932  35.388  28.591  1.00  0.00    -0.744 OA
ENDBRANCH  67  71
ENDBRANCH  41  64
ENDBRANCH  15  16
ENDBRANCH   8  10
ENDBRANCH   7   8
ENDBRANCH   6   7
ENDBRANCH   5   6
ENDBRANCH   4   5
ENDBRANCH   3   4
ENDBRANCH   2   3
ENDBRANCH   1   2
BRANCH   1  75
ATOM     75  C   UNL A   1      40.737  25.871  26.105  1.00  0.00     0.188 C 
BRANCH  75  76
ATOM     76  C   UNL A   1      40.803  27.324  26.623  1.00  0.00     0.188 C 
BRANCH  76  77
ATOM     77  O   UNL A   1      41.501  28.221  25.774  1.00  0.00    -0.376 OA
BRANCH  77  78
ATOM     78  C   UNL A   1      42.841  28.497  26.158  1.00  0.00     0.202 C 
BRANCH  78  79
ATOM     79  C   UNL A   1      43.017  29.803  26.938  1.00  0.00     0.261 C 
BRANCH  79  80
ATOM     80  O   UNL A   1      44.025  30.696  26.431  1.00  0.00    -0.460 OA
BRANCH  80  81
ATOM     81  C   UNL A   1      45.280  30.656  26.954  1.00  0.00     0.342 C 
ATOM     82  O   UNL A   1      46.121  29.821  26.766  1.00  0.00    -0.246 OA
BRANCH  81  83
ATOM     83  C   UNL A   1      45.500  31.935  27.696  1.00  0.00     0.107 A 
ATOM     84  C   UNL A   1      44.678  32.244  28.814  1.00  0.00     0.042 A 
ATOM     85  C   UNL A   1      46.571  32.773  27.342  1.00  0.00     0.175 A 
ATOM     86  C   UNL A   1      44.992  33.363  29.596  1.00  0.00     0.092 A 
ATOM     87  C   UNL A   1      46.799  33.937  28.081  1.00  0.00     0.163 A 
ATOM     88  O   UNL A   1      47.358  32.441  26.264  1.00  0.00    -0.485 OA
ATOM     89  C   UNL A   1      46.040  34.211  29.210  1.00  0.00     0.072 A 
ATOM     90  O   UNL A   1      47.765  34.861  27.774  1.00  0.00    -0.486 OA
ATOM     91  C   UNL A   1      48.578  33.194  26.240  1.00  0.00     0.271 C 
ATOM     92  C   UNL A   1      48.263  34.663  26.448  1.00  0.00     0.271 C 
BRANCH  86  93
ATOM     93  S   UNL A   1      44.230  33.842  31.129  1.00  0.00     0.262 S 
ATOM     94  O   UNL A   1      43.447  32.711  31.576  1.00  0.00    -0.201 OA
ATOM     95  O   UNL A   1      45.316  34.358  31.942  1.00  0.00    -0.201 OA
BRANCH  93  96
ATOM     96  N   UNL A   1      43.239  35.138  30.937  1.00  0.00    -0.277 N 
ATOM     97  H   UNL A   1      42.604  35.271  31.678  1.00  0.00     0.180 HD
BRANCH  96  98
ATOM     98  C   UNL A   1      43.130  36.098  29.904  1.00  0.00     0.087 A 
ATOM     99  C   UNL A   1      43.684  37.370  29.887  1.00  0.00     0.069 A 
ATOM    100  C   UNL A   1      42.355  35.677  28.810  1.00  0.00     0.147 A 
ATOM    101  C   UNL A   1      43.376  38.213  28.811  1.00  0.00     0.125 A 
ATOM    102  C   UNL A   1      42.031  36.524  27.762  1.00  0.00     0.044 A 
ATOM    103  F   UNL A   1      41.896  34.415  28.793  1.00  0.00    -0.205 F 
ATOM    104  F   UNL A   1      43.899  39.445  28.771  1.00  0.00    -0.207 F 
ATOM    105  C   UNL A   1      42.531  37.819  27.774  1.00  0.00     0.042 A 
ENDBRANCH  96  98
ENDBRANCH  93  96
ENDBRANCH  86  93
ENDBRANCH  81  83
ENDBRANCH  80  81
ENDBRANCH  79  80
ENDBRANCH  78  79
ENDBRANCH  77  78
ENDBRANCH  76  77
ENDBRANCH  75  76
ENDBRANCH   1  75
TORSDOF 26
ENDMDL
