MODEL 1
REMARK VINA RESULT:     -10.1      0.000      0.000
REMARK SMILES O=C(OCCOCCOCCOCCOC(=O)c1cccnc1-c1ccccn1)c1ccc(-c2c3nc(c(-c4cc(S(=O)(=O)[O-])ccc4F)c4ccc([nH]4)c(-c4cc(S(=O)(=O)[O-])ccc4F)c4nc(c(-c5cc(S(=O)(=O)[O-])ccc5F)c5ccc2[nH]5)C=C4)C=C3)cc1
REMARK SMILES IDX 8 1 7 2 6 3 5 4 4 5 3 6 2 7 1 8 30 9 31 10 92 11 32 12 91 13
REMARK SMILES IDX 33 14 34 15 35 16 85 17 36 18 90 19 84 20 86 21 37 22 89 23
REMARK SMILES IDX 83 24 82 25 38 27 70 28 50 29 69 30 51 31 54 32 68 33 87 34
REMARK SMILES IDX 52 35 53 36 67 38 88 39 55 40 39 41 40 42 48 43 41 44 47 45
REMARK SMILES IDX 49 46 46 47 42 48 43 49 44 50 45 51 71 52 72 53 80 54 73 55
REMARK SMILES IDX 79 56 81 57 78 58 74 59 75 60 76 61 77 62 56 63 57 64 65 65
REMARK SMILES IDX 58 66 64 67 66 68 63 69 59 70 60 71 61 72 62 73 9 74 10 75
REMARK SMILES IDX 11 76 12 77 13 78 14 79 15 80 16 81 17 82 18 83 19 84 23 85
REMARK SMILES IDX 20 86 22 87 21 88 24 89 25 90 29 91 26 92 28 93 27 94
REMARK H PARENT 86 26 54 37
REMARK Flexibility Score: inf
ROOT
ATOM      1  C   UNL A   1      31.007  28.836  22.360  1.00  0.00     0.188 C 
ENDROOT
BRANCH   1   2
ATOM      2  C   UNL A   1      29.898  29.589  23.093  1.00  0.00     0.188 C 
BRANCH   2   3
ATOM      3  O   UNL A   1      30.385  30.147  24.309  1.00  0.00    -0.376 OA
BRANCH   3   4
ATOM      4  C   UNL A   1      31.187  29.297  25.122  1.00  0.00     0.202 C 
BRANCH   4   5
ATOM      5  C   UNL A   1      32.550  29.900  25.454  1.00  0.00     0.261 C 
BRANCH   5   6
ATOM      6  O   UNL A   1      32.577  30.376  26.807  1.00  0.00    -0.460 OA
BRANCH   6   7
ATOM      7  C   UNL A   1      33.411  31.323  27.307  1.00  0.00     0.338 C 
ATOM      8  O   UNL A   1      33.072  32.504  27.241  1.00  0.00    -0.246 OA
BRANCH   7   9
ATOM      9  C   UNL A   1      34.696  30.998  27.992  1.00  0.00     0.060 A 
ATOM     10  C   UNL A   1      35.025  29.753  28.538  1.00  0.00     0.016 A 
ATOM     11  C   UNL A   1      35.672  32.005  28.005  1.00  0.00     0.016 A 
ATOM     12  C   UNL A   1      36.251  29.522  29.141  1.00  0.00     0.010 A 
ATOM     13  C   UNL A   1      36.927  31.768  28.570  1.00  0.00     0.010 A 
ATOM     14  C   UNL A   1      37.212  30.524  29.148  1.00  0.00    -0.014 A 
BRANCH  14  15
ATOM     15  C   UNL A   1      38.485  30.278  29.843  1.00  0.00     0.031 A 
ATOM     16  C   UNL A   1      39.465  29.357  29.193  1.00  0.00     0.074 A 
ATOM     17  C   UNL A   1      38.752  30.920  30.995  1.00  0.00     0.049 A 
ATOM     18  N   UNL A   1      40.539  28.811  29.687  1.00  0.00    -0.248 NA
ATOM     19  C   UNL A   1      39.193  29.001  27.790  1.00  0.00     0.031 C 
ATOM     20  C   UNL A   1      37.902  31.946  31.608  1.00  0.00     0.029 A 
ATOM     21  N   UNL A   1      39.809  30.808  31.858  1.00  0.00    -0.354 N 
ATOM     22  C   UNL A   1      41.037  27.993  28.680  1.00  0.00     0.074 A 
ATOM     23  C   UNL A   1      40.163  28.136  27.538  1.00  0.00     0.031 C 
ATOM     24  C   UNL A   1      38.467  32.359  32.754  1.00  0.00     0.029 A 
ATOM     25  C   UNL A   1      39.656  31.555  33.005  1.00  0.00     0.049 A 
ATOM     26  H   UNL A   1      40.599  30.249  31.676  1.00  0.00     0.167 HD
ATOM     27  C   UNL A   1      42.116  27.180  28.739  1.00  0.00     0.034 A 
ATOM     28  C   UNL A   1      40.358  31.518  34.155  1.00  0.00     0.034 A 
ATOM     29  C   UNL A   1      42.948  27.091  29.911  1.00  0.00     0.049 A 
ATOM     30  C   UNL A   1      41.495  30.528  34.232  1.00  0.00     0.074 A 
ATOM     31  C   UNL A   1      44.060  26.299  30.126  1.00  0.00     0.029 A 
ATOM     32  N   UNL A   1      42.744  27.824  31.076  1.00  0.00    -0.354 N 
ATOM     33  N   UNL A   1      41.940  29.710  33.301  1.00  0.00    -0.248 NA
ATOM     34  C   UNL A   1      42.210  30.432  35.509  1.00  0.00     0.031 C 
ATOM     35  C   UNL A   1      44.480  26.500  31.446  1.00  0.00     0.029 A 
ATOM     36  C   UNL A   1      43.681  27.474  32.030  1.00  0.00     0.049 A 
ATOM     37  H   UNL A   1      42.035  28.496  31.203  1.00  0.00     0.167 HD
ATOM     38  C   UNL A   1      42.993  29.010  33.880  1.00  0.00     0.074 A 
ATOM     39  C   UNL A   1      43.135  29.525  35.228  1.00  0.00     0.031 C 
ATOM     40  C   UNL A   1      43.771  28.026  33.361  1.00  0.00     0.034 A 
BRANCH  27  41
ATOM     41  C   UNL A   1      42.358  26.263  27.570  1.00  0.00     0.023 A 
ATOM     42  C   UNL A   1      41.844  24.956  27.515  1.00  0.00     0.031 A 
ATOM     43  C   UNL A   1      43.182  26.692  26.513  1.00  0.00     0.131 A 
ATOM     44  C   UNL A   1      42.212  24.104  26.460  1.00  0.00     0.055 A 
ATOM     45  C   UNL A   1      43.484  25.865  25.429  1.00  0.00     0.041 A 
ATOM     46  F   UNL A   1      43.729  27.917  26.529  1.00  0.00    -0.206 F 
ATOM     47  C   UNL A   1      43.008  24.558  25.405  1.00  0.00     0.022 A 
BRANCH  44  48
ATOM     48  S   UNL A   1      41.744  22.354  26.550  1.00  0.00     0.124 S 
ATOM     49  O   UNL A   1      40.289  22.442  26.650  1.00  0.00    -0.237 OA
ATOM     50  O   UNL A   1      42.264  21.821  25.296  1.00  0.00    -0.237 OA
ATOM     51  O   UNL A   1      42.418  21.879  27.757  1.00  0.00    -0.744 OA
ENDBRANCH  44  48
ENDBRANCH  27  41
BRANCH  28  52
ATOM     52  C   UNL A   1      39.945  32.327  35.343  1.00  0.00     0.023 A 
ATOM     53  C   UNL A   1      39.122  31.786  36.343  1.00  0.00     0.031 A 
ATOM     54  C   UNL A   1      40.304  33.684  35.459  1.00  0.00     0.131 A 
ATOM     55  C   UNL A   1      38.642  32.608  37.379  1.00  0.00     0.055 A 
ATOM     56  C   UNL A   1      39.882  34.477  36.528  1.00  0.00     0.041 A 
ATOM     57  F   UNL A   1      41.076  34.269  34.529  1.00  0.00    -0.206 F 
ATOM     58  C   UNL A   1      39.029  33.944  37.486  1.00  0.00     0.022 A 
BRANCH  55  59
ATOM     59  S   UNL A   1      37.390  31.936  38.508  1.00  0.00     0.124 S 
ATOM     60  O   UNL A   1      36.254  32.813  38.249  1.00  0.00    -0.237 OA
ATOM     61  O   UNL A   1      37.262  30.563  38.034  1.00  0.00    -0.237 OA
ATOM     62  O   UNL A   1      38.006  32.085  39.826  1.00  0.00    -0.744 OA
ENDBRANCH  55  59
ENDBRANCH  28  52
BRANCH  40  63
ATOM     63  C   UNL A   1      44.851  27.482  34.256  1.00  0.00     0.023 A 
ATOM     64  C   UNL A   1      44.613  26.387  35.103  1.00  0.00     0.031 A 
ATOM     65  C   UNL A   1      46.135  28.050  34.236  1.00  0.00     0.131 A 
ATOM     66  C   UNL A   1      45.640  25.918  35.931  1.00  0.00     0.055 A 
ATOM     67  C   UNL A   1      47.170  27.538  35.017  1.00  0.00     0.041 A 
ATOM     68  F   UNL A   1      46.407  29.097  33.440  1.00  0.00    -0.206 F 
ATOM     69  C   UNL A   1      46.923  26.472  35.876  1.00  0.00     0.022 A 
BRANCH  66  70
ATOM     70  S   UNL A   1      45.262  24.610  37.126  1.00  0.00     0.124 S 
ATOM     71  O   UNL A   1      44.155  25.197  37.874  1.00  0.00    -0.237 OA
ATOM     72  O   UNL A   1      44.921  23.483  36.263  1.00  0.00    -0.237 OA
ATOM     73  O   UNL A   1      46.508  24.460  37.876  1.00  0.00    -0.744 OA
ENDBRANCH  66  70
ENDBRANCH  40  63
ENDBRANCH  14  15
ENDBRANCH   7   9
ENDBRANCH   6   7
ENDBRANCH   5   6
ENDBRANCH   4   5
ENDBRANCH   3   4
ENDBRANCH   2   3
ENDBRANCH   1   2
BRANCH   1  74
ATOM     74  O   UNL A   1      30.687  27.497  21.994  1.00  0.00    -0.377 OA
BRANCH  74  75
ATOM     75  C   UNL A   1      31.233  26.455  22.804  1.00  0.00     0.188 C 
BRANCH  75  76
ATOM     76  C   UNL A   1      31.572  25.088  22.160  1.00  0.00     0.188 C 
BRANCH  76  77
ATOM     77  O   UNL A   1      32.965  24.885  21.978  1.00  0.00    -0.376 OA
BRANCH  77  78
ATOM     78  C   UNL A   1      33.625  24.189  23.024  1.00  0.00     0.202 C 
BRANCH  78  79
ATOM     79  C   UNL A   1      32.732  23.338  23.935  1.00  0.00     0.261 C 
BRANCH  79  80
ATOM     80  O   UNL A   1      32.650  21.939  23.605  1.00  0.00    -0.460 OA
BRANCH  80  81
ATOM     81  C   UNL A   1      32.281  21.037  24.547  1.00  0.00     0.340 C 
ATOM     82  O   UNL A   1      31.393  21.166  25.367  1.00  0.00    -0.246 OA
BRANCH  81  83
ATOM     83  C   UNL A   1      33.242  19.910  24.442  1.00  0.00     0.088 A 
ATOM     84  C   UNL A   1      32.685  18.625  24.307  1.00  0.00     0.019 A 
ATOM     85  C   UNL A   1      34.626  20.012  24.635  1.00  0.00     0.103 A 
ATOM     86  C   UNL A   1      33.498  17.498  24.329  1.00  0.00     0.021 A 
ATOM     87  N   UNL A   1      35.427  18.894  24.631  1.00  0.00    -0.254 NA
ATOM     88  C   UNL A   1      34.856  17.683  24.471  1.00  0.00     0.112 A 
BRANCH  85  89
ATOM     89  C   UNL A   1      35.360  21.226  25.055  1.00  0.00     0.089 A 
ATOM     90  C   UNL A   1      35.084  21.822  26.296  1.00  0.00     0.031 A 
ATOM     91  N   UNL A   1      36.293  21.737  24.224  1.00  0.00    -0.255 NA
ATOM     92  C   UNL A   1      35.769  22.970  26.686  1.00  0.00     0.004 A 
ATOM     93  C   UNL A   1      36.962  22.844  24.636  1.00  0.00     0.112 A 
ATOM     94  C   UNL A   1      36.733  23.491  25.839  1.00  0.00     0.020 A 
ENDBRANCH  85  89
ENDBRANCH  81  83
ENDBRANCH  80  81
ENDBRANCH  79  80
ENDBRANCH  78  79
ENDBRANCH  77  78
ENDBRANCH  76  77
ENDBRANCH  75  76
ENDBRANCH  74  75
ENDBRANCH   1  74
TORSDOF 24
ENDMDL
MODEL 2
REMARK VINA RESULT:      -9.8      4.102      7.745
REMARK SMILES O=C(OCCOCCOCCOCCOC(=O)c1cccnc1-c1ccccn1)c1ccc(-c2c3nc(c(-c4cc(S(=O)(=O)[O-])ccc4F)c4ccc([nH]4)c(-c4cc(S(=O)(=O)[O-])ccc4F)c4nc(c(-c5cc(S(=O)(=O)[O-])ccc5F)c5ccc2[nH]5)C=C4)C=C3)cc1
REMARK SMILES IDX 8 1 7 2 6 3 5 4 4 5 3 6 2 7 1 8 30 9 31 10 92 11 32 12 91 13
REMARK SMILES IDX 33 14 34 15 35 16 85 17 36 18 90 19 84 20 86 21 37 22 89 23
REMARK SMILES IDX 83 24 82 25 38 27 70 28 50 29 69 30 51 31 54 32 68 33 87 34
REMARK SMILES IDX 52 35 53 36 67 38 88 39 55 40 39 41 40 42 48 43 41 44 47 45
REMARK SMILES IDX 49 46 46 47 42 48 43 49 44 50 45 51 71 52 72 53 80 54 73 55
REMARK SMILES IDX 79 56 81 57 78 58 74 59 75 60 76 61 77 62 56 63 57 64 65 65
REMARK SMILES IDX 58 66 64 67 66 68 63 69 59 70 60 71 61 72 62 73 9 74 10 75
REMARK SMILES IDX 11 76 12 77 13 78 14 79 15 80 16 81 17 82 18 83 19 84 23 85
REMARK SMILES IDX 20 86 22 87 21 88 24 89 25 90 29 91 26 92 28 93 27 94
REMARK H PARENT 86 26 54 37
REMARK Flexibility Score: inf
ROOT
ATOM      1  C   UNL A   1      33.570  21.065  24.924  1.00  0.00     0.188 C 
ENDROOT
BRANCH   1   2
ATOM      2  C   UNL A   1      34.343  19.777  24.645  1.00  0.00     0.188 C 
BRANCH   2   3
ATOM      3  O   UNL A   1      35.735  19.962  24.883  1.00  0.00    -0.376 OA
BRANCH   3   4
ATOM      4  C   UNL A   1      36.121  21.205  25.462  1.00  0.00     0.202 C 
BRANCH   4   5
ATOM      5  C   UNL A   1      37.609  21.504  25.296  1.00  0.00     0.261 C 
BRANCH   5   6
ATOM      6  O   UNL A   1      38.007  22.581  26.156  1.00  0.00    -0.460 OA
BRANCH   6   7
ATOM      7  C   UNL A   1      39.282  22.934  26.459  1.00  0.00     0.338 C 
ATOM      8  O   UNL A   1      40.177  22.104  26.311  1.00  0.00    -0.246 OA
BRANCH   7   9
ATOM      9  C   UNL A   1      39.663  24.308  26.903  1.00  0.00     0.060 A 
ATOM     10  C   UNL A   1      40.189  25.305  26.076  1.00  0.00     0.016 A 
ATOM     11  C   UNL A   1      39.386  24.633  28.239  1.00  0.00     0.016 A 
ATOM     12  C   UNL A   1      40.498  26.566  26.561  1.00  0.00     0.010 A 
ATOM     13  C   UNL A   1      39.651  25.915  28.726  1.00  0.00     0.010 A 
ATOM     14  C   UNL A   1      40.218  26.880  27.884  1.00  0.00    -0.014 A 
BRANCH  14  15
ATOM     15  C   UNL A   1      40.607  28.205  28.393  1.00  0.00     0.031 A 
ATOM     16  C   UNL A   1      42.065  28.489  28.549  1.00  0.00     0.074 A 
ATOM     17  C   UNL A   1      39.661  29.127  28.645  1.00  0.00     0.049 A 
ATOM     18  N   UNL A   1      42.654  29.471  29.170  1.00  0.00    -0.248 NA
ATOM     19  C   UNL A   1      42.987  27.529  27.918  1.00  0.00     0.031 C 
ATOM     20  C   UNL A   1      38.229  28.966  28.374  1.00  0.00     0.029 A 
ATOM     21  N   UNL A   1      39.755  30.381  29.188  1.00  0.00    -0.354 N 
ATOM     22  C   UNL A   1      44.015  29.214  29.063  1.00  0.00     0.074 A 
ATOM     23  C   UNL A   1      44.166  27.999  28.295  1.00  0.00     0.031 C 
ATOM     24  C   UNL A   1      37.580  30.075  28.763  1.00  0.00     0.029 A 
ATOM     25  C   UNL A   1      38.531  30.973  29.403  1.00  0.00     0.049 A 
ATOM     26  H   UNL A   1      40.613  30.815  29.403  1.00  0.00     0.167 HD
ATOM     27  C   UNL A   1      45.031  29.930  29.596  1.00  0.00     0.034 A 
ATOM     28  C   UNL A   1      38.222  32.075  30.115  1.00  0.00     0.034 A 
ATOM     29  C   UNL A   1      44.810  31.138  30.347  1.00  0.00     0.049 A 
ATOM     30  C   UNL A   1      39.365  32.800  30.786  1.00  0.00     0.074 A 
ATOM     31  C   UNL A   1      45.735  31.958  30.964  1.00  0.00     0.029 A 
ATOM     32  N   UNL A   1      43.556  31.691  30.590  1.00  0.00    -0.354 N 
ATOM     33  N   UNL A   1      40.654  32.533  30.735  1.00  0.00    -0.248 NA
ATOM     34  C   UNL A   1      39.023  33.953  31.624  1.00  0.00     0.031 C 
ATOM     35  C   UNL A   1      45.034  32.963  31.640  1.00  0.00     0.029 A 
ATOM     36  C   UNL A   1      43.677  32.817  31.382  1.00  0.00     0.049 A 
ATOM     37  H   UNL A   1      42.705  31.333  30.247  1.00  0.00     0.167 HD
ATOM     38  C   UNL A   1      41.273  33.491  31.529  1.00  0.00     0.074 A 
ATOM     39  C   UNL A   1      40.220  34.360  32.019  1.00  0.00     0.031 C 
ATOM     40  C   UNL A   1      42.586  33.645  31.839  1.00  0.00     0.034 A 
BRANCH  27  41
ATOM     41  C   UNL A   1      46.419  29.355  29.484  1.00  0.00     0.023 A 
ATOM     42  C   UNL A   1      47.250  29.597  28.376  1.00  0.00     0.031 A 
ATOM     43  C   UNL A   1      46.892  28.489  30.487  1.00  0.00     0.131 A 
ATOM     44  C   UNL A   1      48.481  28.929  28.268  1.00  0.00     0.055 A 
ATOM     45  C   UNL A   1      48.149  27.886  30.409  1.00  0.00     0.041 A 
ATOM     46  F   UNL A   1      46.128  28.194  31.549  1.00  0.00    -0.206 F 
ATOM     47  C   UNL A   1      48.946  28.095  29.288  1.00  0.00     0.022 A 
BRANCH  44  48
ATOM     48  S   UNL A   1      49.410  29.061  26.715  1.00  0.00     0.124 S 
ATOM     49  O   UNL A   1      50.559  28.200  26.986  1.00  0.00    -0.237 OA
ATOM     50  O   UNL A   1      48.457  28.560  25.731  1.00  0.00    -0.237 OA
ATOM     51  O   UNL A   1      49.716  30.487  26.618  1.00  0.00    -0.744 OA
ENDBRANCH  44  48
ENDBRANCH  27  41
BRANCH  28  52
ATOM     52  C   UNL A   1      36.801  32.483  30.339  1.00  0.00     0.023 A 
ATOM     53  C   UNL A   1      36.074  33.165  29.351  1.00  0.00     0.031 A 
ATOM     54  C   UNL A   1      36.168  32.266  31.579  1.00  0.00     0.131 A 
ATOM     55  C   UNL A   1      34.786  33.653  29.637  1.00  0.00     0.055 A 
ATOM     56  C   UNL A   1      34.863  32.690  31.833  1.00  0.00     0.041 A 
ATOM     57  F   UNL A   1      36.813  31.634  32.573  1.00  0.00    -0.206 F 
ATOM     58  C   UNL A   1      34.170  33.406  30.865  1.00  0.00     0.022 A 
BRANCH  55  59
ATOM     59  S   UNL A   1      33.980  34.736  28.424  1.00  0.00     0.124 S 
ATOM     60  O   UNL A   1      34.030  36.028  29.099  1.00  0.00    -0.237 OA
ATOM     61  O   UNL A   1      34.848  34.585  27.261  1.00  0.00    -0.237 OA
ATOM     62  O   UNL A   1      32.646  34.156  28.284  1.00  0.00    -0.744 OA
ENDBRANCH  55  59
ENDBRANCH  28  52
BRANCH  40  63
ATOM     63  C   UNL A   1      42.935  34.812  32.722  1.00  0.00     0.023 A 
ATOM     64  C   UNL A   1      42.914  34.700  34.121  1.00  0.00     0.031 A 
ATOM     65  C   UNL A   1      43.318  36.037  32.151  1.00  0.00     0.131 A 
ATOM     66  C   UNL A   1      43.232  35.813  34.909  1.00  0.00     0.055 A 
ATOM     67  C   UNL A   1      43.694  37.123  32.941  1.00  0.00     0.041 A 
ATOM     68  F   UNL A   1      43.353  36.189  30.818  1.00  0.00    -0.206 F 
ATOM     69  C   UNL A   1      43.644  37.016  34.328  1.00  0.00     0.022 A 
BRANCH  66  70
ATOM     70  S   UNL A   1      43.043  35.686  36.706  1.00  0.00     0.124 S 
ATOM     71  O   UNL A   1      41.889  36.545  36.949  1.00  0.00    -0.237 OA
ATOM     72  O   UNL A   1      42.825  34.256  36.900  1.00  0.00    -0.237 OA
ATOM     73  O   UNL A   1      44.314  36.192  37.221  1.00  0.00    -0.744 OA
ENDBRANCH  66  70
ENDBRANCH  40  63
ENDBRANCH  14  15
ENDBRANCH   7   9
ENDBRANCH   6   7
ENDBRANCH   5   6
ENDBRANCH   4   5
ENDBRANCH   3   4
ENDBRANCH   2   3
ENDBRANCH   1   2
BRANCH   1  74
ATOM     74  O   UNL A   1      33.200  21.809  23.766  1.00  0.00    -0.377 OA
BRANCH  74  75
ATOM     75  C   UNL A   1      32.359  22.945  23.969  1.00  0.00     0.188 C 
BRANCH  75  76
ATOM     76  C   UNL A   1      32.341  24.078  22.912  1.00  0.00     0.188 C 
BRANCH  76  77
ATOM     77  O   UNL A   1      33.193  25.163  23.241  1.00  0.00    -0.376 OA
BRANCH  77  78
ATOM     78  C   UNL A   1      33.306  26.176  22.253  1.00  0.00     0.202 C 
BRANCH  78  79
ATOM     79  C   UNL A   1      32.992  27.605  22.716  1.00  0.00     0.261 C 
BRANCH  79  80
ATOM     80  O   UNL A   1      31.631  28.039  22.534  1.00  0.00    -0.460 OA
BRANCH  80  81
ATOM     81  C   UNL A   1      30.924  28.523  23.584  1.00  0.00     0.340 C 
ATOM     82  O   UNL A   1      30.518  29.661  23.722  1.00  0.00    -0.246 OA
BRANCH  81  83
ATOM     83  C   UNL A   1      30.835  27.417  24.570  1.00  0.00     0.088 A 
ATOM     84  C   UNL A   1      29.829  26.460  24.345  1.00  0.00     0.019 A 
ATOM     85  C   UNL A   1      31.550  27.353  25.773  1.00  0.00     0.103 A 
ATOM     86  C   UNL A   1      29.585  25.460  25.280  1.00  0.00     0.021 A 
ATOM     87  N   UNL A   1      31.320  26.347  26.682  1.00  0.00    -0.254 NA
ATOM     88  C   UNL A   1      30.365  25.433  26.416  1.00  0.00     0.112 A 
BRANCH  85  89
ATOM     89  C   UNL A   1      32.448  28.400  26.311  1.00  0.00     0.089 A 
ATOM     90  C   UNL A   1      33.832  28.175  26.375  1.00  0.00     0.031 A 
ATOM     91  N   UNL A   1      31.905  29.562  26.730  1.00  0.00    -0.255 NA
ATOM     92  C   UNL A   1      34.675  29.156  26.891  1.00  0.00     0.004 A 
ATOM     93  C   UNL A   1      32.749  30.512  27.209  1.00  0.00     0.112 A 
ATOM     94  C   UNL A   1      34.122  30.354  27.313  1.00  0.00     0.020 A 
ENDBRANCH  85  89
ENDBRANCH  81  83
ENDBRANCH  80  81
ENDBRANCH  79  80
ENDBRANCH  78  79
ENDBRANCH  77  78
ENDBRANCH  76  77
ENDBRANCH  75  76
ENDBRANCH  74  75
ENDBRANCH   1  74
TORSDOF 24
ENDMDL
MODEL 3
REMARK VINA RESULT:      -9.7      1.692      2.107
REMARK SMILES O=C(OCCOCCOCCOCCOC(=O)c1cccnc1-c1ccccn1)c1ccc(-c2c3nc(c(-c4cc(S(=O)(=O)[O-])ccc4F)c4ccc([nH]4)c(-c4cc(S(=O)(=O)[O-])ccc4F)c4nc(c(-c5cc(S(=O)(=O)[O-])ccc5F)c5ccc2[nH]5)C=C4)C=C3)cc1
REMARK SMILES IDX 8 1 7 2 6 3 5 4 4 5 3 6 2 7 1 8 30 9 31 10 92 11 32 12 91 13
REMARK SMILES IDX 33 14 34 15 35 16 85 17 36 18 90 19 84 20 86 21 37 22 89 23
REMARK SMILES IDX 83 24 82 25 38 27 70 28 50 29 69 30 51 31 54 32 68 33 87 34
REMARK SMILES IDX 52 35 53 36 67 38 88 39 55 40 39 41 40 42 48 43 41 44 47 45
REMARK SMILES IDX 49 46 46 47 42 48 43 49 44 50 45 51 71 52 72 53 80 54 73 55
REMARK SMILES IDX 79 56 81 57 78 58 74 59 75 60 76 61 77 62 56 63 57 64 65 65
REMARK SMILES IDX 58 66 64 67 66 68 63 69 59 70 60 71 61 72 62 73 9 74 10 75
REMARK SMILES IDX 11 76 12 77 13 78 14 79 15 80 16 81 17 82 18 83 19 84 23 85
REMARK SMILES IDX 20 86 22 87 21 88 24 89 25 90 29 91 26 92 28 93 27 94
REMARK H PARENT 86 26 54 37
REMARK Flexibility Score: inf
ROOT
ATOM      1  C   UNL A   1      32.427  25.502  26.140  1.00  0.00     0.188 C 
ENDROOT
BRANCH   1   2
ATOM      2  C   UNL A   1      32.146  26.930  26.605  1.00  0.00     0.188 C 
BRANCH   2   3
ATOM      3  O   UNL A   1      32.713  27.875  25.702  1.00  0.00    -0.376 OA
BRANCH   3   4
ATOM      4  C   UNL A   1      31.799  28.610  24.894  1.00  0.00     0.202 C 
BRANCH   4   5
ATOM      5  C   UNL A   1      31.509  30.006  25.439  1.00  0.00     0.261 C 
BRANCH   5   6
ATOM      6  O   UNL A   1      32.731  30.710  25.703  1.00  0.00    -0.460 OA
BRANCH   6   7
ATOM      7  C   UNL A   1      33.063  31.330  26.864  1.00  0.00     0.338 C 
ATOM      8  O   UNL A   1      32.261  32.116  27.365  1.00  0.00    -0.246 OA
BRANCH   7   9
ATOM      9  C   UNL A   1      34.333  31.057  27.599  1.00  0.00     0.060 A 
ATOM     10  C   UNL A   1      34.751  29.799  28.045  1.00  0.00     0.016 A 
ATOM     11  C   UNL A   1      35.203  32.143  27.772  1.00  0.00     0.016 A 
ATOM     12  C   UNL A   1      35.958  29.623  28.703  1.00  0.00     0.010 A 
ATOM     13  C   UNL A   1      36.441  31.968  28.393  1.00  0.00     0.010 A 
ATOM     14  C   UNL A   1      36.813  30.703  28.869  1.00  0.00    -0.014 A 
BRANCH  14  15
ATOM     15  C   UNL A   1      38.063  30.507  29.620  1.00  0.00     0.031 A 
ATOM     16  C   UNL A   1      39.109  29.630  29.014  1.00  0.00     0.074 A 
ATOM     17  C   UNL A   1      38.251  31.155  30.784  1.00  0.00     0.049 A 
ATOM     18  N   UNL A   1      40.181  29.126  29.554  1.00  0.00    -0.248 NA
ATOM     19  C   UNL A   1      38.916  29.269  27.598  1.00  0.00     0.031 C 
ATOM     20  C   UNL A   1      37.332  32.142  31.361  1.00  0.00     0.029 A 
ATOM     21  N   UNL A   1      39.272  31.082  31.695  1.00  0.00    -0.354 N 
ATOM     22  C   UNL A   1      40.757  28.335  28.569  1.00  0.00     0.074 A 
ATOM     23  C   UNL A   1      39.931  28.446  27.388  1.00  0.00     0.031 C 
ATOM     24  C   UNL A   1      37.828  32.573  32.532  1.00  0.00     0.029 A 
ATOM     25  C   UNL A   1      39.036  31.817  32.835  1.00  0.00     0.049 A 
ATOM     26  H   UNL A   1      40.091  30.557  31.547  1.00  0.00     0.167 HD
ATOM     27  C   UNL A   1      41.865  27.566  28.675  1.00  0.00     0.034 A 
ATOM     28  C   UNL A   1      39.686  31.804  34.016  1.00  0.00     0.034 A 
ATOM     29  C   UNL A   1      42.647  27.506  29.882  1.00  0.00     0.049 A 
ATOM     30  C   UNL A   1      40.859  30.861  34.142  1.00  0.00     0.074 A 
ATOM     31  C   UNL A   1      43.779  26.759  30.146  1.00  0.00     0.029 A 
ATOM     32  N   UNL A   1      42.359  28.226  31.039  1.00  0.00    -0.354 N 
ATOM     33  N   UNL A   1      41.379  30.067  33.230  1.00  0.00    -0.248 NA
ATOM     34  C   UNL A   1      41.518  30.790  35.449  1.00  0.00     0.031 C 
ATOM     35  C   UNL A   1      44.130  26.972  31.484  1.00  0.00     0.029 A 
ATOM     36  C   UNL A   1      43.266  27.910  32.033  1.00  0.00     0.049 A 
ATOM     37  H   UNL A   1      41.618  28.867  31.135  1.00  0.00     0.167 HD
ATOM     38  C   UNL A   1      42.432  29.408  33.854  1.00  0.00     0.074 A 
ATOM     39  C   UNL A   1      42.491  29.923  35.209  1.00  0.00     0.031 C 
ATOM     40  C   UNL A   1      43.273  28.459  33.369  1.00  0.00     0.034 A 
BRANCH  27  41
ATOM     41  C   UNL A   1      42.197  26.664  27.515  1.00  0.00     0.023 A 
ATOM     42  C   UNL A   1      41.774  25.326  27.452  1.00  0.00     0.031 A 
ATOM     43  C   UNL A   1      43.017  27.146  26.477  1.00  0.00     0.131 A 
ATOM     44  C   UNL A   1      42.224  24.499  26.411  1.00  0.00     0.055 A 
ATOM     45  C   UNL A   1      43.401  26.339  25.405  1.00  0.00     0.041 A 
ATOM     46  F   UNL A   1      43.480  28.405  26.503  1.00  0.00    -0.206 F 
ATOM     47  C   UNL A   1      43.014  25.003  25.374  1.00  0.00     0.022 A 
BRANCH  44  48
ATOM     48  S   UNL A   1      41.873  22.721  26.495  1.00  0.00     0.124 S 
ATOM     49  O   UNL A   1      40.424  22.715  26.687  1.00  0.00    -0.237 OA
ATOM     50  O   UNL A   1      42.346  22.241  25.202  1.00  0.00    -0.237 OA
ATOM     51  O   UNL A   1      42.649  22.272  27.649  1.00  0.00    -0.744 OA
ENDBRANCH  44  48
ENDBRANCH  27  41
BRANCH  28  52
ATOM     52  C   UNL A   1      39.187  32.590  35.186  1.00  0.00     0.023 A 
ATOM     53  C   UNL A   1      39.655  33.887  35.447  1.00  0.00     0.031 A 
ATOM     54  C   UNL A   1      38.287  32.025  36.111  1.00  0.00     0.131 A 
ATOM     55  C   UNL A   1      39.270  34.550  36.626  1.00  0.00     0.055 A 
ATOM     56  C   UNL A   1      37.852  32.716  37.244  1.00  0.00     0.041 A 
ATOM     57  F   UNL A   1      37.811  30.782  35.929  1.00  0.00    -0.206 F 
ATOM     58  C   UNL A   1      38.359  33.980  37.517  1.00  0.00     0.022 A 
BRANCH  55  59
ATOM     59  S   UNL A   1      40.085  36.116  37.047  1.00  0.00     0.124 S 
ATOM     60  O   UNL A   1      39.253  36.600  38.142  1.00  0.00    -0.237 OA
ATOM     61  O   UNL A   1      41.426  35.670  37.408  1.00  0.00    -0.237 OA
ATOM     62  O   UNL A   1      39.998  36.887  35.808  1.00  0.00    -0.744 OA
ENDBRANCH  55  59
ENDBRANCH  28  52
BRANCH  40  63
ATOM     63  C   UNL A   1      44.333  27.956  34.310  1.00  0.00     0.023 A 
ATOM     64  C   UNL A   1      44.035  27.013  35.307  1.00  0.00     0.031 A 
ATOM     65  C   UNL A   1      45.657  28.407  34.186  1.00  0.00     0.131 A 
ATOM     66  C   UNL A   1      45.046  26.579  36.173  1.00  0.00     0.055 A 
ATOM     67  C   UNL A   1      46.672  27.925  35.011  1.00  0.00     0.041 A 
ATOM     68  F   UNL A   1      45.987  29.308  33.247  1.00  0.00    -0.206 F 
ATOM     69  C   UNL A   1      46.367  27.011  36.017  1.00  0.00     0.022 A 
BRANCH  66  70
ATOM     70  S   UNL A   1      44.601  25.484  37.546  1.00  0.00     0.124 S 
ATOM     71  O   UNL A   1      43.555  26.250  38.215  1.00  0.00    -0.237 OA
ATOM     72  O   UNL A   1      44.163  24.275  36.856  1.00  0.00    -0.237 OA
ATOM     73  O   UNL A   1      45.849  25.351  38.296  1.00  0.00    -0.744 OA
ENDBRANCH  66  70
ENDBRANCH  40  63
ENDBRANCH  14  15
ENDBRANCH   7   9
ENDBRANCH   6   7
ENDBRANCH   5   6
ENDBRANCH   4   5
ENDBRANCH   3   4
ENDBRANCH   2   3
ENDBRANCH   1   2
BRANCH   1  74
ATOM     74  O   UNL A   1      31.889  24.479  26.974  1.00  0.00    -0.377 OA
BRANCH  74  75
ATOM     75  C   UNL A   1      30.640  23.911  26.576  1.00  0.00     0.188 C 
BRANCH  75  76
ATOM     76  C   UNL A   1      30.560  23.092  25.264  1.00  0.00     0.188 C 
BRANCH  76  77
ATOM     77  O   UNL A   1      31.212  23.720  24.172  1.00  0.00    -0.376 OA
BRANCH  77  78
ATOM     78  C   UNL A   1      31.401  22.911  23.021  1.00  0.00     0.202 C 
BRANCH  78  79
ATOM     79  C   UNL A   1      32.650  22.020  23.023  1.00  0.00     0.261 C 
BRANCH  79  80
ATOM     80  O   UNL A   1      32.413  20.607  23.164  1.00  0.00    -0.460 OA
BRANCH  80  81
ATOM     81  C   UNL A   1      32.351  20.046  24.397  1.00  0.00     0.340 C 
ATOM     82  O   UNL A   1      31.741  20.471  25.358  1.00  0.00    -0.246 OA
BRANCH  81  83
ATOM     83  C   UNL A   1      33.257  18.870  24.364  1.00  0.00     0.088 A 
ATOM     84  C   UNL A   1      32.641  17.610  24.252  1.00  0.00     0.019 A 
ATOM     85  C   UNL A   1      34.637  18.911  24.603  1.00  0.00     0.103 A 
ATOM     86  C   UNL A   1      33.395  16.446  24.341  1.00  0.00     0.021 A 
ATOM     87  N   UNL A   1      35.380  17.755  24.666  1.00  0.00    -0.254 NA
ATOM     88  C   UNL A   1      34.755  16.568  24.526  1.00  0.00     0.112 A 
BRANCH  85  89
ATOM     89  C   UNL A   1      35.417  20.101  25.009  1.00  0.00     0.089 A 
ATOM     90  C   UNL A   1      36.765  20.219  24.637  1.00  0.00     0.031 A 
ATOM     91  N   UNL A   1      34.803  21.059  25.734  1.00  0.00    -0.255 NA
ATOM     92  C   UNL A   1      37.502  21.335  25.028  1.00  0.00     0.004 A 
ATOM     93  C   UNL A   1      35.535  22.147  26.085  1.00  0.00     0.112 A 
ATOM     94  C   UNL A   1      36.872  22.324  25.764  1.00  0.00     0.020 A 
ENDBRANCH  85  89
ENDBRANCH  81  83
ENDBRANCH  80  81
ENDBRANCH  79  80
ENDBRANCH  78  79
ENDBRANCH  77  78
ENDBRANCH  76  77
ENDBRANCH  75  76
ENDBRANCH  74  75
ENDBRANCH   1  74
TORSDOF 24
ENDMDL
