MODEL 1
REMARK VINA RESULT:      -8.5      0.000      0.000
REMARK SMILES C[C@H]([NH2+]Cc1ccccc1F)C(=O)OCCOCCOCCOCCOC(=O)c1ccc(-c2c3nc(c(-c4cc(S(=O)(=O)[O-])ccc4F)c4ccc([nH]4)c(-c4cc(S(=O)(=O)[O-])ccc4F)c4nc(c(-c5cc(S(=O)(=O)[O-])ccc5F)c5ccc2[nH]5)C=C4)C=C3)cc1
REMARK SMILES IDX 20 1 19 2 18 3 17 4 16 5 15 6 14 7 12 8 13 9 2 10 1 11 3 12
REMARK SMILES IDX 4 15 5 16 6 17 10 18 7 19 9 20 11 21 8 22 21 23 22 24 23 25
REMARK SMILES IDX 24 26 25 27 26 28 27 29 28 30 29 31 30 32 91 33 31 34 90 35
REMARK SMILES IDX 32 36 33 37 34 38 84 39 35 40 89 41 83 42 85 43 36 44 88 45
REMARK SMILES IDX 82 46 81 47 37 49 69 50 49 51 68 52 50 53 53 54 67 55 86 56
REMARK SMILES IDX 51 57 52 58 66 60 87 61 54 62 38 63 39 64 47 65 40 66 46 67
REMARK SMILES IDX 48 68 45 69 41 70 42 71 43 72 44 73 70 74 71 75 79 76 72 77
REMARK SMILES IDX 78 78 80 79 77 80 73 81 74 82 75 83 76 84 55 85 56 86 64 87
REMARK SMILES IDX 57 88 63 89 65 90 62 91 58 92 59 93 60 94 61 95
REMARK H PARENT 3 13 3 14 85 48 53 59
REMARK Flexibility Score: inf
ROOT
ATOM      1  O   UNL A   1      32.881  30.520  27.289  1.00  0.00    -0.377 OA
ENDROOT
BRANCH   1   2
ATOM      2  C   UNL A   1      32.284  29.401  26.669  1.00  0.00     0.188 C 
BRANCH   2   3
ATOM      3  C   UNL A   1      31.982  28.230  27.619  1.00  0.00     0.188 C 
BRANCH   3   4
ATOM      4  O   UNL A   1      31.052  27.209  27.278  1.00  0.00    -0.376 OA
BRANCH   4   5
ATOM      5  C   UNL A   1      31.450  26.065  26.535  1.00  0.00     0.202 C 
BRANCH   5   6
ATOM      6  C   UNL A   1      30.527  25.396  25.501  1.00  0.00     0.261 C 
BRANCH   6   7
ATOM      7  O   UNL A   1      30.275  26.129  24.292  1.00  0.00    -0.459 OA
BRANCH   7   8
ATOM      8  C   UNL A   1      31.128  25.881  23.271  1.00  0.00     0.364 C 
ATOM      9  O   UNL A   1      31.217  24.797  22.696  1.00  0.00    -0.245 OA
BRANCH   8  10
ATOM     10  C   UNL A   1      32.006  27.077  22.855  1.00  0.00     0.290 C 
ATOM     11  C   UNL A   1      33.427  26.791  23.325  1.00  0.00     0.088 C 
BRANCH  10  12
ATOM     12  N   UNL A   1      31.525  28.418  23.282  1.00  0.00    -0.331 N 
ATOM     13  H   UNL A   1      32.327  28.974  23.580  1.00  0.00     0.347 HD
ATOM     14  H   UNL A   1      30.863  28.287  24.047  1.00  0.00     0.347 HD
BRANCH  12  15
ATOM     15  C   UNL A   1      30.835  29.123  22.202  1.00  0.00     0.301 C 
BRANCH  15  16
ATOM     16  C   UNL A   1      29.575  29.850  22.608  1.00  0.00     0.042 A 
ATOM     17  C   UNL A   1      29.554  31.239  22.817  1.00  0.00     0.012 A 
ATOM     18  C   UNL A   1      28.416  29.124  22.909  1.00  0.00     0.132 A 
ATOM     19  C   UNL A   1      28.415  31.863  23.345  1.00  0.00     0.001 A 
ATOM     20  C   UNL A   1      27.279  29.739  23.431  1.00  0.00     0.040 A 
ATOM     21  F   UNL A   1      28.397  27.794  22.738  1.00  0.00    -0.206 F 
ATOM     22  C   UNL A   1      27.281  31.113  23.660  1.00  0.00     0.003 A 
ENDBRANCH  15  16
ENDBRANCH  12  15
ENDBRANCH  10  12
ENDBRANCH   8  10
ENDBRANCH   7   8
ENDBRANCH   6   7
ENDBRANCH   5   6
ENDBRANCH   4   5
ENDBRANCH   3   4
ENDBRANCH   2   3
ENDBRANCH   1   2
BRANCH   1  23
ATOM     23  C   UNL A   1      34.283  30.444  27.516  1.00  0.00     0.188 C 
BRANCH  23  24
ATOM     24  C   UNL A   1      34.965  31.650  28.199  1.00  0.00     0.188 C 
BRANCH  24  25
ATOM     25  O   UNL A   1      34.858  32.873  27.478  1.00  0.00    -0.376 OA
BRANCH  25  26
ATOM     26  C   UNL A   1      35.271  34.073  28.118  1.00  0.00     0.202 C 
BRANCH  26  27
ATOM     27  C   UNL A   1      34.195  35.139  28.403  1.00  0.00     0.261 C 
BRANCH  27  28
ATOM     28  O   UNL A   1      33.193  34.794  29.370  1.00  0.00    -0.460 OA
BRANCH  28  29
ATOM     29  C   UNL A   1      33.091  35.586  30.456  1.00  0.00     0.338 C 
ATOM     30  O   UNL A   1      32.280  36.486  30.624  1.00  0.00    -0.246 OA
BRANCH  29  31
ATOM     31  C   UNL A   1      33.981  35.064  31.513  1.00  0.00     0.060 A 
ATOM     32  C   UNL A   1      34.439  35.954  32.494  1.00  0.00     0.016 A 
ATOM     33  C   UNL A   1      34.395  33.729  31.522  1.00  0.00     0.016 A 
ATOM     34  C   UNL A   1      35.379  35.535  33.431  1.00  0.00     0.010 A 
ATOM     35  C   UNL A   1      35.356  33.315  32.450  1.00  0.00     0.010 A 
ATOM     36  C   UNL A   1      35.898  34.235  33.366  1.00  0.00    -0.014 A 
BRANCH  36  37
ATOM     37  C   UNL A   1      37.184  33.956  34.053  1.00  0.00     0.031 A 
ATOM     38  C   UNL A   1      38.445  34.006  33.226  1.00  0.00     0.074 A 
ATOM     39  C   UNL A   1      37.252  33.773  35.384  1.00  0.00     0.049 A 
ATOM     40  N   UNL A   1      39.686  33.829  33.594  1.00  0.00    -0.248 NA
ATOM     41  C   UNL A   1      38.283  34.303  31.791  1.00  0.00     0.031 C 
ATOM     42  C   UNL A   1      36.110  33.776  36.297  1.00  0.00     0.029 A 
ATOM     43  N   UNL A   1      38.335  33.569  36.203  1.00  0.00    -0.354 N 
ATOM     44  C   UNL A   1      40.447  33.995  32.441  1.00  0.00     0.074 A 
ATOM     45  C   UNL A   1      39.530  34.243  31.354  1.00  0.00     0.031 C 
ATOM     46  C   UNL A   1      36.555  33.592  37.552  1.00  0.00     0.029 A 
ATOM     47  C   UNL A   1      38.008  33.424  37.531  1.00  0.00     0.049 A 
ATOM     48  H   UNL A   1      39.261  33.528  35.870  1.00  0.00     0.167 HD
ATOM     49  C   UNL A   1      41.793  33.965  32.305  1.00  0.00     0.034 A 
ATOM     50  C   UNL A   1      38.790  33.171  38.602  1.00  0.00     0.034 A 
ATOM     51  C   UNL A   1      42.701  33.736  33.396  1.00  0.00     0.049 A 
ATOM     52  C   UNL A   1      40.282  33.034  38.408  1.00  0.00     0.074 A 
ATOM     53  C   UNL A   1      44.083  33.700  33.364  1.00  0.00     0.029 A 
ATOM     54  N   UNL A   1      42.322  33.500  34.708  1.00  0.00    -0.354 N 
ATOM     55  N   UNL A   1      40.984  33.177  37.309  1.00  0.00    -0.248 NA
ATOM     56  C   UNL A   1      41.085  32.697  39.593  1.00  0.00     0.031 C 
ATOM     57  C   UNL A   1      44.538  33.371  34.643  1.00  0.00     0.029 A 
ATOM     58  C   UNL A   1      43.442  33.276  35.487  1.00  0.00     0.049 A 
ATOM     59  H   UNL A   1      41.393  33.494  35.037  1.00  0.00     0.167 HD
ATOM     60  C   UNL A   1      42.311  32.962  37.673  1.00  0.00     0.074 A 
ATOM     61  C   UNL A   1      42.315  32.689  39.095  1.00  0.00     0.031 C 
ATOM     62  C   UNL A   1      43.426  32.994  36.901  1.00  0.00     0.034 A 
BRANCH  49  63
ATOM     63  C   UNL A   1      42.368  34.155  30.928  1.00  0.00     0.023 A 
ATOM     64  C   UNL A   1      42.634  35.433  30.411  1.00  0.00     0.031 A 
ATOM     65  C   UNL A   1      42.697  33.037  30.142  1.00  0.00     0.131 A 
ATOM     66  C   UNL A   1      43.191  35.563  29.130  1.00  0.00     0.055 A 
ATOM     67  C   UNL A   1      43.304  33.171  28.893  1.00  0.00     0.041 A 
ATOM     68  F   UNL A   1      42.442  31.794  30.583  1.00  0.00    -0.206 F 
ATOM     69  C   UNL A   1      43.550  34.441  28.379  1.00  0.00     0.022 A 
BRANCH  66  70
ATOM     70  S   UNL A   1      43.385  37.224  28.430  1.00  0.00     0.124 S 
ATOM     71  O   UNL A   1      44.252  36.959  27.284  1.00  0.00    -0.237 OA
ATOM     72  O   UNL A   1      42.012  37.600  28.118  1.00  0.00    -0.237 OA
ATOM     73  O   UNL A   1      44.008  37.981  29.513  1.00  0.00    -0.744 OA
ENDBRANCH  66  70
ENDBRANCH  49  63
BRANCH  50  74
ATOM     74  C   UNL A   1      38.177  32.988  39.948  1.00  0.00     0.023 A 
ATOM     75  C   UNL A   1      38.309  33.960  40.951  1.00  0.00     0.031 A 
ATOM     76  C   UNL A   1      37.457  31.817  40.254  1.00  0.00     0.131 A 
ATOM     77  C   UNL A   1      37.747  33.738  42.219  1.00  0.00     0.055 A 
ATOM     78  C   UNL A   1      36.865  31.619  41.502  1.00  0.00     0.041 A 
ATOM     79  F   UNL A   1      37.305  30.854  39.331  1.00  0.00    -0.206 F 
ATOM     80  C   UNL A   1      37.013  32.581  42.495  1.00  0.00     0.022 A 
BRANCH  77  81
ATOM     81  S   UNL A   1      38.015  34.971  43.523  1.00  0.00     0.124 S 
ATOM     82  O   UNL A   1      36.657  35.186  44.010  1.00  0.00    -0.237 OA
ATOM     83  O   UNL A   1      38.918  34.268  44.426  1.00  0.00    -0.237 OA
ATOM     84  O   UNL A   1      38.608  36.098  42.807  1.00  0.00    -0.744 OA
ENDBRANCH  77  81
ENDBRANCH  50  74
BRANCH  62  85
ATOM     85  C   UNL A   1      44.755  32.738  37.560  1.00  0.00     0.023 A 
ATOM     86  C   UNL A   1      45.305  31.448  37.609  1.00  0.00     0.031 A 
ATOM     87  C   UNL A   1      45.525  33.813  38.040  1.00  0.00     0.131 A 
ATOM     88  C   UNL A   1      46.592  31.261  38.134  1.00  0.00     0.055 A 
ATOM     89  C   UNL A   1      46.821  33.627  38.522  1.00  0.00     0.041 A 
ATOM     90  F   UNL A   1      45.045  35.066  38.003  1.00  0.00    -0.206 F 
ATOM     91  C   UNL A   1      47.361  32.345  38.571  1.00  0.00     0.022 A 
BRANCH  88  92
ATOM     92  S   UNL A   1      47.255  29.577  38.240  1.00  0.00     0.124 S 
ATOM     93  O   UNL A   1      48.689  29.809  38.108  1.00  0.00    -0.237 OA
ATOM     94  O   UNL A   1      46.799  29.139  39.555  1.00  0.00    -0.237 OA
ATOM     95  O   UNL A   1      46.630  28.891  37.110  1.00  0.00    -0.744 OA
ENDBRANCH  88  92
ENDBRANCH  62  85
ENDBRANCH  36  37
ENDBRANCH  29  31
ENDBRANCH  28  29
ENDBRANCH  27  28
ENDBRANCH  26  27
ENDBRANCH  25  26
ENDBRANCH  24  25
ENDBRANCH  23  24
ENDBRANCH   1  23
TORSDOF 26
ENDMDL
MODEL 2
REMARK VINA RESULT:      -8.4      1.864      3.251
REMARK SMILES C[C@H]([NH2+]Cc1ccccc1F)C(=O)OCCOCCOCCOCCOC(=O)c1ccc(-c2c3nc(c(-c4cc(S(=O)(=O)[O-])ccc4F)c4ccc([nH]4)c(-c4cc(S(=O)(=O)[O-])ccc4F)c4nc(c(-c5cc(S(=O)(=O)[O-])ccc5F)c5ccc2[nH]5)C=C4)C=C3)cc1
REMARK SMILES IDX 20 1 19 2 18 3 17 4 16 5 15 6 14 7 12 8 13 9 2 10 1 11 3 12
REMARK SMILES IDX 4 15 5 16 6 17 10 18 7 19 9 20 11 21 8 22 21 23 22 24 23 25
REMARK SMILES IDX 24 26 25 27 26 28 27 29 28 30 29 31 30 32 91 33 31 34 90 35
REMARK SMILES IDX 32 36 33 37 34 38 84 39 35 40 89 41 83 42 85 43 36 44 88 45
REMARK SMILES IDX 82 46 81 47 37 49 69 50 49 51 68 52 50 53 53 54 67 55 86 56
REMARK SMILES IDX 51 57 52 58 66 60 87 61 54 62 38 63 39 64 47 65 40 66 46 67
REMARK SMILES IDX 48 68 45 69 41 70 42 71 43 72 44 73 70 74 71 75 79 76 72 77
REMARK SMILES IDX 78 78 80 79 77 80 73 81 74 82 75 83 76 84 55 85 56 86 64 87
REMARK SMILES IDX 57 88 63 89 65 90 62 91 58 92 59 93 60 94 61 95
REMARK H PARENT 3 13 3 14 85 48 53 59
REMARK Flexibility Score: inf
ROOT
ATOM      1  O   UNL A   1      32.902  30.404  27.257  1.00  0.00    -0.377 OA
ENDROOT
BRANCH   1   2
ATOM      2  C   UNL A   1      32.399  29.285  26.559  1.00  0.00     0.188 C 
BRANCH   2   3
ATOM      3  C   UNL A   1      31.815  28.181  27.456  1.00  0.00     0.188 C 
BRANCH   3   4
ATOM      4  O   UNL A   1      30.989  27.148  26.933  1.00  0.00    -0.376 OA
BRANCH   4   5
ATOM      5  C   UNL A   1      31.534  25.904  26.519  1.00  0.00     0.202 C 
BRANCH   5   6
ATOM      6  C   UNL A   1      30.687  24.833  25.807  1.00  0.00     0.261 C 
BRANCH   6   7
ATOM      7  O   UNL A   1      30.272  25.127  24.464  1.00  0.00    -0.459 OA
BRANCH   7   8
ATOM      8  C   UNL A   1      30.961  24.491  23.489  1.00  0.00     0.364 C 
ATOM      9  O   UNL A   1      30.686  23.366  23.073  1.00  0.00    -0.245 OA
BRANCH   8  10
ATOM     10  C   UNL A   1      32.146  25.286  22.908  1.00  0.00     0.290 C 
ATOM     11  C   UNL A   1      31.607  26.158  21.781  1.00  0.00     0.088 C 
BRANCH  10  12
ATOM     12  N   UNL A   1      33.327  24.485  22.490  1.00  0.00    -0.331 N 
ATOM     13  H   UNL A   1      33.744  24.919  21.666  1.00  0.00     0.347 HD
ATOM     14  H   UNL A   1      33.009  23.537  22.286  1.00  0.00     0.347 HD
BRANCH  12  15
ATOM     15  C   UNL A   1      34.337  24.405  23.545  1.00  0.00     0.301 C 
BRANCH  15  16
ATOM     16  C   UNL A   1      34.745  23.007  23.944  1.00  0.00     0.042 A 
ATOM     17  C   UNL A   1      33.803  21.980  24.120  1.00  0.00     0.012 A 
ATOM     18  C   UNL A   1      36.079  22.736  24.270  1.00  0.00     0.132 A 
ATOM     19  C   UNL A   1      34.192  20.738  24.642  1.00  0.00     0.001 A 
ATOM     20  C   UNL A   1      36.473  21.502  24.787  1.00  0.00     0.040 A 
ATOM     21  F   UNL A   1      37.010  23.692  24.131  1.00  0.00    -0.206 F 
ATOM     22  C   UNL A   1      35.524  20.502  24.983  1.00  0.00     0.003 A 
ENDBRANCH  15  16
ENDBRANCH  12  15
ENDBRANCH  10  12
ENDBRANCH   8  10
ENDBRANCH   7   8
ENDBRANCH   6   7
ENDBRANCH   5   6
ENDBRANCH   4   5
ENDBRANCH   3   4
ENDBRANCH   2   3
ENDBRANCH   1   2
BRANCH   1  23
ATOM     23  C   UNL A   1      34.283  30.369  27.597  1.00  0.00     0.188 C 
BRANCH  23  24
ATOM     24  C   UNL A   1      34.884  31.617  28.281  1.00  0.00     0.188 C 
BRANCH  24  25
ATOM     25  O   UNL A   1      34.829  32.803  27.495  1.00  0.00    -0.376 OA
BRANCH  25  26
ATOM     26  C   UNL A   1      35.250  34.025  28.087  1.00  0.00     0.202 C 
BRANCH  26  27
ATOM     27  C   UNL A   1      34.183  35.111  28.324  1.00  0.00     0.261 C 
BRANCH  27  28
ATOM     28  O   UNL A   1      33.164  34.807  29.287  1.00  0.00    -0.460 OA
BRANCH  28  29
ATOM     29  C   UNL A   1      33.077  35.615  30.363  1.00  0.00     0.338 C 
ATOM     30  O   UNL A   1      32.278  36.527  30.522  1.00  0.00    -0.246 OA
BRANCH  29  31
ATOM     31  C   UNL A   1      33.965  35.096  31.423  1.00  0.00     0.060 A 
ATOM     32  C   UNL A   1      34.428  35.990  32.397  1.00  0.00     0.016 A 
ATOM     33  C   UNL A   1      34.371  33.758  31.442  1.00  0.00     0.016 A 
ATOM     34  C   UNL A   1      35.367  35.573  33.336  1.00  0.00     0.010 A 
ATOM     35  C   UNL A   1      35.330  33.345  32.372  1.00  0.00     0.010 A 
ATOM     36  C   UNL A   1      35.878  34.269  33.281  1.00  0.00    -0.014 A 
BRANCH  36  37
ATOM     37  C   UNL A   1      37.163  33.988  33.969  1.00  0.00     0.031 A 
ATOM     38  C   UNL A   1      38.426  34.046  33.145  1.00  0.00     0.074 A 
ATOM     39  C   UNL A   1      37.228  33.797  35.299  1.00  0.00     0.049 A 
ATOM     40  N   UNL A   1      39.666  33.869  33.514  1.00  0.00    -0.248 NA
ATOM     41  C   UNL A   1      38.266  34.352  31.712  1.00  0.00     0.031 C 
ATOM     42  C   UNL A   1      36.084  33.790  36.209  1.00  0.00     0.029 A 
ATOM     43  N   UNL A   1      38.310  33.588  36.119  1.00  0.00    -0.354 N 
ATOM     44  C   UNL A   1      40.430  34.044  32.364  1.00  0.00     0.074 A 
ATOM     45  C   UNL A   1      39.515  34.298  31.277  1.00  0.00     0.031 C 
ATOM     46  C   UNL A   1      36.527  33.599  37.463  1.00  0.00     0.029 A 
ATOM     47  C   UNL A   1      37.980  33.434  37.445  1.00  0.00     0.049 A 
ATOM     48  H   UNL A   1      39.237  33.552  35.787  1.00  0.00     0.167 HD
ATOM     49  C   UNL A   1      41.776  34.018  32.232  1.00  0.00     0.034 A 
ATOM     50  C   UNL A   1      38.760  33.175  38.516  1.00  0.00     0.034 A 
ATOM     51  C   UNL A   1      42.682  33.783  33.323  1.00  0.00     0.049 A 
ATOM     52  C   UNL A   1      40.252  33.042  38.325  1.00  0.00     0.074 A 
ATOM     53  C   UNL A   1      44.065  33.750  33.294  1.00  0.00     0.029 A 
ATOM     54  N   UNL A   1      42.300  33.538  34.632  1.00  0.00    -0.354 N 
ATOM     55  N   UNL A   1      40.957  33.194  37.228  1.00  0.00    -0.248 NA
ATOM     56  C   UNL A   1      41.054  32.698  39.509  1.00  0.00     0.031 C 
ATOM     57  C   UNL A   1      44.516  33.414  34.572  1.00  0.00     0.029 A 
ATOM     58  C   UNL A   1      43.419  33.310  35.413  1.00  0.00     0.049 A 
ATOM     59  H   UNL A   1      41.371  33.528  34.959  1.00  0.00     0.167 HD
ATOM     60  C   UNL A   1      42.284  32.980  37.594  1.00  0.00     0.074 A 
ATOM     61  C   UNL A   1      42.285  32.696  39.014  1.00  0.00     0.031 C 
ATOM     62  C   UNL A   1      43.401  33.019  36.825  1.00  0.00     0.034 A 
BRANCH  49  63
ATOM     63  C   UNL A   1      42.354  34.219  30.858  1.00  0.00     0.023 A 
ATOM     64  C   UNL A   1      42.701  35.494  30.384  1.00  0.00     0.031 A 
ATOM     65  C   UNL A   1      42.603  33.110  30.030  1.00  0.00     0.131 A 
ATOM     66  C   UNL A   1      43.257  35.633  29.104  1.00  0.00     0.055 A 
ATOM     67  C   UNL A   1      43.210  33.248  28.781  1.00  0.00     0.041 A 
ATOM     68  F   UNL A   1      42.268  31.872  30.429  1.00  0.00    -0.206 F 
ATOM     69  C   UNL A   1      43.537  34.517  28.310  1.00  0.00     0.022 A 
BRANCH  66  70
ATOM     70  S   UNL A   1      43.558  37.301  28.460  1.00  0.00     0.124 S 
ATOM     71  O   UNL A   1      44.366  37.017  27.277  1.00  0.00    -0.237 OA
ATOM     72  O   UNL A   1      42.208  37.792  28.209  1.00  0.00    -0.237 OA
ATOM     73  O   UNL A   1      44.270  37.964  29.550  1.00  0.00    -0.744 OA
ENDBRANCH  66  70
ENDBRANCH  49  63
BRANCH  50  74
ATOM     74  C   UNL A   1      38.144  32.981  39.860  1.00  0.00     0.023 A 
ATOM     75  C   UNL A   1      38.281  33.942  40.873  1.00  0.00     0.031 A 
ATOM     76  C   UNL A   1      37.417  31.812  40.152  1.00  0.00     0.131 A 
ATOM     77  C   UNL A   1      37.715  33.710  42.137  1.00  0.00     0.055 A 
ATOM     78  C   UNL A   1      36.822  31.604  41.397  1.00  0.00     0.041 A 
ATOM     79  F   UNL A   1      37.261  30.859  39.219  1.00  0.00    -0.206 F 
ATOM     80  C   UNL A   1      36.974  32.555  42.401  1.00  0.00     0.022 A 
BRANCH  77  81
ATOM     81  S   UNL A   1      37.989  34.927  43.455  1.00  0.00     0.124 S 
ATOM     82  O   UNL A   1      38.580  36.037  42.714  1.00  0.00    -0.237 OA
ATOM     83  O   UNL A   1      36.638  35.139  43.960  1.00  0.00    -0.237 OA
ATOM     84  O   UNL A   1      38.893  34.238  44.372  1.00  0.00    -0.744 OA
ENDBRANCH  77  81
ENDBRANCH  50  74
BRANCH  62  85
ATOM     85  C   UNL A   1      44.728  32.761  37.485  1.00  0.00     0.023 A 
ATOM     86  C   UNL A   1      45.288  31.474  37.514  1.00  0.00     0.031 A 
ATOM     87  C   UNL A   1      45.488  33.832  37.988  1.00  0.00     0.131 A 
ATOM     88  C   UNL A   1      46.574  31.287  38.041  1.00  0.00     0.055 A 
ATOM     89  C   UNL A   1      46.783  33.647  38.472  1.00  0.00     0.041 A 
ATOM     90  F   UNL A   1      44.999  35.082  37.971  1.00  0.00    -0.206 F 
ATOM     91  C   UNL A   1      47.332  32.368  38.501  1.00  0.00     0.022 A 
BRANCH  88  92
ATOM     92  S   UNL A   1      47.249  29.606  38.119  1.00  0.00     0.124 S 
ATOM     93  O   UNL A   1      48.641  29.857  38.477  1.00  0.00    -0.237 OA
ATOM     94  O   UNL A   1      46.428  28.983  39.152  1.00  0.00    -0.237 OA
ATOM     95  O   UNL A   1      47.039  29.089  36.768  1.00  0.00    -0.744 OA
ENDBRANCH  88  92
ENDBRANCH  62  85
ENDBRANCH  36  37
ENDBRANCH  29  31
ENDBRANCH  28  29
ENDBRANCH  27  28
ENDBRANCH  26  27
ENDBRANCH  25  26
ENDBRANCH  24  25
ENDBRANCH  23  24
ENDBRANCH   1  23
TORSDOF 26
ENDMDL
MODEL 3
REMARK VINA RESULT:      -7.9      6.644     14.774
REMARK SMILES C[C@H]([NH2+]Cc1ccccc1F)C(=O)OCCOCCOCCOCCOC(=O)c1ccc(-c2c3nc(c(-c4cc(S(=O)(=O)[O-])ccc4F)c4ccc([nH]4)c(-c4cc(S(=O)(=O)[O-])ccc4F)c4nc(c(-c5cc(S(=O)(=O)[O-])ccc5F)c5ccc2[nH]5)C=C4)C=C3)cc1
REMARK SMILES IDX 20 1 19 2 18 3 17 4 16 5 15 6 14 7 12 8 13 9 2 10 1 11 3 12
REMARK SMILES IDX 4 15 5 16 6 17 10 18 7 19 9 20 11 21 8 22 21 23 22 24 23 25
REMARK SMILES IDX 24 26 25 27 26 28 27 29 28 30 29 31 30 32 91 33 31 34 90 35
REMARK SMILES IDX 32 36 33 37 34 38 84 39 35 40 89 41 83 42 85 43 36 44 88 45
REMARK SMILES IDX 82 46 81 47 37 49 69 50 49 51 68 52 50 53 53 54 67 55 86 56
REMARK SMILES IDX 51 57 52 58 66 60 87 61 54 62 38 63 39 64 47 65 40 66 46 67
REMARK SMILES IDX 48 68 45 69 41 70 42 71 43 72 44 73 70 74 71 75 79 76 72 77
REMARK SMILES IDX 78 78 80 79 77 80 73 81 74 82 75 83 76 84 55 85 56 86 64 87
REMARK SMILES IDX 57 88 63 89 65 90 62 91 58 92 59 93 60 94 61 95
REMARK H PARENT 3 13 3 14 85 48 53 59
REMARK Flexibility Score: inf
ROOT
ATOM      1  O   UNL A   1      49.412  44.959  28.706  1.00  0.00    -0.377 OA
ENDROOT
BRANCH   1   2
ATOM      2  C   UNL A   1      48.289  45.396  27.971  1.00  0.00     0.188 C 
BRANCH   2   3
ATOM      3  C   UNL A   1      47.458  44.266  27.342  1.00  0.00     0.188 C 
BRANCH   3   4
ATOM      4  O   UNL A   1      47.303  44.143  25.933  1.00  0.00    -0.376 OA
BRANCH   4   5
ATOM      5  C   UNL A   1      46.092  44.510  25.287  1.00  0.00     0.202 C 
BRANCH   5   6
ATOM      6  C   UNL A   1      44.741  43.868  25.652  1.00  0.00     0.261 C 
BRANCH   6   7
ATOM      7  O   UNL A   1      43.760  43.794  24.605  1.00  0.00    -0.459 OA
BRANCH   7   8
ATOM      8  C   UNL A   1      43.627  42.584  24.015  1.00  0.00     0.364 C 
ATOM      9  O   UNL A   1      44.561  41.952  23.521  1.00  0.00    -0.245 OA
BRANCH   8  10
ATOM     10  C   UNL A   1      42.193  42.022  24.003  1.00  0.00     0.290 C 
ATOM     11  C   UNL A   1      41.363  42.898  23.072  1.00  0.00     0.088 C 
BRANCH  10  12
ATOM     12  N   UNL A   1      41.552  41.842  25.333  1.00  0.00    -0.331 N 
ATOM     13  H   UNL A   1      40.581  42.149  25.274  1.00  0.00     0.347 HD
ATOM     14  H   UNL A   1      42.073  42.396  26.012  1.00  0.00     0.347 HD
BRANCH  12  15
ATOM     15  C   UNL A   1      41.581  40.446  25.770  1.00  0.00     0.301 C 
BRANCH  15  16
ATOM     16  C   UNL A   1      42.281  40.196  27.085  1.00  0.00     0.042 A 
ATOM     17  C   UNL A   1      41.641  40.405  28.318  1.00  0.00     0.012 A 
ATOM     18  C   UNL A   1      43.641  39.864  27.100  1.00  0.00     0.132 A 
ATOM     19  C   UNL A   1      42.361  40.318  29.518  1.00  0.00     0.001 A 
ATOM     20  C   UNL A   1      44.361  39.774  28.290  1.00  0.00     0.040 A 
ATOM     21  F   UNL A   1      44.294  39.671  25.945  1.00  0.00    -0.206 F 
ATOM     22  C   UNL A   1      43.722  40.011  29.504  1.00  0.00     0.003 A 
ENDBRANCH  15  16
ENDBRANCH  12  15
ENDBRANCH  10  12
ENDBRANCH   8  10
ENDBRANCH   7   8
ENDBRANCH   6   7
ENDBRANCH   5   6
ENDBRANCH   4   5
ENDBRANCH   3   4
ENDBRANCH   2   3
ENDBRANCH   1   2
BRANCH   1  23
ATOM     23  C   UNL A   1      50.064  43.789  28.229  1.00  0.00     0.188 C 
BRANCH  23  24
ATOM     24  C   UNL A   1      50.807  42.912  29.261  1.00  0.00     0.188 C 
BRANCH  24  25
ATOM     25  O   UNL A   1      50.474  41.529  29.207  1.00  0.00    -0.376 OA
BRANCH  25  26
ATOM     26  C   UNL A   1      51.465  40.581  29.580  1.00  0.00     0.202 C 
BRANCH  26  27
ATOM     27  C   UNL A   1      51.651  40.293  31.083  1.00  0.00     0.261 C 
BRANCH  27  28
ATOM     28  O   UNL A   1      50.467  40.326  31.891  1.00  0.00    -0.460 OA
BRANCH  28  29
ATOM     29  C   UNL A   1      50.561  39.817  33.136  1.00  0.00     0.338 C 
ATOM     30  O   UNL A   1      51.502  39.951  33.905  1.00  0.00    -0.246 OA
BRANCH  29  31
ATOM     31  C   UNL A   1      49.254  39.241  33.517  1.00  0.00     0.060 A 
ATOM     32  C   UNL A   1      49.209  37.891  33.890  1.00  0.00     0.016 A 
ATOM     33  C   UNL A   1      48.083  40.001  33.470  1.00  0.00     0.016 A 
ATOM     34  C   UNL A   1      47.984  37.276  34.131  1.00  0.00     0.010 A 
ATOM     35  C   UNL A   1      46.851  39.377  33.691  1.00  0.00     0.010 A 
ATOM     36  C   UNL A   1      46.795  37.997  33.959  1.00  0.00    -0.014 A 
BRANCH  36  37
ATOM     37  C   UNL A   1      45.532  37.238  33.776  1.00  0.00     0.031 A 
ATOM     38  C   UNL A   1      44.679  36.992  34.996  1.00  0.00     0.074 A 
ATOM     39  C   UNL A   1      45.095  36.872  32.557  1.00  0.00     0.049 A 
ATOM     40  N   UNL A   1      43.527  36.385  35.094  1.00  0.00    -0.248 NA
ATOM     41  C   UNL A   1      45.194  37.508  36.277  1.00  0.00     0.031 C 
ATOM     42  C   UNL A   1      45.798  37.118  31.299  1.00  0.00     0.029 A 
ATOM     43  N   UNL A   1      43.943  36.230  32.177  1.00  0.00    -0.354 N 
ATOM     44  C   UNL A   1      43.181  36.448  36.440  1.00  0.00     0.074 A 
ATOM     45  C   UNL A   1      44.261  37.113  37.129  1.00  0.00     0.031 C 
ATOM     46  C   UNL A   1      45.055  36.641  30.285  1.00  0.00     0.029 A 
ATOM     47  C   UNL A   1      43.841  36.026  30.821  1.00  0.00     0.049 A 
ATOM     48  H   UNL A   1      43.252  35.941  32.818  1.00  0.00     0.167 HD
ATOM     49  C   UNL A   1      42.052  36.010  37.044  1.00  0.00     0.034 A 
ATOM     50  C   UNL A   1      42.887  35.401  30.099  1.00  0.00     0.034 A 
ATOM     51  C   UNL A   1      40.972  35.366  36.348  1.00  0.00     0.049 A 
ATOM     52  C   UNL A   1      41.686  34.824  30.811  1.00  0.00     0.074 A 
ATOM     53  C   UNL A   1      39.779  34.898  36.869  1.00  0.00     0.029 A 
ATOM     54  N   UNL A   1      40.953  35.095  34.989  1.00  0.00    -0.354 N 
ATOM     55  N   UNL A   1      41.382  34.878  32.086  1.00  0.00    -0.248 NA
ATOM     56  C   UNL A   1      40.704  34.098  29.991  1.00  0.00     0.031 C 
ATOM     57  C   UNL A   1      39.070  34.279  35.837  1.00  0.00     0.029 A 
ATOM     58  C   UNL A   1      39.788  34.428  34.660  1.00  0.00     0.049 A 
ATOM     59  H   UNL A   1      41.663  35.341  34.353  1.00  0.00     0.167 HD
ATOM     60  C   UNL A   1      40.168  34.208  32.218  1.00  0.00     0.074 A 
ATOM     61  C   UNL A   1      39.789  33.765  30.893  1.00  0.00     0.031 C 
ATOM     62  C   UNL A   1      39.431  33.984  33.335  1.00  0.00     0.034 A 
BRANCH  49  63
ATOM     63  C   UNL A   1      41.935  36.186  38.533  1.00  0.00     0.023 A 
ATOM     64  C   UNL A   1      41.368  37.339  39.097  1.00  0.00     0.031 A 
ATOM     65  C   UNL A   1      42.357  35.160  39.398  1.00  0.00     0.131 A 
ATOM     66  C   UNL A   1      41.260  37.452  40.491  1.00  0.00     0.055 A 
ATOM     67  C   UNL A   1      42.193  35.252  40.780  1.00  0.00     0.041 A 
ATOM     68  F   UNL A   1      42.926  34.046  38.908  1.00  0.00    -0.206 F 
ATOM     69  C   UNL A   1      41.646  36.406  41.334  1.00  0.00     0.022 A 
BRANCH  66  70
ATOM     70  S   UNL A   1      40.662  39.011  41.196  1.00  0.00     0.124 S 
ATOM     71  O   UNL A   1      41.016  39.963  40.145  1.00  0.00    -0.237 OA
ATOM     72  O   UNL A   1      39.238  38.755  41.371  1.00  0.00    -0.237 OA
ATOM     73  O   UNL A   1      41.428  39.144  42.433  1.00  0.00    -0.744 OA
ENDBRANCH  66  70
ENDBRANCH  49  63
BRANCH  50  74
ATOM     74  C   UNL A   1      43.044  35.248  28.625  1.00  0.00     0.023 A 
ATOM     75  C   UNL A   1      43.756  34.173  28.072  1.00  0.00     0.031 A 
ATOM     76  C   UNL A   1      42.490  36.196  27.743  1.00  0.00     0.131 A 
ATOM     77  C   UNL A   1      43.913  34.081  26.679  1.00  0.00     0.055 A 
ATOM     78  C   UNL A   1      42.613  36.078  26.358  1.00  0.00     0.041 A 
ATOM     79  F   UNL A   1      41.803  37.246  28.222  1.00  0.00    -0.206 F 
ATOM     80  C   UNL A   1      43.333  35.017  25.819  1.00  0.00     0.022 A 
BRANCH  77  81
ATOM     81  S   UNL A   1      44.919  32.732  26.000  1.00  0.00     0.124 S 
ATOM     82  O   UNL A   1      44.586  32.800  24.581  1.00  0.00    -0.237 OA
ATOM     83  O   UNL A   1      46.269  33.145  26.365  1.00  0.00    -0.237 OA
ATOM     84  O   UNL A   1      44.421  31.551  26.702  1.00  0.00    -0.744 OA
ENDBRANCH  77  81
ENDBRANCH  50  74
BRANCH  62  85
ATOM     85  C   UNL A   1      38.133  33.237  33.192  1.00  0.00     0.023 A 
ATOM     86  C   UNL A   1      36.941  33.904  32.871  1.00  0.00     0.031 A 
ATOM     87  C   UNL A   1      38.115  31.832  33.268  1.00  0.00     0.131 A 
ATOM     88  C   UNL A   1      35.772  33.165  32.641  1.00  0.00     0.055 A 
ATOM     89  C   UNL A   1      36.958  31.100  32.996  1.00  0.00     0.041 A 
ATOM     90  F   UNL A   1      39.233  31.150  33.561  1.00  0.00    -0.206 F 
ATOM     91  C   UNL A   1      35.778  31.767  32.681  1.00  0.00     0.022 A 
BRANCH  88  92
ATOM     92  S   UNL A   1      34.233  34.056  32.286  1.00  0.00     0.124 S 
ATOM     93  O   UNL A   1      34.600  35.431  32.604  1.00  0.00    -0.237 OA
ATOM     94  O   UNL A   1      34.017  33.765  30.873  1.00  0.00    -0.237 OA
ATOM     95  O   UNL A   1      33.265  33.445  33.196  1.00  0.00    -0.744 OA
ENDBRANCH  88  92
ENDBRANCH  62  85
ENDBRANCH  36  37
ENDBRANCH  29  31
ENDBRANCH  28  29
ENDBRANCH  27  28
ENDBRANCH  26  27
ENDBRANCH  25  26
ENDBRANCH  24  25
ENDBRANCH  23  24
ENDBRANCH   1  23
TORSDOF 26
ENDMDL
