MODEL 1
REMARK VINA RESULT:     -11.3      0.000      0.000
REMARK SMILES O=C(OCCOCCOCCOCCOC(=O)c1ccc(-c2c3nc(c(-c4cc(S(=O)(=O)[O-])ccc4F)c4ccc([nH]4)c(-c4cc(S(=O)(=O)[O-])ccc4F)c4nc(c(-c5cc(S(=O)(=O)[O-])ccc5F)c5ccc2[nH]5)C=C4)C=C3)cc1)C1=Cc2cc(C(F)(F)F)ccc2O[C@@H]1C(F)(F)F
REMARK SMILES IDX 10 1 9 2 8 3 7 4 6 5 5 6 4 7 3 8 2 9 1 10 81 11 82 12 94 13
REMARK SMILES IDX 83 14 93 15 84 16 92 17 85 18 91 19 90 20 95 21 96 22 97 23
REMARK SMILES IDX 98 24 86 25 87 26 88 27 89 28 11 29 12 30 13 31 14 32 15 33
REMARK SMILES IDX 16 34 17 35 18 36 19 37 80 38 20 39 79 40 21 41 22 42 23 43
REMARK SMILES IDX 73 44 24 45 78 46 72 47 74 48 25 49 77 50 71 51 70 52 26 54
REMARK SMILES IDX 58 55 38 56 57 57 39 58 42 59 56 60 75 61 40 62 41 63 55 65
REMARK SMILES IDX 76 66 43 67 27 68 28 69 36 70 29 71 35 72 37 73 34 74 30 75
REMARK SMILES IDX 31 76 32 77 33 78 59 79 60 80 68 81 61 82 67 83 69 84 66 85
REMARK SMILES IDX 62 86 63 87 64 88 65 89 44 90 45 91 53 92 46 93 52 94 54 95
REMARK SMILES IDX 51 96 47 97 48 98 49 99 50 100
REMARK H PARENT 74 53 42 64
REMARK Flexibility Score: inf
ROOT
ATOM      1  C   UNL A   1      34.083  28.546  24.991  1.00  0.00     0.188 C 
ENDROOT
BRANCH   1   2
ATOM      2  O   UNL A   1      33.037  27.943  24.265  1.00  0.00    -0.377 OA
BRANCH   2   3
ATOM      3  C   UNL A   1      32.236  28.896  23.608  1.00  0.00     0.188 C 
BRANCH   3   4
ATOM      4  C   UNL A   1      30.724  28.768  23.858  1.00  0.00     0.188 C 
BRANCH   4   5
ATOM      5  O   UNL A   1      29.943  27.534  23.673  1.00  0.00    -0.376 OA
BRANCH   5   6
ATOM      6  C   UNL A   1      29.873  26.097  24.508  1.00  0.00     0.202 C 
BRANCH   6   7
ATOM      7  C   UNL A   1      31.132  25.488  26.184  1.00  0.00     0.261 C 
BRANCH   7   8
ATOM      8  O   UNL A   1      32.643  25.361  26.176  1.00  0.00    -0.460 OA
BRANCH   8   9
ATOM      9  C   UNL A   1      33.042  24.085  26.139  1.00  0.00     0.338 C 
ATOM     10  O   UNL A   1      32.897  23.231  26.977  1.00  0.00    -0.246 OA
BRANCH   9  11
ATOM     11  C   UNL A   1      34.037  24.233  25.090  1.00  0.00     0.087 C 
ATOM     12  C   UNL A   1      35.417  24.303  25.589  1.00  0.00     0.027 C 
ATOM     13  C   UNL A   1      33.322  22.779  24.055  1.00  0.00     0.316 C 
ATOM     14  C   UNL A   1      36.594  22.946  25.513  1.00  0.00     0.018 A 
ATOM     15  O   UNL A   1      34.524  21.245  24.068  1.00  0.00    -0.475 OA
ATOM     16  C   UNL A   1      37.834  23.106  26.065  1.00  0.00     0.025 A 
ATOM     17  C   UNL A   1      36.176  21.399  24.866  1.00  0.00     0.128 A 
ATOM     18  C   UNL A   1      38.686  21.972  26.035  1.00  0.00     0.056 A 
ATOM     19  C   UNL A   1      37.044  20.339  24.871  1.00  0.00     0.048 A 
ATOM     20  C   UNL A   1      38.301  20.672  25.456  1.00  0.00     0.017 A 
BRANCH  13  21
ATOM     21  C   UNL A   1      32.804  23.778  22.828  1.00  0.00     0.430 C 
ATOM     22  F   UNL A   1      33.335  25.012  22.748  1.00  0.00    -0.167 F 
ATOM     23  F   UNL A   1      33.189  23.181  21.656  1.00  0.00    -0.167 F 
ATOM     24  F   UNL A   1      31.459  23.898  22.707  1.00  0.00    -0.167 F 
ENDBRANCH  13  21
BRANCH  18  25
ATOM     25  C   UNL A   1      40.061  22.168  26.672  1.00  0.00     0.416 C 
ATOM     26  F   UNL A   1      40.051  23.157  27.612  1.00  0.00    -0.166 F 
ATOM     27  F   UNL A   1      40.475  21.048  27.331  1.00  0.00    -0.166 F 
ATOM     28  F   UNL A   1      41.048  22.484  25.798  1.00  0.00    -0.166 F 
ENDBRANCH  18  25
ENDBRANCH   9  11
ENDBRANCH   8   9
ENDBRANCH   7   8
ENDBRANCH   6   7
ENDBRANCH   5   6
ENDBRANCH   4   5
ENDBRANCH   3   4
ENDBRANCH   2   3
ENDBRANCH   1   2
BRANCH   1  29
ATOM     29  C   UNL A   1      34.148  28.219  26.486  1.00  0.00     0.188 C 
BRANCH  29  30
ATOM     30  O   UNL A   1      33.857  29.172  27.496  1.00  0.00    -0.376 OA
BRANCH  30  31
ATOM     31  C   UNL A   1      34.280  30.519  27.390  1.00  0.00     0.202 C 
BRANCH  31  32
ATOM     32  C   UNL A   1      33.322  31.703  27.586  1.00  0.00     0.261 C 
BRANCH  32  33
ATOM     33  O   UNL A   1      33.880  33.010  27.417  1.00  0.00    -0.460 OA
BRANCH  33  34
ATOM     34  C   UNL A   1      33.684  33.859  28.450  1.00  0.00     0.338 C 
ATOM     35  O   UNL A   1      32.669  34.487  28.695  1.00  0.00    -0.246 OA
BRANCH  34  36
ATOM     36  C   UNL A   1      34.837  33.772  29.375  1.00  0.00     0.060 A 
ATOM     37  C   UNL A   1      36.085  34.252  28.945  1.00  0.00     0.016 A 
ATOM     38  C   UNL A   1      34.699  33.202  30.641  1.00  0.00     0.016 A 
ATOM     39  C   UNL A   1      37.210  34.123  29.754  1.00  0.00     0.010 A 
ATOM     40  C   UNL A   1      35.834  33.027  31.431  1.00  0.00     0.010 A 
ATOM     41  C   UNL A   1      37.098  33.441  30.967  1.00  0.00    -0.014 A 
BRANCH  41  42
ATOM     42  C   UNL A   1      38.308  32.882  31.611  1.00  0.00     0.031 A 
ATOM     43  C   UNL A   1      38.954  31.701  30.945  1.00  0.00     0.074 A 
ATOM     44  C   UNL A   1      38.799  33.378  32.756  1.00  0.00     0.049 A 
ATOM     45  N   UNL A   1      39.884  30.899  31.387  1.00  0.00    -0.248 NA
ATOM     46  C   UNL A   1      38.458  31.370  29.599  1.00  0.00     0.031 C 
ATOM     47  C   UNL A   1      38.300  34.565  33.445  1.00  0.00     0.029 A 
ATOM     48  N   UNL A   1      39.813  32.918  33.557  1.00  0.00    -0.354 N 
ATOM     49  C   UNL A   1      40.059  29.945  30.391  1.00  0.00     0.074 A 
ATOM     50  C   UNL A   1      39.118  30.255  29.337  1.00  0.00     0.031 C 
ATOM     51  C   UNL A   1      38.990  34.721  34.588  1.00  0.00     0.029 A 
ATOM     52  C   UNL A   1      39.932  33.611  34.737  1.00  0.00     0.049 A 
ATOM     53  H   UNL A   1      40.397  32.165  33.310  1.00  0.00     0.167 HD
ATOM     54  C   UNL A   1      40.927  28.905  30.364  1.00  0.00     0.034 A 
ATOM     55  C   UNL A   1      40.675  33.345  35.831  1.00  0.00     0.034 A 
ATOM     56  C   UNL A   1      41.836  28.610  31.442  1.00  0.00     0.049 A 
ATOM     57  C   UNL A   1      41.560  32.120  35.835  1.00  0.00     0.074 A 
ATOM     58  C   UNL A   1      42.771  27.595  31.527  1.00  0.00     0.029 A 
ATOM     59  N   UNL A   1      41.908  29.318  32.637  1.00  0.00    -0.354 N 
ATOM     60  N   UNL A   1      41.714  31.208  34.901  1.00  0.00    -0.248 NA
ATOM     61  C   UNL A   1      42.371  31.889  37.037  1.00  0.00     0.031 C 
ATOM     62  C   UNL A   1      43.329  27.624  32.808  1.00  0.00     0.029 A 
ATOM     63  C   UNL A   1      42.838  28.732  33.481  1.00  0.00     0.049 A 
ATOM     64  H   UNL A   1      41.375  30.117  32.853  1.00  0.00     0.167 HD
ATOM     65  C   UNL A   1      42.674  30.321  35.386  1.00  0.00     0.074 A 
ATOM     66  C   UNL A   1      43.055  30.804  36.698  1.00  0.00     0.031 C 
ATOM     67  C   UNL A   1      43.207  29.222  34.791  1.00  0.00     0.034 A 
BRANCH  54  68
ATOM     68  C   UNL A   1      40.861  27.977  29.173  1.00  0.00     0.023 A 
ATOM     69  C   UNL A   1      41.814  28.022  28.140  1.00  0.00     0.031 A 
ATOM     70  C   UNL A   1      39.786  27.081  29.033  1.00  0.00     0.131 A 
ATOM     71  C   UNL A   1      41.618  27.268  26.974  1.00  0.00     0.055 A 
ATOM     72  C   UNL A   1      39.656  26.253  27.918  1.00  0.00     0.041 A 
ATOM     73  F   UNL A   1      38.825  27.012  29.968  1.00  0.00    -0.206 F 
ATOM     74  C   UNL A   1      40.563  26.359  26.868  1.00  0.00     0.022 A 
BRANCH  71  75
ATOM     75  S   UNL A   1      42.640  27.645  25.524  1.00  0.00     0.124 S 
ATOM     76  O   UNL A   1      42.631  26.366  24.817  1.00  0.00    -0.237 OA
ATOM     77  O   UNL A   1      41.899  28.730  24.890  1.00  0.00    -0.237 OA
ATOM     78  O   UNL A   1      43.929  28.020  26.100  1.00  0.00    -0.744 OA
ENDBRANCH  71  75
ENDBRANCH  54  68
BRANCH  55  79
ATOM     79  C   UNL A   1      40.573  34.225  37.028  1.00  0.00     0.023 A 
ATOM     80  C   UNL A   1      39.845  33.833  38.161  1.00  0.00     0.031 A 
ATOM     81  C   UNL A   1      41.201  35.486  37.053  1.00  0.00     0.131 A 
ATOM     82  C   UNL A   1      39.740  34.700  39.259  1.00  0.00     0.055 A 
ATOM     83  C   UNL A   1      41.141  36.319  38.169  1.00  0.00     0.041 A 
ATOM     84  F   UNL A   1      41.904  35.914  35.993  1.00  0.00    -0.206 F 
ATOM     85  C   UNL A   1      40.400  35.930  39.280  1.00  0.00     0.022 A 
BRANCH  82  86
ATOM     86  S   UNL A   1      38.660  34.228  40.638  1.00  0.00     0.124 S 
ATOM     87  O   UNL A   1      39.559  33.419  41.453  1.00  0.00    -0.237 OA
ATOM     88  O   UNL A   1      38.287  35.527  41.188  1.00  0.00    -0.237 OA
ATOM     89  O   UNL A   1      37.577  33.496  39.986  1.00  0.00    -0.744 OA
ENDBRANCH  82  86
ENDBRANCH  55  79
BRANCH  67  90
ATOM     90  C   UNL A   1      44.326  28.504  35.510  1.00  0.00     0.023 A 
ATOM     91  C   UNL A   1      44.093  27.543  36.507  1.00  0.00     0.031 A 
ATOM     92  C   UNL A   1      45.662  28.770  35.148  1.00  0.00     0.131 A 
ATOM     93  C   UNL A   1      45.179  26.913  37.135  1.00  0.00     0.055 A 
ATOM     94  C   UNL A   1      46.732  28.086  35.723  1.00  0.00     0.041 A 
ATOM     95  F   UNL A   1      45.946  29.686  34.209  1.00  0.00    -0.206 F 
ATOM     96  C   UNL A   1      46.495  27.158  36.731  1.00  0.00     0.022 A 
BRANCH  93  97
ATOM     97  S   UNL A   1      44.861  25.835  38.560  1.00  0.00     0.124 S 
ATOM     98  O   UNL A   1      43.788  26.548  39.244  1.00  0.00    -0.237 OA
ATOM     99  O   UNL A   1      44.487  24.576  37.924  1.00  0.00    -0.237 OA
ATOM    100  O   UNL A   1      46.141  25.815  39.267  1.00  0.00    -0.744 OA
ENDBRANCH  93  97
ENDBRANCH  67  90
ENDBRANCH  41  42
ENDBRANCH  34  36
ENDBRANCH  33  34
ENDBRANCH  32  33
ENDBRANCH  31  32
ENDBRANCH  30  31
ENDBRANCH  29  30
ENDBRANCH   1  29
TORSDOF 25
ENDMDL
MODEL 2
REMARK VINA RESULT:     -10.8      2.405      7.732
REMARK SMILES O=C(OCCOCCOCCOCCOC(=O)c1ccc(-c2c3nc(c(-c4cc(S(=O)(=O)[O-])ccc4F)c4ccc([nH]4)c(-c4cc(S(=O)(=O)[O-])ccc4F)c4nc(c(-c5cc(S(=O)(=O)[O-])ccc5F)c5ccc2[nH]5)C=C4)C=C3)cc1)C1=Cc2cc(C(F)(F)F)ccc2O[C@@H]1C(F)(F)F
REMARK SMILES IDX 10 1 9 2 8 3 7 4 6 5 5 6 4 7 3 8 2 9 1 10 81 11 82 12 94 13
REMARK SMILES IDX 83 14 93 15 84 16 92 17 85 18 91 19 90 20 95 21 96 22 97 23
REMARK SMILES IDX 98 24 86 25 87 26 88 27 89 28 11 29 12 30 13 31 14 32 15 33
REMARK SMILES IDX 16 34 17 35 18 36 19 37 80 38 20 39 79 40 21 41 22 42 23 43
REMARK SMILES IDX 73 44 24 45 78 46 72 47 74 48 25 49 77 50 71 51 70 52 26 54
REMARK SMILES IDX 58 55 38 56 57 57 39 58 42 59 56 60 75 61 40 62 41 63 55 65
REMARK SMILES IDX 76 66 43 67 27 68 28 69 36 70 29 71 35 72 37 73 34 74 30 75
REMARK SMILES IDX 31 76 32 77 33 78 59 79 60 80 68 81 61 82 67 83 69 84 66 85
REMARK SMILES IDX 62 86 63 87 64 88 65 89 44 90 45 91 53 92 46 93 52 94 54 95
REMARK SMILES IDX 51 96 47 97 48 98 49 99 50 100
REMARK H PARENT 74 53 42 64
REMARK Flexibility Score: inf
ROOT
ATOM      1  C   UNL A   1      34.005  28.425  25.647  1.00  0.00     0.188 C 
ENDROOT
BRANCH   1   2
ATOM      2  O   UNL A   1      33.238  27.911  24.583  1.00  0.00    -0.377 OA
BRANCH   2   3
ATOM      3  C   UNL A   1      32.570  28.929  23.876  1.00  0.00     0.188 C 
BRANCH   3   4
ATOM      4  C   UNL A   1      31.066  29.055  24.171  1.00  0.00     0.188 C 
BRANCH   4   5
ATOM      5  O   UNL A   1      30.065  28.014  23.891  1.00  0.00    -0.376 OA
BRANCH   5   6
ATOM      6  C   UNL A   1      29.957  26.402  24.288  1.00  0.00     0.202 C 
BRANCH   6   7
ATOM      7  C   UNL A   1      30.658  25.453  26.126  1.00  0.00     0.261 C 
BRANCH   7   8
ATOM      8  O   UNL A   1      31.709  24.365  26.233  1.00  0.00    -0.460 OA
BRANCH   8   9
ATOM      9  C   UNL A   1      31.296  23.211  25.699  1.00  0.00     0.338 C 
ATOM     10  O   UNL A   1      30.276  22.607  25.918  1.00  0.00    -0.246 OA
BRANCH   9  11
ATOM     11  C   UNL A   1      32.592  22.756  25.221  1.00  0.00     0.087 C 
ATOM     12  C   UNL A   1      32.966  21.423  25.710  1.00  0.00     0.027 C 
ATOM     13  C   UNL A   1      32.185  23.174  23.389  1.00  0.00     0.316 C 
ATOM     14  C   UNL A   1      32.887  19.920  24.725  1.00  0.00     0.018 A 
ATOM     15  O   UNL A   1      31.962  21.553  22.328  1.00  0.00    -0.475 OA
ATOM     16  C   UNL A   1      33.204  18.724  25.305  1.00  0.00     0.025 A 
ATOM     17  C   UNL A   1      32.310  19.917  23.096  1.00  0.00     0.128 A 
ATOM     18  C   UNL A   1      33.048  17.572  24.492  1.00  0.00     0.056 A 
ATOM     19  C   UNL A   1      32.177  18.767  22.363  1.00  0.00     0.048 A 
ATOM     20  C   UNL A   1      32.571  17.609  23.098  1.00  0.00     0.017 A 
BRANCH  13  21
ATOM     21  C   UNL A   1      33.303  24.406  23.319  1.00  0.00     0.430 C 
ATOM     22  F   UNL A   1      34.429  24.201  22.613  1.00  0.00    -0.167 F 
ATOM     23  F   UNL A   1      32.692  25.444  22.665  1.00  0.00    -0.167 F 
ATOM     24  F   UNL A   1      33.656  24.936  24.516  1.00  0.00    -0.167 F 
ENDBRANCH  13  21
BRANCH  18  25
ATOM     25  C   UNL A   1      33.393  16.243  25.165  1.00  0.00     0.416 C 
ATOM     26  F   UNL A   1      32.694  15.203  24.626  1.00  0.00    -0.166 F 
ATOM     27  F   UNL A   1      34.707  15.920  24.996  1.00  0.00    -0.166 F 
ATOM     28  F   UNL A   1      33.158  16.209  26.500  1.00  0.00    -0.166 F 
ENDBRANCH  18  25
ENDBRANCH   9  11
ENDBRANCH   8   9
ENDBRANCH   7   8
ENDBRANCH   6   7
ENDBRANCH   5   6
ENDBRANCH   4   5
ENDBRANCH   3   4
ENDBRANCH   2   3
ENDBRANCH   1   2
BRANCH   1  29
ATOM     29  C   UNL A   1      33.302  28.519  27.005  1.00  0.00     0.188 C 
BRANCH  29  30
ATOM     30  O   UNL A   1      32.791  29.736  27.525  1.00  0.00    -0.376 OA
BRANCH  30  31
ATOM     31  C   UNL A   1      33.399  30.981  27.234  1.00  0.00     0.202 C 
BRANCH  31  32
ATOM     32  C   UNL A   1      32.639  32.312  27.329  1.00  0.00     0.261 C 
BRANCH  32  33
ATOM     33  O   UNL A   1      33.431  33.503  27.287  1.00  0.00    -0.460 OA
BRANCH  33  34
ATOM     34  C   UNL A   1      33.397  34.258  28.407  1.00  0.00     0.338 C 
ATOM     35  O   UNL A   1      32.528  35.052  28.726  1.00  0.00    -0.246 OA
BRANCH  34  36
ATOM     36  C   UNL A   1      34.493  33.838  29.310  1.00  0.00     0.060 A 
ATOM     37  C   UNL A   1      35.819  33.951  28.859  1.00  0.00     0.016 A 
ATOM     38  C   UNL A   1      34.220  33.315  30.574  1.00  0.00     0.016 A 
ATOM     39  C   UNL A   1      36.874  33.500  29.647  1.00  0.00     0.010 A 
ATOM     40  C   UNL A   1      35.272  32.816  31.341  1.00  0.00     0.010 A 
ATOM     41  C   UNL A   1      36.593  32.863  30.857  1.00  0.00    -0.014 A 
BRANCH  41  42
ATOM     42  C   UNL A   1      37.606  31.977  31.474  1.00  0.00     0.031 A 
ATOM     43  C   UNL A   1      38.098  32.349  32.844  1.00  0.00     0.074 A 
ATOM     44  C   UNL A   1      38.096  30.903  30.837  1.00  0.00     0.049 A 
ATOM     45  N   UNL A   1      39.109  31.882  33.523  1.00  0.00    -0.248 NA
ATOM     46  C   UNL A   1      37.352  33.420  33.526  1.00  0.00     0.031 C 
ATOM     47  C   UNL A   1      37.636  30.406  29.543  1.00  0.00     0.029 A 
ATOM     48  N   UNL A   1      39.116  30.056  31.187  1.00  0.00    -0.354 N 
ATOM     49  C   UNL A   1      39.145  32.624  34.698  1.00  0.00     0.074 A 
ATOM     50  C   UNL A   1      38.073  33.592  34.621  1.00  0.00     0.031 C 
ATOM     51  C   UNL A   1      38.398  29.356  29.191  1.00  0.00     0.029 A 
ATOM     52  C   UNL A   1      39.434  29.151  30.204  1.00  0.00     0.049 A 
ATOM     53  H   UNL A   1      39.575  30.093  32.057  1.00  0.00     0.167 HD
ATOM     54  C   UNL A   1      40.001  32.508  35.742  1.00  0.00     0.034 A 
ATOM     55  C   UNL A   1      40.474  28.298  30.110  1.00  0.00     0.034 A 
ATOM     56  C   UNL A   1      41.075  31.548  35.776  1.00  0.00     0.049 A 
ATOM     57  C   UNL A   1      41.487  28.251  31.232  1.00  0.00     0.074 A 
ATOM     58  C   UNL A   1      41.998  31.324  36.781  1.00  0.00     0.029 A 
ATOM     59  N   UNL A   1      41.386  30.667  34.746  1.00  0.00    -0.354 N 
ATOM     60  N   UNL A   1      41.533  28.965  32.335  1.00  0.00    -0.248 NA
ATOM     61  C   UNL A   1      42.584  27.286  31.097  1.00  0.00     0.031 C 
ATOM     62  C   UNL A   1      42.927  30.388  36.317  1.00  0.00     0.029 A 
ATOM     63  C   UNL A   1      42.514  29.932  35.075  1.00  0.00     0.049 A 
ATOM     64  H   UNL A   1      40.880  30.578  33.906  1.00  0.00     0.167 HD
ATOM     65  C   UNL A   1      42.638  28.501  33.046  1.00  0.00     0.074 A 
ATOM     66  C   UNL A   1      43.235  27.454  32.241  1.00  0.00     0.031 C 
ATOM     67  C   UNL A   1      43.102  28.891  34.261  1.00  0.00     0.034 A 
BRANCH  54  68
ATOM     68  C   UNL A   1      39.852  33.497  36.875  1.00  0.00     0.023 A 
ATOM     69  C   UNL A   1      40.737  34.575  37.044  1.00  0.00     0.031 A 
ATOM     70  C   UNL A   1      38.848  33.316  37.843  1.00  0.00     0.131 A 
ATOM     71  C   UNL A   1      40.668  35.363  38.202  1.00  0.00     0.055 A 
ATOM     72  C   UNL A   1      38.717  34.171  38.939  1.00  0.00     0.041 A 
ATOM     73  F   UNL A   1      37.990  32.287  37.758  1.00  0.00    -0.206 F 
ATOM     74  C   UNL A   1      39.645  35.189  39.136  1.00  0.00     0.022 A 
BRANCH  71  75
ATOM     75  S   UNL A   1      42.053  36.475  38.571  1.00  0.00     0.124 S 
ATOM     76  O   UNL A   1      42.193  37.199  37.309  1.00  0.00    -0.237 OA
ATOM     77  O   UNL A   1      41.544  37.249  39.698  1.00  0.00    -0.237 OA
ATOM     78  O   UNL A   1      43.151  35.563  38.883  1.00  0.00    -0.744 OA
ENDBRANCH  71  75
ENDBRANCH  54  68
BRANCH  55  79
ATOM     79  C   UNL A   1      40.638  27.459  28.890  1.00  0.00     0.023 A 
ATOM     80  C   UNL A   1      41.587  27.779  27.908  1.00  0.00     0.031 A 
ATOM     81  C   UNL A   1      39.834  26.321  28.684  1.00  0.00     0.131 A 
ATOM     82  C   UNL A   1      41.692  26.987  26.754  1.00  0.00     0.055 A 
ATOM     83  C   UNL A   1      39.982  25.505  27.563  1.00  0.00     0.041 A 
ATOM     84  F   UNL A   1      38.905  25.973  29.589  1.00  0.00    -0.206 F 
ATOM     85  C   UNL A   1      40.912  25.842  26.584  1.00  0.00     0.022 A 
BRANCH  82  86
ATOM     86  S   UNL A   1      42.815  27.521  25.434  1.00  0.00     0.124 S 
ATOM     87  O   UNL A   1      43.996  27.915  26.194  1.00  0.00    -0.237 OA
ATOM     88  O   UNL A   1      42.940  26.308  24.634  1.00  0.00    -0.237 OA
ATOM     89  O   UNL A   1      42.090  28.616  24.793  1.00  0.00    -0.744 OA
ENDBRANCH  82  86
ENDBRANCH  55  79
BRANCH  67  90
ATOM     90  C   UNL A   1      44.267  28.127  34.848  1.00  0.00     0.023 A 
ATOM     91  C   UNL A   1      44.101  26.970  35.626  1.00  0.00     0.031 A 
ATOM     92  C   UNL A   1      45.582  28.559  34.579  1.00  0.00     0.131 A 
ATOM     93  C   UNL A   1      45.227  26.308  36.142  1.00  0.00     0.055 A 
ATOM     94  C   UNL A   1      46.697  27.855  35.031  1.00  0.00     0.041 A 
ATOM     95  F   UNL A   1      45.803  29.664  33.850  1.00  0.00    -0.206 F 
ATOM     96  C   UNL A   1      46.524  26.727  35.826  1.00  0.00     0.022 A 
BRANCH  93  97
ATOM     97  S   UNL A   1      44.982  24.945  37.313  1.00  0.00     0.124 S 
ATOM     98  O   UNL A   1      45.094  25.628  38.598  1.00  0.00    -0.237 OA
ATOM     99  O   UNL A   1      43.651  24.464  36.960  1.00  0.00    -0.237 OA
ATOM    100  O   UNL A   1      46.076  24.025  37.002  1.00  0.00    -0.744 OA
ENDBRANCH  93  97
ENDBRANCH  67  90
ENDBRANCH  41  42
ENDBRANCH  34  36
ENDBRANCH  33  34
ENDBRANCH  32  33
ENDBRANCH  31  32
ENDBRANCH  30  31
ENDBRANCH  29  30
ENDBRANCH   1  29
TORSDOF 25
ENDMDL
MODEL 3
REMARK VINA RESULT:     -10.7      2.484      7.976
REMARK SMILES O=C(OCCOCCOCCOCCOC(=O)c1ccc(-c2c3nc(c(-c4cc(S(=O)(=O)[O-])ccc4F)c4ccc([nH]4)c(-c4cc(S(=O)(=O)[O-])ccc4F)c4nc(c(-c5cc(S(=O)(=O)[O-])ccc5F)c5ccc2[nH]5)C=C4)C=C3)cc1)C1=Cc2cc(C(F)(F)F)ccc2O[C@@H]1C(F)(F)F
REMARK SMILES IDX 10 1 9 2 8 3 7 4 6 5 5 6 4 7 3 8 2 9 1 10 81 11 82 12 94 13
REMARK SMILES IDX 83 14 93 15 84 16 92 17 85 18 91 19 90 20 95 21 96 22 97 23
REMARK SMILES IDX 98 24 86 25 87 26 88 27 89 28 11 29 12 30 13 31 14 32 15 33
REMARK SMILES IDX 16 34 17 35 18 36 19 37 80 38 20 39 79 40 21 41 22 42 23 43
REMARK SMILES IDX 73 44 24 45 78 46 72 47 74 48 25 49 77 50 71 51 70 52 26 54
REMARK SMILES IDX 58 55 38 56 57 57 39 58 42 59 56 60 75 61 40 62 41 63 55 65
REMARK SMILES IDX 76 66 43 67 27 68 28 69 36 70 29 71 35 72 37 73 34 74 30 75
REMARK SMILES IDX 31 76 32 77 33 78 59 79 60 80 68 81 61 82 67 83 69 84 66 85
REMARK SMILES IDX 62 86 63 87 64 88 65 89 44 90 45 91 53 92 46 93 52 94 54 95
REMARK SMILES IDX 51 96 47 97 48 98 49 99 50 100
REMARK H PARENT 74 53 42 64
REMARK Flexibility Score: inf
ROOT
ATOM      1  C   UNL A   1      33.966  28.551  26.185  1.00  0.00     0.188 C 
ENDROOT
BRANCH   1   2
ATOM      2  O   UNL A   1      33.561  28.113  24.908  1.00  0.00    -0.377 OA
BRANCH   2   3
ATOM      3  C   UNL A   1      32.921  29.134  24.181  1.00  0.00     0.188 C 
BRANCH   3   4
ATOM      4  C   UNL A   1      31.384  29.073  24.177  1.00  0.00     0.188 C 
BRANCH   4   5
ATOM      5  O   UNL A   1      30.591  27.884  23.828  1.00  0.00    -0.376 OA
BRANCH   5   6
ATOM      6  C   UNL A   1      30.512  26.344  24.454  1.00  0.00     0.202 C 
BRANCH   6   7
ATOM      7  C   UNL A   1      31.596  25.574  26.186  1.00  0.00     0.261 C 
BRANCH   7   8
ATOM      8  O   UNL A   1      32.169  24.179  26.342  1.00  0.00    -0.460 OA
BRANCH   8   9
ATOM      9  C   UNL A   1      31.646  23.317  25.463  1.00  0.00     0.338 C 
ATOM     10  O   UNL A   1      30.518  22.896  25.408  1.00  0.00    -0.246 OA
BRANCH   9  11
ATOM     11  C   UNL A   1      32.900  22.755  24.989  1.00  0.00     0.087 C 
ATOM     12  C   UNL A   1      33.207  21.435  25.555  1.00  0.00     0.027 C 
ATOM     13  C   UNL A   1      32.474  23.079  23.142  1.00  0.00     0.316 C 
ATOM     14  C   UNL A   1      33.013  19.880  24.672  1.00  0.00     0.018 A 
ATOM     15  O   UNL A   1      32.128  21.410  22.194  1.00  0.00    -0.475 OA
ATOM     16  C   UNL A   1      33.273  18.706  25.322  1.00  0.00     0.025 A 
ATOM     17  C   UNL A   1      32.398  19.809  23.059  1.00  0.00     0.128 A 
ATOM     18  C   UNL A   1      33.029  17.517  24.590  1.00  0.00     0.056 A 
ATOM     19  C   UNL A   1      32.178  18.624  22.406  1.00  0.00     0.048 A 
ATOM     20  C   UNL A   1      32.521  17.494  23.206  1.00  0.00     0.017 A 
BRANCH  13  21
ATOM     21  C   UNL A   1      33.660  24.233  22.969  1.00  0.00     0.430 C 
ATOM     22  F   UNL A   1      34.944  23.831  22.991  1.00  0.00    -0.167 F 
ATOM     23  F   UNL A   1      33.505  24.760  21.713  1.00  0.00    -0.167 F 
ATOM     24  F   UNL A   1      33.549  25.306  23.790  1.00  0.00    -0.167 F 
ENDBRANCH  13  21
BRANCH  18  25
ATOM     25  C   UNL A   1      33.311  16.215  25.340  1.00  0.00     0.416 C 
ATOM     26  F   UNL A   1      33.150  15.121  24.540  1.00  0.00    -0.166 F 
ATOM     27  F   UNL A   1      34.601  16.155  25.778  1.00  0.00    -0.166 F 
ATOM     28  F   UNL A   1      32.528  16.010  26.428  1.00  0.00    -0.166 F 
ENDBRANCH  18  25
ENDBRANCH   9  11
ENDBRANCH   8   9
ENDBRANCH   7   8
ENDBRANCH   6   7
ENDBRANCH   5   6
ENDBRANCH   4   5
ENDBRANCH   3   4
ENDBRANCH   2   3
ENDBRANCH   1   2
BRANCH   1  29
ATOM     29  C   UNL A   1      32.847  28.820  27.196  1.00  0.00     0.188 C 
BRANCH  29  30
ATOM     30  O   UNL A   1      32.508  30.123  27.641  1.00  0.00    -0.376 OA
BRANCH  30  31
ATOM     31  C   UNL A   1      33.283  31.254  27.287  1.00  0.00     0.202 C 
BRANCH  31  32
ATOM     32  C   UNL A   1      32.722  32.683  27.320  1.00  0.00     0.261 C 
BRANCH  32  33
ATOM     33  O   UNL A   1      33.660  33.731  27.586  1.00  0.00    -0.460 OA
BRANCH  33  34
ATOM     34  C   UNL A   1      33.487  34.377  28.759  1.00  0.00     0.338 C 
ATOM     35  O   UNL A   1      32.557  35.106  29.059  1.00  0.00    -0.246 OA
BRANCH  34  36
ATOM     36  C   UNL A   1      34.509  33.915  29.725  1.00  0.00     0.060 A 
ATOM     37  C   UNL A   1      35.845  34.306  29.532  1.00  0.00     0.016 A 
ATOM     38  C   UNL A   1      34.165  33.085  30.792  1.00  0.00     0.016 A 
ATOM     39  C   UNL A   1      36.848  33.835  30.373  1.00  0.00     0.010 A 
ATOM     40  C   UNL A   1      35.175  32.572  31.604  1.00  0.00     0.010 A 
ATOM     41  C   UNL A   1      36.522  32.906  31.364  1.00  0.00    -0.014 A 
BRANCH  41  42
ATOM     42  C   UNL A   1      37.580  32.049  31.944  1.00  0.00     0.031 A 
ATOM     43  C   UNL A   1      38.074  32.406  33.318  1.00  0.00     0.074 A 
ATOM     44  C   UNL A   1      38.106  31.014  31.274  1.00  0.00     0.049 A 
ATOM     45  N   UNL A   1      39.113  31.964  33.972  1.00  0.00    -0.248 NA
ATOM     46  C   UNL A   1      37.293  33.426  34.037  1.00  0.00     0.031 C 
ATOM     47  C   UNL A   1      37.650  30.531  29.973  1.00  0.00     0.029 A 
ATOM     48  N   UNL A   1      39.165  30.202  31.589  1.00  0.00    -0.354 N 
ATOM     49  C   UNL A   1      39.133  32.677  35.165  1.00  0.00     0.074 A 
ATOM     50  C   UNL A   1      38.021  33.600  35.127  1.00  0.00     0.031 C 
ATOM     51  C   UNL A   1      38.450  29.524  29.584  1.00  0.00     0.029 A 
ATOM     52  C   UNL A   1      39.508  29.337  30.578  1.00  0.00     0.049 A 
ATOM     53  H   UNL A   1      39.633  30.235  32.454  1.00  0.00     0.167 HD
ATOM     54  C   UNL A   1      40.007  32.571  36.195  1.00  0.00     0.034 A 
ATOM     55  C   UNL A   1      40.582  28.531  30.449  1.00  0.00     0.034 A 
ATOM     56  C   UNL A   1      41.121  31.657  36.191  1.00  0.00     0.049 A 
ATOM     57  C   UNL A   1      41.610  28.499  31.557  1.00  0.00     0.074 A 
ATOM     58  C   UNL A   1      42.066  31.446  37.178  1.00  0.00     0.029 A 
ATOM     59  N   UNL A   1      41.455  30.816  35.135  1.00  0.00    -0.354 N 
ATOM     60  N   UNL A   1      41.641  29.185  32.678  1.00  0.00    -0.248 NA
ATOM     61  C   UNL A   1      42.746  27.584  31.383  1.00  0.00     0.031 C 
ATOM     62  C   UNL A   1      43.027  30.562  36.679  1.00  0.00     0.029 A 
ATOM     63  C   UNL A   1      42.617  30.121  35.430  1.00  0.00     0.049 A 
ATOM     64  H   UNL A   1      40.942  30.728  34.299  1.00  0.00     0.167 HD
ATOM     65  C   UNL A   1      42.774  28.750  33.362  1.00  0.00     0.074 A 
ATOM     66  C   UNL A   1      43.404  27.750  32.523  1.00  0.00     0.031 C 
ATOM     67  C   UNL A   1      43.238  29.128  34.582  1.00  0.00     0.034 A 
BRANCH  54  68
ATOM     68  C   UNL A   1      39.832  33.523  37.355  1.00  0.00     0.023 A 
ATOM     69  C   UNL A   1      39.248  33.120  38.569  1.00  0.00     0.031 A 
ATOM     70  C   UNL A   1      40.191  34.876  37.220  1.00  0.00     0.131 A 
ATOM     71  C   UNL A   1      38.946  34.074  39.552  1.00  0.00     0.055 A 
ATOM     72  C   UNL A   1      39.987  35.801  38.245  1.00  0.00     0.041 A 
ATOM     73  F   UNL A   1      40.724  35.333  36.075  1.00  0.00    -0.206 F 
ATOM     74  C   UNL A   1      39.340  35.406  39.412  1.00  0.00     0.022 A 
BRANCH  71  75
ATOM     75  S   UNL A   1      37.851  33.589  40.913  1.00  0.00     0.124 S 
ATOM     76  O   UNL A   1      38.793  32.967  41.842  1.00  0.00    -0.237 OA
ATOM     77  O   UNL A   1      37.288  34.867  41.336  1.00  0.00    -0.237 OA
ATOM     78  O   UNL A   1      36.908  32.668  40.284  1.00  0.00    -0.744 OA
ENDBRANCH  71  75
ENDBRANCH  54  68
BRANCH  55  79
ATOM     79  C   UNL A   1      40.764  27.731  29.206  1.00  0.00     0.023 A 
ATOM     80  C   UNL A   1      41.725  28.084  28.247  1.00  0.00     0.031 A 
ATOM     81  C   UNL A   1      39.966  26.599  28.953  1.00  0.00     0.131 A 
ATOM     82  C   UNL A   1      41.848  27.330  27.071  1.00  0.00     0.055 A 
ATOM     83  C   UNL A   1      40.132  25.819  27.809  1.00  0.00     0.041 A 
ATOM     84  F   UNL A   1      39.026  26.221  29.833  1.00  0.00    -0.206 F 
ATOM     85  C   UNL A   1      41.074  26.189  26.854  1.00  0.00     0.022 A 
BRANCH  82  86
ATOM     86  S   UNL A   1      42.988  27.908  25.783  1.00  0.00     0.124 S 
ATOM     87  O   UNL A   1      42.322  27.445  24.571  1.00  0.00    -0.237 OA
ATOM     88  O   UNL A   1      42.989  29.350  26.005  1.00  0.00    -0.237 OA
ATOM     89  O   UNL A   1      44.239  27.228  26.108  1.00  0.00    -0.744 OA
ENDBRANCH  82  86
ENDBRANCH  55  79
BRANCH  67  90
ATOM     90  C   UNL A   1      44.442  28.400  35.134  1.00  0.00     0.023 A 
ATOM     91  C   UNL A   1      45.759  28.829  34.902  1.00  0.00     0.031 A 
ATOM     92  C   UNL A   1      44.251  27.266  35.949  1.00  0.00     0.131 A 
ATOM     93  C   UNL A   1      46.834  28.106  35.445  1.00  0.00     0.055 A 
ATOM     94  C   UNL A   1      45.319  26.597  36.546  1.00  0.00     0.041 A 
ATOM     95  F   UNL A   1      43.015  26.803  36.197  1.00  0.00    -0.206 F 
ATOM     96  C   UNL A   1      46.621  27.010  36.288  1.00  0.00     0.022 A 
BRANCH  93  97
ATOM     97  S   UNL A   1      48.524  28.553  34.961  1.00  0.00     0.124 S 
ATOM     98  O   UNL A   1      48.351  28.912  33.557  1.00  0.00    -0.237 OA
ATOM     99  O   UNL A   1      48.829  29.655  35.868  1.00  0.00    -0.237 OA
ATOM    100  O   UNL A   1      49.285  27.327  35.198  1.00  0.00    -0.744 OA
ENDBRANCH  93  97
ENDBRANCH  67  90
ENDBRANCH  41  42
ENDBRANCH  34  36
ENDBRANCH  33  34
ENDBRANCH  32  33
ENDBRANCH  31  32
ENDBRANCH  30  31
ENDBRANCH  29  30
ENDBRANCH   1  29
TORSDOF 25
ENDMDL
