MODEL 1
REMARK VINA RESULT:      -9.8      0.000      0.000
REMARK SMILES O=C(Cn1cc(S(=O)(=O)NC2COC2)cn1)OCCOCCOCCOCCOC(=O)c1ccc(-c2c3nc(c(-c4cc(S(=O)(=O)[O-])ccc4F)c4ccc([nH]4)c(-c4cc(S(=O)(=O)[O-])ccc4F)c4nc(c(-c5cc(S(=O)(=O)[O-])ccc5F)c5ccc2[nH]5)C=C4)C=C3)cc1
REMARK SMILES IDX 22 1 21 2 20 3 19 4 18 5 17 6 2 7 1 8 3 9 4 10 5 11 16 12
REMARK SMILES IDX 6 13 15 14 7 15 8 16 9 17 10 18 11 20 12 21 14 22 13 23
REMARK SMILES IDX 23 24 24 25 25 26 26 27 27 28 28 29 29 30 30 31 31 32 32 33
REMARK SMILES IDX 33 34 94 35 34 36 93 37 35 38 36 39 37 40 87 41 38 42 92 43
REMARK SMILES IDX 86 44 88 45 39 46 91 47 85 48 84 49 40 51 72 52 52 53 71 54
REMARK SMILES IDX 53 55 56 56 70 57 89 58 54 59 55 60 69 62 90 63 57 64 41 65
REMARK SMILES IDX 42 66 50 67 43 68 49 69 51 70 48 71 44 72 45 73 46 74 47 75
REMARK SMILES IDX 73 76 74 77 82 78 75 79 81 80 83 81 80 82 76 83 77 84 78 85
REMARK SMILES IDX 79 86 58 87 59 88 67 89 60 90 66 91 68 92 65 93 61 94 62 95
REMARK SMILES IDX 63 96 64 97
REMARK H PARENT 10 19 88 50 56 61
REMARK Flexibility Score: inf
ROOT
ATOM      1  C   UNL A   1      40.888  20.700  26.730  1.00  0.00     0.188 C 
ENDROOT
BRANCH   1   2
ATOM      2  C   UNL A   1      40.536  22.112  27.222  1.00  0.00     0.188 C 
BRANCH   2   3
ATOM      3  O   UNL A   1      39.748  22.887  26.349  1.00  0.00    -0.376 OA
BRANCH   3   4
ATOM      4  C   UNL A   1      38.777  23.826  26.750  1.00  0.00     0.202 C 
BRANCH   4   5
ATOM      5  C   UNL A   1      37.430  23.891  26.043  1.00  0.00     0.261 C 
BRANCH   5   6
ATOM      6  O   UNL A   1      37.251  23.115  24.837  1.00  0.00    -0.462 OA
BRANCH   6   7
ATOM      7  C   UNL A   1      36.321  23.255  23.866  1.00  0.00     0.327 C 
ATOM      8  O   UNL A   1      36.617  22.977  22.704  1.00  0.00    -0.250 OA
BRANCH   7   9
ATOM      9  C   UNL A   1      34.947  23.757  24.207  1.00  0.00     0.266 C 
BRANCH   9  10
ATOM     10  N   UNL A   1      34.152  22.692  24.763  1.00  0.00    -0.260 N 
ATOM     11  C   UNL A   1      33.620  21.659  24.052  1.00  0.00     0.131 A 
ATOM     12  N   UNL A   1      34.081  22.515  26.098  1.00  0.00    -0.180 NA
ATOM     13  C   UNL A   1      33.389  20.674  24.980  1.00  0.00     0.120 A 
ATOM     14  C   UNL A   1      33.619  21.264  26.227  1.00  0.00     0.156 A 
BRANCH  13  15
ATOM     15  S   UNL A   1      32.995  19.055  24.646  1.00  0.00     0.244 S 
ATOM     16  O   UNL A   1      32.192  18.633  25.783  1.00  0.00    -0.207 OA
ATOM     17  O   UNL A   1      32.510  19.058  23.300  1.00  0.00    -0.207 OA
BRANCH  15  18
ATOM     18  N   UNL A   1      34.435  18.168  24.662  1.00  0.00    -0.203 NA
ATOM     19  H   UNL A   1      34.810  18.274  25.604  1.00  0.00     0.141 HD
BRANCH  18  20
ATOM     20  C   UNL A   1      34.540  16.699  24.348  1.00  0.00     0.121 C 
ATOM     21  C   UNL A   1      35.360  15.820  25.308  1.00  0.00     0.182 C 
ATOM     22  C   UNL A   1      33.394  15.757  24.752  1.00  0.00     0.182 C 
ATOM     23  O   UNL A   1      34.332  14.801  25.307  1.00  0.00    -0.378 OA
ENDBRANCH  18  20
ENDBRANCH  15  18
ENDBRANCH  13  15
ENDBRANCH   9  10
ENDBRANCH   7   9
ENDBRANCH   6   7
ENDBRANCH   5   6
ENDBRANCH   4   5
ENDBRANCH   3   4
ENDBRANCH   2   3
ENDBRANCH   1   2
BRANCH   1  24
ATOM     24  O   UNL A   1      42.189  20.185  26.957  1.00  0.00    -0.377 OA
BRANCH  24  25
ATOM     25  C   UNL A   1      42.420  18.816  26.715  1.00  0.00     0.188 C 
BRANCH  25  26
ATOM     26  C   UNL A   1      43.610  18.513  25.775  1.00  0.00     0.188 C 
BRANCH  26  27
ATOM     27  O   UNL A   1      43.796  19.057  24.471  1.00  0.00    -0.376 OA
BRANCH  27  28
ATOM     28  C   UNL A   1      44.969  19.679  23.965  1.00  0.00     0.202 C 
BRANCH  28  29
ATOM     29  C   UNL A   1      45.434  21.098  24.286  1.00  0.00     0.261 C 
BRANCH  29  30
ATOM     30  O   UNL A   1      44.496  22.078  23.938  1.00  0.00    -0.460 OA
BRANCH  30  31
ATOM     31  C   UNL A   1      44.757  23.255  24.533  1.00  0.00     0.338 C 
ATOM     32  O   UNL A   1      45.677  24.018  24.285  1.00  0.00    -0.246 OA
BRANCH  31  33
ATOM     33  C   UNL A   1      43.778  23.458  25.607  1.00  0.00     0.060 A 
ATOM     34  C   UNL A   1      42.743  24.298  25.220  1.00  0.00     0.016 A 
ATOM     35  C   UNL A   1      44.220  23.341  26.936  1.00  0.00     0.016 A 
ATOM     36  C   UNL A   1      42.497  25.353  26.047  1.00  0.00     0.010 A 
ATOM     37  C   UNL A   1      43.969  24.397  27.766  1.00  0.00     0.010 A 
ATOM     38  C   UNL A   1      43.218  25.442  27.246  1.00  0.00    -0.014 A 
BRANCH  38  39
ATOM     39  C   UNL A   1      43.062  26.661  27.987  1.00  0.00     0.031 A 
ATOM     40  C   UNL A   1      44.223  27.538  27.800  1.00  0.00     0.074 A 
ATOM     41  C   UNL A   1      41.989  26.944  28.740  1.00  0.00     0.049 A 
ATOM     42  N   UNL A   1      45.193  27.725  28.627  1.00  0.00    -0.248 NA
ATOM     43  C   UNL A   1      44.475  28.023  26.436  1.00  0.00     0.031 C 
ATOM     44  C   UNL A   1      40.693  26.268  28.786  1.00  0.00     0.029 A 
ATOM     45  N   UNL A   1      41.822  28.003  29.568  1.00  0.00    -0.354 N 
ATOM     46  C   UNL A   1      46.063  28.573  27.965  1.00  0.00     0.074 A 
ATOM     47  C   UNL A   1      45.712  28.494  26.575  1.00  0.00     0.031 C 
ATOM     48  C   UNL A   1      39.805  27.077  29.410  1.00  0.00     0.029 A 
ATOM     49  C   UNL A   1      40.504  28.253  29.910  1.00  0.00     0.049 A 
ATOM     50  H   UNL A   1      42.573  28.547  29.897  1.00  0.00     0.167 HD
ATOM     51  C   UNL A   1      46.788  29.487  28.659  1.00  0.00     0.034 A 
ATOM     52  C   UNL A   1      40.036  29.404  30.458  1.00  0.00     0.034 A 
ATOM     53  C   UNL A   1      46.861  29.124  30.063  1.00  0.00     0.049 A 
ATOM     54  C   UNL A   1      41.195  30.081  31.104  1.00  0.00     0.074 A 
ATOM     55  C   UNL A   1      47.319  28.009  30.743  1.00  0.00     0.029 A 
ATOM     56  N   UNL A   1      46.050  29.793  30.958  1.00  0.00    -0.354 N 
ATOM     57  N   UNL A   1      41.829  29.589  32.136  1.00  0.00    -0.248 NA
ATOM     58  C   UNL A   1      41.964  31.039  30.318  1.00  0.00     0.031 C 
ATOM     59  C   UNL A   1      46.398  27.818  31.815  1.00  0.00     0.029 A 
ATOM     60  C   UNL A   1      45.468  28.859  31.782  1.00  0.00     0.049 A 
ATOM     61  H   UNL A   1      45.913  30.767  31.000  1.00  0.00     0.167 HD
ATOM     62  C   UNL A   1      43.174  29.827  31.888  1.00  0.00     0.074 A 
ATOM     63  C   UNL A   1      43.188  30.813  30.810  1.00  0.00     0.031 C 
ATOM     64  C   UNL A   1      44.146  28.996  32.373  1.00  0.00     0.034 A 
BRANCH  51  65
ATOM     65  C   UNL A   1      47.034  30.894  28.157  1.00  0.00     0.023 A 
ATOM     66  C   UNL A   1      45.887  31.668  27.920  1.00  0.00     0.031 A 
ATOM     67  C   UNL A   1      48.239  31.409  27.621  1.00  0.00     0.131 A 
ATOM     68  C   UNL A   1      45.931  32.771  27.055  1.00  0.00     0.055 A 
ATOM     69  C   UNL A   1      48.288  32.547  26.814  1.00  0.00     0.041 A 
ATOM     70  F   UNL A   1      49.429  30.821  27.771  1.00  0.00    -0.206 F 
ATOM     71  C   UNL A   1      47.122  33.210  26.488  1.00  0.00     0.022 A 
BRANCH  68  72
ATOM     72  S   UNL A   1      44.357  33.483  26.529  1.00  0.00     0.124 S 
ATOM     73  O   UNL A   1      43.620  33.511  27.787  1.00  0.00    -0.237 OA
ATOM     74  O   UNL A   1      44.780  34.775  25.999  1.00  0.00    -0.237 OA
ATOM     75  O   UNL A   1      43.872  32.527  25.536  1.00  0.00    -0.744 OA
ENDBRANCH  68  72
ENDBRANCH  51  65
BRANCH  52  76
ATOM     76  C   UNL A   1      38.756  30.081  30.109  1.00  0.00     0.023 A 
ATOM     77  C   UNL A   1      37.949  30.722  31.072  1.00  0.00     0.031 A 
ATOM     78  C   UNL A   1      38.414  30.298  28.753  1.00  0.00     0.131 A 
ATOM     79  C   UNL A   1      36.857  31.523  30.664  1.00  0.00     0.055 A 
ATOM     80  C   UNL A   1      37.327  31.078  28.358  1.00  0.00     0.041 A 
ATOM     81  F   UNL A   1      39.176  29.825  27.755  1.00  0.00    -0.206 F 
ATOM     82  C   UNL A   1      36.547  31.703  29.315  1.00  0.00     0.022 A 
BRANCH  79  83
ATOM     83  S   UNL A   1      35.869  32.429  31.897  1.00  0.00     0.124 S 
ATOM     84  O   UNL A   1      36.123  31.671  33.117  1.00  0.00    -0.237 OA
ATOM     85  O   UNL A   1      36.443  33.769  31.834  1.00  0.00    -0.237 OA
ATOM     86  O   UNL A   1      34.503  32.326  31.383  1.00  0.00    -0.744 OA
ENDBRANCH  79  83
ENDBRANCH  52  76
BRANCH  64  87
ATOM     87  C   UNL A   1      43.773  27.997  33.453  1.00  0.00     0.023 A 
ATOM     88  C   UNL A   1      43.860  26.593  33.321  1.00  0.00     0.031 A 
ATOM     89  C   UNL A   1      43.427  28.512  34.715  1.00  0.00     0.131 A 
ATOM     90  C   UNL A   1      43.593  25.764  34.430  1.00  0.00     0.055 A 
ATOM     91  C   UNL A   1      43.185  27.690  35.813  1.00  0.00     0.041 A 
ATOM     92  F   UNL A   1      43.355  29.840  34.913  1.00  0.00    -0.206 F 
ATOM     93  C   UNL A   1      43.262  26.310  35.674  1.00  0.00     0.022 A 
BRANCH  90  94
ATOM     94  S   UNL A   1      43.659  23.948  34.275  1.00  0.00     0.124 S 
ATOM     95  O   UNL A   1      43.802  23.733  32.839  1.00  0.00    -0.237 OA
ATOM     96  O   UNL A   1      44.820  23.605  35.092  1.00  0.00    -0.237 OA
ATOM     97  O   UNL A   1      42.376  23.514  34.830  1.00  0.00    -0.744 OA
ENDBRANCH  90  94
ENDBRANCH  64  87
ENDBRANCH  38  39
ENDBRANCH  31  33
ENDBRANCH  30  31
ENDBRANCH  29  30
ENDBRANCH  28  29
ENDBRANCH  27  28
ENDBRANCH  26  27
ENDBRANCH  25  26
ENDBRANCH  24  25
ENDBRANCH   1  24
TORSDOF 27
ENDMDL
MODEL 2
REMARK VINA RESULT:      -9.0      2.859      4.022
REMARK SMILES O=C(Cn1cc(S(=O)(=O)NC2COC2)cn1)OCCOCCOCCOCCOC(=O)c1ccc(-c2c3nc(c(-c4cc(S(=O)(=O)[O-])ccc4F)c4ccc([nH]4)c(-c4cc(S(=O)(=O)[O-])ccc4F)c4nc(c(-c5cc(S(=O)(=O)[O-])ccc5F)c5ccc2[nH]5)C=C4)C=C3)cc1
REMARK SMILES IDX 22 1 21 2 20 3 19 4 18 5 17 6 2 7 1 8 3 9 4 10 5 11 16 12
REMARK SMILES IDX 6 13 15 14 7 15 8 16 9 17 10 18 11 20 12 21 14 22 13 23
REMARK SMILES IDX 23 24 24 25 25 26 26 27 27 28 28 29 29 30 30 31 31 32 32 33
REMARK SMILES IDX 33 34 94 35 34 36 93 37 35 38 36 39 37 40 87 41 38 42 92 43
REMARK SMILES IDX 86 44 88 45 39 46 91 47 85 48 84 49 40 51 72 52 52 53 71 54
REMARK SMILES IDX 53 55 56 56 70 57 89 58 54 59 55 60 69 62 90 63 57 64 41 65
REMARK SMILES IDX 42 66 50 67 43 68 49 69 51 70 48 71 44 72 45 73 46 74 47 75
REMARK SMILES IDX 73 76 74 77 82 78 75 79 81 80 83 81 80 82 76 83 77 84 78 85
REMARK SMILES IDX 79 86 58 87 59 88 67 89 60 90 66 91 68 92 65 93 61 94 62 95
REMARK SMILES IDX 63 96 64 97
REMARK H PARENT 10 19 88 50 56 61
REMARK Flexibility Score: inf
ROOT
ATOM      1  C   UNL A   1      40.266  20.870  26.570  1.00  0.00     0.188 C 
ENDROOT
BRANCH   1   2
ATOM      2  C   UNL A   1      39.707  22.278  26.824  1.00  0.00     0.188 C 
BRANCH   2   3
ATOM      3  O   UNL A   1      38.739  22.729  25.906  1.00  0.00    -0.376 OA
BRANCH   3   4
ATOM      4  C   UNL A   1      37.795  23.746  26.155  1.00  0.00     0.202 C 
BRANCH   4   5
ATOM      5  C   UNL A   1      36.335  23.554  25.770  1.00  0.00     0.261 C 
BRANCH   5   6
ATOM      6  O   UNL A   1      35.769  22.228  25.869  1.00  0.00    -0.462 OA
BRANCH   6   7
ATOM      7  C   UNL A   1      34.490  21.833  25.681  1.00  0.00     0.327 C 
ATOM      8  O   UNL A   1      33.813  21.500  26.653  1.00  0.00    -0.250 OA
BRANCH   7   9
ATOM      9  C   UNL A   1      33.911  21.792  24.296  1.00  0.00     0.266 C 
BRANCH   9  10
ATOM     10  N   UNL A   1      33.559  23.121  23.864  1.00  0.00    -0.260 N 
ATOM     11  C   UNL A   1      32.804  24.002  24.578  1.00  0.00     0.131 A 
ATOM     12  N   UNL A   1      34.172  23.681  22.801  1.00  0.00    -0.180 NA
ATOM     13  C   UNL A   1      33.121  25.236  24.065  1.00  0.00     0.120 A 
ATOM     14  C   UNL A   1      33.907  24.988  22.935  1.00  0.00     0.156 A 
BRANCH  13  15
ATOM     15  S   UNL A   1      32.706  26.739  24.741  1.00  0.00     0.244 S 
ATOM     16  O   UNL A   1      32.080  26.407  26.012  1.00  0.00    -0.207 OA
ATOM     17  O   UNL A   1      33.890  27.537  24.634  1.00  0.00    -0.207 OA
BRANCH  15  18
ATOM     18  N   UNL A   1      31.534  27.437  23.744  1.00  0.00    -0.203 NA
ATOM     19  H   UNL A   1      31.506  26.857  22.906  1.00  0.00     0.141 HD
BRANCH  18  20
ATOM     20  C   UNL A   1      30.095  27.651  24.133  1.00  0.00     0.121 C 
ATOM     21  C   UNL A   1      29.145  28.230  23.070  1.00  0.00     0.182 C 
ATOM     22  C   UNL A   1      29.119  26.463  24.098  1.00  0.00     0.182 C 
ATOM     23  O   UNL A   1      28.125  27.258  23.403  1.00  0.00    -0.378 OA
ENDBRANCH  18  20
ENDBRANCH  15  18
ENDBRANCH  13  15
ENDBRANCH   9  10
ENDBRANCH   7   9
ENDBRANCH   6   7
ENDBRANCH   5   6
ENDBRANCH   4   5
ENDBRANCH   3   4
ENDBRANCH   2   3
ENDBRANCH   1   2
BRANCH   1  24
ATOM     24  O   UNL A   1      41.604  20.574  26.933  1.00  0.00    -0.377 OA
BRANCH  24  25
ATOM     25  C   UNL A   1      41.967  19.224  27.108  1.00  0.00     0.188 C 
BRANCH  25  26
ATOM     26  C   UNL A   1      43.195  18.768  26.285  1.00  0.00     0.188 C 
BRANCH  26  27
ATOM     27  O   UNL A   1      43.317  18.841  24.867  1.00  0.00    -0.376 OA
BRANCH  27  28
ATOM     28  C   UNL A   1      44.472  19.211  24.127  1.00  0.00     0.202 C 
BRANCH  28  29
ATOM     29  C   UNL A   1      45.106  20.600  24.102  1.00  0.00     0.261 C 
BRANCH  29  30
ATOM     30  O   UNL A   1      44.187  21.622  23.837  1.00  0.00    -0.460 OA
BRANCH  30  31
ATOM     31  C   UNL A   1      44.568  22.792  24.379  1.00  0.00     0.338 C 
ATOM     32  O   UNL A   1      45.498  23.499  24.026  1.00  0.00    -0.246 OA
BRANCH  31  33
ATOM     33  C   UNL A   1      43.713  23.064  25.541  1.00  0.00     0.060 A 
ATOM     34  C   UNL A   1      42.570  23.772  25.195  1.00  0.00     0.016 A 
ATOM     35  C   UNL A   1      44.322  23.153  26.804  1.00  0.00     0.016 A 
ATOM     36  C   UNL A   1      42.337  24.906  25.914  1.00  0.00     0.010 A 
ATOM     37  C   UNL A   1      44.084  24.287  27.527  1.00  0.00     0.010 A 
ATOM     38  C   UNL A   1      43.188  25.201  26.988  1.00  0.00    -0.014 A 
BRANCH  38  39
ATOM     39  C   UNL A   1      43.020  26.493  27.591  1.00  0.00     0.031 A 
ATOM     40  C   UNL A   1      44.116  27.391  27.214  1.00  0.00     0.074 A 
ATOM     41  C   UNL A   1      41.989  26.815  28.385  1.00  0.00     0.049 A 
ATOM     42  N   UNL A   1      45.130  27.720  27.938  1.00  0.00    -0.248 NA
ATOM     43  C   UNL A   1      44.245  27.720  25.788  1.00  0.00     0.031 C 
ATOM     44  C   UNL A   1      40.738  26.092  28.609  1.00  0.00     0.029 A 
ATOM     45  N   UNL A   1      41.823  27.958  29.094  1.00  0.00    -0.354 N 
ATOM     46  C   UNL A   1      45.905  28.520  27.117  1.00  0.00     0.074 A 
ATOM     47  C   UNL A   1      45.461  28.259  25.777  1.00  0.00     0.031 C 
ATOM     48  C   UNL A   1      39.854  26.930  29.201  1.00  0.00     0.029 A 
ATOM     49  C   UNL A   1      40.521  28.188  29.504  1.00  0.00     0.049 A 
ATOM     50  H   UNL A   1      42.565  28.572  29.299  1.00  0.00     0.167 HD
ATOM     51  C   UNL A   1      46.626  29.543  27.642  1.00  0.00     0.034 A 
ATOM     52  C   UNL A   1      40.031  29.375  29.947  1.00  0.00     0.034 A 
ATOM     53  C   UNL A   1      46.817  29.356  29.069  1.00  0.00     0.049 A 
ATOM     54  C   UNL A   1      41.196  30.176  30.420  1.00  0.00     0.074 A 
ATOM     55  C   UNL A   1      47.381  28.354  29.838  1.00  0.00     0.029 A 
ATOM     56  N   UNL A   1      46.036  30.091  29.939  1.00  0.00    -0.354 N 
ATOM     57  N   UNL A   1      41.926  29.841  31.450  1.00  0.00    -0.248 NA
ATOM     58  C   UNL A   1      41.855  31.066  29.471  1.00  0.00     0.031 C 
ATOM     59  C   UNL A   1      46.550  28.252  30.992  1.00  0.00     0.029 A 
ATOM     60  C   UNL A   1      45.565  29.238  30.908  1.00  0.00     0.049 A 
ATOM     61  H   UNL A   1      45.851  31.056  29.877  1.00  0.00     0.167 HD
ATOM     62  C   UNL A   1      43.236  30.108  31.074  1.00  0.00     0.074 A 
ATOM     63  C   UNL A   1      43.120  30.957  29.891  1.00  0.00     0.031 C 
ATOM     64  C   UNL A   1      44.283  29.387  31.578  1.00  0.00     0.034 A 
BRANCH  51  65
ATOM     65  C   UNL A   1      46.760  30.889  26.960  1.00  0.00     0.023 A 
ATOM     66  C   UNL A   1      48.072  31.360  26.789  1.00  0.00     0.031 A 
ATOM     67  C   UNL A   1      45.737  31.845  26.754  1.00  0.00     0.131 A 
ATOM     68  C   UNL A   1      48.326  32.727  26.608  1.00  0.00     0.055 A 
ATOM     69  C   UNL A   1      45.995  33.195  26.506  1.00  0.00     0.041 A 
ATOM     70  F   UNL A   1      44.433  31.569  26.846  1.00  0.00    -0.206 F 
ATOM     71  C   UNL A   1      47.297  33.653  26.478  1.00  0.00     0.022 A 
BRANCH  68  72
ATOM     72  S   UNL A   1      50.037  33.285  26.758  1.00  0.00     0.124 S 
ATOM     73  O   UNL A   1      49.874  34.733  26.685  1.00  0.00    -0.237 OA
ATOM     74  O   UNL A   1      50.412  32.741  28.059  1.00  0.00    -0.237 OA
ATOM     75  O   UNL A   1      50.693  32.667  25.608  1.00  0.00    -0.744 OA
ENDBRANCH  68  72
ENDBRANCH  51  65
BRANCH  52  76
ATOM     76  C   UNL A   1      38.696  29.946  29.621  1.00  0.00     0.023 A 
ATOM     77  C   UNL A   1      37.919  30.647  30.565  1.00  0.00     0.031 A 
ATOM     78  C   UNL A   1      38.255  29.997  28.277  1.00  0.00     0.131 A 
ATOM     79  C   UNL A   1      36.759  31.345  30.153  1.00  0.00     0.055 A 
ATOM     80  C   UNL A   1      37.103  30.676  27.879  1.00  0.00     0.041 A 
ATOM     81  F   UNL A   1      38.976  29.456  27.283  1.00  0.00    -0.206 F 
ATOM     82  C   UNL A   1      36.352  31.362  28.818  1.00  0.00     0.022 A 
BRANCH  79  83
ATOM     83  S   UNL A   1      35.804  32.331  31.351  1.00  0.00     0.124 S 
ATOM     84  O   UNL A   1      36.505  33.609  31.330  1.00  0.00    -0.237 OA
ATOM     85  O   UNL A   1      34.465  32.315  30.772  1.00  0.00    -0.237 OA
ATOM     86  O   UNL A   1      35.937  31.577  32.598  1.00  0.00    -0.744 OA
ENDBRANCH  79  83
ENDBRANCH  52  76
BRANCH  64  87
ATOM     87  C   UNL A   1      44.040  28.510  32.792  1.00  0.00     0.023 A 
ATOM     88  C   UNL A   1      44.008  28.968  34.129  1.00  0.00     0.031 A 
ATOM     89  C   UNL A   1      43.707  27.163  32.559  1.00  0.00     0.131 A 
ATOM     90  C   UNL A   1      43.662  28.083  35.170  1.00  0.00     0.055 A 
ATOM     91  C   UNL A   1      43.345  26.297  33.588  1.00  0.00     0.041 A 
ATOM     92  F   UNL A   1      43.691  26.673  31.308  1.00  0.00    -0.206 F 
ATOM     93  C   UNL A   1      43.326  26.752  34.900  1.00  0.00     0.022 A 
BRANCH  90  94
ATOM     94  S   UNL A   1      43.653  28.641  36.905  1.00  0.00     0.124 S 
ATOM     95  O   UNL A   1      43.684  27.396  37.665  1.00  0.00    -0.237 OA
ATOM     96  O   UNL A   1      44.857  29.464  36.977  1.00  0.00    -0.237 OA
ATOM     97  O   UNL A   1      42.400  29.389  37.015  1.00  0.00    -0.744 OA
ENDBRANCH  90  94
ENDBRANCH  64  87
ENDBRANCH  38  39
ENDBRANCH  31  33
ENDBRANCH  30  31
ENDBRANCH  29  30
ENDBRANCH  28  29
ENDBRANCH  27  28
ENDBRANCH  26  27
ENDBRANCH  25  26
ENDBRANCH  24  25
ENDBRANCH   1  24
TORSDOF 27
ENDMDL
MODEL 3
REMARK VINA RESULT:      -8.8      6.831     14.156
REMARK SMILES O=C(Cn1cc(S(=O)(=O)NC2COC2)cn1)OCCOCCOCCOCCOC(=O)c1ccc(-c2c3nc(c(-c4cc(S(=O)(=O)[O-])ccc4F)c4ccc([nH]4)c(-c4cc(S(=O)(=O)[O-])ccc4F)c4nc(c(-c5cc(S(=O)(=O)[O-])ccc5F)c5ccc2[nH]5)C=C4)C=C3)cc1
REMARK SMILES IDX 22 1 21 2 20 3 19 4 18 5 17 6 2 7 1 8 3 9 4 10 5 11 16 12
REMARK SMILES IDX 6 13 15 14 7 15 8 16 9 17 10 18 11 20 12 21 14 22 13 23
REMARK SMILES IDX 23 24 24 25 25 26 26 27 27 28 28 29 29 30 30 31 31 32 32 33
REMARK SMILES IDX 33 34 94 35 34 36 93 37 35 38 36 39 37 40 87 41 38 42 92 43
REMARK SMILES IDX 86 44 88 45 39 46 91 47 85 48 84 49 40 51 72 52 52 53 71 54
REMARK SMILES IDX 53 55 56 56 70 57 89 58 54 59 55 60 69 62 90 63 57 64 41 65
REMARK SMILES IDX 42 66 50 67 43 68 49 69 51 70 48 71 44 72 45 73 46 74 47 75
REMARK SMILES IDX 73 76 74 77 82 78 75 79 81 80 83 81 80 82 76 83 77 84 78 85
REMARK SMILES IDX 79 86 58 87 59 88 67 89 60 90 66 91 68 92 65 93 61 94 62 95
REMARK SMILES IDX 63 96 64 97
REMARK H PARENT 10 19 88 50 56 61
REMARK Flexibility Score: inf
ROOT
ATOM      1  C   UNL A   1      37.192  33.439  37.036  1.00  0.00     0.188 C 
ENDROOT
BRANCH   1   2
ATOM      2  C   UNL A   1      36.832  32.811  38.390  1.00  0.00     0.188 C 
BRANCH   2   3
ATOM      3  O   UNL A   1      37.910  32.283  39.128  1.00  0.00    -0.376 OA
BRANCH   3   4
ATOM      4  C   UNL A   1      37.817  31.740  40.425  1.00  0.00     0.202 C 
BRANCH   4   5
ATOM      5  C   UNL A   1      38.550  32.394  41.588  1.00  0.00     0.261 C 
BRANCH   5   6
ATOM      6  O   UNL A   1      37.944  32.340  42.899  1.00  0.00    -0.462 OA
BRANCH   6   7
ATOM      7  C   UNL A   1      38.032  33.228  43.914  1.00  0.00     0.327 C 
ATOM      8  O   UNL A   1      38.937  33.109  44.740  1.00  0.00    -0.250 OA
BRANCH   7   9
ATOM      9  C   UNL A   1      37.027  34.338  44.033  1.00  0.00     0.266 C 
BRANCH   9  10
ATOM     10  N   UNL A   1      35.701  33.837  43.777  1.00  0.00    -0.260 N 
ATOM     11  C   UNL A   1      34.798  33.484  44.735  1.00  0.00     0.131 A 
ATOM     12  N   UNL A   1      35.166  33.915  42.542  1.00  0.00    -0.180 NA
ATOM     13  C   UNL A   1      33.577  33.547  44.110  1.00  0.00     0.120 A 
ATOM     14  C   UNL A   1      33.854  33.744  42.754  1.00  0.00     0.156 A 
BRANCH  13  15
ATOM     15  S   UNL A   1      32.059  33.484  44.870  1.00  0.00     0.244 S 
ATOM     16  O   UNL A   1      32.051  32.206  45.565  1.00  0.00    -0.207 OA
ATOM     17  O   UNL A   1      31.923  34.742  45.538  1.00  0.00    -0.207 OA
BRANCH  15  18
ATOM     18  N   UNL A   1      30.885  33.428  43.655  1.00  0.00    -0.203 NA
ATOM     19  H   UNL A   1      30.118  32.879  44.040  1.00  0.00     0.141 HD
BRANCH  18  20
ATOM     20  C   UNL A   1      30.242  34.637  43.028  1.00  0.00     0.121 C 
ATOM     21  C   UNL A   1      28.752  34.887  43.320  1.00  0.00     0.182 C 
ATOM     22  C   UNL A   1      30.417  36.014  43.690  1.00  0.00     0.182 C 
ATOM     23  O   UNL A   1      29.000  36.292  43.561  1.00  0.00    -0.378 OA
ENDBRANCH  18  20
ENDBRANCH  15  18
ENDBRANCH  13  15
ENDBRANCH   9  10
ENDBRANCH   7   9
ENDBRANCH   6   7
ENDBRANCH   5   6
ENDBRANCH   4   5
ENDBRANCH   3   4
ENDBRANCH   2   3
ENDBRANCH   1   2
BRANCH   1  24
ATOM     24  O   UNL A   1      36.280  33.339  35.955  1.00  0.00    -0.377 OA
BRANCH  24  25
ATOM     25  C   UNL A   1      36.547  34.075  34.784  1.00  0.00     0.188 C 
BRANCH  25  26
ATOM     26  C   UNL A   1      35.292  34.526  33.999  1.00  0.00     0.188 C 
BRANCH  26  27
ATOM     27  O   UNL A   1      35.207  35.674  33.159  1.00  0.00    -0.376 OA
BRANCH  27  28
ATOM     28  C   UNL A   1      34.033  36.397  32.817  1.00  0.00     0.202 C 
BRANCH  28  29
ATOM     29  C   UNL A   1      33.118  36.101  31.631  1.00  0.00     0.261 C 
BRANCH  29  30
ATOM     30  O   UNL A   1      33.349  34.845  31.057  1.00  0.00    -0.460 OA
BRANCH  30  31
ATOM     31  C   UNL A   1      33.701  34.942  29.763  1.00  0.00     0.338 C 
ATOM     32  O   UNL A   1      33.556  35.908  29.031  1.00  0.00    -0.246 OA
BRANCH  31  33
ATOM     33  C   UNL A   1      34.239  33.646  29.331  1.00  0.00     0.060 A 
ATOM     34  C   UNL A   1      34.541  32.821  30.405  1.00  0.00     0.016 A 
ATOM     35  C   UNL A   1      34.912  33.587  28.099  1.00  0.00     0.016 A 
ATOM     36  C   UNL A   1      35.802  32.304  30.415  1.00  0.00     0.010 A 
ATOM     37  C   UNL A   1      36.174  33.064  28.109  1.00  0.00     0.010 A 
ATOM     38  C   UNL A   1      36.634  32.552  29.315  1.00  0.00    -0.014 A 
BRANCH  38  39
ATOM     39  C   UNL A   1      38.005  32.151  29.456  1.00  0.00     0.031 A 
ATOM     40  C   UNL A   1      38.165  30.726  29.153  1.00  0.00     0.074 A 
ATOM     41  C   UNL A   1      38.992  32.986  29.811  1.00  0.00     0.049 A 
ATOM     42  N   UNL A   1      38.301  29.765  30.001  1.00  0.00    -0.248 NA
ATOM     43  C   UNL A   1      37.846  30.297  27.785  1.00  0.00     0.031 C 
ATOM     44  C   UNL A   1      38.983  34.447  29.880  1.00  0.00     0.029 A 
ATOM     45  N   UNL A   1      40.278  32.665  30.092  1.00  0.00    -0.354 N 
ATOM     46  C   UNL A   1      38.341  28.616  29.231  1.00  0.00     0.074 A 
ATOM     47  C   UNL A   1      37.796  28.978  27.953  1.00  0.00     0.031 C 
ATOM     48  C   UNL A   1      40.263  34.884  29.944  1.00  0.00     0.029 A 
ATOM     49  C   UNL A   1      41.154  33.737  30.047  1.00  0.00     0.049 A 
ATOM     50  H   UNL A   1      40.565  31.749  30.309  1.00  0.00     0.167 HD
ATOM     51  C   UNL A   1      39.098  27.559  29.620  1.00  0.00     0.034 A 
ATOM     52  C   UNL A   1      42.507  33.648  29.983  1.00  0.00     0.034 A 
ATOM     53  C   UNL A   1      39.405  27.641  31.037  1.00  0.00     0.049 A 
ATOM     54  C   UNL A   1      42.880  32.304  30.507  1.00  0.00     0.074 A 
ATOM     55  C   UNL A   1      38.633  27.713  32.183  1.00  0.00     0.029 A 
ATOM     56  N   UNL A   1      40.663  28.070  31.413  1.00  0.00    -0.354 N 
ATOM     57  N   UNL A   1      42.695  31.943  31.749  1.00  0.00    -0.248 NA
ATOM     58  C   UNL A   1      42.993  31.199  29.563  1.00  0.00     0.031 C 
ATOM     59  C   UNL A   1      39.323  28.615  33.045  1.00  0.00     0.029 A 
ATOM     60  C   UNL A   1      40.511  28.996  32.417  1.00  0.00     0.049 A 
ATOM     61  H   UNL A   1      41.517  27.764  31.031  1.00  0.00     0.167 HD
ATOM     62  C   UNL A   1      42.243  30.631  31.686  1.00  0.00     0.074 A 
ATOM     63  C   UNL A   1      42.548  30.195  30.325  1.00  0.00     0.031 C 
ATOM     64  C   UNL A   1      41.409  30.118  32.640  1.00  0.00     0.034 A 
BRANCH  51  65
ATOM     65  C   UNL A   1      39.906  26.724  28.648  1.00  0.00     0.023 A 
ATOM     66  C   UNL A   1      41.002  27.368  28.053  1.00  0.00     0.031 A 
ATOM     67  C   UNL A   1      39.519  25.501  28.050  1.00  0.00     0.131 A 
ATOM     68  C   UNL A   1      41.540  26.903  26.845  1.00  0.00     0.055 A 
ATOM     69  C   UNL A   1      40.104  25.006  26.883  1.00  0.00     0.041 A 
ATOM     70  F   UNL A   1      38.517  24.740  28.498  1.00  0.00    -0.206 F 
ATOM     71  C   UNL A   1      41.090  25.731  26.246  1.00  0.00     0.022 A 
BRANCH  68  72
ATOM     72  S   UNL A   1      42.696  27.982  25.975  1.00  0.00     0.124 S 
ATOM     73  O   UNL A   1      42.337  29.287  26.520  1.00  0.00    -0.237 OA
ATOM     74  O   UNL A   1      43.983  27.438  26.396  1.00  0.00    -0.237 OA
ATOM     75  O   UNL A   1      42.358  27.773  24.569  1.00  0.00    -0.744 OA
ENDBRANCH  68  72
ENDBRANCH  51  65
BRANCH  52  76
ATOM     76  C   UNL A   1      43.401  34.504  29.155  1.00  0.00     0.023 A 
ATOM     77  C   UNL A   1      43.961  34.063  27.939  1.00  0.00     0.031 A 
ATOM     78  C   UNL A   1      43.541  35.881  29.452  1.00  0.00     0.131 A 
ATOM     79  C   UNL A   1      44.630  34.977  27.092  1.00  0.00     0.055 A 
ATOM     80  C   UNL A   1      44.214  36.775  28.619  1.00  0.00     0.041 A 
ATOM     81  F   UNL A   1      42.954  36.427  30.529  1.00  0.00    -0.206 F 
ATOM     82  C   UNL A   1      44.756  36.327  27.427  1.00  0.00     0.022 A 
BRANCH  79  83
ATOM     83  S   UNL A   1      45.273  34.435  25.476  1.00  0.00     0.124 S 
ATOM     84  O   UNL A   1      46.356  35.382  25.239  1.00  0.00    -0.237 OA
ATOM     85  O   UNL A   1      45.664  33.055  25.742  1.00  0.00    -0.237 OA
ATOM     86  O   UNL A   1      44.123  34.581  24.584  1.00  0.00    -0.744 OA
ENDBRANCH  79  83
ENDBRANCH  52  76
BRANCH  64  87
ATOM     87  C   UNL A   1      41.237  30.883  33.940  1.00  0.00     0.023 A 
ATOM     88  C   UNL A   1      42.088  30.773  35.062  1.00  0.00     0.031 A 
ATOM     89  C   UNL A   1      40.225  31.859  33.984  1.00  0.00     0.131 A 
ATOM     90  C   UNL A   1      41.899  31.617  36.176  1.00  0.00     0.055 A 
ATOM     91  C   UNL A   1      40.054  32.705  35.077  1.00  0.00     0.041 A 
ATOM     92  F   UNL A   1      39.400  32.033  32.937  1.00  0.00    -0.206 F 
ATOM     93  C   UNL A   1      40.888  32.584  36.182  1.00  0.00     0.022 A 
BRANCH  90  94
ATOM     94  S   UNL A   1      42.958  31.466  37.652  1.00  0.00     0.124 S 
ATOM     95  O   UNL A   1      43.499  30.116  37.549  1.00  0.00    -0.237 OA
ATOM     96  O   UNL A   1      43.913  32.555  37.466  1.00  0.00    -0.237 OA
ATOM     97  O   UNL A   1      42.023  31.664  38.762  1.00  0.00    -0.744 OA
ENDBRANCH  90  94
ENDBRANCH  64  87
ENDBRANCH  38  39
ENDBRANCH  31  33
ENDBRANCH  30  31
ENDBRANCH  29  30
ENDBRANCH  28  29
ENDBRANCH  27  28
ENDBRANCH  26  27
ENDBRANCH  25  26
ENDBRANCH  24  25
ENDBRANCH   1  24
TORSDOF 27
ENDMDL
