MODEL 1
REMARK VINA RESULT:      -9.8      0.000      0.000
REMARK SMILES C[C@@H](C(=O)OCCOCCOCCOCCOC(=O)c1ccc(-c2c3nc(c(-c4cc(S(=O)(=O)[O-])ccc4F)c4ccc([nH]4)c(-c4cc(S(=O)(=O)[O-])ccc4F)c4nc(c(-c5cc(S(=O)(=O)[O-])ccc5F)c5ccc2[nH]5)C=C4)C=C3)cc1)c1ccc(C[C@H]2CCC[C@@H]2O)cc1
REMARK SMILES IDX 10 1 9 2 8 3 7 4 6 5 5 6 3 7 4 8 2 9 1 10 83 11 84 12 95 13
REMARK SMILES IDX 85 14 94 15 86 16 87 17 88 18 89 19 92 20 90 21 91 22 93 23
REMARK SMILES IDX 11 25 12 26 13 27 14 28 15 29 16 30 17 31 18 32 19 33 20 34
REMARK SMILES IDX 21 35 82 36 22 37 81 38 23 39 24 40 25 41 75 42 26 43 80 44
REMARK SMILES IDX 74 45 76 46 27 47 79 48 73 49 72 50 28 52 60 53 40 54 59 55
REMARK SMILES IDX 41 56 44 57 58 58 77 59 42 60 43 61 57 63 78 64 45 65 29 66
REMARK SMILES IDX 30 67 38 68 31 69 37 70 39 71 36 72 32 73 33 74 34 75 35 76
REMARK SMILES IDX 61 77 62 78 70 79 63 80 69 81 71 82 68 83 64 84 65 85 66 86
REMARK SMILES IDX 67 87 46 88 47 89 55 90 48 91 54 92 56 93 53 94 49 95 50 96
REMARK SMILES IDX 51 97 52 98
REMARK H PARENT 93 24 76 51 44 62
REMARK Flexibility Score: inf
ROOT
ATOM      1  C   UNL A   1      33.157  24.644  21.945  1.00  0.00     0.188 C 
ENDROOT
BRANCH   1   2
ATOM      2  C   UNL A   1      32.403  25.975  21.808  1.00  0.00     0.188 C 
BRANCH   2   3
ATOM      3  O   UNL A   1      31.254  26.195  22.603  1.00  0.00    -0.376 OA
BRANCH   3   4
ATOM      4  C   UNL A   1      30.576  27.444  22.592  1.00  0.00     0.202 C 
BRANCH   4   5
ATOM      5  C   UNL A   1      31.248  28.835  22.581  1.00  0.00     0.261 C 
BRANCH   5   6
ATOM      6  O   UNL A   1      31.835  29.274  23.810  1.00  0.00    -0.463 OA
BRANCH   6   7
ATOM      7  C   UNL A   1      33.020  28.733  24.175  1.00  0.00     0.313 C 
ATOM      8  O   UNL A   1      33.999  28.652  23.438  1.00  0.00    -0.252 OA
BRANCH   7   9
ATOM      9  C   UNL A   1      33.054  28.322  25.655  1.00  0.00     0.126 C 
ATOM     10  C   UNL A   1      34.293  28.874  26.388  1.00  0.00     0.025 C 
BRANCH   9  11
ATOM     11  C   UNL A   1      32.738  26.836  25.889  1.00  0.00    -0.034 A 
ATOM     12  C   UNL A   1      33.733  25.847  25.908  1.00  0.00     0.005 A 
ATOM     13  C   UNL A   1      31.426  26.422  26.184  1.00  0.00     0.005 A 
ATOM     14  C   UNL A   1      33.424  24.506  26.190  1.00  0.00     0.004 A 
ATOM     15  C   UNL A   1      31.112  25.081  26.431  1.00  0.00     0.004 A 
ATOM     16  C   UNL A   1      32.107  24.102  26.437  1.00  0.00    -0.048 A 
BRANCH  16  17
ATOM     17  C   UNL A   1      31.757  22.669  26.766  1.00  0.00     0.041 C 
BRANCH  17  18
ATOM     18  C   UNL A   1      31.741  21.652  25.617  1.00  0.00     0.022 C 
ATOM     19  C   UNL A   1      31.581  22.220  24.199  1.00  0.00     0.007 C 
ATOM     20  C   UNL A   1      32.966  20.746  25.529  1.00  0.00     0.117 C 
ATOM     21  C   UNL A   1      32.405  21.303  23.287  1.00  0.00     0.003 C 
ATOM     22  C   UNL A   1      32.815  20.118  24.152  1.00  0.00     0.032 C 
BRANCH  20  23
ATOM     23  O   UNL A   1      32.951  19.777  26.561  1.00  0.00    -0.393 OA
ATOM     24  H   UNL A   1      33.651  19.977  27.202  1.00  0.00     0.210 HD
ENDBRANCH  20  23
ENDBRANCH  17  18
ENDBRANCH  16  17
ENDBRANCH   9  11
ENDBRANCH   7   9
ENDBRANCH   6   7
ENDBRANCH   5   6
ENDBRANCH   4   5
ENDBRANCH   3   4
ENDBRANCH   2   3
ENDBRANCH   1   2
BRANCH   1  25
ATOM     25  O   UNL A   1      34.321  24.688  22.748  1.00  0.00    -0.377 OA
BRANCH  25  26
ATOM     26  C   UNL A   1      34.991  23.469  23.045  1.00  0.00     0.188 C 
BRANCH  26  27
ATOM     27  C   UNL A   1      36.155  23.431  24.059  1.00  0.00     0.188 C 
BRANCH  27  28
ATOM     28  O   UNL A   1      36.081  22.385  25.019  1.00  0.00    -0.376 OA
BRANCH  28  29
ATOM     29  C   UNL A   1      36.441  21.072  24.614  1.00  0.00     0.202 C 
BRANCH  29  30
ATOM     30  C   UNL A   1      37.742  20.485  25.185  1.00  0.00     0.261 C 
BRANCH  30  31
ATOM     31  O   UNL A   1      38.844  21.394  25.332  1.00  0.00    -0.460 OA
BRANCH  31  32
ATOM     32  C   UNL A   1      39.757  21.128  26.290  1.00  0.00     0.338 C 
ATOM     33  O   UNL A   1      40.267  20.046  26.532  1.00  0.00    -0.246 OA
BRANCH  32  34
ATOM     34  C   UNL A   1      40.193  22.415  26.870  1.00  0.00     0.060 A 
ATOM     35  C   UNL A   1      39.605  23.601  26.410  1.00  0.00     0.016 A 
ATOM     36  C   UNL A   1      41.174  22.453  27.864  1.00  0.00     0.016 A 
ATOM     37  C   UNL A   1      40.028  24.833  26.913  1.00  0.00     0.010 A 
ATOM     38  C   UNL A   1      41.610  23.689  28.352  1.00  0.00     0.010 A 
ATOM     39  C   UNL A   1      41.065  24.886  27.853  1.00  0.00    -0.014 A 
BRANCH  39  40
ATOM     40  C   UNL A   1      41.721  26.185  28.152  1.00  0.00     0.031 A 
ATOM     41  C   UNL A   1      40.899  27.258  28.817  1.00  0.00     0.074 A 
ATOM     42  C   UNL A   1      43.017  26.403  27.871  1.00  0.00     0.049 A 
ATOM     43  N   UNL A   1      41.220  28.489  29.115  1.00  0.00    -0.248 NA
ATOM     44  C   UNL A   1      39.525  26.886  29.188  1.00  0.00     0.031 C 
ATOM     45  C   UNL A   1      43.930  25.425  27.283  1.00  0.00     0.029 A 
ATOM     46  N   UNL A   1      43.790  27.528  28.038  1.00  0.00    -0.354 N 
ATOM     47  C   UNL A   1      40.087  29.042  29.705  1.00  0.00     0.074 A 
ATOM     48  C   UNL A   1      39.060  28.023  29.679  1.00  0.00     0.031 C 
ATOM     49  C   UNL A   1      45.137  25.997  27.126  1.00  0.00     0.029 A 
ATOM     50  C   UNL A   1      45.072  27.393  27.558  1.00  0.00     0.049 A 
ATOM     51  H   UNL A   1      43.457  28.351  28.462  1.00  0.00     0.167 HD
ATOM     52  C   UNL A   1      39.923  30.281  30.231  1.00  0.00     0.034 A 
ATOM     53  C   UNL A   1      46.065  28.301  27.451  1.00  0.00     0.034 A 
ATOM     54  C   UNL A   1      40.952  31.291  30.232  1.00  0.00     0.049 A 
ATOM     55  C   UNL A   1      45.826  29.711  27.944  1.00  0.00     0.074 A 
ATOM     56  C   UNL A   1      40.893  32.579  30.737  1.00  0.00     0.029 A 
ATOM     57  N   UNL A   1      42.221  31.137  29.690  1.00  0.00    -0.354 N 
ATOM     58  N   UNL A   1      44.751  30.224  28.499  1.00  0.00    -0.248 NA
ATOM     59  C   UNL A   1      46.938  30.661  27.803  1.00  0.00     0.031 C 
ATOM     60  C   UNL A   1      42.093  33.226  30.425  1.00  0.00     0.029 A 
ATOM     61  C   UNL A   1      42.940  32.316  29.814  1.00  0.00     0.049 A 
ATOM     62  H   UNL A   1      42.561  30.309  29.277  1.00  0.00     0.167 HD
ATOM     63  C   UNL A   1      45.073  31.547  28.803  1.00  0.00     0.074 A 
ATOM     64  C   UNL A   1      46.445  31.745  28.384  1.00  0.00     0.031 C 
ATOM     65  C   UNL A   1      44.307  32.506  29.384  1.00  0.00     0.034 A 
BRANCH  52  66
ATOM     66  C   UNL A   1      38.561  30.621  30.791  1.00  0.00     0.023 A 
ATOM     67  C   UNL A   1      37.578  31.258  30.015  1.00  0.00     0.031 A 
ATOM     68  C   UNL A   1      38.255  30.335  32.134  1.00  0.00     0.131 A 
ATOM     69  C   UNL A   1      36.370  31.658  30.605  1.00  0.00     0.055 A 
ATOM     70  C   UNL A   1      37.016  30.655  32.691  1.00  0.00     0.041 A 
ATOM     71  F   UNL A   1      39.163  29.753  32.933  1.00  0.00    -0.206 F 
ATOM     72  C   UNL A   1      36.070  31.335  31.931  1.00  0.00     0.022 A 
BRANCH  69  73
ATOM     73  S   UNL A   1      35.264  32.746  29.663  1.00  0.00     0.124 S 
ATOM     74  O   UNL A   1      35.150  32.023  28.398  1.00  0.00    -0.237 OA
ATOM     75  O   UNL A   1      34.067  32.774  30.494  1.00  0.00    -0.237 OA
ATOM     76  O   UNL A   1      36.004  34.004  29.589  1.00  0.00    -0.744 OA
ENDBRANCH  69  73
ENDBRANCH  52  66
BRANCH  53  77
ATOM     77  C   UNL A   1      47.360  27.933  26.806  1.00  0.00     0.023 A 
ATOM     78  C   UNL A   1      47.495  27.890  25.408  1.00  0.00     0.031 A 
ATOM     79  C   UNL A   1      48.470  27.557  27.583  1.00  0.00     0.131 A 
ATOM     80  C   UNL A   1      48.692  27.434  24.834  1.00  0.00     0.055 A 
ATOM     81  C   UNL A   1      49.679  27.163  27.007  1.00  0.00     0.041 A 
ATOM     82  F   UNL A   1      48.396  27.570  28.925  1.00  0.00    -0.206 F 
ATOM     83  C   UNL A   1      49.791  27.087  25.624  1.00  0.00     0.022 A 
BRANCH  80  84
ATOM     84  S   UNL A   1      48.763  27.205  23.035  1.00  0.00     0.124 S 
ATOM     85  O   UNL A   1      47.932  28.306  22.564  1.00  0.00    -0.237 OA
ATOM     86  O   UNL A   1      50.193  27.321  22.771  1.00  0.00    -0.237 OA
ATOM     87  O   UNL A   1      48.201  25.869  22.840  1.00  0.00    -0.744 OA
ENDBRANCH  80  84
ENDBRANCH  53  77
BRANCH  65  88
ATOM     88  C   UNL A   1      44.956  33.846  29.651  1.00  0.00     0.023 A 
ATOM     89  C   UNL A   1      45.628  34.124  30.854  1.00  0.00     0.031 A 
ATOM     90  C   UNL A   1      44.897  34.862  28.680  1.00  0.00     0.131 A 
ATOM     91  C   UNL A   1      46.163  35.402  31.078  1.00  0.00     0.055 A 
ATOM     92  C   UNL A   1      45.491  36.109  28.879  1.00  0.00     0.041 A 
ATOM     93  F   UNL A   1      44.264  34.658  27.513  1.00  0.00    -0.206 F 
ATOM     94  C   UNL A   1      46.118  36.389  30.090  1.00  0.00     0.022 A 
BRANCH  91  95
ATOM     95  S   UNL A   1      46.828  35.794  32.720  1.00  0.00     0.124 S 
ATOM     96  O   UNL A   1      46.003  36.930  33.117  1.00  0.00    -0.237 OA
ATOM     97  O   UNL A   1      46.602  34.553  33.452  1.00  0.00    -0.237 OA
ATOM     98  O   UNL A   1      48.230  36.110  32.455  1.00  0.00    -0.744 OA
ENDBRANCH  91  95
ENDBRANCH  65  88
ENDBRANCH  39  40
ENDBRANCH  32  34
ENDBRANCH  31  32
ENDBRANCH  30  31
ENDBRANCH  29  30
ENDBRANCH  28  29
ENDBRANCH  27  28
ENDBRANCH  26  27
ENDBRANCH  25  26
ENDBRANCH   1  25
TORSDOF 27
ENDMDL
MODEL 2
REMARK VINA RESULT:      -9.5      4.540      9.876
REMARK SMILES C[C@@H](C(=O)OCCOCCOCCOCCOC(=O)c1ccc(-c2c3nc(c(-c4cc(S(=O)(=O)[O-])ccc4F)c4ccc([nH]4)c(-c4cc(S(=O)(=O)[O-])ccc4F)c4nc(c(-c5cc(S(=O)(=O)[O-])ccc5F)c5ccc2[nH]5)C=C4)C=C3)cc1)c1ccc(C[C@H]2CCC[C@@H]2O)cc1
REMARK SMILES IDX 10 1 9 2 8 3 7 4 6 5 5 6 3 7 4 8 2 9 1 10 83 11 84 12 95 13
REMARK SMILES IDX 85 14 94 15 86 16 87 17 88 18 89 19 92 20 90 21 91 22 93 23
REMARK SMILES IDX 11 25 12 26 13 27 14 28 15 29 16 30 17 31 18 32 19 33 20 34
REMARK SMILES IDX 21 35 82 36 22 37 81 38 23 39 24 40 25 41 75 42 26 43 80 44
REMARK SMILES IDX 74 45 76 46 27 47 79 48 73 49 72 50 28 52 60 53 40 54 59 55
REMARK SMILES IDX 41 56 44 57 58 58 77 59 42 60 43 61 57 63 78 64 45 65 29 66
REMARK SMILES IDX 30 67 38 68 31 69 37 70 39 71 36 72 32 73 33 74 34 75 35 76
REMARK SMILES IDX 61 77 62 78 70 79 63 80 69 81 71 82 68 83 64 84 65 85 66 86
REMARK SMILES IDX 67 87 46 88 47 89 55 90 48 91 54 92 56 93 53 94 49 95 50 96
REMARK SMILES IDX 51 97 52 98
REMARK H PARENT 93 24 76 51 44 62
REMARK Flexibility Score: inf
ROOT
ATOM      1  C   UNL A   1      34.131  23.745  26.386  1.00  0.00     0.188 C 
ENDROOT
BRANCH   1   2
ATOM      2  C   UNL A   1      33.665  22.358  25.923  1.00  0.00     0.188 C 
BRANCH   2   3
ATOM      3  O   UNL A   1      34.160  21.842  24.703  1.00  0.00    -0.376 OA
BRANCH   3   4
ATOM      4  C   UNL A   1      35.247  22.459  24.026  1.00  0.00     0.202 C 
BRANCH   4   5
ATOM      5  C   UNL A   1      35.140  23.636  23.032  1.00  0.00     0.261 C 
BRANCH   5   6
ATOM      6  O   UNL A   1      34.033  23.612  22.126  1.00  0.00    -0.463 OA
BRANCH   6   7
ATOM      7  C   UNL A   1      33.189  24.669  22.128  1.00  0.00     0.313 C 
ATOM      8  O   UNL A   1      33.272  25.620  21.356  1.00  0.00    -0.252 OA
BRANCH   7   9
ATOM      9  C   UNL A   1      32.039  24.509  23.134  1.00  0.00     0.126 C 
ATOM     10  C   UNL A   1      31.429  23.093  23.105  1.00  0.00     0.025 C 
BRANCH   9  11
ATOM     11  C   UNL A   1      31.038  25.675  23.118  1.00  0.00    -0.034 A 
ATOM     12  C   UNL A   1      29.733  25.557  23.617  1.00  0.00     0.005 A 
ATOM     13  C   UNL A   1      31.434  26.950  22.672  1.00  0.00     0.005 A 
ATOM     14  C   UNL A   1      28.861  26.657  23.650  1.00  0.00     0.004 A 
ATOM     15  C   UNL A   1      30.555  28.039  22.672  1.00  0.00     0.004 A 
ATOM     16  C   UNL A   1      29.253  27.908  23.161  1.00  0.00    -0.048 A 
BRANCH  16  17
ATOM     17  C   UNL A   1      28.340  29.111  23.210  1.00  0.00     0.041 C 
BRANCH  17  18
ATOM     18  C   UNL A   1      28.779  30.376  22.457  1.00  0.00     0.022 C 
ATOM     19  C   UNL A   1      28.089  30.649  21.113  1.00  0.00     0.007 C 
ATOM     20  C   UNL A   1      28.633  31.682  23.233  1.00  0.00     0.117 C 
ATOM     21  C   UNL A   1      27.986  32.175  21.000  1.00  0.00     0.003 C 
ATOM     22  C   UNL A   1      28.815  32.732  22.150  1.00  0.00     0.032 C 
BRANCH  20  23
ATOM     23  O   UNL A   1      29.621  31.780  24.243  1.00  0.00    -0.393 OA
ATOM     24  H   UNL A   1      30.314  32.395  23.957  1.00  0.00     0.210 HD
ENDBRANCH  20  23
ENDBRANCH  17  18
ENDBRANCH  16  17
ENDBRANCH   9  11
ENDBRANCH   7   9
ENDBRANCH   6   7
ENDBRANCH   5   6
ENDBRANCH   4   5
ENDBRANCH   3   4
ENDBRANCH   2   3
ENDBRANCH   1   2
BRANCH   1  25
ATOM     25  O   UNL A   1      33.312  24.825  25.981  1.00  0.00    -0.377 OA
BRANCH  25  26
ATOM     26  C   UNL A   1      32.092  25.055  26.676  1.00  0.00     0.188 C 
BRANCH  26  27
ATOM     27  C   UNL A   1      31.419  26.444  26.658  1.00  0.00     0.188 C 
BRANCH  27  28
ATOM     28  O   UNL A   1      32.316  27.546  26.629  1.00  0.00    -0.376 OA
BRANCH  28  29
ATOM     29  C   UNL A   1      31.838  28.816  27.045  1.00  0.00     0.202 C 
BRANCH  29  30
ATOM     30  C   UNL A   1      32.093  30.011  26.111  1.00  0.00     0.261 C 
BRANCH  30  31
ATOM     31  O   UNL A   1      33.383  30.634  26.207  1.00  0.00    -0.460 OA
BRANCH  31  32
ATOM     32  C   UNL A   1      33.600  31.480  27.236  1.00  0.00     0.338 C 
ATOM     33  O   UNL A   1      32.811  32.291  27.693  1.00  0.00    -0.246 OA
BRANCH  32  34
ATOM     34  C   UNL A   1      34.892  31.119  27.855  1.00  0.00     0.060 A 
ATOM     35  C   UNL A   1      35.044  29.844  28.417  1.00  0.00     0.016 A 
ATOM     36  C   UNL A   1      35.950  32.032  27.881  1.00  0.00     0.016 A 
ATOM     37  C   UNL A   1      36.241  29.493  29.043  1.00  0.00     0.010 A 
ATOM     38  C   UNL A   1      37.141  31.685  28.526  1.00  0.00     0.010 A 
ATOM     39  C   UNL A   1      37.279  30.428  29.142  1.00  0.00    -0.014 A 
BRANCH  39  40
ATOM     40  C   UNL A   1      38.415  30.172  30.065  1.00  0.00     0.031 A 
ATOM     41  C   UNL A   1      39.470  29.187  29.634  1.00  0.00     0.074 A 
ATOM     42  C   UNL A   1      38.528  30.812  31.241  1.00  0.00     0.049 A 
ATOM     43  N   UNL A   1      40.513  28.745  30.286  1.00  0.00    -0.248 NA
ATOM     44  C   UNL A   1      39.319  28.625  28.283  1.00  0.00     0.031 C 
ATOM     45  C   UNL A   1      37.603  31.827  31.743  1.00  0.00     0.029 A 
ATOM     46  N   UNL A   1      39.470  30.695  32.235  1.00  0.00    -0.354 N 
ATOM     47  C   UNL A   1      41.141  27.848  29.427  1.00  0.00     0.074 A 
ATOM     48  C   UNL A   1      40.335  27.778  28.228  1.00  0.00     0.031 C 
ATOM     49  C   UNL A   1      38.018  32.231  32.957  1.00  0.00     0.029 A 
ATOM     50  C   UNL A   1      39.209  31.472  33.339  1.00  0.00     0.049 A 
ATOM     51  H   UNL A   1      40.258  30.110  32.162  1.00  0.00     0.167 HD
ATOM     52  C   UNL A   1      42.292  27.155  29.618  1.00  0.00     0.034 A 
ATOM     53  C   UNL A   1      39.839  31.538  34.531  1.00  0.00     0.034 A 
ATOM     54  C   UNL A   1      43.074  27.222  30.827  1.00  0.00     0.049 A 
ATOM     55  C   UNL A   1      41.059  30.675  34.764  1.00  0.00     0.074 A 
ATOM     56  C   UNL A   1      44.255  26.563  31.126  1.00  0.00     0.029 A 
ATOM     57  N   UNL A   1      42.750  27.980  31.945  1.00  0.00    -0.354 N 
ATOM     58  N   UNL A   1      41.644  29.829  33.947  1.00  0.00    -0.248 NA
ATOM     59  C   UNL A   1      41.707  30.783  36.078  1.00  0.00     0.031 C 
ATOM     60  C   UNL A   1      44.596  26.856  32.450  1.00  0.00     0.029 A 
ATOM     61  C   UNL A   1      43.686  27.776  32.947  1.00  0.00     0.049 A 
ATOM     62  H   UNL A   1      41.970  28.576  32.015  1.00  0.00     0.167 HD
ATOM     63  C   UNL A   1      42.749  29.332  34.638  1.00  0.00     0.074 A 
ATOM     64  C   UNL A   1      42.754  29.984  35.931  1.00  0.00     0.031 C 
ATOM     65  C   UNL A   1      43.678  28.426  34.238  1.00  0.00     0.034 A 
BRANCH  52  66
ATOM     66  C   UNL A   1      42.731  26.225  28.510  1.00  0.00     0.023 A 
ATOM     67  C   UNL A   1      42.075  25.006  28.262  1.00  0.00     0.031 A 
ATOM     68  C   UNL A   1      43.845  26.545  27.714  1.00  0.00     0.131 A 
ATOM     69  C   UNL A   1      42.585  24.120  27.301  1.00  0.00     0.055 A 
ATOM     70  C   UNL A   1      44.293  25.699  26.698  1.00  0.00     0.041 A 
ATOM     71  F   UNL A   1      44.530  27.681  27.921  1.00  0.00    -0.206 F 
ATOM     72  C   UNL A   1      43.672  24.471  26.497  1.00  0.00     0.022 A 
BRANCH  69  73
ATOM     73  S   UNL A   1      41.906  22.439  27.228  1.00  0.00     0.124 S 
ATOM     74  O   UNL A   1      42.117  22.098  25.823  1.00  0.00    -0.237 OA
ATOM     75  O   UNL A   1      42.733  21.722  28.191  1.00  0.00    -0.237 OA
ATOM     76  O   UNL A   1      40.508  22.618  27.615  1.00  0.00    -0.744 OA
ENDBRANCH  69  73
ENDBRANCH  52  66
BRANCH  53  77
ATOM     77  C   UNL A   1      39.307  32.409  35.621  1.00  0.00     0.023 A 
ATOM     78  C   UNL A   1      39.740  33.737  35.774  1.00  0.00     0.031 A 
ATOM     79  C   UNL A   1      38.400  31.902  36.568  1.00  0.00     0.131 A 
ATOM     80  C   UNL A   1      39.304  34.494  36.873  1.00  0.00     0.055 A 
ATOM     81  C   UNL A   1      37.921  32.679  37.625  1.00  0.00     0.041 A 
ATOM     82  F   UNL A   1      37.958  30.637  36.478  1.00  0.00    -0.206 F 
ATOM     83  C   UNL A   1      38.384  33.979  37.789  1.00  0.00     0.022 A 
BRANCH  80  84
ATOM     84  S   UNL A   1      40.034  36.132  37.146  1.00  0.00     0.124 S 
ATOM     85  O   UNL A   1      39.911  36.734  35.824  1.00  0.00    -0.237 OA
ATOM     86  O   UNL A   1      39.168  36.680  38.185  1.00  0.00    -0.237 OA
ATOM     87  O   UNL A   1      41.399  35.830  37.571  1.00  0.00    -0.744 OA
ENDBRANCH  80  84
ENDBRANCH  53  77
BRANCH  65  88
ATOM     88  C   UNL A   1      44.813  28.127  35.191  1.00  0.00     0.023 A 
ATOM     89  C   UNL A   1      44.753  27.071  36.117  1.00  0.00     0.031 A 
ATOM     90  C   UNL A   1      45.977  28.916  35.170  1.00  0.00     0.131 A 
ATOM     91  C   UNL A   1      45.808  26.871  37.021  1.00  0.00     0.055 A 
ATOM     92  C   UNL A   1      47.053  28.669  36.023  1.00  0.00     0.041 A 
ATOM     93  F   UNL A   1      46.092  29.942  34.311  1.00  0.00    -0.206 F 
ATOM     94  C   UNL A   1      46.967  27.649  36.965  1.00  0.00     0.022 A 
BRANCH  91  95
ATOM     95  S   UNL A   1      45.603  25.644  38.342  1.00  0.00     0.124 S 
ATOM     96  O   UNL A   1      45.917  24.399  37.650  1.00  0.00    -0.237 OA
ATOM     97  O   UNL A   1      46.578  26.087  39.333  1.00  0.00    -0.237 OA
ATOM     98  O   UNL A   1      44.205  25.798  38.739  1.00  0.00    -0.744 OA
ENDBRANCH  91  95
ENDBRANCH  65  88
ENDBRANCH  39  40
ENDBRANCH  32  34
ENDBRANCH  31  32
ENDBRANCH  30  31
ENDBRANCH  29  30
ENDBRANCH  28  29
ENDBRANCH  27  28
ENDBRANCH  26  27
ENDBRANCH  25  26
ENDBRANCH   1  25
TORSDOF 27
ENDMDL
MODEL 3
REMARK VINA RESULT:      -9.5      4.201      7.282
REMARK SMILES C[C@@H](C(=O)OCCOCCOCCOCCOC(=O)c1ccc(-c2c3nc(c(-c4cc(S(=O)(=O)[O-])ccc4F)c4ccc([nH]4)c(-c4cc(S(=O)(=O)[O-])ccc4F)c4nc(c(-c5cc(S(=O)(=O)[O-])ccc5F)c5ccc2[nH]5)C=C4)C=C3)cc1)c1ccc(C[C@H]2CCC[C@@H]2O)cc1
REMARK SMILES IDX 10 1 9 2 8 3 7 4 6 5 5 6 3 7 4 8 2 9 1 10 83 11 84 12 95 13
REMARK SMILES IDX 85 14 94 15 86 16 87 17 88 18 89 19 92 20 90 21 91 22 93 23
REMARK SMILES IDX 11 25 12 26 13 27 14 28 15 29 16 30 17 31 18 32 19 33 20 34
REMARK SMILES IDX 21 35 82 36 22 37 81 38 23 39 24 40 25 41 75 42 26 43 80 44
REMARK SMILES IDX 74 45 76 46 27 47 79 48 73 49 72 50 28 52 60 53 40 54 59 55
REMARK SMILES IDX 41 56 44 57 58 58 77 59 42 60 43 61 57 63 78 64 45 65 29 66
REMARK SMILES IDX 30 67 38 68 31 69 37 70 39 71 36 72 32 73 33 74 34 75 35 76
REMARK SMILES IDX 61 77 62 78 70 79 63 80 69 81 71 82 68 83 64 84 65 85 66 86
REMARK SMILES IDX 67 87 46 88 47 89 55 90 48 91 54 92 56 93 53 94 49 95 50 96
REMARK SMILES IDX 51 97 52 98
REMARK H PARENT 93 24 76 51 44 62
REMARK Flexibility Score: inf
ROOT
ATOM      1  C   UNL A   1      34.191  23.809  26.558  1.00  0.00     0.188 C 
ENDROOT
BRANCH   1   2
ATOM      2  C   UNL A   1      33.645  22.437  26.141  1.00  0.00     0.188 C 
BRANCH   2   3
ATOM      3  O   UNL A   1      33.905  21.966  24.833  1.00  0.00    -0.376 OA
BRANCH   3   4
ATOM      4  C   UNL A   1      34.958  22.508  24.047  1.00  0.00     0.202 C 
BRANCH   4   5
ATOM      5  C   UNL A   1      34.852  23.744  23.127  1.00  0.00     0.261 C 
BRANCH   5   6
ATOM      6  O   UNL A   1      33.971  23.636  22.005  1.00  0.00    -0.463 OA
BRANCH   6   7
ATOM      7  C   UNL A   1      32.987  24.556  21.880  1.00  0.00     0.313 C 
ATOM      8  O   UNL A   1      32.866  25.311  20.920  1.00  0.00    -0.252 OA
BRANCH   7   9
ATOM      9  C   UNL A   1      31.962  24.488  23.023  1.00  0.00     0.126 C 
ATOM     10  C   UNL A   1      31.332  23.087  23.162  1.00  0.00     0.025 C 
BRANCH   9  11
ATOM     11  C   UNL A   1      30.984  25.673  23.045  1.00  0.00    -0.034 A 
ATOM     12  C   UNL A   1      29.683  25.568  23.560  1.00  0.00     0.005 A 
ATOM     13  C   UNL A   1      31.398  26.949  22.620  1.00  0.00     0.005 A 
ATOM     14  C   UNL A   1      28.834  26.684  23.628  1.00  0.00     0.004 A 
ATOM     15  C   UNL A   1      30.540  28.055  22.656  1.00  0.00     0.004 A 
ATOM     16  C   UNL A   1      29.243  27.937  23.160  1.00  0.00    -0.048 A 
BRANCH  16  17
ATOM     17  C   UNL A   1      28.353  29.156  23.247  1.00  0.00     0.041 C 
BRANCH  17  18
ATOM     18  C   UNL A   1      28.802  30.425  22.508  1.00  0.00     0.022 C 
ATOM     19  C   UNL A   1      28.135  30.703  21.153  1.00  0.00     0.007 C 
ATOM     20  C   UNL A   1      28.639  31.728  23.287  1.00  0.00     0.117 C 
ATOM     21  C   UNL A   1      28.029  32.229  21.045  1.00  0.00     0.003 C 
ATOM     22  C   UNL A   1      28.837  32.783  22.211  1.00  0.00     0.032 C 
BRANCH  20  23
ATOM     23  O   UNL A   1      29.609  31.824  24.314  1.00  0.00    -0.393 OA
ATOM     24  H   UNL A   1      30.345  31.224  24.120  1.00  0.00     0.210 HD
ENDBRANCH  20  23
ENDBRANCH  17  18
ENDBRANCH  16  17
ENDBRANCH   9  11
ENDBRANCH   7   9
ENDBRANCH   6   7
ENDBRANCH   5   6
ENDBRANCH   4   5
ENDBRANCH   3   4
ENDBRANCH   2   3
ENDBRANCH   1   2
BRANCH   1  25
ATOM     25  O   UNL A   1      33.489  24.923  26.041  1.00  0.00    -0.377 OA
BRANCH  25  26
ATOM     26  C   UNL A   1      32.174  25.183  26.518  1.00  0.00     0.188 C 
BRANCH  26  27
ATOM     27  C   UNL A   1      31.559  26.595  26.419  1.00  0.00     0.188 C 
BRANCH  27  28
ATOM     28  O   UNL A   1      32.466  27.663  26.660  1.00  0.00    -0.376 OA
BRANCH  28  29
ATOM     29  C   UNL A   1      32.007  28.782  27.404  1.00  0.00     0.202 C 
BRANCH  29  30
ATOM     30  C   UNL A   1      32.244  30.178  26.806  1.00  0.00     0.261 C 
BRANCH  30  31
ATOM     31  O   UNL A   1      33.612  30.589  26.662  1.00  0.00    -0.460 OA
BRANCH  31  32
ATOM     32  C   UNL A   1      34.072  31.549  27.491  1.00  0.00     0.338 C 
ATOM     33  O   UNL A   1      33.467  32.541  27.867  1.00  0.00    -0.246 OA
BRANCH  32  34
ATOM     34  C   UNL A   1      35.369  31.095  28.035  1.00  0.00     0.060 A 
ATOM     35  C   UNL A   1      35.537  29.739  28.346  1.00  0.00     0.016 A 
ATOM     36  C   UNL A   1      36.413  32.001  28.237  1.00  0.00     0.016 A 
ATOM     37  C   UNL A   1      36.739  29.292  28.898  1.00  0.00     0.010 A 
ATOM     38  C   UNL A   1      37.609  31.554  28.810  1.00  0.00     0.010 A 
ATOM     39  C   UNL A   1      37.764  30.206  29.176  1.00  0.00    -0.014 A 
BRANCH  39  40
ATOM     40  C   UNL A   1      38.902  29.794  30.038  1.00  0.00     0.031 A 
ATOM     41  C   UNL A   1      38.998  30.390  31.418  1.00  0.00     0.074 A 
ATOM     42  C   UNL A   1      39.813  28.896  29.625  1.00  0.00     0.049 A 
ATOM     43  N   UNL A   1      39.927  30.245  32.326  1.00  0.00    -0.248 NA
ATOM     44  C   UNL A   1      37.893  31.275  31.821  1.00  0.00     0.031 C 
ATOM     45  C   UNL A   1      39.795  28.207  28.336  1.00  0.00     0.029 A 
ATOM     46  N   UNL A   1      40.938  28.415  30.250  1.00  0.00    -0.354 N 
ATOM     47  C   UNL A   1      39.522  31.023  33.407  1.00  0.00     0.074 A 
ATOM     48  C   UNL A   1      38.288  31.672  33.019  1.00  0.00     0.031 C 
ATOM     49  C   UNL A   1      40.869  27.400  28.261  1.00  0.00     0.029 A 
ATOM     50  C   UNL A   1      41.673  27.549  29.473  1.00  0.00     0.049 A 
ATOM     51  H   UNL A   1      41.194  28.665  31.166  1.00  0.00     0.167 HD
ATOM     52  C   UNL A   1      40.120  31.173  34.615  1.00  0.00     0.034 A 
ATOM     53  C   UNL A   1      42.872  26.971  29.702  1.00  0.00     0.034 A 
ATOM     54  C   UNL A   1      41.360  30.534  34.978  1.00  0.00     0.049 A 
ATOM     55  C   UNL A   1      43.576  27.238  31.014  1.00  0.00     0.074 A 
ATOM     56  C   UNL A   1      42.053  30.617  36.174  1.00  0.00     0.029 A 
ATOM     57  N   UNL A   1      42.103  29.706  34.147  1.00  0.00    -0.354 N 
ATOM     58  N   UNL A   1      43.186  27.977  32.029  1.00  0.00    -0.248 NA
ATOM     59  C   UNL A   1      44.877  26.587  31.213  1.00  0.00     0.031 C 
ATOM     60  C   UNL A   1      43.252  29.911  36.034  1.00  0.00     0.029 A 
ATOM     61  C   UNL A   1      43.264  29.303  34.789  1.00  0.00     0.049 A 
ATOM     62  H   UNL A   1      41.842  29.443  33.234  1.00  0.00     0.167 HD
ATOM     63  C   UNL A   1      44.180  27.848  32.998  1.00  0.00     0.074 A 
ATOM     64  C   UNL A   1      45.176  26.951  32.452  1.00  0.00     0.031 C 
ATOM     65  C   UNL A   1      44.257  28.413  34.231  1.00  0.00     0.034 A 
BRANCH  52  66
ATOM     66  C   UNL A   1      39.461  32.111  35.601  1.00  0.00     0.023 A 
ATOM     67  C   UNL A   1      39.817  33.469  35.684  1.00  0.00     0.031 A 
ATOM     68  C   UNL A   1      38.489  31.631  36.497  1.00  0.00     0.131 A 
ATOM     69  C   UNL A   1      39.265  34.277  36.689  1.00  0.00     0.055 A 
ATOM     70  C   UNL A   1      37.877  32.463  37.435  1.00  0.00     0.041 A 
ATOM     71  F   UNL A   1      38.128  30.338  36.485  1.00  0.00    -0.206 F 
ATOM     72  C   UNL A   1      38.276  33.791  37.547  1.00  0.00     0.022 A 
BRANCH  69  73
ATOM     73  S   UNL A   1      39.974  35.925  36.961  1.00  0.00     0.124 S 
ATOM     74  O   UNL A   1      39.165  36.412  38.076  1.00  0.00    -0.237 OA
ATOM     75  O   UNL A   1      41.367  35.622  37.266  1.00  0.00    -0.237 OA
ATOM     76  O   UNL A   1      39.746  36.609  35.690  1.00  0.00    -0.744 OA
ENDBRANCH  69  73
ENDBRANCH  52  66
BRANCH  53  77
ATOM     77  C   UNL A   1      43.517  26.125  28.654  1.00  0.00     0.023 A 
ATOM     78  C   UNL A   1      44.430  26.669  27.735  1.00  0.00     0.031 A 
ATOM     79  C   UNL A   1      43.178  24.767  28.518  1.00  0.00     0.131 A 
ATOM     80  C   UNL A   1      44.934  25.872  26.695  1.00  0.00     0.055 A 
ATOM     81  C   UNL A   1      43.730  23.963  27.519  1.00  0.00     0.041 A 
ATOM     82  F   UNL A   1      42.304  24.196  29.362  1.00  0.00    -0.206 F 
ATOM     83  C   UNL A   1      44.603  24.519  26.591  1.00  0.00     0.022 A 
BRANCH  80  84
ATOM     84  S   UNL A   1      45.954  26.656  25.415  1.00  0.00     0.124 S 
ATOM     85  O   UNL A   1      47.069  27.170  26.200  1.00  0.00    -0.237 OA
ATOM     86  O   UNL A   1      46.252  25.531  24.534  1.00  0.00    -0.237 OA
ATOM     87  O   UNL A   1      45.068  27.671  24.848  1.00  0.00    -0.744 OA
ENDBRANCH  80  84
ENDBRANCH  53  77
BRANCH  65  88
ATOM     88  C   UNL A   1      45.437  28.033  35.097  1.00  0.00     0.023 A 
ATOM     89  C   UNL A   1      46.644  28.753  35.073  1.00  0.00     0.031 A 
ATOM     90  C   UNL A   1      45.347  26.928  35.963  1.00  0.00     0.131 A 
ATOM     91  C   UNL A   1      47.730  28.325  35.852  1.00  0.00     0.055 A 
ATOM     92  C   UNL A   1      46.406  26.549  36.788  1.00  0.00     0.041 A 
ATOM     93  F   UNL A   1      44.222  26.198  36.028  1.00  0.00    -0.206 F 
ATOM     94  C   UNL A   1      47.612  27.241  36.726  1.00  0.00     0.022 A 
BRANCH  91  95
ATOM     95  S   UNL A   1      49.336  29.140  35.633  1.00  0.00     0.124 S 
ATOM     96  O   UNL A   1      49.667  29.529  36.999  1.00  0.00    -0.237 OA
ATOM     97  O   UNL A   1      50.151  28.076  35.057  1.00  0.00    -0.237 OA
ATOM     98  O   UNL A   1      49.036  30.249  34.728  1.00  0.00    -0.744 OA
ENDBRANCH  91  95
ENDBRANCH  65  88
ENDBRANCH  39  40
ENDBRANCH  32  34
ENDBRANCH  31  32
ENDBRANCH  30  31
ENDBRANCH  29  30
ENDBRANCH  28  29
ENDBRANCH  27  28
ENDBRANCH  26  27
ENDBRANCH  25  26
ENDBRANCH   1  25
TORSDOF 27
ENDMDL
