MODEL 1
REMARK VINA RESULT:      -8.7      0.000      0.000
REMARK SMILES Cc1ccc(NC(=O)c2cnn3c2NC2=C(C(=O)CCC2)[C@H]3c2ccc(C(=O)OCCOCCOCCOCCOC(=O)c3ccc(-c4c5nc(c(-c6cc(S(=O)(=O)[O-])ccc6F)c6ccc([nH]6)c(-c6cc(S(=O)(=O)[O-])ccc6F)c6nc(c(-c7cc(S(=O)(=O)[O-])ccc7F)c7ccc4[nH]7)C=C6)C=C5)cc3)cc2)cc1
REMARK SMILES IDX 35 1 34 2 33 3 32 4 31 5 30 6 29 7 27 8 28 9 26 10 23 11
REMARK SMILES IDX 24 12 108 13 25 14 107 15 22 16 9 17 10 18 13 19 11 20 12 21
REMARK SMILES IDX 14 22 15 23 16 25 21 26 17 27 20 28 18 29 19 30 7 31 6 32
REMARK SMILES IDX 8 34 5 35 1 36 2 37 3 38 110 39 4 40 109 41 36 42 37 43
REMARK SMILES IDX 38 44 39 45 40 46 41 47 42 48 43 49 44 50 45 51 106 52 46 53
REMARK SMILES IDX 105 54 47 55 48 56 49 57 99 58 50 59 104 60 98 61 100 62
REMARK SMILES IDX 51 63 103 64 97 65 96 66 52 68 84 69 64 70 83 71 65 72 68 73
REMARK SMILES IDX 82 74 101 75 66 76 67 77 81 79 102 80 69 81 53 82 54 83
REMARK SMILES IDX 62 84 55 85 61 86 63 87 60 88 56 89 57 90 58 91 59 92 85 93
REMARK SMILES IDX 86 94 94 95 87 96 93 97 95 98 92 99 88 100 89 101 90 102
REMARK SMILES IDX 91 103 70 104 71 105 79 106 72 107 78 108 80 109 77 110
REMARK SMILES IDX 73 111 74 112 75 113 76 114
REMARK H PARENT 14 24 6 33 100 67 68 78
REMARK Flexibility Score: inf
ROOT
ATOM      1  O   UNL A   1      38.863  30.341  33.393  1.00  0.00    -0.377 OA
ENDROOT
BRANCH   1   2
ATOM      2  C   UNL A   1      37.146  30.653  32.948  1.00  0.00     0.188 C 
BRANCH   2   3
ATOM      3  C   UNL A   1      36.437  31.051  31.329  1.00  0.00     0.188 C 
BRANCH   3   4
ATOM      4  O   UNL A   1      35.967  32.411  30.733  1.00  0.00    -0.376 OA
BRANCH   4   5
ATOM      5  C   UNL A   1      36.158  33.847  31.144  1.00  0.00     0.202 C 
BRANCH   5   6
ATOM      6  C   UNL A   1      35.154  34.717  32.024  1.00  0.00     0.261 C 
BRANCH   6   7
ATOM      7  O   UNL A   1      35.647  35.259  33.214  1.00  0.00    -0.460 OA
BRANCH   7   8
ATOM      8  C   UNL A   1      35.637  34.261  34.093  1.00  0.00     0.338 C 
ATOM      9  O   UNL A   1      34.676  33.547  34.311  1.00  0.00    -0.246 OA
BRANCH   8  10
ATOM     10  C   UNL A   1      36.972  34.074  34.684  1.00  0.00     0.060 A 
ATOM     11  C   UNL A   1      39.210  34.244  36.254  1.00  0.00    -0.019 A 
ATOM     12  C   UNL A   1      38.090  33.529  36.716  1.00  0.00     0.007 A 
ATOM     13  C   UNL A   1      39.320  34.477  34.864  1.00  0.00     0.007 A 
ATOM     14  C   UNL A   1      36.981  33.405  35.897  1.00  0.00     0.016 A 
ATOM     15  C   UNL A   1      38.157  34.545  34.117  1.00  0.00     0.016 A 
BRANCH  11  16
ATOM     16  C   UNL A   1      39.897  35.252  37.278  1.00  0.00     0.175 C 
ATOM     17  C   UNL A   1      39.552  33.485  40.335  1.00  0.00     0.102 A 
ATOM     18  C   UNL A   1      39.021  34.782  40.614  1.00  0.00     0.151 A 
ATOM     19  C   UNL A   1      40.275  33.682  39.167  1.00  0.00     0.142 A 
ATOM     20  N   UNL A   1      39.054  35.598  39.564  1.00  0.00    -0.178 NA
ATOM     21  N   UNL A   1      39.658  34.831  38.651  1.00  0.00    -0.237 N 
ATOM     22  N   UNL A   1      41.237  33.079  38.359  1.00  0.00    -0.343 N 
ATOM     23  C   UNL A   1      41.833  33.822  37.294  1.00  0.00     0.026 C 
ATOM     24  H   UNL A   1      41.504  32.146  38.521  1.00  0.00     0.168 HD
ATOM     25  C   UNL A   1      41.410  35.098  37.148  1.00  0.00     0.044 C 
ATOM     26  C   UNL A   1      43.182  33.574  36.685  1.00  0.00     0.055 C 
ATOM     27  C   UNL A   1      42.320  35.875  38.093  1.00  0.00     0.163 C 
ATOM     28  C   UNL A   1      44.236  34.331  37.491  1.00  0.00     0.014 C 
ATOM     29  O   UNL A   1      41.996  36.981  38.520  1.00  0.00    -0.294 OA
ATOM     30  C   UNL A   1      43.585  35.142  38.616  1.00  0.00     0.081 C 
BRANCH  17  31
ATOM     31  C   UNL A   1      39.387  32.321  41.172  1.00  0.00     0.261 C 
ATOM     32  N   UNL A   1      38.120  32.018  41.662  1.00  0.00    -0.322 N 
ATOM     33  H   UNL A   1      38.135  31.398  42.427  1.00  0.00     0.170 HD
ATOM     34  O   UNL A   1      40.346  31.638  41.528  1.00  0.00    -0.269 OA
BRANCH  32  35
ATOM     35  C   UNL A   1      36.808  32.418  41.287  1.00  0.00     0.041 A 
ATOM     36  C   UNL A   1      32.846  33.896  40.288  1.00  0.00     0.044 C 
ATOM     37  C   UNL A   1      34.202  33.371  40.665  1.00  0.00    -0.051 A 
ATOM     38  C   UNL A   1      34.964  32.698  39.712  1.00  0.00     0.005 A 
ATOM     39  C   UNL A   1      34.733  33.534  41.946  1.00  0.00     0.005 A 
ATOM     40  C   UNL A   1      36.232  32.195  40.034  1.00  0.00     0.026 A 
ATOM     41  C   UNL A   1      36.021  33.061  42.253  1.00  0.00     0.026 A 
ENDBRANCH  32  35
ENDBRANCH  17  31
ENDBRANCH  11  16
ENDBRANCH   8  10
ENDBRANCH   7   8
ENDBRANCH   6   7
ENDBRANCH   5   6
ENDBRANCH   4   5
ENDBRANCH   3   4
ENDBRANCH   2   3
ENDBRANCH   1   2
BRANCH   1  42
ATOM     42  C   UNL A   1      40.140  31.018  34.855  1.00  0.00     0.188 C 
BRANCH  42  43
ATOM     43  C   UNL A   1      41.009  29.857  36.039  1.00  0.00     0.188 C 
BRANCH  43  44
ATOM     44  O   UNL A   1      40.908  28.395  36.179  1.00  0.00    -0.376 OA
BRANCH  44  45
ATOM     45  C   UNL A   1      41.872  27.385  36.540  1.00  0.00     0.202 C 
BRANCH  45  46
ATOM     46  C   UNL A   1      42.038  26.469  35.357  1.00  0.00     0.261 C 
BRANCH  46  47
ATOM     47  O   UNL A   1      41.747  27.102  34.077  1.00  0.00    -0.460 OA
BRANCH  47  48
ATOM     48  C   UNL A   1      42.779  27.567  33.298  1.00  0.00     0.338 C 
ATOM     49  O   UNL A   1      43.605  26.825  32.786  1.00  0.00    -0.246 OA
BRANCH  48  50
ATOM     50  C   UNL A   1      42.757  29.073  33.093  1.00  0.00     0.060 A 
ATOM     51  C   UNL A   1      42.136  29.653  31.970  1.00  0.00     0.016 A 
ATOM     52  C   UNL A   1      43.592  29.882  33.850  1.00  0.00     0.016 A 
ATOM     53  C   UNL A   1      42.532  30.945  31.486  1.00  0.00     0.010 A 
ATOM     54  C   UNL A   1      44.068  31.086  33.294  1.00  0.00     0.010 A 
ATOM     55  C   UNL A   1      43.634  31.615  32.042  1.00  0.00    -0.014 A 
BRANCH  55  56
ATOM     56  C   UNL A   1      44.465  32.817  31.491  1.00  0.00     0.031 A 
ATOM     57  C   UNL A   1      43.956  34.115  32.204  1.00  0.00     0.074 A 
ATOM     58  C   UNL A   1      45.377  32.935  30.391  1.00  0.00     0.049 A 
ATOM     59  N   UNL A   1      44.417  35.299  32.003  1.00  0.00    -0.248 NA
ATOM     60  C   UNL A   1      42.810  34.193  33.134  1.00  0.00     0.031 C 
ATOM     61  C   UNL A   1      47.002  32.945  30.228  1.00  0.00     0.029 A 
ATOM     62  N   UNL A   1      45.308  32.277  29.202  1.00  0.00    -0.354 N 
ATOM     63  C   UNL A   1      43.870  36.224  32.839  1.00  0.00     0.074 A 
ATOM     64  C   UNL A   1      42.836  35.479  33.525  1.00  0.00     0.031 C 
ATOM     65  C   UNL A   1      47.557  32.615  29.062  1.00  0.00     0.029 A 
ATOM     66  C   UNL A   1      46.403  32.329  28.310  1.00  0.00     0.049 A 
ATOM     67  H   UNL A   1      44.499  31.768  28.965  1.00  0.00     0.167 HD
ATOM     68  C   UNL A   1      44.414  37.481  32.826  1.00  0.00     0.034 A 
ATOM     69  C   UNL A   1      46.599  31.725  27.141  1.00  0.00     0.034 A 
ATOM     70  C   UNL A   1      45.290  37.756  31.597  1.00  0.00     0.049 A 
ATOM     71  C   UNL A   1      46.315  33.503  26.937  1.00  0.00     0.074 A 
ATOM     72  C   UNL A   1      46.540  38.329  31.403  1.00  0.00     0.029 A 
ATOM     73  N   UNL A   1      44.931  37.326  30.283  1.00  0.00    -0.354 N 
ATOM     74  N   UNL A   1      46.561  34.608  27.713  1.00  0.00    -0.248 NA
ATOM     75  C   UNL A   1      45.678  33.970  25.702  1.00  0.00     0.031 C 
ATOM     76  C   UNL A   1      46.901  38.262  30.003  1.00  0.00     0.029 A 
ATOM     77  C   UNL A   1      45.955  37.495  29.307  1.00  0.00     0.049 A 
ATOM     78  H   UNL A   1      44.049  36.944  30.071  1.00  0.00     0.167 HD
ATOM     79  C   UNL A   1      45.962  35.793  27.236  1.00  0.00     0.074 A 
ATOM     80  C   UNL A   1      45.491  35.291  25.921  1.00  0.00     0.031 C 
ATOM     81  C   UNL A   1      45.756  37.077  27.845  1.00  0.00     0.034 A 
BRANCH  68  82
ATOM     82  C   UNL A   1      44.316  38.442  34.043  1.00  0.00     0.023 A 
ATOM     83  C   UNL A   1      43.916  39.780  33.825  1.00  0.00     0.031 A 
ATOM     84  C   UNL A   1      44.697  38.187  35.386  1.00  0.00     0.131 A 
ATOM     85  C   UNL A   1      43.961  40.773  34.830  1.00  0.00     0.055 A 
ATOM     86  C   UNL A   1      44.697  39.163  36.405  1.00  0.00     0.041 A 
ATOM     87  F   UNL A   1      45.110  36.990  35.808  1.00  0.00    -0.206 F 
ATOM     88  C   UNL A   1      44.340  40.470  36.130  1.00  0.00     0.022 A 
BRANCH  85  89
ATOM     89  S   UNL A   1      43.544  42.487  34.394  1.00  0.00     0.124 S 
ATOM     90  O   UNL A   1      44.850  43.136  34.413  1.00  0.00    -0.237 OA
ATOM     91  O   UNL A   1      42.917  42.333  33.087  1.00  0.00    -0.237 OA
ATOM     92  O   UNL A   1      42.637  42.898  35.465  1.00  0.00    -0.744 OA
ENDBRANCH  85  89
ENDBRANCH  68  82
BRANCH  69  93
ATOM     93  C   UNL A   1      46.559  30.144  28.025  1.00  0.00     0.023 A 
ATOM     94  C   UNL A   1      45.094  29.127  27.885  1.00  0.00     0.031 A 
ATOM     95  C   UNL A   1      48.090  29.246  28.115  1.00  0.00     0.131 A 
ATOM     96  C   UNL A   1      45.123  27.362  27.530  1.00  0.00     0.055 A 
ATOM     97  C   UNL A   1      48.246  27.554  27.482  1.00  0.00     0.041 A 
ATOM     98  F   UNL A   1      49.177  29.922  28.517  1.00  0.00    -0.206 F 
ATOM     99  C   UNL A   1      46.699  26.526  27.307  1.00  0.00     0.022 A 
BRANCH  96 100
ATOM    100  S   UNL A   1      43.887  26.194  28.227  1.00  0.00     0.124 S 
ATOM    101  O   UNL A   1      42.625  26.889  28.017  1.00  0.00    -0.237 OA
ATOM    102  O   UNL A   1      44.129  24.989  27.447  1.00  0.00    -0.237 OA
ATOM    103  O   UNL A   1      44.304  26.119  29.631  1.00  0.00    -0.744 OA
ENDBRANCH  96 100
ENDBRANCH  69  93
BRANCH  81 104
ATOM    104  C   UNL A   1      45.172  38.246  27.039  1.00  0.00     0.023 A 
ATOM    105  C   UNL A   1      43.802  38.449  26.897  1.00  0.00     0.031 A 
ATOM    106  C   UNL A   1      45.996  39.199  26.376  1.00  0.00     0.131 A 
ATOM    107  C   UNL A   1      43.318  39.682  26.442  1.00  0.00     0.055 A 
ATOM    108  C   UNL A   1      45.503  40.362  25.792  1.00  0.00     0.041 A 
ATOM    109  F   UNL A   1      47.325  39.071  26.275  1.00  0.00    -0.206 F 
ATOM    110  C   UNL A   1      44.156  40.645  25.886  1.00  0.00     0.022 A 
BRANCH 107 111
ATOM    111  S   UNL A   1      41.587  40.066  26.778  1.00  0.00     0.124 S 
ATOM    112  O   UNL A   1      40.887  39.321  25.736  1.00  0.00    -0.237 OA
ATOM    113  O   UNL A   1      41.438  39.544  28.135  1.00  0.00    -0.237 OA
ATOM    114  O   UNL A   1      41.529  41.520  26.657  1.00  0.00    -0.744 OA
ENDBRANCH 107 111
ENDBRANCH  81 104
ENDBRANCH  55  56
ENDBRANCH  48  50
ENDBRANCH  47  48
ENDBRANCH  46  47
ENDBRANCH  45  46
ENDBRANCH  44  45
ENDBRANCH  43  44
ENDBRANCH  42  43
ENDBRANCH   1  42
TORSDOF 26
ENDMDL
MODEL 2
REMARK VINA RESULT:      -8.6      5.573     12.141
REMARK SMILES Cc1ccc(NC(=O)c2cnn3c2NC2=C(C(=O)CCC2)[C@H]3c2ccc(C(=O)OCCOCCOCCOCCOC(=O)c3ccc(-c4c5nc(c(-c6cc(S(=O)(=O)[O-])ccc6F)c6ccc([nH]6)c(-c6cc(S(=O)(=O)[O-])ccc6F)c6nc(c(-c7cc(S(=O)(=O)[O-])ccc7F)c7ccc4[nH]7)C=C6)C=C5)cc3)cc2)cc1
REMARK SMILES IDX 35 1 34 2 33 3 32 4 31 5 30 6 29 7 27 8 28 9 26 10 23 11
REMARK SMILES IDX 24 12 108 13 25 14 107 15 22 16 9 17 10 18 13 19 11 20 12 21
REMARK SMILES IDX 14 22 15 23 16 25 21 26 17 27 20 28 18 29 19 30 7 31 6 32
REMARK SMILES IDX 8 34 5 35 1 36 2 37 3 38 110 39 4 40 109 41 36 42 37 43
REMARK SMILES IDX 38 44 39 45 40 46 41 47 42 48 43 49 44 50 45 51 106 52 46 53
REMARK SMILES IDX 105 54 47 55 48 56 49 57 99 58 50 59 104 60 98 61 100 62
REMARK SMILES IDX 51 63 103 64 97 65 96 66 52 68 84 69 64 70 83 71 65 72 68 73
REMARK SMILES IDX 82 74 101 75 66 76 67 77 81 79 102 80 69 81 53 82 54 83
REMARK SMILES IDX 62 84 55 85 61 86 63 87 60 88 56 89 57 90 58 91 59 92 85 93
REMARK SMILES IDX 86 94 94 95 87 96 93 97 95 98 92 99 88 100 89 101 90 102
REMARK SMILES IDX 91 103 70 104 71 105 79 106 72 107 78 108 80 109 77 110
REMARK SMILES IDX 73 111 74 112 75 113 76 114
REMARK H PARENT 14 24 6 33 100 67 68 78
REMARK Flexibility Score: inf
ROOT
ATOM      1  O   UNL A   1      37.460  28.715  28.419  1.00  0.00    -0.377 OA
ENDROOT
BRANCH   1   2
ATOM      2  C   UNL A   1      39.081  29.053  29.129  1.00  0.00     0.188 C 
BRANCH   2   3
ATOM      3  C   UNL A   1      39.506  29.998  30.615  1.00  0.00     0.188 C 
BRANCH   3   4
ATOM      4  O   UNL A   1      39.510  29.582  32.116  1.00  0.00    -0.376 OA
BRANCH   4   5
ATOM      5  C   UNL A   1      39.876  28.315  32.842  1.00  0.00     0.202 C 
BRANCH   5   6
ATOM      6  C   UNL A   1      40.965  28.171  33.997  1.00  0.00     0.261 C 
BRANCH   6   7
ATOM      7  O   UNL A   1      41.065  26.932  34.635  1.00  0.00    -0.460 OA
BRANCH   7   8
ATOM      8  C   UNL A   1      41.952  27.102  35.611  1.00  0.00     0.338 C 
ATOM      9  O   UNL A   1      41.734  27.714  36.640  1.00  0.00    -0.246 OA
BRANCH   8  10
ATOM     10  C   UNL A   1      43.191  26.360  35.323  1.00  0.00     0.060 A 
ATOM     11  C   UNL A   1      45.518  24.931  35.527  1.00  0.00    -0.019 A 
ATOM     12  C   UNL A   1      44.284  24.275  35.687  1.00  0.00     0.007 A 
ATOM     13  C   UNL A   1      45.525  26.173  34.852  1.00  0.00     0.007 A 
ATOM     14  C   UNL A   1      43.111  24.993  35.534  1.00  0.00     0.016 A 
ATOM     15  C   UNL A   1      44.382  26.951  34.900  1.00  0.00     0.016 A 
BRANCH  11  16
ATOM     16  C   UNL A   1      46.652  24.610  36.599  1.00  0.00     0.175 C 
ATOM     17  C   UNL A   1      47.300  21.188  35.928  1.00  0.00     0.102 A 
ATOM     18  C   UNL A   1      47.065  21.234  37.337  1.00  0.00     0.151 A 
ATOM     19  C   UNL A   1      47.541  22.515  35.603  1.00  0.00     0.142 A 
ATOM     20  N   UNL A   1      46.787  22.457  37.782  1.00  0.00    -0.178 NA
ATOM     21  N   UNL A   1      46.908  23.179  36.663  1.00  0.00    -0.237 N 
ATOM     22  N   UNL A   1      48.049  23.318  34.583  1.00  0.00    -0.343 N 
ATOM     23  C   UNL A   1      48.274  24.708  34.823  1.00  0.00     0.026 C 
ATOM     24  H   UNL A   1      48.250  22.929  33.701  1.00  0.00     0.168 HD
ATOM     25  C   UNL A   1      47.973  25.155  36.064  1.00  0.00     0.044 C 
ATOM     26  C   UNL A   1      49.252  25.587  34.100  1.00  0.00     0.055 C 
ATOM     27  C   UNL A   1      49.256  24.893  36.846  1.00  0.00     0.163 C 
ATOM     28  C   UNL A   1      50.612  25.486  34.790  1.00  0.00     0.014 C 
ATOM     29  O   UNL A   1      49.246  24.807  38.072  1.00  0.00    -0.294 OA
ATOM     30  C   UNL A   1      50.534  24.578  36.021  1.00  0.00     0.081 C 
BRANCH  17  31
ATOM     31  C   UNL A   1      47.336  19.986  35.130  1.00  0.00     0.261 C 
ATOM     32  N   UNL A   1      48.526  19.626  34.505  1.00  0.00    -0.322 N 
ATOM     33  H   UNL A   1      48.404  18.976  33.776  1.00  0.00     0.170 HD
ATOM     34  O   UNL A   1      46.325  19.315  34.925  1.00  0.00    -0.269 OA
BRANCH  32  35
ATOM     35  C   UNL A   1      49.883  20.005  34.701  1.00  0.00     0.041 A 
ATOM     36  C   UNL A   1      54.087  20.879  35.368  1.00  0.00     0.044 C 
ATOM     37  C   UNL A   1      52.627  20.582  35.173  1.00  0.00    -0.051 A 
ATOM     38  C   UNL A   1      51.948  21.162  34.104  1.00  0.00     0.005 A 
ATOM     39  C   UNL A   1      51.919  19.739  36.031  1.00  0.00     0.005 A 
ATOM     40  C   UNL A   1      50.585  20.907  33.898  1.00  0.00     0.026 A 
ATOM     41  C   UNL A   1      50.561  19.455  35.797  1.00  0.00     0.026 A 
ENDBRANCH  32  35
ENDBRANCH  17  31
ENDBRANCH  11  16
ENDBRANCH   8  10
ENDBRANCH   7   8
ENDBRANCH   6   7
ENDBRANCH   5   6
ENDBRANCH   4   5
ENDBRANCH   3   4
ENDBRANCH   2   3
ENDBRANCH   1   2
BRANCH   1  42
ATOM     42  C   UNL A   1      36.076  29.800  27.355  1.00  0.00     0.188 C 
BRANCH  42  43
ATOM     43  C   UNL A   1      34.790  30.873  28.192  1.00  0.00     0.188 C 
BRANCH  43  44
ATOM     44  O   UNL A   1      34.701  32.339  28.296  1.00  0.00    -0.376 OA
BRANCH  44  45
ATOM     45  C   UNL A   1      35.408  33.300  29.108  1.00  0.00     0.202 C 
BRANCH  45  46
ATOM     46  C   UNL A   1      34.526  33.644  30.278  1.00  0.00     0.261 C 
BRANCH  46  47
ATOM     47  O   UNL A   1      34.499  32.621  31.316  1.00  0.00    -0.460 OA
BRANCH  47  48
ATOM     48  C   UNL A   1      34.235  32.980  32.616  1.00  0.00     0.338 C 
ATOM     49  O   UNL A   1      33.098  33.085  33.054  1.00  0.00    -0.246 OA
BRANCH  48  50
ATOM     50  C   UNL A   1      35.484  33.173  33.460  1.00  0.00     0.060 A 
ATOM     51  C   UNL A   1      35.889  34.449  33.895  1.00  0.00     0.016 A 
ATOM     52  C   UNL A   1      36.404  32.139  33.571  1.00  0.00     0.016 A 
ATOM     53  C   UNL A   1      37.260  34.727  34.213  1.00  0.00     0.010 A 
ATOM     54  C   UNL A   1      37.766  32.451  33.753  1.00  0.00     0.010 A 
ATOM     55  C   UNL A   1      38.261  33.769  33.981  1.00  0.00    -0.014 A 
BRANCH  55  56
ATOM     56  C   UNL A   1      39.812  33.932  33.902  1.00  0.00     0.031 A 
ATOM     57  C   UNL A   1      40.226  33.832  32.395  1.00  0.00     0.074 A 
ATOM     58  C   UNL A   1      40.833  33.942  34.908  1.00  0.00     0.049 A 
ATOM     59  N   UNL A   1      41.429  33.927  31.949  1.00  0.00    -0.248 NA
ATOM     60  C   UNL A   1      39.318  33.513  31.273  1.00  0.00     0.031 C 
ATOM     61  C   UNL A   1      41.688  35.099  35.683  1.00  0.00     0.029 A 
ATOM     62  N   UNL A   1      40.844  33.226  36.065  1.00  0.00    -0.354 N 
ATOM     63  C   UNL A   1      41.487  33.916  30.590  1.00  0.00     0.074 A 
ATOM     64  C   UNL A   1      40.123  33.627  30.202  1.00  0.00     0.031 C 
ATOM     65  C   UNL A   1      42.232  34.842  36.872  1.00  0.00     0.029 A 
ATOM     66  C   UNL A   1      41.807  33.514  37.058  1.00  0.00     0.049 A 
ATOM     67  H   UNL A   1      40.183  32.510  36.209  1.00  0.00     0.167 HD
ATOM     68  C   UNL A   1      42.699  34.185  30.011  1.00  0.00     0.034 A 
ATOM     69  C   UNL A   1      41.975  33.009  38.277  1.00  0.00     0.034 A 
ATOM     70  C   UNL A   1      43.881  34.068  30.984  1.00  0.00     0.049 A 
ATOM     71  C   UNL A   1      43.273  32.457  37.139  1.00  0.00     0.074 A 
ATOM     72  C   UNL A   1      44.995  34.850  31.258  1.00  0.00     0.029 A 
ATOM     73  N   UNL A   1      43.981  33.023  31.952  1.00  0.00    -0.354 N 
ATOM     74  N   UNL A   1      43.872  33.003  36.031  1.00  0.00    -0.248 NA
ATOM     75  C   UNL A   1      43.882  31.142  37.361  1.00  0.00     0.031 C 
ATOM     76  C   UNL A   1      45.751  34.268  32.346  1.00  0.00     0.029 A 
ATOM     77  C   UNL A   1      45.037  33.191  32.893  1.00  0.00     0.049 A 
ATOM     78  H   UNL A   1      43.370  32.252  31.968  1.00  0.00     0.167 HD
ATOM     79  C   UNL A   1      44.696  32.106  35.320  1.00  0.00     0.074 A 
ATOM     80  C   UNL A   1      44.689  30.981  36.289  1.00  0.00     0.031 C 
ATOM     81  C   UNL A   1      45.290  32.176  34.015  1.00  0.00     0.034 A 
BRANCH  68  82
ATOM     82  C   UNL A   1      42.827  34.754  28.571  1.00  0.00     0.023 A 
ATOM     83  C   UNL A   1      43.576  34.031  27.616  1.00  0.00     0.031 A 
ATOM     84  C   UNL A   1      42.372  36.009  28.089  1.00  0.00     0.131 A 
ATOM     85  C   UNL A   1      43.894  34.543  26.337  1.00  0.00     0.055 A 
ATOM     86  C   UNL A   1      42.646  36.504  26.796  1.00  0.00     0.041 A 
ATOM     87  F   UNL A   1      41.648  36.852  28.829  1.00  0.00    -0.206 F 
ATOM     88  C   UNL A   1      43.423  35.776  25.912  1.00  0.00     0.022 A 
BRANCH  85  89
ATOM     89  S   UNL A   1      44.974  33.573  25.244  1.00  0.00     0.124 S 
ATOM     90  O   UNL A   1      45.713  32.749  26.193  1.00  0.00    -0.237 OA
ATOM     91  O   UNL A   1      44.015  32.879  24.393  1.00  0.00    -0.237 OA
ATOM     92  O   UNL A   1      45.773  34.593  24.564  1.00  0.00    -0.744 OA
ENDBRANCH  85  89
ENDBRANCH  68  82
BRANCH  69  93
ATOM     93  C   UNL A   1      40.363  33.710  38.717  1.00  0.00     0.023 A 
ATOM     94  C   UNL A   1      38.936  32.631  38.716  1.00  0.00     0.031 A 
ATOM     95  C   UNL A   1      40.359  34.956  39.984  1.00  0.00     0.131 A 
ATOM     96  C   UNL A   1      37.731  32.551  40.050  1.00  0.00     0.055 A 
ATOM     97  C   UNL A   1      39.387  34.774  41.503  1.00  0.00     0.041 A 
ATOM     98  F   UNL A   1      41.233  35.966  39.855  1.00  0.00    -0.206 F 
ATOM     99  C   UNL A   1      37.927  33.612  41.488  1.00  0.00     0.022 A 
BRANCH  96 100
ATOM    100  S   UNL A   1      35.947  32.222  39.753  1.00  0.00     0.124 S 
ATOM    101  O   UNL A   1      35.335  32.565  41.029  1.00  0.00    -0.237 OA
ATOM    102  O   UNL A   1      35.661  33.085  38.616  1.00  0.00    -0.237 OA
ATOM    103  O   UNL A   1      35.953  30.786  39.458  1.00  0.00    -0.744 OA
ENDBRANCH  96 100
ENDBRANCH  69  93
BRANCH  81 104
ATOM    104  C   UNL A   1      46.260  31.087  33.531  1.00  0.00     0.023 A 
ATOM    105  C   UNL A   1      47.642  31.238  33.582  1.00  0.00     0.031 A 
ATOM    106  C   UNL A   1      45.806  29.852  32.989  1.00  0.00     0.131 A 
ATOM    107  C   UNL A   1      48.477  30.121  33.441  1.00  0.00     0.055 A 
ATOM    108  C   UNL A   1      46.651  28.783  32.708  1.00  0.00     0.041 A 
ATOM    109  F   UNL A   1      44.518  29.601  32.721  1.00  0.00    -0.206 F 
ATOM    110  C   UNL A   1      47.995  28.890  33.004  1.00  0.00     0.022 A 
BRANCH 107 111
ATOM    111  S   UNL A   1      50.174  30.277  34.033  1.00  0.00     0.124 S 
ATOM    112  O   UNL A   1      50.420  28.975  34.642  1.00  0.00    -0.237 OA
ATOM    113  O   UNL A   1      50.889  30.535  32.785  1.00  0.00    -0.237 OA
ATOM    114  O   UNL A   1      50.111  31.403  34.962  1.00  0.00    -0.744 OA
ENDBRANCH 107 111
ENDBRANCH  81 104
ENDBRANCH  55  56
ENDBRANCH  48  50
ENDBRANCH  47  48
ENDBRANCH  46  47
ENDBRANCH  45  46
ENDBRANCH  44  45
ENDBRANCH  43  44
ENDBRANCH  42  43
ENDBRANCH   1  42
TORSDOF 26
ENDMDL
MODEL 3
REMARK VINA RESULT:      -8.3      5.921     10.845
REMARK SMILES Cc1ccc(NC(=O)c2cnn3c2NC2=C(C(=O)CCC2)[C@H]3c2ccc(C(=O)OCCOCCOCCOCCOC(=O)c3ccc(-c4c5nc(c(-c6cc(S(=O)(=O)[O-])ccc6F)c6ccc([nH]6)c(-c6cc(S(=O)(=O)[O-])ccc6F)c6nc(c(-c7cc(S(=O)(=O)[O-])ccc7F)c7ccc4[nH]7)C=C6)C=C5)cc3)cc2)cc1
REMARK SMILES IDX 35 1 34 2 33 3 32 4 31 5 30 6 29 7 27 8 28 9 26 10 23 11
REMARK SMILES IDX 24 12 108 13 25 14 107 15 22 16 9 17 10 18 13 19 11 20 12 21
REMARK SMILES IDX 14 22 15 23 16 25 21 26 17 27 20 28 18 29 19 30 7 31 6 32
REMARK SMILES IDX 8 34 5 35 1 36 2 37 3 38 110 39 4 40 109 41 36 42 37 43
REMARK SMILES IDX 38 44 39 45 40 46 41 47 42 48 43 49 44 50 45 51 106 52 46 53
REMARK SMILES IDX 105 54 47 55 48 56 49 57 99 58 50 59 104 60 98 61 100 62
REMARK SMILES IDX 51 63 103 64 97 65 96 66 52 68 84 69 64 70 83 71 65 72 68 73
REMARK SMILES IDX 82 74 101 75 66 76 67 77 81 79 102 80 69 81 53 82 54 83
REMARK SMILES IDX 62 84 55 85 61 86 63 87 60 88 56 89 57 90 58 91 59 92 85 93
REMARK SMILES IDX 86 94 94 95 87 96 93 97 95 98 92 99 88 100 89 101 90 102
REMARK SMILES IDX 91 103 70 104 71 105 79 106 72 107 78 108 80 109 77 110
REMARK SMILES IDX 73 111 74 112 75 113 76 114
REMARK H PARENT 14 24 6 33 100 67 68 78
REMARK Flexibility Score: inf
ROOT
ATOM      1  O   UNL A   1      34.365  24.477  22.521  1.00  0.00    -0.377 OA
ENDROOT
BRANCH   1   2
ATOM      2  C   UNL A   1      33.733  26.159  22.650  1.00  0.00     0.188 C 
BRANCH   2   3
ATOM      3  C   UNL A   1      32.600  26.866  23.874  1.00  0.00     0.188 C 
BRANCH   3   4
ATOM      4  O   UNL A   1      32.460  26.598  25.402  1.00  0.00    -0.376 OA
BRANCH   4   5
ATOM      5  C   UNL A   1      32.984  27.292  26.631  1.00  0.00     0.202 C 
BRANCH   5   6
ATOM      6  C   UNL A   1      33.986  28.531  26.660  1.00  0.00     0.261 C 
BRANCH   6   7
ATOM      7  O   UNL A   1      34.580  28.848  27.884  1.00  0.00    -0.460 OA
BRANCH   7   8
ATOM      8  C   UNL A   1      34.976  30.112  27.774  1.00  0.00     0.338 C 
ATOM      9  O   UNL A   1      34.509  30.913  26.985  1.00  0.00    -0.246 OA
BRANCH   8  10
ATOM     10  C   UNL A   1      35.976  30.437  28.804  1.00  0.00     0.060 A 
ATOM     11  C   UNL A   1      38.271  31.137  30.126  1.00  0.00    -0.019 A 
ATOM     12  C   UNL A   1      37.490  32.134  29.513  1.00  0.00     0.007 A 
ATOM     13  C   UNL A   1      37.653  29.899  30.418  1.00  0.00     0.007 A 
ATOM     14  C   UNL A   1      36.307  31.780  28.890  1.00  0.00     0.016 A 
ATOM     15  C   UNL A   1      36.591  29.494  29.629  1.00  0.00     0.016 A 
BRANCH  11  16
ATOM     16  C   UNL A   1      39.842  31.194  29.877  1.00  0.00     0.175 C 
ATOM     17  C   UNL A   1      40.855  33.552  32.326  1.00  0.00     0.102 A 
ATOM     18  C   UNL A   1      41.426  34.038  31.109  1.00  0.00     0.151 A 
ATOM     19  C   UNL A   1      40.535  32.236  32.023  1.00  0.00     0.142 A 
ATOM     20  N   UNL A   1      41.139  33.278  30.056  1.00  0.00    -0.178 NA
ATOM     21  N   UNL A   1      40.442  32.289  30.625  1.00  0.00    -0.237 N 
ATOM     22  N   UNL A   1      40.181  31.028  32.623  1.00  0.00    -0.343 N 
ATOM     23  C   UNL A   1      40.143  29.834  31.841  1.00  0.00     0.026 C 
ATOM     24  H   UNL A   1      39.958  30.999  33.581  1.00  0.00     0.168 HD
ATOM     25  C   UNL A   1      40.468  29.967  30.534  1.00  0.00     0.044 C 
ATOM     26  C   UNL A   1      40.307  28.433  32.350  1.00  0.00     0.055 C 
ATOM     27  C   UNL A   1      41.986  29.819  30.540  1.00  0.00     0.163 C 
ATOM     28  C   UNL A   1      41.796  28.088  32.379  1.00  0.00     0.014 C 
ATOM     29  O   UNL A   1      42.670  30.258  29.617  1.00  0.00    -0.294 OA
ATOM     30  C   UNL A   1      42.635  29.246  31.829  1.00  0.00     0.081 C 
BRANCH  17  31
ATOM     31  C   UNL A   1      40.750  34.303  33.553  1.00  0.00     0.261 C 
ATOM     32  N   UNL A   1      39.494  34.725  33.980  1.00  0.00    -0.322 N 
ATOM     33  H   UNL A   1      39.530  35.447  34.649  1.00  0.00     0.170 HD
ATOM     34  O   UNL A   1      41.745  34.648  34.189  1.00  0.00    -0.269 OA
BRANCH  32  35
ATOM     35  C   UNL A   1      38.169  34.329  33.651  1.00  0.00     0.041 A 
ATOM     36  C   UNL A   1      34.221  33.038  32.373  1.00  0.00     0.044 C 
ATOM     37  C   UNL A   1      35.579  33.518  32.800  1.00  0.00    -0.051 A 
ATOM     38  C   UNL A   1      36.031  33.233  34.088  1.00  0.00     0.005 A 
ATOM     39  C   UNL A   1      36.413  34.244  31.948  1.00  0.00     0.005 A 
ATOM     40  C   UNL A   1      37.292  33.670  34.516  1.00  0.00     0.026 A 
ATOM     41  C   UNL A   1      37.693  34.646  32.370  1.00  0.00     0.026 A 
ENDBRANCH  32  35
ENDBRANCH  17  31
ENDBRANCH  11  16
ENDBRANCH   8  10
ENDBRANCH   7   8
ENDBRANCH   6   7
ENDBRANCH   5   6
ENDBRANCH   4   5
ENDBRANCH   3   4
ENDBRANCH   2   3
ENDBRANCH   1   2
BRANCH   1  42
ATOM     42  C   UNL A   1      35.332  23.178  23.787  1.00  0.00     0.188 C 
BRANCH  42  43
ATOM     43  C   UNL A   1      36.878  23.663  24.725  1.00  0.00     0.188 C 
BRANCH  43  44
ATOM     44  O   UNL A   1      37.847  22.827  25.453  1.00  0.00    -0.376 OA
BRANCH  44  45
ATOM     45  C   UNL A   1      38.832  23.135  26.461  1.00  0.00     0.202 C 
BRANCH  45  46
ATOM     46  C   UNL A   1      38.657  24.581  26.841  1.00  0.00     0.261 C 
BRANCH  46  47
ATOM     47  O   UNL A   1      39.038  24.879  28.216  1.00  0.00    -0.460 OA
BRANCH  47  48
ATOM     48  C   UNL A   1      39.795  25.994  28.485  1.00  0.00     0.338 C 
ATOM     49  O   UNL A   1      39.326  27.003  28.992  1.00  0.00    -0.246 OA
BRANCH  48  50
ATOM     50  C   UNL A   1      41.267  25.826  28.148  1.00  0.00     0.060 A 
ATOM     51  C   UNL A   1      41.866  24.553  28.078  1.00  0.00     0.016 A 
ATOM     52  C   UNL A   1      42.111  26.928  28.188  1.00  0.00     0.016 A 
ATOM     53  C   UNL A   1      43.275  24.382  28.284  1.00  0.00     0.010 A 
ATOM     54  C   UNL A   1      43.467  26.740  28.521  1.00  0.00     0.010 A 
ATOM     55  C   UNL A   1      44.081  25.462  28.682  1.00  0.00    -0.014 A 
BRANCH  55  56
ATOM     56  C   UNL A   1      45.516  25.474  29.298  1.00  0.00     0.031 A 
ATOM     57  C   UNL A   1      45.369  25.354  30.852  1.00  0.00     0.074 A 
ATOM     58  C   UNL A   1      46.803  25.765  28.738  1.00  0.00     0.049 A 
ATOM     59  N   UNL A   1      46.346  25.325  31.689  1.00  0.00    -0.248 NA
ATOM     60  C   UNL A   1      44.093  25.357  31.599  1.00  0.00     0.031 C 
ATOM     61  C   UNL A   1      48.059  24.875  28.190  1.00  0.00     0.029 A 
ATOM     62  N   UNL A   1      47.081  26.672  27.762  1.00  0.00    -0.354 N 
ATOM     63  C   UNL A   1      45.936  25.101  32.967  1.00  0.00     0.074 A 
ATOM     64  C   UNL A   1      44.493  25.151  32.865  1.00  0.00     0.031 C 
ATOM     65  C   UNL A   1      48.921  25.402  27.320  1.00  0.00     0.029 A 
ATOM     66  C   UNL A   1      48.359  26.682  27.159  1.00  0.00     0.049 A 
ATOM     67  H   UNL A   1      46.394  27.318  27.478  1.00  0.00     0.167 HD
ATOM     68  C   UNL A   1      46.906  24.881  33.908  1.00  0.00     0.034 A 
ATOM     69  C   UNL A   1      48.840  27.413  26.157  1.00  0.00     0.034 A 
ATOM     70  C   UNL A   1      48.309  25.309  33.453  1.00  0.00     0.049 A 
ATOM     71  C   UNL A   1      49.557  27.904  27.747  1.00  0.00     0.074 A 
ATOM     72  C   UNL A   1      49.568  24.727  33.508  1.00  0.00     0.029 A 
ATOM     73  N   UNL A   1      48.547  26.513  32.725  1.00  0.00    -0.354 N 
ATOM     74  N   UNL A   1      49.829  27.246  28.920  1.00  0.00    -0.248 NA
ATOM     75  C   UNL A   1      49.964  29.301  27.926  1.00  0.00     0.031 C 
ATOM     76  C   UNL A   1      50.534  25.579  32.849  1.00  0.00     0.029 A 
ATOM     77  C   UNL A   1      49.872  26.643  32.218  1.00  0.00     0.049 A 
ATOM     78  H   UNL A   1      47.853  27.197  32.583  1.00  0.00     0.167 HD
ATOM     79  C   UNL A   1      50.192  28.094  29.987  1.00  0.00     0.074 A 
ATOM     80  C   UNL A   1      50.318  29.364  29.229  1.00  0.00     0.031 C 
ATOM     81  C   UNL A   1      50.310  27.865  31.399  1.00  0.00     0.034 A 
BRANCH  68  82
ATOM     82  C   UNL A   1      46.634  24.084  35.214  1.00  0.00     0.023 A 
ATOM     83  C   UNL A   1      46.889  22.694  35.231  1.00  0.00     0.031 A 
ATOM     84  C   UNL A   1      46.032  24.554  36.410  1.00  0.00     0.131 A 
ATOM     85  C   UNL A   1      46.515  21.854  36.305  1.00  0.00     0.055 A 
ATOM     86  C   UNL A   1      45.702  23.728  37.505  1.00  0.00     0.041 A 
ATOM     87  F   UNL A   1      45.706  25.834  36.604  1.00  0.00    -0.206 F 
ATOM     88  C   UNL A   1      45.931  22.365  37.454  1.00  0.00     0.022 A 
BRANCH  85  89
ATOM     89  S   UNL A   1      46.780  20.063  36.154  1.00  0.00     0.124 S 
ATOM     90  O   UNL A   1      47.822  19.989  35.137  1.00  0.00    -0.237 OA
ATOM     91  O   UNL A   1      47.169  19.689  37.509  1.00  0.00    -0.237 OA
ATOM     92  O   UNL A   1      45.472  19.561  35.732  1.00  0.00    -0.744 OA
ENDBRANCH  85  89
ENDBRANCH  68  82
BRANCH  69  93
ATOM     93  C   UNL A   1      47.623  26.613  25.078  1.00  0.00     0.023 A 
ATOM     94  C   UNL A   1      47.355  24.854  25.255  1.00  0.00     0.031 A 
ATOM     95  C   UNL A   1      46.169  27.558  24.686  1.00  0.00     0.131 A 
ATOM     96  C   UNL A   1      45.730  24.087  25.363  1.00  0.00     0.055 A 
ATOM     97  C   UNL A   1      44.503  26.950  25.062  1.00  0.00     0.041 A 
ATOM     98  F   UNL A   1      46.351  28.814  24.251  1.00  0.00    -0.206 F 
ATOM     99  C   UNL A   1      44.256  25.114  25.281  1.00  0.00     0.022 A 
BRANCH  96 100
ATOM    100  S   UNL A   1      45.374  22.423  24.667  1.00  0.00     0.124 S 
ATOM    101  O   UNL A   1      44.881  22.726  23.331  1.00  0.00    -0.237 OA
ATOM    102  O   UNL A   1      46.666  21.762  24.773  1.00  0.00    -0.237 OA
ATOM    103  O   UNL A   1      44.345  21.928  25.587  1.00  0.00    -0.744 OA
ENDBRANCH  96 100
ENDBRANCH  69  93
BRANCH  81 104
ATOM    104  C   UNL A   1      50.851  28.957  32.333  1.00  0.00     0.023 A 
ATOM    105  C   UNL A   1      52.144  28.931  32.848  1.00  0.00     0.031 A 
ATOM    106  C   UNL A   1      50.060  30.068  32.741  1.00  0.00     0.131 A 
ATOM    107  C   UNL A   1      52.697  30.086  33.417  1.00  0.00     0.055 A 
ATOM    108  C   UNL A   1      50.573  31.158  33.437  1.00  0.00     0.041 A 
ATOM    109  F   UNL A   1      48.752  30.173  32.471  1.00  0.00    -0.206 F 
ATOM    110  C   UNL A   1      51.923  31.204  33.718  1.00  0.00     0.022 A 
BRANCH 107 111
ATOM    111  S   UNL A   1      54.493  30.152  33.572  1.00  0.00     0.124 S 
ATOM    112  O   UNL A   1      54.700  31.347  34.383  1.00  0.00    -0.237 OA
ATOM    113  O   UNL A   1      54.768  28.882  34.240  1.00  0.00    -0.237 OA
ATOM    114  O   UNL A   1      54.953  30.244  32.189  1.00  0.00    -0.744 OA
ENDBRANCH 107 111
ENDBRANCH  81 104
ENDBRANCH  55  56
ENDBRANCH  48  50
ENDBRANCH  47  48
ENDBRANCH  46  47
ENDBRANCH  45  46
ENDBRANCH  44  45
ENDBRANCH  43  44
ENDBRANCH  42  43
ENDBRANCH   1  42
TORSDOF 26
ENDMDL
