MODEL 1
REMARK VINA RESULT:      -9.5      0.000      0.000
REMARK SMILES Cc1cccc(-c2ncc(C[NH+]3CCC4(CC3)NC(=O)C[C@H]4C(=O)OCCOCCOCCOCCOC(=O)c3ccc(-c4c5nc(c(-c6cc(S(=O)(=O)[O-])ccc6F)c6ccc([nH]6)c(-c6cc(S(=O)(=O)[O-])ccc6F)c6nc(c(-c7cc(S(=O)(=O)[O-])ccc7F)c7ccc4[nH]7)C=C6)C=C5)cc3)cn2)c1
REMARK SMILES IDX 31 1 30 2 29 3 28 4 27 5 26 6 25 7 23 8 24 9 22 10 12 11
REMARK SMILES IDX 13 12 17 13 14 15 16 16 15 17 18 18 19 19 21 21 20 22 11 23
REMARK SMILES IDX 10 24 7 25 8 26 104 27 9 28 103 29 6 30 1 31 2 32 3 33
REMARK SMILES IDX 105 34 4 35 5 36 32 37 33 38 34 39 35 40 36 41 37 42 38 43
REMARK SMILES IDX 39 44 40 45 41 46 102 47 42 48 101 49 43 50 44 51 45 52
REMARK SMILES IDX 95 53 46 54 100 55 94 56 96 57 47 58 99 59 93 60 92 61 48 63
REMARK SMILES IDX 80 64 60 65 79 66 61 67 64 68 78 69 97 70 62 71 63 72 77 74
REMARK SMILES IDX 98 75 65 76 49 77 50 78 58 79 51 80 57 81 59 82 56 83 52 84
REMARK SMILES IDX 53 85 54 86 55 87 81 88 82 89 90 90 83 91 89 92 91 93 88 94
REMARK SMILES IDX 84 95 85 96 86 97 87 98 66 99 67 100 75 101 68 102 74 103
REMARK SMILES IDX 76 104 73 105 69 106 70 107 71 108 72 109
REMARK H PARENT 12 14 18 20 96 62 64 73
REMARK Flexibility Score: inf
ROOT
ATOM      1  O   UNL A   1      33.733  28.738  26.504  1.00  0.00    -0.377 OA
ENDROOT
BRANCH   1   2
ATOM      2  C   UNL A   1      32.914  29.438  25.601  1.00  0.00     0.188 C 
BRANCH   2   3
ATOM      3  C   UNL A   1      31.640  28.811  25.090  1.00  0.00     0.188 C 
BRANCH   3   4
ATOM      4  O   UNL A   1      31.701  28.236  23.817  1.00  0.00    -0.376 OA
BRANCH   4   5
ATOM      5  C   UNL A   1      32.175  26.904  23.812  1.00  0.00     0.202 C 
BRANCH   5   6
ATOM      6  C   UNL A   1      31.513  25.856  22.906  1.00  0.00     0.261 C 
BRANCH   6   7
ATOM      7  O   UNL A   1      31.775  24.441  23.101  1.00  0.00    -0.463 OA
BRANCH   7   8
ATOM      8  C   UNL A   1      32.804  23.924  22.385  1.00  0.00     0.311 C 
ATOM      9  O   UNL A   1      33.266  24.463  21.385  1.00  0.00    -0.252 OA
BRANCH   8  10
ATOM     10  C   UNL A   1      33.319  22.549  22.824  1.00  0.00     0.134 C 
ATOM     11  N   UNL A   1      36.346  24.148  25.187  1.00  0.00    -0.331 N 
ATOM     12  C   UNL A   1      36.631  23.280  24.067  1.00  0.00     0.264 C 
ATOM     13  C   UNL A   1      34.940  24.446  25.212  1.00  0.00     0.264 C 
ATOM     14  H   UNL A   1      36.931  24.950  24.950  1.00  0.00     0.348 HD
ATOM     15  C   UNL A   1      35.691  22.076  23.904  1.00  0.00     0.091 C 
ATOM     16  C   UNL A   1      33.938  23.292  25.240  1.00  0.00     0.091 C 
ATOM     17  C   UNL A   1      34.159  22.304  24.114  1.00  0.00     0.064 C 
ATOM     18  N   UNL A   1      33.634  21.018  24.570  1.00  0.00    -0.349 N 
ATOM     19  C   UNL A   1      32.497  20.592  23.957  1.00  0.00     0.221 C 
ATOM     20  H   UNL A   1      34.075  20.493  25.277  1.00  0.00     0.164 HD
ATOM     21  C   UNL A   1      32.152  21.536  22.854  1.00  0.00     0.117 C 
ATOM     22  O   UNL A   1      31.892  19.565  24.268  1.00  0.00    -0.275 OA
BRANCH  11  23
ATOM     23  C   UNL A   1      36.987  24.035  26.500  1.00  0.00     0.302 C 
BRANCH  23  24
ATOM     24  C   UNL A   1      38.476  23.917  26.467  1.00  0.00     0.043 A 
ATOM     25  C   UNL A   1      41.082  23.646  27.136  1.00  0.00     0.159 A 
ATOM     26  N   UNL A   1      40.414  22.527  26.793  1.00  0.00    -0.236 NA
ATOM     27  N   UNL A   1      40.554  24.873  27.104  1.00  0.00    -0.236 NA
ATOM     28  C   UNL A   1      39.119  22.700  26.464  1.00  0.00     0.124 A 
ATOM     29  C   UNL A   1      39.297  25.002  26.670  1.00  0.00     0.124 A 
BRANCH  25  30
ATOM     30  C   UNL A   1      42.456  23.513  27.614  1.00  0.00     0.019 A 
ATOM     31  C   UNL A   1      45.966  22.807  26.271  1.00  0.00     0.044 C 
ATOM     32  C   UNL A   1      44.837  23.103  27.213  1.00  0.00    -0.050 A 
ATOM     33  C   UNL A   1      45.095  23.313  28.572  1.00  0.00     0.003 A 
ATOM     34  C   UNL A   1      43.517  23.204  26.746  1.00  0.00     0.015 A 
ATOM     35  C   UNL A   1      44.050  23.579  29.453  1.00  0.00     0.001 A 
ATOM     36  C   UNL A   1      42.743  23.677  28.975  1.00  0.00     0.012 A 
ENDBRANCH  25  30
ENDBRANCH  23  24
ENDBRANCH  11  23
ENDBRANCH   8  10
ENDBRANCH   7   8
ENDBRANCH   6   7
ENDBRANCH   5   6
ENDBRANCH   4   5
ENDBRANCH   3   4
ENDBRANCH   2   3
ENDBRANCH   1   2
BRANCH   1  37
ATOM     37  C   UNL A   1      34.562  29.614  27.251  1.00  0.00     0.188 C 
BRANCH  37  38
ATOM     38  C   UNL A   1      33.782  30.873  27.339  1.00  0.00     0.188 C 
BRANCH  38  39
ATOM     39  O   UNL A   1      34.551  32.016  27.642  1.00  0.00    -0.376 OA
BRANCH  39  40
ATOM     40  C   UNL A   1      33.753  33.167  27.811  1.00  0.00     0.202 C 
BRANCH  40  41
ATOM     41  C   UNL A   1      33.838  33.903  29.180  1.00  0.00     0.261 C 
BRANCH  41  42
ATOM     42  O   UNL A   1      34.110  33.016  30.306  1.00  0.00    -0.460 OA
BRANCH  42  43
ATOM     43  C   UNL A   1      35.313  33.200  30.949  1.00  0.00     0.338 C 
ATOM     44  O   UNL A   1      35.696  34.262  31.412  1.00  0.00    -0.246 OA
BRANCH  43  45
ATOM     45  C   UNL A   1      36.221  32.004  30.758  1.00  0.00     0.060 A 
ATOM     46  C   UNL A   1      36.288  31.030  31.770  1.00  0.00     0.016 A 
ATOM     47  C   UNL A   1      37.225  32.017  29.792  1.00  0.00     0.016 A 
ATOM     48  C   UNL A   1      37.456  30.255  31.949  1.00  0.00     0.010 A 
ATOM     49  C   UNL A   1      38.421  31.327  30.047  1.00  0.00     0.010 A 
ATOM     50  C   UNL A   1      38.592  30.496  31.172  1.00  0.00    -0.014 A 
BRANCH  50  51
ATOM     51  C   UNL A   1      40.000  30.167  31.584  1.00  0.00     0.031 A 
ATOM     52  C   UNL A   1      40.727  28.985  30.966  1.00  0.00     0.074 A 
ATOM     53  C   UNL A   1      40.727  31.120  32.238  1.00  0.00     0.049 A 
ATOM     54  N   UNL A   1      41.973  28.674  31.140  1.00  0.00    -0.248 NA
ATOM     55  C   UNL A   1      40.080  28.024  30.070  1.00  0.00     0.031 C 
ATOM     56  C   UNL A   1      42.171  31.361  32.135  1.00  0.00     0.029 A 
ATOM     57  N   UNL A   1      40.352  32.165  33.062  1.00  0.00    -0.354 N 
ATOM     58  C   UNL A   1      42.370  27.769  30.154  1.00  0.00     0.074 A 
ATOM     59  C   UNL A   1      41.119  27.326  29.589  1.00  0.00     0.031 C 
ATOM     60  C   UNL A   1      42.549  32.413  32.881  1.00  0.00     0.029 A 
ATOM     61  C   UNL A   1      41.448  32.709  33.752  1.00  0.00     0.049 A 
ATOM     62  H   UNL A   1      39.427  32.489  33.155  1.00  0.00     0.167 HD
ATOM     63  C   UNL A   1      43.707  27.660  29.820  1.00  0.00     0.034 A 
ATOM     64  C   UNL A   1      41.523  32.567  35.110  1.00  0.00     0.034 A 
ATOM     65  C   UNL A   1      44.585  28.301  30.836  1.00  0.00     0.049 A 
ATOM     66  C   UNL A   1      42.491  31.348  35.465  1.00  0.00     0.074 A 
ATOM     67  C   UNL A   1      45.757  29.050  30.869  1.00  0.00     0.029 A 
ATOM     68  N   UNL A   1      44.161  28.278  32.159  1.00  0.00    -0.354 N 
ATOM     69  N   UNL A   1      43.295  30.743  34.600  1.00  0.00    -0.248 NA
ATOM     70  C   UNL A   1      42.650  30.729  36.783  1.00  0.00     0.031 C 
ATOM     71  C   UNL A   1      45.940  29.556  32.203  1.00  0.00     0.029 A 
ATOM     72  C   UNL A   1      44.953  29.012  33.003  1.00  0.00     0.049 A 
ATOM     73  H   UNL A   1      43.365  27.782  32.461  1.00  0.00     0.167 HD
ATOM     74  C   UNL A   1      43.948  29.657  35.145  1.00  0.00     0.074 A 
ATOM     75  C   UNL A   1      43.509  29.713  36.534  1.00  0.00     0.031 C 
ATOM     76  C   UNL A   1      44.755  28.788  34.426  1.00  0.00     0.034 A 
BRANCH  63  77
ATOM     77  C   UNL A   1      44.275  27.151  28.461  1.00  0.00     0.023 A 
ATOM     78  C   UNL A   1      45.644  26.780  28.354  1.00  0.00     0.031 A 
ATOM     79  C   UNL A   1      43.589  27.139  27.222  1.00  0.00     0.131 A 
ATOM     80  C   UNL A   1      46.258  26.462  27.115  1.00  0.00     0.055 A 
ATOM     81  C   UNL A   1      44.184  26.761  25.999  1.00  0.00     0.041 A 
ATOM     82  F   UNL A   1      42.318  27.536  27.105  1.00  0.00    -0.206 F 
ATOM     83  C   UNL A   1      45.526  26.429  25.936  1.00  0.00     0.022 A 
BRANCH  80  84
ATOM     84  S   UNL A   1      48.046  26.109  27.043  1.00  0.00     0.124 S 
ATOM     85  O   UNL A   1      48.232  25.755  25.639  1.00  0.00    -0.237 OA
ATOM     86  O   UNL A   1      48.637  27.371  27.473  1.00  0.00    -0.237 OA
ATOM     87  O   UNL A   1      48.214  25.002  27.984  1.00  0.00    -0.744 OA
ENDBRANCH  80  84
ENDBRANCH  63  77
BRANCH  64  88
ATOM     88  C   UNL A   1      40.172  33.065  35.652  1.00  0.00     0.023 A 
ATOM     89  C   UNL A   1      39.693  32.470  36.887  1.00  0.00     0.031 A 
ATOM     90  C   UNL A   1      39.820  34.412  35.447  1.00  0.00     0.131 A 
ATOM     91  C   UNL A   1      39.131  33.272  37.916  1.00  0.00     0.055 A 
ATOM     92  C   UNL A   1      39.295  35.195  36.493  1.00  0.00     0.041 A 
ATOM     93  F   UNL A   1      40.195  35.052  34.331  1.00  0.00    -0.206 F 
ATOM     94  C   UNL A   1      39.032  34.647  37.745  1.00  0.00     0.022 A 
BRANCH  91  95
ATOM     95  S   UNL A   1      38.597  32.635  39.555  1.00  0.00     0.124 S 
ATOM     96  O   UNL A   1      37.987  33.813  40.162  1.00  0.00    -0.237 OA
ATOM     97  O   UNL A   1      37.693  31.549  39.242  1.00  0.00    -0.237 OA
ATOM     98  O   UNL A   1      39.846  32.190  40.176  1.00  0.00    -0.744 OA
ENDBRANCH  91  95
ENDBRANCH  64  88
BRANCH  76  99
ATOM     99  C   UNL A   1      45.368  27.468  34.924  1.00  0.00     0.023 A 
ATOM    100  C   UNL A   1      44.653  26.280  34.922  1.00  0.00     0.031 A 
ATOM    101  C   UNL A   1      46.714  27.351  35.401  1.00  0.00     0.131 A 
ATOM    102  C   UNL A   1      45.301  25.050  35.139  1.00  0.00     0.055 A 
ATOM    103  C   UNL A   1      47.340  26.136  35.682  1.00  0.00     0.041 A 
ATOM    104  F   UNL A   1      47.513  28.403  35.618  1.00  0.00    -0.206 F 
ATOM    105  C   UNL A   1      46.642  24.963  35.505  1.00  0.00     0.022 A 
BRANCH 102 106
ATOM    106  S   UNL A   1      44.347  23.557  34.813  1.00  0.00     0.124 S 
ATOM    107  O   UNL A   1      44.823  23.167  33.491  1.00  0.00    -0.237 OA
ATOM    108  O   UNL A   1      44.767  22.699  35.918  1.00  0.00    -0.237 OA
ATOM    109  O   UNL A   1      42.961  24.015  34.870  1.00  0.00    -0.744 OA
ENDBRANCH 102 106
ENDBRANCH  76  99
ENDBRANCH  50  51
ENDBRANCH  43  45
ENDBRANCH  42  43
ENDBRANCH  41  42
ENDBRANCH  40  41
ENDBRANCH  39  40
ENDBRANCH  38  39
ENDBRANCH  37  38
ENDBRANCH   1  37
TORSDOF 26
ENDMDL
MODEL 2
REMARK VINA RESULT:      -8.8      4.026      8.474
REMARK SMILES Cc1cccc(-c2ncc(C[NH+]3CCC4(CC3)NC(=O)C[C@H]4C(=O)OCCOCCOCCOCCOC(=O)c3ccc(-c4c5nc(c(-c6cc(S(=O)(=O)[O-])ccc6F)c6ccc([nH]6)c(-c6cc(S(=O)(=O)[O-])ccc6F)c6nc(c(-c7cc(S(=O)(=O)[O-])ccc7F)c7ccc4[nH]7)C=C6)C=C5)cc3)cn2)c1
REMARK SMILES IDX 31 1 30 2 29 3 28 4 27 5 26 6 25 7 23 8 24 9 22 10 12 11
REMARK SMILES IDX 13 12 17 13 14 15 16 16 15 17 18 18 19 19 21 21 20 22 11 23
REMARK SMILES IDX 10 24 7 25 8 26 104 27 9 28 103 29 6 30 1 31 2 32 3 33
REMARK SMILES IDX 105 34 4 35 5 36 32 37 33 38 34 39 35 40 36 41 37 42 38 43
REMARK SMILES IDX 39 44 40 45 41 46 102 47 42 48 101 49 43 50 44 51 45 52
REMARK SMILES IDX 95 53 46 54 100 55 94 56 96 57 47 58 99 59 93 60 92 61 48 63
REMARK SMILES IDX 80 64 60 65 79 66 61 67 64 68 78 69 97 70 62 71 63 72 77 74
REMARK SMILES IDX 98 75 65 76 49 77 50 78 58 79 51 80 57 81 59 82 56 83 52 84
REMARK SMILES IDX 53 85 54 86 55 87 81 88 82 89 90 90 83 91 89 92 91 93 88 94
REMARK SMILES IDX 84 95 85 96 86 97 87 98 66 99 67 100 75 101 68 102 74 103
REMARK SMILES IDX 76 104 73 105 69 106 70 107 71 108 72 109
REMARK H PARENT 12 14 18 20 96 62 64 73
REMARK Flexibility Score: inf
ROOT
ATOM      1  O   UNL A   1      37.810  30.089  31.633  1.00  0.00    -0.377 OA
ENDROOT
BRANCH   1   2
ATOM      2  C   UNL A   1      36.713  30.576  30.900  1.00  0.00     0.188 C 
BRANCH   2   3
ATOM      3  C   UNL A   1      36.226  29.832  29.681  1.00  0.00     0.188 C 
BRANCH   3   4
ATOM      4  O   UNL A   1      36.579  30.375  28.442  1.00  0.00    -0.376 OA
BRANCH   4   5
ATOM      5  C   UNL A   1      35.511  30.436  27.519  1.00  0.00     0.202 C 
BRANCH   5   6
ATOM      6  C   UNL A   1      34.534  29.258  27.393  1.00  0.00     0.261 C 
BRANCH   6   7
ATOM      7  O   UNL A   1      33.974  28.898  26.103  1.00  0.00    -0.463 OA
BRANCH   7   8
ATOM      8  C   UNL A   1      32.626  28.759  26.057  1.00  0.00     0.311 C 
ATOM      9  O   UNL A   1      31.943  28.504  27.044  1.00  0.00    -0.252 OA
BRANCH   8  10
ATOM     10  C   UNL A   1      31.977  28.833  24.672  1.00  0.00     0.134 C 
ATOM     11  N   UNL A   1      32.296  24.736  24.021  1.00  0.00    -0.331 N 
ATOM     12  C   UNL A   1      32.941  25.698  23.157  1.00  0.00     0.264 C 
ATOM     13  C   UNL A   1      31.710  25.422  25.141  1.00  0.00     0.264 C 
ATOM     14  H   UNL A   1      33.093  24.150  24.270  1.00  0.00     0.348 HD
ATOM     15  C   UNL A   1      32.113  26.946  22.817  1.00  0.00     0.091 C 
ATOM     16  C   UNL A   1      30.725  26.561  24.882  1.00  0.00     0.091 C 
ATOM     17  C   UNL A   1      31.295  27.623  23.964  1.00  0.00     0.064 C 
ATOM     18  N   UNL A   1      30.159  28.266  23.305  1.00  0.00    -0.349 N 
ATOM     19  C   UNL A   1      29.900  29.545  23.688  1.00  0.00     0.221 C 
ATOM     20  H   UNL A   1      29.616  27.802  22.627  1.00  0.00     0.164 HD
ATOM     21  C   UNL A   1      30.967  30.002  24.625  1.00  0.00     0.117 C 
ATOM     22  O   UNL A   1      28.944  30.204  23.278  1.00  0.00    -0.275 OA
BRANCH  11  23
ATOM     23  C   UNL A   1      31.552  23.568  23.542  1.00  0.00     0.302 C 
BRANCH  23  24
ATOM     24  C   UNL A   1      32.312  22.282  23.570  1.00  0.00     0.043 A 
ATOM     25  C   UNL A   1      33.186  19.786  24.134  1.00  0.00     0.159 A 
ATOM     26  N   UNL A   1      32.333  19.921  23.099  1.00  0.00    -0.236 NA
ATOM     27  N   UNL A   1      33.667  20.808  24.847  1.00  0.00    -0.236 NA
ATOM     28  C   UNL A   1      31.920  21.179  22.847  1.00  0.00     0.124 A 
ATOM     29  C   UNL A   1      33.308  22.044  24.490  1.00  0.00     0.124 A 
BRANCH  25  30
ATOM     30  C   UNL A   1      33.581  18.438  24.534  1.00  0.00     0.019 A 
ATOM     31  C   UNL A   1      32.013  15.160  25.725  1.00  0.00     0.044 C 
ATOM     32  C   UNL A   1      33.031  16.182  25.313  1.00  0.00    -0.050 A 
ATOM     33  C   UNL A   1      34.385  15.837  25.250  1.00  0.00     0.003 A 
ATOM     34  C   UNL A   1      32.641  17.482  24.954  1.00  0.00     0.015 A 
ATOM     35  C   UNL A   1      35.335  16.784  24.877  1.00  0.00     0.001 A 
ATOM     36  C   UNL A   1      34.934  18.072  24.523  1.00  0.00     0.012 A 
ENDBRANCH  25  30
ENDBRANCH  23  24
ENDBRANCH  11  23
ENDBRANCH   8  10
ENDBRANCH   7   8
ENDBRANCH   6   7
ENDBRANCH   5   6
ENDBRANCH   4   5
ENDBRANCH   3   4
ENDBRANCH   2   3
ENDBRANCH   1   2
BRANCH   1  37
ATOM     37  C   UNL A   1      37.457  29.792  32.974  1.00  0.00     0.188 C 
BRANCH  37  38
ATOM     38  C   UNL A   1      37.549  31.095  33.676  1.00  0.00     0.188 C 
BRANCH  38  39
ATOM     39  O   UNL A   1      38.825  31.695  33.626  1.00  0.00    -0.376 OA
BRANCH  39  40
ATOM     40  C   UNL A   1      39.409  31.815  34.905  1.00  0.00     0.202 C 
BRANCH  40  41
ATOM     41  C   UNL A   1      39.674  30.502  35.697  1.00  0.00     0.261 C 
BRANCH  41  42
ATOM     42  O   UNL A   1      41.000  29.938  35.469  1.00  0.00    -0.460 OA
BRANCH  42  43
ATOM     43  C   UNL A   1      41.117  29.066  34.411  1.00  0.00     0.338 C 
ATOM     44  O   UNL A   1      40.882  27.871  34.468  1.00  0.00    -0.246 OA
BRANCH  43  45
ATOM     45  C   UNL A   1      41.844  29.713  33.251  1.00  0.00     0.060 A 
ATOM     46  C   UNL A   1      41.224  29.745  31.989  1.00  0.00     0.016 A 
ATOM     47  C   UNL A   1      43.214  29.958  33.315  1.00  0.00     0.016 A 
ATOM     48  C   UNL A   1      41.996  29.776  30.806  1.00  0.00     0.010 A 
ATOM     49  C   UNL A   1      43.974  29.872  32.138  1.00  0.00     0.010 A 
ATOM     50  C   UNL A   1      43.389  29.698  30.868  1.00  0.00    -0.014 A 
BRANCH  50  51
ATOM     51  C   UNL A   1      44.270  29.187  29.762  1.00  0.00     0.031 A 
ATOM     52  C   UNL A   1      44.457  27.694  29.552  1.00  0.00     0.074 A 
ATOM     53  C   UNL A   1      44.614  30.043  28.755  1.00  0.00     0.049 A 
ATOM     54  N   UNL A   1      45.082  27.130  28.567  1.00  0.00    -0.248 NA
ATOM     55  C   UNL A   1      43.932  26.682  30.472  1.00  0.00     0.031 C 
ATOM     56  C   UNL A   1      44.815  29.713  27.339  1.00  0.00     0.029 A 
ATOM     57  N   UNL A   1      44.760  31.418  28.720  1.00  0.00    -0.354 N 
ATOM     58  C   UNL A   1      44.742  25.777  28.512  1.00  0.00     0.074 A 
ATOM     59  C   UNL A   1      44.109  25.543  29.787  1.00  0.00     0.031 C 
ATOM     60  C   UNL A   1      45.098  30.808  26.614  1.00  0.00     0.029 A 
ATOM     61  C   UNL A   1      45.413  31.846  27.552  1.00  0.00     0.049 A 
ATOM     62  H   UNL A   1      44.445  32.024  29.429  1.00  0.00     0.167 HD
ATOM     63  C   UNL A   1      44.869  25.085  27.322  1.00  0.00     0.034 A 
ATOM     64  C   UNL A   1      46.660  32.401  27.646  1.00  0.00     0.034 A 
ATOM     65  C   UNL A   1      45.699  25.828  26.335  1.00  0.00     0.049 A 
ATOM     66  C   UNL A   1      47.761  31.296  27.306  1.00  0.00     0.074 A 
ATOM     67  C   UNL A   1      45.720  26.061  24.964  1.00  0.00     0.029 A 
ATOM     68  N   UNL A   1      46.727  26.622  26.829  1.00  0.00    -0.354 N 
ATOM     69  N   UNL A   1      47.504  30.112  26.766  1.00  0.00    -0.248 NA
ATOM     70  C   UNL A   1      49.205  31.423  27.521  1.00  0.00     0.031 C 
ATOM     71  C   UNL A   1      46.692  27.084  24.688  1.00  0.00     0.029 A 
ATOM     72  C   UNL A   1      47.345  27.380  25.868  1.00  0.00     0.049 A 
ATOM     73  H   UNL A   1      46.985  26.641  27.779  1.00  0.00     0.167 HD
ATOM     74  C   UNL A   1      48.624  29.313  26.671  1.00  0.00     0.074 A 
ATOM     75  C   UNL A   1      49.670  30.209  27.150  1.00  0.00     0.031 C 
ATOM     76  C   UNL A   1      48.609  27.991  26.250  1.00  0.00     0.034 A 
BRANCH  63  77
ATOM     77  C   UNL A   1      44.082  23.803  26.918  1.00  0.00     0.023 A 
ATOM     78  C   UNL A   1      44.755  22.722  26.284  1.00  0.00     0.031 A 
ATOM     79  C   UNL A   1      42.678  23.627  26.989  1.00  0.00     0.131 A 
ATOM     80  C   UNL A   1      44.072  21.599  25.750  1.00  0.00     0.055 A 
ATOM     81  C   UNL A   1      42.005  22.480  26.516  1.00  0.00     0.041 A 
ATOM     82  F   UNL A   1      41.864  24.570  27.476  1.00  0.00    -0.206 F 
ATOM     83  C   UNL A   1      42.697  21.462  25.884  1.00  0.00     0.022 A 
BRANCH  80  84
ATOM     84  S   UNL A   1      44.994  20.309  24.849  1.00  0.00     0.124 S 
ATOM     85  O   UNL A   1      46.375  20.605  25.219  1.00  0.00    -0.237 OA
ATOM     86  O   UNL A   1      44.431  19.078  25.390  1.00  0.00    -0.237 OA
ATOM     87  O   UNL A   1      44.664  20.568  23.447  1.00  0.00    -0.744 OA
ENDBRANCH  80  84
ENDBRANCH  63  77
BRANCH  64  88
ATOM     88  C   UNL A   1      46.537  33.514  28.702  1.00  0.00     0.023 A 
ATOM     89  C   UNL A   1      45.312  34.292  28.705  1.00  0.00     0.031 A 
ATOM     90  C   UNL A   1      47.140  33.318  29.958  1.00  0.00     0.131 A 
ATOM     91  C   UNL A   1      44.649  34.608  29.921  1.00  0.00     0.055 A 
ATOM     92  C   UNL A   1      46.449  33.609  31.151  1.00  0.00     0.041 A 
ATOM     93  F   UNL A   1      48.285  32.631  30.066  1.00  0.00    -0.206 F 
ATOM     94  C   UNL A   1      45.177  34.171  31.130  1.00  0.00     0.022 A 
BRANCH  91  95
ATOM     95  S   UNL A   1      43.040  35.490  30.029  1.00  0.00     0.124 S 
ATOM     96  O   UNL A   1      42.192  34.697  29.148  1.00  0.00    -0.237 OA
ATOM     97  O   UNL A   1      42.701  35.448  31.435  1.00  0.00    -0.237 OA
ATOM     98  O   UNL A   1      43.352  36.837  29.549  1.00  0.00    -0.744 OA
ENDBRANCH  91  95
ENDBRANCH  64  88
BRANCH  76  99
ATOM     99  C   UNL A   1      49.780  26.995  26.284  1.00  0.00     0.023 A 
ATOM    100  C   UNL A   1      50.697  26.904  25.248  1.00  0.00     0.031 A 
ATOM    101  C   UNL A   1      50.033  26.110  27.382  1.00  0.00     0.131 A 
ATOM    102  C   UNL A   1      51.890  26.177  25.406  1.00  0.00     0.055 A 
ATOM    103  C   UNL A   1      51.187  25.334  27.510  1.00  0.00     0.041 A 
ATOM    104  F   UNL A   1      49.186  25.942  28.404  1.00  0.00    -0.206 F 
ATOM    105  C   UNL A   1      52.154  25.402  26.532  1.00  0.00     0.022 A 
BRANCH 102 106
ATOM    106  S   UNL A   1      53.141  26.375  24.124  1.00  0.00     0.124 S 
ATOM    107  O   UNL A   1      53.743  27.656  24.473  1.00  0.00    -0.237 OA
ATOM    108  O   UNL A   1      53.976  25.198  24.350  1.00  0.00    -0.237 OA
ATOM    109  O   UNL A   1      52.368  26.363  22.884  1.00  0.00    -0.744 OA
ENDBRANCH 102 106
ENDBRANCH  76  99
ENDBRANCH  50  51
ENDBRANCH  43  45
ENDBRANCH  42  43
ENDBRANCH  41  42
ENDBRANCH  40  41
ENDBRANCH  39  40
ENDBRANCH  38  39
ENDBRANCH  37  38
ENDBRANCH   1  37
TORSDOF 26
ENDMDL
MODEL 3
REMARK VINA RESULT:      -8.7      2.076      2.472
REMARK SMILES Cc1cccc(-c2ncc(C[NH+]3CCC4(CC3)NC(=O)C[C@H]4C(=O)OCCOCCOCCOCCOC(=O)c3ccc(-c4c5nc(c(-c6cc(S(=O)(=O)[O-])ccc6F)c6ccc([nH]6)c(-c6cc(S(=O)(=O)[O-])ccc6F)c6nc(c(-c7cc(S(=O)(=O)[O-])ccc7F)c7ccc4[nH]7)C=C6)C=C5)cc3)cn2)c1
REMARK SMILES IDX 31 1 30 2 29 3 28 4 27 5 26 6 25 7 23 8 24 9 22 10 12 11
REMARK SMILES IDX 13 12 17 13 14 15 16 16 15 17 18 18 19 19 21 21 20 22 11 23
REMARK SMILES IDX 10 24 7 25 8 26 104 27 9 28 103 29 6 30 1 31 2 32 3 33
REMARK SMILES IDX 105 34 4 35 5 36 32 37 33 38 34 39 35 40 36 41 37 42 38 43
REMARK SMILES IDX 39 44 40 45 41 46 102 47 42 48 101 49 43 50 44 51 45 52
REMARK SMILES IDX 95 53 46 54 100 55 94 56 96 57 47 58 99 59 93 60 92 61 48 63
REMARK SMILES IDX 80 64 60 65 79 66 61 67 64 68 78 69 97 70 62 71 63 72 77 74
REMARK SMILES IDX 98 75 65 76 49 77 50 78 58 79 51 80 57 81 59 82 56 83 52 84
REMARK SMILES IDX 53 85 54 86 55 87 81 88 82 89 90 90 83 91 89 92 91 93 88 94
REMARK SMILES IDX 84 95 85 96 86 97 87 98 66 99 67 100 75 101 68 102 74 103
REMARK SMILES IDX 76 104 73 105 69 106 70 107 71 108 72 109
REMARK H PARENT 12 14 18 20 96 62 64 73
REMARK Flexibility Score: inf
ROOT
ATOM      1  O   UNL A   1      33.913  28.853  26.872  1.00  0.00    -0.377 OA
ENDROOT
BRANCH   1   2
ATOM      2  C   UNL A   1      32.944  29.245  25.932  1.00  0.00     0.188 C 
BRANCH   2   3
ATOM      3  C   UNL A   1      31.826  28.303  25.558  1.00  0.00     0.188 C 
BRANCH   3   4
ATOM      4  O   UNL A   1      31.952  27.649  24.329  1.00  0.00    -0.376 OA
BRANCH   4   5
ATOM      5  C   UNL A   1      32.785  26.508  24.371  1.00  0.00     0.202 C 
BRANCH   5   6
ATOM      6  C   UNL A   1      32.659  25.424  23.290  1.00  0.00     0.261 C 
BRANCH   6   7
ATOM      7  O   UNL A   1      32.710  24.018  23.647  1.00  0.00    -0.463 OA
BRANCH   7   8
ATOM      8  C   UNL A   1      33.640  23.274  23.000  1.00  0.00     0.311 C 
ATOM      9  O   UNL A   1      34.078  23.561  21.890  1.00  0.00    -0.252 OA
BRANCH   8  10
ATOM     10  C   UNL A   1      34.064  21.967  23.678  1.00  0.00     0.134 C 
ATOM     11  N   UNL A   1      37.323  23.712  25.585  1.00  0.00    -0.331 N 
ATOM     12  C   UNL A   1      37.482  22.625  24.645  1.00  0.00     0.264 C 
ATOM     13  C   UNL A   1      35.948  24.131  25.599  1.00  0.00     0.264 C 
ATOM     14  H   UNL A   1      37.959  24.399  25.179  1.00  0.00     0.348 HD
ATOM     15  C   UNL A   1      36.441  21.500  24.749  1.00  0.00     0.091 C 
ATOM     16  C   UNL A   1      34.860  23.097  25.883  1.00  0.00     0.091 C 
ATOM     17  C   UNL A   1      34.945  21.897  24.962  1.00  0.00     0.064 C 
ATOM     18  N   UNL A   1      34.342  20.773  25.675  1.00  0.00    -0.349 N 
ATOM     19  C   UNL A   1      33.146  20.341  25.194  1.00  0.00     0.221 C 
ATOM     20  H   UNL A   1      34.774  20.354  26.455  1.00  0.00     0.164 HD
ATOM     21  C   UNL A   1      32.823  21.085  23.942  1.00  0.00     0.117 C 
ATOM     22  O   UNL A   1      32.477  19.448  25.717  1.00  0.00    -0.275 OA
BRANCH  11  23
ATOM     23  C   UNL A   1      38.017  23.793  26.874  1.00  0.00     0.302 C 
BRANCH  23  24
ATOM     24  C   UNL A   1      39.476  23.474  26.825  1.00  0.00     0.043 A 
ATOM     25  C   UNL A   1      41.978  22.846  26.014  1.00  0.00     0.159 A 
ATOM     26  N   UNL A   1      41.685  24.154  26.152  1.00  0.00    -0.236 NA
ATOM     27  N   UNL A   1      41.135  21.854  26.312  1.00  0.00    -0.236 NA
ATOM     28  C   UNL A   1      40.430  24.430  26.558  1.00  0.00     0.124 A 
ATOM     29  C   UNL A   1      39.939  22.178  26.811  1.00  0.00     0.124 A 
BRANCH  25  30
ATOM     30  C   UNL A   1      43.283  22.483  25.467  1.00  0.00     0.019 A 
ATOM     31  C   UNL A   1      45.529  19.417  25.047  1.00  0.00     0.044 C 
ATOM     32  C   UNL A   1      45.025  20.829  24.991  1.00  0.00    -0.050 A 
ATOM     33  C   UNL A   1      45.783  21.819  24.356  1.00  0.00     0.003 A 
ATOM     34  C   UNL A   1      43.781  21.170  25.543  1.00  0.00     0.015 A 
ATOM     35  C   UNL A   1      45.324  23.133  24.310  1.00  0.00     0.001 A 
ATOM     36  C   UNL A   1      44.086  23.459  24.861  1.00  0.00     0.012 A 
ENDBRANCH  25  30
ENDBRANCH  23  24
ENDBRANCH  11  23
ENDBRANCH   8  10
ENDBRANCH   7   8
ENDBRANCH   6   7
ENDBRANCH   5   6
ENDBRANCH   4   5
ENDBRANCH   3   4
ENDBRANCH   2   3
ENDBRANCH   1   2
BRANCH   1  37
ATOM     37  C   UNL A   1      34.589  29.970  27.428  1.00  0.00     0.188 C 
BRANCH  37  38
ATOM     38  C   UNL A   1      33.603  31.075  27.346  1.00  0.00     0.188 C 
BRANCH  38  39
ATOM     39  O   UNL A   1      34.172  32.366  27.362  1.00  0.00    -0.376 OA
BRANCH  39  40
ATOM     40  C   UNL A   1      33.394  33.283  28.100  1.00  0.00     0.202 C 
BRANCH  40  41
ATOM     41  C   UNL A   1      34.105  34.074  29.236  1.00  0.00     0.261 C 
BRANCH  41  42
ATOM     42  O   UNL A   1      35.011  33.260  30.038  1.00  0.00    -0.460 OA
BRANCH  42  43
ATOM     43  C   UNL A   1      36.355  33.508  29.877  1.00  0.00     0.338 C 
ATOM     44  O   UNL A   1      36.818  34.507  29.352  1.00  0.00    -0.246 OA
BRANCH  43  45
ATOM     45  C   UNL A   1      37.176  32.270  30.169  1.00  0.00     0.060 A 
ATOM     46  C   UNL A   1      37.188  31.751  31.476  1.00  0.00     0.016 A 
ATOM     47  C   UNL A   1      38.167  31.846  29.286  1.00  0.00     0.016 A 
ATOM     48  C   UNL A   1      38.302  31.024  31.954  1.00  0.00     0.010 A 
ATOM     49  C   UNL A   1      39.315  31.225  29.803  1.00  0.00     0.010 A 
ATOM     50  C   UNL A   1      39.442  30.874  31.162  1.00  0.00    -0.014 A 
BRANCH  50  51
ATOM     51  C   UNL A   1      40.828  30.630  31.689  1.00  0.00     0.031 A 
ATOM     52  C   UNL A   1      41.548  29.326  31.391  1.00  0.00     0.074 A 
ATOM     53  C   UNL A   1      41.556  31.699  32.129  1.00  0.00     0.049 A 
ATOM     54  N   UNL A   1      42.781  29.047  31.677  1.00  0.00    -0.248 NA
ATOM     55  C   UNL A   1      40.909  28.191  30.721  1.00  0.00     0.031 C 
ATOM     56  C   UNL A   1      43.007  31.889  32.024  1.00  0.00     0.029 A 
ATOM     57  N   UNL A   1      41.178  32.914  32.672  1.00  0.00    -0.354 N 
ATOM     58  C   UNL A   1      43.189  27.930  30.945  1.00  0.00     0.074 A 
ATOM     59  C   UNL A   1      41.946  27.385  30.455  1.00  0.00     0.031 C 
ATOM     60  C   UNL A   1      43.384  33.080  32.517  1.00  0.00     0.029 A 
ATOM     61  C   UNL A   1      42.264  33.588  33.254  1.00  0.00     0.049 A 
ATOM     62  H   UNL A   1      40.258  33.263  32.653  1.00  0.00     0.167 HD
ATOM     63  C   UNL A   1      44.533  27.727  30.694  1.00  0.00     0.034 A 
ATOM     64  C   UNL A   1      42.292  33.767  34.611  1.00  0.00     0.034 A 
ATOM     65  C   UNL A   1      45.392  28.576  31.562  1.00  0.00     0.049 A 
ATOM     66  C   UNL A   1      43.222  32.651  35.274  1.00  0.00     0.074 A 
ATOM     67  C   UNL A   1      46.579  29.295  31.462  1.00  0.00     0.029 A 
ATOM     68  N   UNL A   1      44.926  28.869  32.839  1.00  0.00    -0.354 N 
ATOM     69  N   UNL A   1      44.039  31.849  34.604  1.00  0.00    -0.248 NA
ATOM     70  C   UNL A   1      43.325  32.355  36.705  1.00  0.00     0.031 C 
ATOM     71  C   UNL A   1      46.730  30.096  32.647  1.00  0.00     0.029 A 
ATOM     72  C   UNL A   1      45.708  29.769  33.516  1.00  0.00     0.049 A 
ATOM     73  H   UNL A   1      44.111  28.469  33.219  1.00  0.00     0.167 HD
ATOM     74  C   UNL A   1      44.649  30.912  35.411  1.00  0.00     0.074 A 
ATOM     75  C   UNL A   1      44.168  31.297  36.732  1.00  0.00     0.031 C 
ATOM     76  C   UNL A   1      45.459  29.887  34.944  1.00  0.00     0.034 A 
BRANCH  63  77
ATOM     77  C   UNL A   1      45.132  26.907  29.512  1.00  0.00     0.023 A 
ATOM     78  C   UNL A   1      45.382  27.535  28.261  1.00  0.00     0.031 A 
ATOM     79  C   UNL A   1      45.347  25.507  29.492  1.00  0.00     0.131 A 
ATOM     80  C   UNL A   1      45.775  26.813  27.104  1.00  0.00     0.055 A 
ATOM     81  C   UNL A   1      45.799  24.798  28.359  1.00  0.00     0.041 A 
ATOM     82  F   UNL A   1      45.087  24.729  30.548  1.00  0.00    -0.206 F 
ATOM     83  C   UNL A   1      46.008  25.446  27.154  1.00  0.00     0.022 A 
BRANCH  80  84
ATOM     84  S   UNL A   1      45.963  27.674  25.508  1.00  0.00     0.124 S 
ATOM     85  O   UNL A   1      46.115  26.561  24.576  1.00  0.00    -0.237 OA
ATOM     86  O   UNL A   1      44.722  28.434  25.408  1.00  0.00    -0.237 OA
ATOM     87  O   UNL A   1      47.164  28.487  25.697  1.00  0.00    -0.744 OA
ENDBRANCH  80  84
ENDBRANCH  63  77
BRANCH  64  88
ATOM     88  C   UNL A   1      40.936  34.397  34.972  1.00  0.00     0.023 A 
ATOM     89  C   UNL A   1      39.926  33.518  35.534  1.00  0.00     0.031 A 
ATOM     90  C   UNL A   1      40.914  35.726  35.433  1.00  0.00     0.131 A 
ATOM     91  C   UNL A   1      39.145  33.921  36.651  1.00  0.00     0.055 A 
ATOM     92  C   UNL A   1      40.157  36.094  36.562  1.00  0.00     0.041 A 
ATOM     93  F   UNL A   1      41.791  36.625  34.964  1.00  0.00    -0.206 F 
ATOM     94  C   UNL A   1      39.343  35.174  37.217  1.00  0.00     0.022 A 
BRANCH  91  95
ATOM     95  S   UNL A   1      37.920  32.849  37.503  1.00  0.00     0.124 S 
ATOM     96  O   UNL A   1      38.130  33.192  38.905  1.00  0.00    -0.237 OA
ATOM     97  O   UNL A   1      36.646  33.241  36.942  1.00  0.00    -0.237 OA
ATOM     98  O   UNL A   1      38.327  31.494  37.126  1.00  0.00    -0.744 OA
ENDBRANCH  91  95
ENDBRANCH  64  88
BRANCH  76  99
ATOM     99  C   UNL A   1      46.026  28.712  35.758  1.00  0.00     0.023 A 
ATOM    100  C   UNL A   1      47.318  28.245  35.570  1.00  0.00     0.031 A 
ATOM    101  C   UNL A   1      45.290  28.028  36.780  1.00  0.00     0.131 A 
ATOM    102  C   UNL A   1      47.899  27.348  36.484  1.00  0.00     0.055 A 
ATOM    103  C   UNL A   1      45.848  27.087  37.648  1.00  0.00     0.041 A 
ATOM    104  F   UNL A   1      43.987  28.231  37.010  1.00  0.00    -0.206 F 
ATOM    105  C   UNL A   1      47.183  26.774  37.532  1.00  0.00     0.022 A 
BRANCH 102 106
ATOM    106  S   UNL A   1      49.668  27.046  36.318  1.00  0.00     0.124 S 
ATOM    107  O   UNL A   1      49.711  25.626  35.988  1.00  0.00    -0.237 OA
ATOM    108  O   UNL A   1      50.017  27.961  35.234  1.00  0.00    -0.237 OA
ATOM    109  O   UNL A   1      50.203  27.401  37.630  1.00  0.00    -0.744 OA
ENDBRANCH 102 106
ENDBRANCH  76  99
ENDBRANCH  50  51
ENDBRANCH  43  45
ENDBRANCH  42  43
ENDBRANCH  41  42
ENDBRANCH  40  41
ENDBRANCH  39  40
ENDBRANCH  38  39
ENDBRANCH  37  38
ENDBRANCH   1  37
TORSDOF 26
ENDMDL
