MODEL 1
REMARK VINA RESULT:      -9.4      0.000      0.000
REMARK SMILES O=C(OCCOCCOCCOCCOC(=O)[C@@H]1CCCC[C@@H]1C(=O)Nc1ccccc1C(=O)N1CCN(c2ccc(F)cc2)CC1)c1ccc(-c2c3nc(c(-c4cc(S(=O)(=O)[O-])ccc4F)c4ccc([nH]4)c(-c4cc(S(=O)(=O)[O-])ccc4F)c4nc(c(-c5cc(S(=O)(=O)[O-])ccc5F)c5ccc2[nH]5)C=C4)C=C3)cc1
REMARK SMILES IDX 10 1 9 2 8 3 7 4 6 5 5 6 4 7 3 8 2 9 1 10 48 11 49 12 110 13
REMARK SMILES IDX 50 14 109 15 51 16 52 17 53 18 103 19 54 20 108 21 102 22
REMARK SMILES IDX 104 23 55 24 107 25 101 26 100 27 56 29 88 30 68 31 87 32
REMARK SMILES IDX 69 33 72 34 86 35 105 36 70 37 71 38 85 40 106 41 73 42
REMARK SMILES IDX 57 43 58 44 66 45 59 46 65 47 67 48 64 49 60 50 61 51 62 52
REMARK SMILES IDX 63 53 89 54 90 55 98 56 91 57 97 58 99 59 96 60 92 61 93 62
REMARK SMILES IDX 94 63 95 64 74 65 75 66 83 67 76 68 82 69 84 70 81 71 77 72
REMARK SMILES IDX 78 73 79 74 80 75 11 76 12 77 13 78 14 79 15 80 16 81 17 82
REMARK SMILES IDX 18 83 19 84 23 85 20 86 22 87 21 88 24 89 25 90 26 91 27 93
REMARK SMILES IDX 28 94 32 95 29 96 31 97 30 98 33 99 34 100 35 101 36 102
REMARK SMILES IDX 47 103 37 104 46 105 38 106 39 107 40 108 45 109 41 110
REMARK SMILES IDX 44 111 42 112 43 113
REMARK H PARENT 104 28 72 39 26 92
REMARK Flexibility Score: inf
ROOT
ATOM      1  C   UNL A   1      40.241  21.008  26.118  1.00  0.00     0.188 C 
ENDROOT
BRANCH   1   2
ATOM      2  O   UNL A   1      40.906  21.003  27.385  1.00  0.00    -0.377 OA
BRANCH   2   3
ATOM      3  C   UNL A   1      42.226  21.534  27.460  1.00  0.00     0.188 C 
BRANCH   3   4
ATOM      4  C   UNL A   1      42.536  22.662  28.435  1.00  0.00     0.188 C 
BRANCH   4   5
ATOM      5  O   UNL A   1      42.749  23.903  27.782  1.00  0.00    -0.376 OA
BRANCH   5   6
ATOM      6  C   UNL A   1      41.630  24.537  27.184  1.00  0.00     0.202 C 
BRANCH   6   7
ATOM      7  C   UNL A   1      41.943  25.886  26.524  1.00  0.00     0.261 C 
BRANCH   7   8
ATOM      8  O   UNL A   1      43.345  25.978  26.207  1.00  0.00    -0.460 OA
BRANCH   8   9
ATOM      9  C   UNL A   1      44.128  27.058  26.007  1.00  0.00     0.338 C 
ATOM     10  O   UNL A   1      44.962  27.020  25.105  1.00  0.00    -0.246 OA
BRANCH   9  11
ATOM     11  C   UNL A   1      44.058  28.295  26.832  1.00  0.00     0.060 A 
ATOM     12  C   UNL A   1      43.217  29.376  26.565  1.00  0.00     0.016 A 
ATOM     13  C   UNL A   1      44.799  28.303  28.027  1.00  0.00     0.016 A 
ATOM     14  C   UNL A   1      43.100  30.433  27.439  1.00  0.00     0.010 A 
ATOM     15  C   UNL A   1      44.706  29.375  28.913  1.00  0.00     0.010 A 
ATOM     16  C   UNL A   1      43.857  30.439  28.603  1.00  0.00    -0.014 A 
BRANCH  16  17
ATOM     17  C   UNL A   1      43.865  31.699  29.345  1.00  0.00     0.031 A 
ATOM     18  C   UNL A   1      44.772  32.768  28.830  1.00  0.00     0.074 A 
ATOM     19  C   UNL A   1      42.931  31.900  30.290  1.00  0.00     0.049 A 
ATOM     20  N   UNL A   1      45.018  33.949  29.315  1.00  0.00    -0.248 NA
ATOM     21  C   UNL A   1      45.489  32.471  27.574  1.00  0.00     0.031 C 
ATOM     22  C   UNL A   1      41.893  30.932  30.664  1.00  0.00     0.029 A 
ATOM     23  N   UNL A   1      42.670  32.984  31.074  1.00  0.00    -0.354 N 
ATOM     24  C   UNL A   1      45.950  34.517  28.454  1.00  0.00     0.074 A 
ATOM     25  C   UNL A   1      46.206  33.567  27.399  1.00  0.00     0.031 C 
ATOM     26  C   UNL A   1      41.105  31.476  31.605  1.00  0.00     0.029 A 
ATOM     27  C   UNL A   1      41.639  32.782  31.962  1.00  0.00     0.049 A 
ATOM     28  H   UNL A   1      43.170  33.830  31.010  1.00  0.00     0.167 HD
ATOM     29  C   UNL A   1      46.550  35.722  28.579  1.00  0.00     0.034 A 
ATOM     30  C   UNL A   1      41.240  33.559  32.988  1.00  0.00     0.034 A 
ATOM     31  C   UNL A   1      46.247  36.598  29.679  1.00  0.00     0.049 A 
ATOM     32  C   UNL A   1      42.006  34.848  33.175  1.00  0.00     0.074 A 
ATOM     33  C   UNL A   1      46.833  37.797  30.028  1.00  0.00     0.029 A 
ATOM     34  N   UNL A   1      45.255  36.342  30.626  1.00  0.00    -0.354 N 
ATOM     35  N   UNL A   1      42.974  35.346  32.430  1.00  0.00    -0.248 NA
ATOM     36  C   UNL A   1      41.654  35.670  34.335  1.00  0.00     0.031 C 
ATOM     37  C   UNL A   1      46.238  38.231  31.220  1.00  0.00     0.029 A 
ATOM     38  C   UNL A   1      45.228  37.345  31.574  1.00  0.00     0.049 A 
ATOM     39  H   UNL A   1      44.658  35.559  30.618  1.00  0.00     0.167 HD
ATOM     40  C   UNL A   1      43.339  36.545  33.029  1.00  0.00     0.074 A 
ATOM     41  C   UNL A   1      42.460  36.709  34.173  1.00  0.00     0.031 C 
ATOM     42  C   UNL A   1      44.315  37.430  32.691  1.00  0.00     0.034 A 
BRANCH  29  43
ATOM     43  C   UNL A   1      47.654  36.043  27.605  1.00  0.00     0.023 A 
ATOM     44  C   UNL A   1      49.000  35.718  27.853  1.00  0.00     0.031 A 
ATOM     45  C   UNL A   1      47.360  36.791  26.450  1.00  0.00     0.131 A 
ATOM     46  C   UNL A   1      50.005  36.196  26.994  1.00  0.00     0.055 A 
ATOM     47  C   UNL A   1      48.356  37.201  25.562  1.00  0.00     0.041 A 
ATOM     48  F   UNL A   1      46.099  37.170  26.185  1.00  0.00    -0.206 F 
ATOM     49  C   UNL A   1      49.690  36.914  25.838  1.00  0.00     0.022 A 
BRANCH  46  50
ATOM     50  S   UNL A   1      51.743  35.982  27.471  1.00  0.00     0.124 S 
ATOM     51  O   UNL A   1      52.319  37.260  27.061  1.00  0.00    -0.237 OA
ATOM     52  O   UNL A   1      51.653  35.756  28.909  1.00  0.00    -0.237 OA
ATOM     53  O   UNL A   1      52.176  34.829  26.686  1.00  0.00    -0.744 OA
ENDBRANCH  46  50
ENDBRANCH  29  43
BRANCH  30  54
ATOM     54  C   UNL A   1      40.189  33.107  33.950  1.00  0.00     0.023 A 
ATOM     55  C   UNL A   1      38.830  33.398  33.751  1.00  0.00     0.031 A 
ATOM     56  C   UNL A   1      40.537  32.431  35.139  1.00  0.00     0.131 A 
ATOM     57  C   UNL A   1      37.885  33.068  34.738  1.00  0.00     0.055 A 
ATOM     58  C   UNL A   1      39.586  32.042  36.085  1.00  0.00     0.041 A 
ATOM     59  F   UNL A   1      41.819  32.135  35.405  1.00  0.00    -0.206 F 
ATOM     60  C   UNL A   1      38.251  32.378  35.896  1.00  0.00     0.022 A 
BRANCH  57  61
ATOM     61  S   UNL A   1      36.183  33.673  34.555  1.00  0.00     0.124 S 
ATOM     62  O   UNL A   1      35.577  32.617  33.751  1.00  0.00    -0.237 OA
ATOM     63  O   UNL A   1      35.742  33.755  35.942  1.00  0.00    -0.237 OA
ATOM     64  O   UNL A   1      36.350  34.957  33.876  1.00  0.00    -0.744 OA
ENDBRANCH  57  61
ENDBRANCH  30  54
BRANCH  42  65
ATOM     65  C   UNL A   1      44.426  38.646  33.565  1.00  0.00     0.023 A 
ATOM     66  C   UNL A   1      43.571  39.745  33.392  1.00  0.00     0.031 A 
ATOM     67  C   UNL A   1      45.399  38.699  34.576  1.00  0.00     0.131 A 
ATOM     68  C   UNL A   1      43.750  40.886  34.180  1.00  0.00     0.055 A 
ATOM     69  C   UNL A   1      45.524  39.810  35.405  1.00  0.00     0.041 A 
ATOM     70  F   UNL A   1      46.235  37.668  34.776  1.00  0.00    -0.206 F 
ATOM     71  C   UNL A   1      44.706  40.919  35.199  1.00  0.00     0.022 A 
BRANCH  68  72
ATOM     72  S   UNL A   1      42.782  42.365  33.783  1.00  0.00     0.124 S 
ATOM     73  O   UNL A   1      43.779  43.214  33.140  1.00  0.00    -0.237 OA
ATOM     74  O   UNL A   1      41.740  41.832  32.910  1.00  0.00    -0.237 OA
ATOM     75  O   UNL A   1      42.318  42.829  35.089  1.00  0.00    -0.744 OA
ENDBRANCH  68  72
ENDBRANCH  42  65
ENDBRANCH  16  17
ENDBRANCH   9  11
ENDBRANCH   8   9
ENDBRANCH   7   8
ENDBRANCH   6   7
ENDBRANCH   5   6
ENDBRANCH   4   5
ENDBRANCH   3   4
ENDBRANCH   2   3
ENDBRANCH   1   2
BRANCH   1  76
ATOM     76  C   UNL A   1      39.052  21.978  26.113  1.00  0.00     0.188 C 
BRANCH  76  77
ATOM     77  O   UNL A   1      38.160  21.856  25.004  1.00  0.00    -0.376 OA
BRANCH  77  78
ATOM     78  C   UNL A   1      37.119  22.824  24.912  1.00  0.00     0.202 C 
BRANCH  78  79
ATOM     79  C   UNL A   1      36.027  22.720  25.986  1.00  0.00     0.261 C 
BRANCH  79  80
ATOM     80  O   UNL A   1      35.285  21.485  25.913  1.00  0.00    -0.463 OA
BRANCH  80  81
ATOM     81  C   UNL A   1      34.120  21.440  26.603  1.00  0.00     0.309 C 
ATOM     82  O   UNL A   1      34.058  21.425  27.823  1.00  0.00    -0.252 OA
BRANCH  81  83
ATOM     83  C   UNL A   1      32.879  21.506  25.705  1.00  0.00     0.111 C 
ATOM     84  C   UNL A   1      33.308  21.199  24.262  1.00  0.00     0.016 C 
ATOM     85  C   UNL A   1      31.894  22.689  25.826  1.00  0.00     0.093 C 
ATOM     86  C   UNL A   1      32.152  21.128  23.280  1.00  0.00     0.001 C 
ATOM     87  C   UNL A   1      30.821  22.723  24.715  1.00  0.00     0.014 C 
ATOM     88  C   UNL A   1      31.310  22.384  23.315  1.00  0.00     0.001 C 
BRANCH  85  89
ATOM     89  C   UNL A   1      32.270  24.116  26.253  1.00  0.00     0.228 C 
ATOM     90  O   UNL A   1      31.830  24.539  27.326  1.00  0.00    -0.274 OA
ATOM     91  N   UNL A   1      33.204  24.845  25.577  1.00  0.00    -0.325 N 
ATOM     92  H   UNL A   1      33.984  25.166  26.086  1.00  0.00     0.169 HD
BRANCH  91  93
ATOM     93  C   UNL A   1      33.144  25.174  24.218  1.00  0.00     0.054 A 
ATOM     94  C   UNL A   1      33.937  24.387  23.369  1.00  0.00     0.027 A 
ATOM     95  C   UNL A   1      32.276  26.137  23.680  1.00  0.00     0.063 A 
ATOM     96  C   UNL A   1      33.693  24.373  22.000  1.00  0.00     0.002 A 
ATOM     97  C   UNL A   1      32.024  26.097  22.297  1.00  0.00     0.016 A 
ATOM     98  C   UNL A   1      32.703  25.193  21.469  1.00  0.00     0.001 A 
BRANCH  95  99
ATOM     99  C   UNL A   1      31.551  27.176  24.484  1.00  0.00     0.256 C 
ATOM    100  O   UNL A   1      30.320  27.187  24.466  1.00  0.00    -0.269 OA
ATOM    101  N   UNL A   1      32.273  28.089  25.252  1.00  0.00    -0.335 N 
ATOM    102  C   UNL A   1      31.644  28.581  26.481  1.00  0.00     0.141 C 
ATOM    103  C   UNL A   1      33.203  29.039  24.633  1.00  0.00     0.141 C 
ATOM    104  C   UNL A   1      32.630  29.209  27.477  1.00  0.00     0.138 C 
ATOM    105  C   UNL A   1      34.204  29.671  25.631  1.00  0.00     0.138 C 
ATOM    106  N   UNL A   1      33.500  30.205  26.814  1.00  0.00    -0.368 N 
BRANCH 106 107
ATOM    107  C   UNL A   1      34.173  31.023  27.726  1.00  0.00     0.037 A 
ATOM    108  C   UNL A   1      35.296  30.607  28.452  1.00  0.00     0.029 A 
ATOM    109  C   UNL A   1      33.655  32.301  27.999  1.00  0.00     0.029 A 
ATOM    110  C   UNL A   1      35.860  31.425  29.438  1.00  0.00     0.041 A 
ATOM    111  C   UNL A   1      34.219  33.125  28.976  1.00  0.00     0.041 A 
ATOM    112  C   UNL A   1      35.312  32.672  29.697  1.00  0.00     0.123 A 
ATOM    113  F   UNL A   1      35.836  33.445  30.657  1.00  0.00    -0.207 F 
ENDBRANCH 106 107
ENDBRANCH  95  99
ENDBRANCH  91  93
ENDBRANCH  85  89
ENDBRANCH  81  83
ENDBRANCH  80  81
ENDBRANCH  79  80
ENDBRANCH  78  79
ENDBRANCH  77  78
ENDBRANCH  76  77
ENDBRANCH   1  76
TORSDOF 27
ENDMDL
MODEL 2
REMARK VINA RESULT:      -8.9      1.143      7.200
REMARK SMILES O=C(OCCOCCOCCOCCOC(=O)[C@@H]1CCCC[C@@H]1C(=O)Nc1ccccc1C(=O)N1CCN(c2ccc(F)cc2)CC1)c1ccc(-c2c3nc(c(-c4cc(S(=O)(=O)[O-])ccc4F)c4ccc([nH]4)c(-c4cc(S(=O)(=O)[O-])ccc4F)c4nc(c(-c5cc(S(=O)(=O)[O-])ccc5F)c5ccc2[nH]5)C=C4)C=C3)cc1
REMARK SMILES IDX 10 1 9 2 8 3 7 4 6 5 5 6 4 7 3 8 2 9 1 10 48 11 49 12 110 13
REMARK SMILES IDX 50 14 109 15 51 16 52 17 53 18 103 19 54 20 108 21 102 22
REMARK SMILES IDX 104 23 55 24 107 25 101 26 100 27 56 29 88 30 68 31 87 32
REMARK SMILES IDX 69 33 72 34 86 35 105 36 70 37 71 38 85 40 106 41 73 42
REMARK SMILES IDX 57 43 58 44 66 45 59 46 65 47 67 48 64 49 60 50 61 51 62 52
REMARK SMILES IDX 63 53 89 54 90 55 98 56 91 57 97 58 99 59 96 60 92 61 93 62
REMARK SMILES IDX 94 63 95 64 74 65 75 66 83 67 76 68 82 69 84 70 81 71 77 72
REMARK SMILES IDX 78 73 79 74 80 75 11 76 12 77 13 78 14 79 15 80 16 81 17 82
REMARK SMILES IDX 18 83 19 84 23 85 20 86 22 87 21 88 24 89 25 90 26 91 27 93
REMARK SMILES IDX 28 94 32 95 29 96 31 97 30 98 33 99 34 100 35 101 36 102
REMARK SMILES IDX 47 103 37 104 46 105 38 106 39 107 40 108 45 109 41 110
REMARK SMILES IDX 44 111 42 112 43 113
REMARK H PARENT 104 28 72 39 26 92
REMARK Flexibility Score: inf
ROOT
ATOM      1  C   UNL A   1      40.201  21.059  26.121  1.00  0.00     0.188 C 
ENDROOT
BRANCH   1   2
ATOM      2  O   UNL A   1      40.805  20.933  27.412  1.00  0.00    -0.377 OA
BRANCH   2   3
ATOM      3  C   UNL A   1      42.088  21.517  27.620  1.00  0.00     0.188 C 
BRANCH   3   4
ATOM      4  C   UNL A   1      42.297  22.503  28.762  1.00  0.00     0.188 C 
BRANCH   4   5
ATOM      5  O   UNL A   1      42.443  23.839  28.308  1.00  0.00    -0.376 OA
BRANCH   5   6
ATOM      6  C   UNL A   1      41.273  24.533  27.905  1.00  0.00     0.202 C 
BRANCH   6   7
ATOM      7  C   UNL A   1      41.537  25.898  27.259  1.00  0.00     0.261 C 
BRANCH   7   8
ATOM      8  O   UNL A   1      42.845  25.926  26.655  1.00  0.00    -0.460 OA
BRANCH   8   9
ATOM      9  C   UNL A   1      43.592  26.966  26.235  1.00  0.00     0.338 C 
ATOM     10  O   UNL A   1      44.235  26.846  25.193  1.00  0.00    -0.246 OA
BRANCH   9  11
ATOM     11  C   UNL A   1      43.705  28.256  26.971  1.00  0.00     0.060 A 
ATOM     12  C   UNL A   1      42.893  29.368  26.745  1.00  0.00     0.016 A 
ATOM     13  C   UNL A   1      44.607  28.293  28.048  1.00  0.00     0.016 A 
ATOM     14  C   UNL A   1      42.957  30.484  27.549  1.00  0.00     0.010 A 
ATOM     15  C   UNL A   1      44.697  29.423  28.860  1.00  0.00     0.010 A 
ATOM     16  C   UNL A   1      43.870  30.516  28.594  1.00  0.00    -0.014 A 
BRANCH  16  17
ATOM     17  C   UNL A   1      44.050  31.818  29.236  1.00  0.00     0.031 A 
ATOM     18  C   UNL A   1      43.299  32.041  30.508  1.00  0.00     0.074 A 
ATOM     19  C   UNL A   1      45.013  32.637  28.781  1.00  0.00     0.049 A 
ATOM     20  N   UNL A   1      43.229  33.104  31.252  1.00  0.00    -0.248 NA
ATOM     21  C   UNL A   1      42.534  30.890  31.028  1.00  0.00     0.031 C 
ATOM     22  C   UNL A   1      45.906  32.339  27.655  1.00  0.00     0.029 A 
ATOM     23  N   UNL A   1      45.435  33.855  29.224  1.00  0.00    -0.354 N 
ATOM     24  C   UNL A   1      42.379  32.770  32.300  1.00  0.00     0.074 A 
ATOM     25  C   UNL A   1      41.978  31.397  32.115  1.00  0.00     0.031 C 
ATOM     26  C   UNL A   1      46.774  33.352  27.504  1.00  0.00     0.029 A 
ATOM     27  C   UNL A   1      46.436  34.401  28.455  1.00  0.00     0.049 A 
ATOM     28  H   UNL A   1      45.060  34.300  30.019  1.00  0.00     0.167 HD
ATOM     29  C   UNL A   1      41.959  33.575  33.300  1.00  0.00     0.034 A 
ATOM     30  C   UNL A   1      46.953  35.644  28.495  1.00  0.00     0.034 A 
ATOM     31  C   UNL A   1      42.396  34.943  33.393  1.00  0.00     0.049 A 
ATOM     32  C   UNL A   1      46.381  36.562  29.551  1.00  0.00     0.074 A 
ATOM     33  C   UNL A   1      41.991  35.933  34.265  1.00  0.00     0.029 A 
ATOM     34  N   UNL A   1      43.351  35.513  32.551  1.00  0.00    -0.354 N 
ATOM     35  N   UNL A   1      45.486  36.290  30.481  1.00  0.00    -0.248 NA
ATOM     36  C   UNL A   1      46.860  37.946  29.560  1.00  0.00     0.031 C 
ATOM     37  C   UNL A   1      42.654  37.113  33.908  1.00  0.00     0.029 A 
ATOM     38  C   UNL A   1      43.531  36.844  32.864  1.00  0.00     0.049 A 
ATOM     39  H   UNL A   1      43.830  35.032  31.837  1.00  0.00     0.167 HD
ATOM     40  C   UNL A   1      45.302  37.469  31.191  1.00  0.00     0.074 A 
ATOM     41  C   UNL A   1      46.209  38.440  30.603  1.00  0.00     0.031 C 
ATOM     42  C   UNL A   1      44.460  37.747  32.221  1.00  0.00     0.034 A 
BRANCH  29  43
ATOM     43  C   UNL A   1      40.901  33.028  34.224  1.00  0.00     0.023 A 
ATOM     44  C   UNL A   1      39.529  33.266  34.028  1.00  0.00     0.031 A 
ATOM     45  C   UNL A   1      41.290  32.343  35.390  1.00  0.00     0.131 A 
ATOM     46  C   UNL A   1      38.604  32.880  35.014  1.00  0.00     0.055 A 
ATOM     47  C   UNL A   1      40.359  31.899  36.330  1.00  0.00     0.041 A 
ATOM     48  F   UNL A   1      42.589  32.127  35.653  1.00  0.00    -0.206 F 
ATOM     49  C   UNL A   1      39.008  32.177  36.152  1.00  0.00     0.022 A 
BRANCH  46  50
ATOM     50  S   UNL A   1      36.879  33.423  34.860  1.00  0.00     0.124 S 
ATOM     51  O   UNL A   1      37.038  34.735  34.238  1.00  0.00    -0.237 OA
ATOM     52  O   UNL A   1      36.292  32.386  34.018  1.00  0.00    -0.237 OA
ATOM     53  O   UNL A   1      36.401  33.447  36.241  1.00  0.00    -0.744 OA
ENDBRANCH  46  50
ENDBRANCH  29  43
BRANCH  30  54
ATOM     54  C   UNL A   1      47.939  36.116  27.475  1.00  0.00     0.023 A 
ATOM     55  C   UNL A   1      49.321  36.111  27.725  1.00  0.00     0.031 A 
ATOM     56  C   UNL A   1      47.508  36.656  26.246  1.00  0.00     0.131 A 
ATOM     57  C   UNL A   1      50.209  36.678  26.795  1.00  0.00     0.055 A 
ATOM     58  C   UNL A   1      48.399  37.155  25.293  1.00  0.00     0.041 A 
ATOM     59  F   UNL A   1      46.200  36.711  25.945  1.00  0.00    -0.206 F 
ATOM     60  C   UNL A   1      49.760  37.185  25.574  1.00  0.00     0.022 A 
BRANCH  57  61
ATOM     61  S   UNL A   1      51.954  36.869  27.257  1.00  0.00     0.124 S 
ATOM     62  O   UNL A   1      52.499  35.561  26.911  1.00  0.00    -0.237 OA
ATOM     63  O   UNL A   1      52.370  37.982  26.412  1.00  0.00    -0.237 OA
ATOM     64  O   UNL A   1      51.896  37.161  28.688  1.00  0.00    -0.744 OA
ENDBRANCH  57  61
ENDBRANCH  30  54
BRANCH  42  65
ATOM     65  C   UNL A   1      44.533  39.144  32.767  1.00  0.00     0.023 A 
ATOM     66  C   UNL A   1      45.406  39.469  33.817  1.00  0.00     0.031 A 
ATOM     67  C   UNL A   1      43.718  40.154  32.230  1.00  0.00     0.131 A 
ATOM     68  C   UNL A   1      45.396  40.764  34.344  1.00  0.00     0.055 A 
ATOM     69  C   UNL A   1      43.766  41.459  32.711  1.00  0.00     0.041 A 
ATOM     70  F   UNL A   1      42.870  39.885  31.224  1.00  0.00    -0.206 F 
ATOM     71  C   UNL A   1      44.599  41.766  33.784  1.00  0.00     0.022 A 
BRANCH  68  72
ATOM     72  S   UNL A   1      46.368  41.091  35.837  1.00  0.00     0.124 S 
ATOM     73  O   UNL A   1      45.328  41.217  36.852  1.00  0.00    -0.237 OA
ATOM     74  O   UNL A   1      47.209  39.902  35.930  1.00  0.00    -0.237 OA
ATOM     75  O   UNL A   1      47.078  42.328  35.517  1.00  0.00    -0.744 OA
ENDBRANCH  68  72
ENDBRANCH  42  65
ENDBRANCH  16  17
ENDBRANCH   9  11
ENDBRANCH   8   9
ENDBRANCH   7   8
ENDBRANCH   6   7
ENDBRANCH   5   6
ENDBRANCH   4   5
ENDBRANCH   3   4
ENDBRANCH   2   3
ENDBRANCH   1   2
BRANCH   1  76
ATOM     76  C   UNL A   1      39.002  22.016  26.155  1.00  0.00     0.188 C 
BRANCH  76  77
ATOM     77  O   UNL A   1      38.155  21.986  25.005  1.00  0.00    -0.376 OA
BRANCH  77  78
ATOM     78  C   UNL A   1      37.113  22.956  24.953  1.00  0.00     0.202 C 
BRANCH  78  79
ATOM     79  C   UNL A   1      36.020  22.806  26.021  1.00  0.00     0.261 C 
BRANCH  79  80
ATOM     80  O   UNL A   1      35.320  21.548  25.932  1.00  0.00    -0.463 OA
BRANCH  80  81
ATOM     81  C   UNL A   1      34.148  21.461  26.604  1.00  0.00     0.309 C 
ATOM     82  O   UNL A   1      34.068  21.439  27.824  1.00  0.00    -0.252 OA
BRANCH  81  83
ATOM     83  C   UNL A   1      32.919  21.491  25.688  1.00  0.00     0.111 C 
ATOM     84  C   UNL A   1      33.374  21.173  24.255  1.00  0.00     0.016 C 
ATOM     85  C   UNL A   1      31.909  22.655  25.779  1.00  0.00     0.093 C 
ATOM     86  C   UNL A   1      32.234  21.066  23.259  1.00  0.00     0.001 C 
ATOM     87  C   UNL A   1      30.852  22.653  24.653  1.00  0.00     0.014 C 
ATOM     88  C   UNL A   1      31.367  22.305  23.264  1.00  0.00     0.001 C 
BRANCH  85  89
ATOM     89  C   UNL A   1      32.250  24.096  26.192  1.00  0.00     0.228 C 
ATOM     90  O   UNL A   1      31.795  24.520  27.258  1.00  0.00    -0.274 OA
ATOM     91  N   UNL A   1      33.171  24.838  25.513  1.00  0.00    -0.325 N 
ATOM     92  H   UNL A   1      33.941  25.182  26.022  1.00  0.00     0.169 HD
BRANCH  91  93
ATOM     93  C   UNL A   1      33.111  25.150  24.150  1.00  0.00     0.054 A 
ATOM     94  C   UNL A   1      33.926  24.371  23.314  1.00  0.00     0.027 A 
ATOM     95  C   UNL A   1      32.225  26.087  23.596  1.00  0.00     0.063 A 
ATOM     96  C   UNL A   1      33.690  24.337  21.944  1.00  0.00     0.002 A 
ATOM     97  C   UNL A   1      31.981  26.026  22.213  1.00  0.00     0.016 A 
ATOM     98  C   UNL A   1      32.685  25.129  21.398  1.00  0.00     0.001 A 
BRANCH  95  99
ATOM     99  C   UNL A   1      31.472  27.119  24.385  1.00  0.00     0.256 C 
ATOM    100  O   UNL A   1      30.242  27.108  24.352  1.00  0.00    -0.269 OA
ATOM    101  N   UNL A   1      32.170  28.048  25.156  1.00  0.00    -0.335 N 
ATOM    102  C   UNL A   1      31.517  28.537  26.373  1.00  0.00     0.141 C 
ATOM    103  C   UNL A   1      33.090  29.011  24.541  1.00  0.00     0.141 C 
ATOM    104  C   UNL A   1      32.480  29.189  27.377  1.00  0.00     0.138 C 
ATOM    105  C   UNL A   1      34.068  29.667  25.547  1.00  0.00     0.138 C 
ATOM    106  N   UNL A   1      33.340  30.196  26.718  1.00  0.00    -0.368 N 
BRANCH 106 107
ATOM    107  C   UNL A   1      33.988  31.031  27.632  1.00  0.00     0.037 A 
ATOM    108  C   UNL A   1      33.513  32.299  27.989  1.00  0.00     0.029 A 
ATOM    109  C   UNL A   1      35.225  30.624  28.162  1.00  0.00     0.029 A 
ATOM    110  C   UNL A   1      34.262  33.142  28.820  1.00  0.00     0.041 A 
ATOM    111  C   UNL A   1      35.972  31.457  28.998  1.00  0.00     0.041 A 
ATOM    112  C   UNL A   1      35.488  32.717  29.309  1.00  0.00     0.123 A 
ATOM    113  F   UNL A   1      36.216  33.533  30.083  1.00  0.00    -0.207 F 
ENDBRANCH 106 107
ENDBRANCH  95  99
ENDBRANCH  91  93
ENDBRANCH  85  89
ENDBRANCH  81  83
ENDBRANCH  80  81
ENDBRANCH  79  80
ENDBRANCH  78  79
ENDBRANCH  77  78
ENDBRANCH  76  77
ENDBRANCH   1  76
TORSDOF 27
ENDMDL
MODEL 3
REMARK VINA RESULT:      -8.7      1.630      2.090
REMARK SMILES O=C(OCCOCCOCCOCCOC(=O)[C@@H]1CCCC[C@@H]1C(=O)Nc1ccccc1C(=O)N1CCN(c2ccc(F)cc2)CC1)c1ccc(-c2c3nc(c(-c4cc(S(=O)(=O)[O-])ccc4F)c4ccc([nH]4)c(-c4cc(S(=O)(=O)[O-])ccc4F)c4nc(c(-c5cc(S(=O)(=O)[O-])ccc5F)c5ccc2[nH]5)C=C4)C=C3)cc1
REMARK SMILES IDX 10 1 9 2 8 3 7 4 6 5 5 6 4 7 3 8 2 9 1 10 48 11 49 12 110 13
REMARK SMILES IDX 50 14 109 15 51 16 52 17 53 18 103 19 54 20 108 21 102 22
REMARK SMILES IDX 104 23 55 24 107 25 101 26 100 27 56 29 88 30 68 31 87 32
REMARK SMILES IDX 69 33 72 34 86 35 105 36 70 37 71 38 85 40 106 41 73 42
REMARK SMILES IDX 57 43 58 44 66 45 59 46 65 47 67 48 64 49 60 50 61 51 62 52
REMARK SMILES IDX 63 53 89 54 90 55 98 56 91 57 97 58 99 59 96 60 92 61 93 62
REMARK SMILES IDX 94 63 95 64 74 65 75 66 83 67 76 68 82 69 84 70 81 71 77 72
REMARK SMILES IDX 78 73 79 74 80 75 11 76 12 77 13 78 14 79 15 80 16 81 17 82
REMARK SMILES IDX 18 83 19 84 23 85 20 86 22 87 21 88 24 89 25 90 26 91 27 93
REMARK SMILES IDX 28 94 32 95 29 96 31 97 30 98 33 99 34 100 35 101 36 102
REMARK SMILES IDX 47 103 37 104 46 105 38 106 39 107 40 108 45 109 41 110
REMARK SMILES IDX 44 111 42 112 43 113
REMARK H PARENT 104 28 72 39 26 92
REMARK Flexibility Score: inf
ROOT
ATOM      1  C   UNL A   1      40.243  21.181  26.152  1.00  0.00     0.188 C 
ENDROOT
BRANCH   1   2
ATOM      2  O   UNL A   1      40.800  21.226  27.469  1.00  0.00    -0.377 OA
BRANCH   2   3
ATOM      3  C   UNL A   1      42.062  21.863  27.651  1.00  0.00     0.188 C 
BRANCH   3   4
ATOM      4  C   UNL A   1      42.253  22.861  28.785  1.00  0.00     0.188 C 
BRANCH   4   5
ATOM      5  O   UNL A   1      42.496  24.178  28.317  1.00  0.00    -0.376 OA
BRANCH   5   6
ATOM      6  C   UNL A   1      41.378  24.962  27.934  1.00  0.00     0.202 C 
BRANCH   6   7
ATOM      7  C   UNL A   1      41.723  26.397  27.517  1.00  0.00     0.261 C 
BRANCH   7   8
ATOM      8  O   UNL A   1      43.073  26.467  27.021  1.00  0.00    -0.460 OA
BRANCH   8   9
ATOM      9  C   UNL A   1      43.844  27.534  26.730  1.00  0.00     0.338 C 
ATOM     10  O   UNL A   1      44.508  27.515  25.695  1.00  0.00    -0.246 OA
BRANCH   9  11
ATOM     11  C   UNL A   1      43.958  28.736  27.602  1.00  0.00     0.060 A 
ATOM     12  C   UNL A   1      44.553  28.744  28.864  1.00  0.00     0.016 A 
ATOM     13  C   UNL A   1      43.552  29.962  27.046  1.00  0.00     0.016 A 
ATOM     14  C   UNL A   1      44.748  29.913  29.563  1.00  0.00     0.010 A 
ATOM     15  C   UNL A   1      43.725  31.152  27.750  1.00  0.00     0.010 A 
ATOM     16  C   UNL A   1      44.319  31.113  29.013  1.00  0.00    -0.014 A 
BRANCH  16  17
ATOM     17  C   UNL A   1      44.334  32.264  29.916  1.00  0.00     0.031 A 
ATOM     18  C   UNL A   1      45.522  33.164  29.825  1.00  0.00     0.074 A 
ATOM     19  C   UNL A   1      43.219  32.562  30.603  1.00  0.00     0.049 A 
ATOM     20  N   UNL A   1      45.821  34.213  30.532  1.00  0.00    -0.248 NA
ATOM     21  C   UNL A   1      46.505  32.848  28.769  1.00  0.00     0.031 C 
ATOM     22  C   UNL A   1      41.965  31.801  30.540  1.00  0.00     0.029 A 
ATOM     23  N   UNL A   1      42.937  33.594  31.447  1.00  0.00    -0.354 N 
ATOM     24  C   UNL A   1      47.045  34.655  30.041  1.00  0.00     0.074 A 
ATOM     25  C   UNL A   1      47.422  33.781  28.958  1.00  0.00     0.031 C 
ATOM     26  C   UNL A   1      41.047  32.403  31.314  1.00  0.00     0.029 A 
ATOM     27  C   UNL A   1      41.677  33.527  31.994  1.00  0.00     0.049 A 
ATOM     28  H   UNL A   1      43.574  34.319  31.646  1.00  0.00     0.167 HD
ATOM     29  C   UNL A   1      47.784  35.689  30.501  1.00  0.00     0.034 A 
ATOM     30  C   UNL A   1      41.142  34.265  32.986  1.00  0.00     0.034 A 
ATOM     31  C   UNL A   1      47.337  36.497  31.605  1.00  0.00     0.049 A 
ATOM     32  C   UNL A   1      42.035  35.340  33.561  1.00  0.00     0.074 A 
ATOM     33  C   UNL A   1      47.997  37.506  32.274  1.00  0.00     0.029 A 
ATOM     34  N   UNL A   1      46.086  36.362  32.209  1.00  0.00    -0.354 N 
ATOM     35  N   UNL A   1      43.247  35.695  33.180  1.00  0.00    -0.248 NA
ATOM     36  C   UNL A   1      41.515  36.099  34.700  1.00  0.00     0.031 C 
ATOM     37  C   UNL A   1      47.172  37.935  33.321  1.00  0.00     0.029 A 
ATOM     38  C   UNL A   1      45.965  37.250  33.258  1.00  0.00     0.049 A 
ATOM     39  H   UNL A   1      45.390  35.726  31.926  1.00  0.00     0.167 HD
ATOM     40  C   UNL A   1      43.629  36.725  34.029  1.00  0.00     0.074 A 
ATOM     41  C   UNL A   1      42.501  36.957  34.916  1.00  0.00     0.031 C 
ATOM     42  C   UNL A   1      44.799  37.415  34.098  1.00  0.00     0.034 A 
BRANCH  29  43
ATOM     43  C   UNL A   1      49.159  35.866  29.911  1.00  0.00     0.023 A 
ATOM     44  C   UNL A   1      49.407  36.705  28.810  1.00  0.00     0.031 A 
ATOM     45  C   UNL A   1      50.226  35.088  30.399  1.00  0.00     0.131 A 
ATOM     46  C   UNL A   1      50.671  36.697  28.194  1.00  0.00     0.055 A 
ATOM     47  C   UNL A   1      51.498  35.139  29.827  1.00  0.00     0.041 A 
ATOM     48  F   UNL A   1      50.037  34.235  31.418  1.00  0.00    -0.206 F 
ATOM     49  C   UNL A   1      51.724  35.938  28.710  1.00  0.00     0.022 A 
BRANCH  46  50
ATOM     50  S   UNL A   1      50.891  37.589  26.629  1.00  0.00     0.124 S 
ATOM     51  O   UNL A   1      51.339  38.898  27.097  1.00  0.00    -0.237 OA
ATOM     52  O   UNL A   1      51.892  36.782  25.940  1.00  0.00    -0.237 OA
ATOM     53  O   UNL A   1      49.557  37.570  26.031  1.00  0.00    -0.744 OA
ENDBRANCH  46  50
ENDBRANCH  29  43
BRANCH  30  54
ATOM     54  C   UNL A   1      39.798  33.952  33.559  1.00  0.00     0.023 A 
ATOM     55  C   UNL A   1      39.654  33.231  34.756  1.00  0.00     0.031 A 
ATOM     56  C   UNL A   1      38.617  34.308  32.875  1.00  0.00     0.131 A 
ATOM     57  C   UNL A   1      38.377  32.845  35.199  1.00  0.00     0.055 A 
ATOM     58  C   UNL A   1      37.346  33.983  33.355  1.00  0.00     0.041 A 
ATOM     59  F   UNL A   1      38.677  34.982  31.715  1.00  0.00    -0.206 F 
ATOM     60  C   UNL A   1      37.222  33.230  34.516  1.00  0.00     0.022 A 
BRANCH  57  61
ATOM     61  S   UNL A   1      38.249  31.714  36.614  1.00  0.00     0.124 S 
ATOM     62  O   UNL A   1      39.581  31.815  37.197  1.00  0.00    -0.237 OA
ATOM     63  O   UNL A   1      37.164  32.315  37.382  1.00  0.00    -0.237 OA
ATOM     64  O   UNL A   1      37.935  30.429  35.993  1.00  0.00    -0.744 OA
ENDBRANCH  57  61
ENDBRANCH  30  54
BRANCH  42  65
ATOM     65  C   UNL A   1      44.866  38.488  35.145  1.00  0.00     0.023 A 
ATOM     66  C   UNL A   1      44.526  39.817  34.847  1.00  0.00     0.031 A 
ATOM     67  C   UNL A   1      45.275  38.173  36.452  1.00  0.00     0.131 A 
ATOM     68  C   UNL A   1      44.666  40.800  35.831  1.00  0.00     0.055 A 
ATOM     69  C   UNL A   1      45.342  39.145  37.445  1.00  0.00     0.041 A 
ATOM     70  F   UNL A   1      45.607  36.914  36.779  1.00  0.00    -0.206 F 
ATOM     71  C   UNL A   1      45.051  40.470  37.133  1.00  0.00     0.022 A 
BRANCH  68  72
ATOM     72  S   UNL A   1      44.435  42.532  35.353  1.00  0.00     0.124 S 
ATOM     73  O   UNL A   1      44.934  43.237  36.529  1.00  0.00    -0.237 OA
ATOM     74  O   UNL A   1      45.256  42.637  34.151  1.00  0.00    -0.237 OA
ATOM     75  O   UNL A   1      42.994  42.635  35.130  1.00  0.00    -0.744 OA
ENDBRANCH  68  72
ENDBRANCH  42  65
ENDBRANCH  16  17
ENDBRANCH   9  11
ENDBRANCH   8   9
ENDBRANCH   7   8
ENDBRANCH   6   7
ENDBRANCH   5   6
ENDBRANCH   4   5
ENDBRANCH   3   4
ENDBRANCH   2   3
ENDBRANCH   1   2
BRANCH   1  76
ATOM     76  C   UNL A   1      38.929  21.968  26.072  1.00  0.00     0.188 C 
BRANCH  76  77
ATOM     77  O   UNL A   1      38.067  21.624  24.986  1.00  0.00    -0.376 OA
BRANCH  77  78
ATOM     78  C   UNL A   1      36.952  22.480  24.758  1.00  0.00     0.202 C 
BRANCH  78  79
ATOM     79  C   UNL A   1      35.968  22.604  25.930  1.00  0.00     0.261 C 
BRANCH  79  80
ATOM     80  O   UNL A   1      35.219  21.393  26.163  1.00  0.00    -0.463 OA
BRANCH  80  81
ATOM     81  C   UNL A   1      34.041  21.529  26.816  1.00  0.00     0.309 C 
ATOM     82  O   UNL A   1      33.953  21.683  28.025  1.00  0.00    -0.252 OA
BRANCH  81  83
ATOM     83  C   UNL A   1      32.828  21.567  25.879  1.00  0.00     0.111 C 
ATOM     84  C   UNL A   1      33.294  21.182  24.467  1.00  0.00     0.016 C 
ATOM     85  C   UNL A   1      31.859  22.769  25.911  1.00  0.00     0.093 C 
ATOM     86  C   UNL A   1      32.166  21.078  23.456  1.00  0.00     0.001 C 
ATOM     87  C   UNL A   1      30.820  22.762  24.768  1.00  0.00     0.014 C 
ATOM     88  C   UNL A   1      31.343  22.346  23.402  1.00  0.00     0.001 C 
BRANCH  85  89
ATOM     89  C   UNL A   1      32.244  24.211  26.277  1.00  0.00     0.228 C 
ATOM     90  O   UNL A   1      31.790  24.689  27.322  1.00  0.00    -0.274 OA
ATOM     91  N   UNL A   1      33.199  24.896  25.586  1.00  0.00    -0.325 N 
ATOM     92  H   UNL A   1      33.973  25.232  26.093  1.00  0.00     0.169 HD
BRANCH  91  93
ATOM     93  C   UNL A   1      33.167  25.161  24.212  1.00  0.00     0.054 A 
ATOM     94  C   UNL A   1      33.941  24.306  23.413  1.00  0.00     0.027 A 
ATOM     95  C   UNL A   1      32.341  26.127  23.616  1.00  0.00     0.063 A 
ATOM     96  C   UNL A   1      33.713  24.235  22.042  1.00  0.00     0.002 A 
ATOM     97  C   UNL A   1      32.105  26.030  22.234  1.00  0.00     0.016 A 
ATOM     98  C   UNL A   1      32.760  25.064  21.459  1.00  0.00     0.001 A 
BRANCH  95  99
ATOM     99  C   UNL A   1      31.645  27.230  24.360  1.00  0.00     0.256 C 
ATOM    100  O   UNL A   1      30.420  27.317  24.279  1.00  0.00    -0.269 OA
ATOM    101  N   UNL A   1      32.386  28.114  25.145  1.00  0.00    -0.335 N 
ATOM    102  C   UNL A   1      31.729  28.675  26.328  1.00  0.00     0.141 C 
ATOM    103  C   UNL A   1      33.404  28.988  24.553  1.00  0.00     0.141 C 
ATOM    104  C   UNL A   1      32.703  29.264  27.360  1.00  0.00     0.138 C 
ATOM    105  C   UNL A   1      34.392  29.581  25.587  1.00  0.00     0.138 C 
ATOM    106  N   UNL A   1      33.666  30.187  26.721  1.00  0.00    -0.368 N 
BRANCH 106 107
ATOM    107  C   UNL A   1      34.344  30.983  27.648  1.00  0.00     0.037 A 
ATOM    108  C   UNL A   1      33.724  31.987  28.402  1.00  0.00     0.029 A 
ATOM    109  C   UNL A   1      35.737  30.836  27.777  1.00  0.00     0.029 A 
ATOM    110  C   UNL A   1      34.472  32.833  29.230  1.00  0.00     0.041 A 
ATOM    111  C   UNL A   1      36.486  31.672  28.607  1.00  0.00     0.041 A 
ATOM    112  C   UNL A   1      35.847  32.674  29.318  1.00  0.00     0.123 A 
ATOM    113  F   UNL A   1      36.566  33.499  30.090  1.00  0.00    -0.207 F 
ENDBRANCH 106 107
ENDBRANCH  95  99
ENDBRANCH  91  93
ENDBRANCH  85  89
ENDBRANCH  81  83
ENDBRANCH  80  81
ENDBRANCH  79  80
ENDBRANCH  78  79
ENDBRANCH  77  78
ENDBRANCH  76  77
ENDBRANCH   1  76
TORSDOF 27
ENDMDL
