MODEL 1
REMARK VINA RESULT:      -8.9      0.000      0.000
REMARK SMILES O=C(OCCOCCOCCOCCOC(=O)c1ccc(S(=O)(=O)NC[C@H]2CCS(=O)(=O)C2)cc1)c1ccc(-c2c3nc(c(-c4cc(S(=O)(=O)[O-])ccc4F)c4ccc([nH]4)c(-c4cc(S(=O)(=O)[O-])ccc4F)c4nc(c(-c5cc(S(=O)(=O)[O-])ccc5F)c5ccc2[nH]5)C=C4)C=C3)cc1
REMARK SMILES IDX 10 1 9 2 8 3 7 4 6 5 5 6 4 7 3 8 2 9 1 10 36 11 37 12 98 13
REMARK SMILES IDX 38 14 97 15 39 16 40 17 41 18 91 19 42 20 96 21 90 22 92 23
REMARK SMILES IDX 43 24 95 25 89 26 88 27 44 29 76 30 56 31 75 32 57 33 60 34
REMARK SMILES IDX 74 35 93 36 58 37 59 38 73 40 94 41 61 42 45 43 46 44 54 45
REMARK SMILES IDX 47 46 53 47 55 48 52 49 48 50 49 51 50 52 51 53 77 54 78 55
REMARK SMILES IDX 86 56 79 57 85 58 87 59 84 60 80 61 81 62 82 63 83 64 62 65
REMARK SMILES IDX 63 66 71 67 64 68 70 69 72 70 69 71 65 72 66 73 67 74 68 75
REMARK SMILES IDX 11 76 12 77 13 78 14 79 15 80 16 81 17 82 18 83 19 84 35 85
REMARK SMILES IDX 20 86 34 87 21 88 22 89 23 90 24 91 25 92 26 94 27 95 28 96
REMARK SMILES IDX 33 97 29 98 30 99 31 100 32 101
REMARK H PARENT 92 28 60 39 25 93
REMARK Flexibility Score: inf
ROOT
ATOM      1  C   UNL A   1      30.747  26.736  23.628  1.00  0.00     0.188 C 
ENDROOT
BRANCH   1   2
ATOM      2  O   UNL A   1      31.813  27.435  24.264  1.00  0.00    -0.377 OA
BRANCH   2   3
ATOM      3  C   UNL A   1      31.493  28.073  25.503  1.00  0.00     0.188 C 
BRANCH   3   4
ATOM      4  C   UNL A   1      31.901  29.545  25.589  1.00  0.00     0.188 C 
BRANCH   4   5
ATOM      5  O   UNL A   1      32.208  29.896  26.942  1.00  0.00    -0.376 OA
BRANCH   5   6
ATOM      6  C   UNL A   1      32.853  31.160  27.113  1.00  0.00     0.202 C 
BRANCH   6   7
ATOM      7  C   UNL A   1      34.115  31.103  27.974  1.00  0.00     0.261 C 
BRANCH   7   8
ATOM      8  O   UNL A   1      34.257  32.288  28.769  1.00  0.00    -0.460 OA
BRANCH   8   9
ATOM      9  C   UNL A   1      34.847  32.395  29.985  1.00  0.00     0.338 C 
ATOM     10  O   UNL A   1      34.264  33.049  30.852  1.00  0.00    -0.246 OA
BRANCH   9  11
ATOM     11  C   UNL A   1      36.150  31.751  30.356  1.00  0.00     0.060 A 
ATOM     12  C   UNL A   1      36.309  30.526  31.015  1.00  0.00     0.016 A 
ATOM     13  C   UNL A   1      37.311  32.431  29.951  1.00  0.00     0.016 A 
ATOM     14  C   UNL A   1      37.567  30.035  31.352  1.00  0.00     0.010 A 
ATOM     15  C   UNL A   1      38.579  31.936  30.263  1.00  0.00     0.010 A 
ATOM     16  C   UNL A   1      38.703  30.757  31.006  1.00  0.00    -0.014 A 
BRANCH  16  17
ATOM     17  C   UNL A   1      39.992  30.401  31.626  1.00  0.00     0.031 A 
ATOM     18  C   UNL A   1      40.350  31.102  32.900  1.00  0.00     0.074 A 
ATOM     19  C   UNL A   1      40.775  29.448  31.098  1.00  0.00     0.049 A 
ATOM     20  N   UNL A   1      41.480  31.135  33.547  1.00  0.00    -0.248 NA
ATOM     21  C   UNL A   1      39.269  31.884  33.524  1.00  0.00     0.031 C 
ATOM     22  C   UNL A   1      40.432  28.623  29.940  1.00  0.00     0.029 A 
ATOM     23  N   UNL A   1      42.023  29.021  31.463  1.00  0.00    -0.354 N 
ATOM     24  C   UNL A   1      41.263  31.979  34.632  1.00  0.00     0.074 A 
ATOM     25  C   UNL A   1      39.894  32.438  34.547  1.00  0.00     0.031 C 
ATOM     26  C   UNL A   1      41.462  27.802  29.673  1.00  0.00     0.029 A 
ATOM     27  C   UNL A   1      42.556  28.099  30.593  1.00  0.00     0.049 A 
ATOM     28  H   UNL A   1      42.491  29.342  32.267  1.00  0.00     0.167 HD
ATOM     29  C   UNL A   1      42.143  32.345  35.595  1.00  0.00     0.034 A 
ATOM     30  C   UNL A   1      43.810  27.612  30.520  1.00  0.00     0.034 A 
ATOM     31  C   UNL A   1      43.506  31.877  35.608  1.00  0.00     0.049 A 
ATOM     32  C   UNL A   1      44.814  28.103  31.534  1.00  0.00     0.074 A 
ATOM     33  C   UNL A   1      44.538  32.216  36.461  1.00  0.00     0.029 A 
ATOM     34  N   UNL A   1      44.026  30.960  34.696  1.00  0.00    -0.354 N 
ATOM     35  N   UNL A   1      44.641  28.970  32.509  1.00  0.00    -0.248 NA
ATOM     36  C   UNL A   1      46.176  27.566  31.439  1.00  0.00     0.031 C 
ATOM     37  C   UNL A   1      45.693  31.553  36.027  1.00  0.00     0.029 A 
ATOM     38  C   UNL A   1      45.367  30.740  34.950  1.00  0.00     0.049 A 
ATOM     39  H   UNL A   1      43.512  30.532  33.974  1.00  0.00     0.167 HD
ATOM     40  C   UNL A   1      45.868  29.070  33.156  1.00  0.00     0.074 A 
ATOM     41  C   UNL A   1      46.770  28.168  32.460  1.00  0.00     0.031 C 
ATOM     42  C   UNL A   1      46.223  29.827  34.225  1.00  0.00     0.034 A 
BRANCH  29  43
ATOM     43  C   UNL A   1      41.662  33.372  36.593  1.00  0.00     0.023 A 
ATOM     44  C   UNL A   1      41.085  33.000  37.822  1.00  0.00     0.031 A 
ATOM     45  C   UNL A   1      41.634  34.734  36.242  1.00  0.00     0.131 A 
ATOM     46  C   UNL A   1      40.398  33.955  38.590  1.00  0.00     0.055 A 
ATOM     47  C   UNL A   1      41.035  35.694  37.060  1.00  0.00     0.041 A 
ATOM     48  F   UNL A   1      42.139  35.149  35.070  1.00  0.00    -0.206 F 
ATOM     49  C   UNL A   1      40.388  35.303  38.229  1.00  0.00     0.022 A 
BRANCH  46  50
ATOM     50  S   UNL A   1      39.328  33.371  39.937  1.00  0.00     0.124 S 
ATOM     51  O   UNL A   1      38.335  34.441  40.013  1.00  0.00    -0.237 OA
ATOM     52  O   UNL A   1      38.850  32.091  39.429  1.00  0.00    -0.237 OA
ATOM     53  O   UNL A   1      40.233  33.291  41.083  1.00  0.00    -0.744 OA
ENDBRANCH  46  50
ENDBRANCH  29  43
BRANCH  30  54
ATOM     54  C   UNL A   1      44.190  26.696  29.405  1.00  0.00     0.023 A 
ATOM     55  C   UNL A   1      44.593  27.183  28.153  1.00  0.00     0.031 A 
ATOM     56  C   UNL A   1      44.173  25.299  29.594  1.00  0.00     0.131 A 
ATOM     57  C   UNL A   1      44.953  26.280  27.134  1.00  0.00     0.055 A 
ATOM     58  C   UNL A   1      44.572  24.410  28.594  1.00  0.00     0.041 A 
ATOM     59  F   UNL A   1      43.796  24.778  30.773  1.00  0.00    -0.206 F 
ATOM     60  C   UNL A   1      44.960  24.900  27.353  1.00  0.00     0.022 A 
BRANCH  57  61
ATOM     61  S   UNL A   1      45.383  26.934  25.496  1.00  0.00     0.124 S 
ATOM     62  O   UNL A   1      45.526  25.709  24.716  1.00  0.00    -0.237 OA
ATOM     63  O   UNL A   1      44.224  27.762  25.185  1.00  0.00    -0.237 OA
ATOM     64  O   UNL A   1      46.623  27.668  25.738  1.00  0.00    -0.744 OA
ENDBRANCH  57  61
ENDBRANCH  30  54
BRANCH  42  65
ATOM     65  C   UNL A   1      47.628  29.664  34.739  1.00  0.00     0.023 A 
ATOM     66  C   UNL A   1      48.672  30.502  34.315  1.00  0.00     0.031 A 
ATOM     67  C   UNL A   1      47.905  28.684  35.709  1.00  0.00     0.131 A 
ATOM     68  C   UNL A   1      49.959  30.324  34.843  1.00  0.00     0.055 A 
ATOM     69  C   UNL A   1      49.175  28.544  36.264  1.00  0.00     0.041 A 
ATOM     70  F   UNL A   1      46.935  27.865  36.146  1.00  0.00    -0.206 F 
ATOM     71  C   UNL A   1      50.213  29.364  35.828  1.00  0.00     0.022 A 
BRANCH  68  72
ATOM     72  S   UNL A   1      51.314  31.342  34.200  1.00  0.00     0.124 S 
ATOM     73  O   UNL A   1      51.106  31.245  32.758  1.00  0.00    -0.237 OA
ATOM     74  O   UNL A   1      51.041  32.645  34.797  1.00  0.00    -0.237 OA
ATOM     75  O   UNL A   1      52.513  30.671  34.699  1.00  0.00    -0.744 OA
ENDBRANCH  68  72
ENDBRANCH  42  65
ENDBRANCH  16  17
ENDBRANCH   9  11
ENDBRANCH   8   9
ENDBRANCH   7   8
ENDBRANCH   6   7
ENDBRANCH   5   6
ENDBRANCH   4   5
ENDBRANCH   3   4
ENDBRANCH   2   3
ENDBRANCH   1   2
BRANCH   1  76
ATOM     76  C   UNL A   1      30.164  25.484  24.317  1.00  0.00     0.188 C 
BRANCH  76  77
ATOM     77  O   UNL A   1      31.103  24.711  25.052  1.00  0.00    -0.376 OA
BRANCH  77  78
ATOM     78  C   UNL A   1      32.069  24.016  24.265  1.00  0.00     0.202 C 
BRANCH  78  79
ATOM     79  C   UNL A   1      33.219  23.430  25.093  1.00  0.00     0.261 C 
BRANCH  79  80
ATOM     80  O   UNL A   1      34.503  24.004  24.792  1.00  0.00    -0.460 OA
BRANCH  80  81
ATOM     81  C   UNL A   1      35.265  23.362  23.883  1.00  0.00     0.338 C 
ATOM     82  O   UNL A   1      35.068  23.261  22.687  1.00  0.00    -0.246 OA
BRANCH  81  83
ATOM     83  C   UNL A   1      36.527  22.979  24.555  1.00  0.00     0.060 A 
ATOM     84  C   UNL A   1      37.112  23.916  25.417  1.00  0.00     0.017 A 
ATOM     85  C   UNL A   1      37.048  21.680  24.459  1.00  0.00     0.017 A 
ATOM     86  C   UNL A   1      38.218  23.553  26.183  1.00  0.00     0.022 A 
ATOM     87  C   UNL A   1      38.175  21.325  25.202  1.00  0.00     0.022 A 
ATOM     88  C   UNL A   1      38.771  22.275  26.038  1.00  0.00     0.082 A 
BRANCH  88  89
ATOM     89  S   UNL A   1      40.312  21.907  26.836  1.00  0.00     0.240 S 
ATOM     90  O   UNL A   1      40.571  22.944  27.815  1.00  0.00    -0.207 OA
ATOM     91  O   UNL A   1      40.306  20.512  27.193  1.00  0.00    -0.207 OA
BRANCH  89  92
ATOM     92  N   UNL A   1      41.469  22.071  25.627  1.00  0.00    -0.211 NA
ATOM     93  H   UNL A   1      41.150  22.852  25.053  1.00  0.00     0.141 HD
BRANCH  92  94
ATOM     94  C   UNL A   1      42.901  22.308  25.836  1.00  0.00     0.103 C 
BRANCH  94  95
ATOM     95  C   UNL A   1      43.890  21.381  25.134  1.00  0.00     0.020 C 
ATOM     96  C   UNL A   1      45.339  21.510  25.614  1.00  0.00     0.022 C 
ATOM     97  C   UNL A   1      43.537  19.895  25.168  1.00  0.00     0.142 C 
ATOM     98  C   UNL A   1      46.155  20.422  24.930  1.00  0.00     0.137 C 
ATOM     99  S   UNL A   1      45.035  19.059  24.664  1.00  0.00     0.150 S 
ATOM    100  O   UNL A   1      44.954  18.817  23.237  1.00  0.00    -0.229 OA
ATOM    101  O   UNL A   1      45.333  18.002  25.605  1.00  0.00    -0.229 OA
ENDBRANCH  94  95
ENDBRANCH  92  94
ENDBRANCH  89  92
ENDBRANCH  88  89
ENDBRANCH  81  83
ENDBRANCH  80  81
ENDBRANCH  79  80
ENDBRANCH  78  79
ENDBRANCH  77  78
ENDBRANCH  76  77
ENDBRANCH   1  76
TORSDOF 27
ENDMDL
MODEL 2
REMARK VINA RESULT:      -8.1      4.847      8.320
REMARK SMILES O=C(OCCOCCOCCOCCOC(=O)c1ccc(S(=O)(=O)NC[C@H]2CCS(=O)(=O)C2)cc1)c1ccc(-c2c3nc(c(-c4cc(S(=O)(=O)[O-])ccc4F)c4ccc([nH]4)c(-c4cc(S(=O)(=O)[O-])ccc4F)c4nc(c(-c5cc(S(=O)(=O)[O-])ccc5F)c5ccc2[nH]5)C=C4)C=C3)cc1
REMARK SMILES IDX 10 1 9 2 8 3 7 4 6 5 5 6 4 7 3 8 2 9 1 10 36 11 37 12 98 13
REMARK SMILES IDX 38 14 97 15 39 16 40 17 41 18 91 19 42 20 96 21 90 22 92 23
REMARK SMILES IDX 43 24 95 25 89 26 88 27 44 29 76 30 56 31 75 32 57 33 60 34
REMARK SMILES IDX 74 35 93 36 58 37 59 38 73 40 94 41 61 42 45 43 46 44 54 45
REMARK SMILES IDX 47 46 53 47 55 48 52 49 48 50 49 51 50 52 51 53 77 54 78 55
REMARK SMILES IDX 86 56 79 57 85 58 87 59 84 60 80 61 81 62 82 63 83 64 62 65
REMARK SMILES IDX 63 66 71 67 64 68 70 69 72 70 69 71 65 72 66 73 67 74 68 75
REMARK SMILES IDX 11 76 12 77 13 78 14 79 15 80 16 81 17 82 18 83 19 84 35 85
REMARK SMILES IDX 20 86 34 87 21 88 22 89 23 90 24 91 25 92 26 94 27 95 28 96
REMARK SMILES IDX 33 97 29 98 30 99 31 100 32 101
REMARK H PARENT 92 28 60 39 25 93
REMARK Flexibility Score: inf
ROOT
ATOM      1  C   UNL A   1      32.109  26.415  24.859  1.00  0.00     0.188 C 
ENDROOT
BRANCH   1   2
ATOM      2  O   UNL A   1      33.228  27.267  25.081  1.00  0.00    -0.377 OA
BRANCH   2   3
ATOM      3  C   UNL A   1      33.050  28.294  26.061  1.00  0.00     0.188 C 
BRANCH   3   4
ATOM      4  C   UNL A   1      34.251  29.225  26.237  1.00  0.00     0.188 C 
BRANCH   4   5
ATOM      5  O   UNL A   1      34.161  29.920  27.485  1.00  0.00    -0.376 OA
BRANCH   5   6
ATOM      6  C   UNL A   1      35.233  30.823  27.760  1.00  0.00     0.202 C 
BRANCH   6   7
ATOM      7  C   UNL A   1      35.942  30.560  29.089  1.00  0.00     0.261 C 
BRANCH   7   8
ATOM      8  O   UNL A   1      36.438  31.777  29.664  1.00  0.00    -0.460 OA
BRANCH   8   9
ATOM      9  C   UNL A   1      35.854  32.526  30.631  1.00  0.00     0.338 C 
ATOM     10  O   UNL A   1      34.703  32.922  30.436  1.00  0.00    -0.246 OA
BRANCH   9  11
ATOM     11  C   UNL A   1      36.504  32.887  31.934  1.00  0.00     0.060 A 
ATOM     12  C   UNL A   1      36.071  33.871  32.830  1.00  0.00     0.016 A 
ATOM     13  C   UNL A   1      37.625  32.121  32.296  1.00  0.00     0.016 A 
ATOM     14  C   UNL A   1      36.773  34.158  33.996  1.00  0.00     0.010 A 
ATOM     15  C   UNL A   1      38.324  32.384  33.477  1.00  0.00     0.010 A 
ATOM     16  C   UNL A   1      37.921  33.437  34.305  1.00  0.00    -0.014 A 
BRANCH  16  17
ATOM     17  C   UNL A   1      38.821  33.941  35.357  1.00  0.00     0.031 A 
ATOM     18  C   UNL A   1      38.469  33.599  36.772  1.00  0.00     0.074 A 
ATOM     19  C   UNL A   1      39.934  34.623  35.048  1.00  0.00     0.049 A 
ATOM     20  N   UNL A   1      38.956  34.062  37.889  1.00  0.00    -0.248 NA
ATOM     21  C   UNL A   1      37.408  32.593  36.941  1.00  0.00     0.031 C 
ATOM     22  C   UNL A   1      40.418  34.875  33.691  1.00  0.00     0.029 A 
ATOM     23  N   UNL A   1      40.853  35.236  35.857  1.00  0.00    -0.354 N 
ATOM     24  C   UNL A   1      38.228  33.437  38.897  1.00  0.00     0.074 A 
ATOM     25  C   UNL A   1      37.265  32.571  38.254  1.00  0.00     0.031 C 
ATOM     26  C   UNL A   1      41.538  35.615  33.762  1.00  0.00     0.029 A 
ATOM     27  C   UNL A   1      41.800  35.947  35.160  1.00  0.00     0.049 A 
ATOM     28  H   UNL A   1      40.837  35.173  36.840  1.00  0.00     0.167 HD
ATOM     29  C   UNL A   1      38.349  33.598  40.237  1.00  0.00     0.034 A 
ATOM     30  C   UNL A   1      42.725  36.817  35.609  1.00  0.00     0.034 A 
ATOM     31  C   UNL A   1      39.308  34.502  40.819  1.00  0.00     0.049 A 
ATOM     32  C   UNL A   1      42.787  37.070  37.095  1.00  0.00     0.074 A 
ATOM     33  C   UNL A   1      39.501  34.838  42.145  1.00  0.00     0.029 A 
ATOM     34  N   UNL A   1      40.241  35.231  40.082  1.00  0.00    -0.354 N 
ATOM     35  N   UNL A   1      42.042  36.553  38.049  1.00  0.00    -0.248 NA
ATOM     36  C   UNL A   1      43.796  38.023  37.569  1.00  0.00     0.031 C 
ATOM     37  C   UNL A   1      40.505  35.813  42.202  1.00  0.00     0.029 A 
ATOM     38  C   UNL A   1      40.994  36.031  40.922  1.00  0.00     0.049 A 
ATOM     39  H   UNL A   1      40.347  35.183  39.105  1.00  0.00     0.167 HD
ATOM     40  C   UNL A   1      42.505  37.104  39.239  1.00  0.00     0.074 A 
ATOM     41  C   UNL A   1      43.597  37.990  38.880  1.00  0.00     0.031 C 
ATOM     42  C   UNL A   1      42.077  36.899  40.512  1.00  0.00     0.034 A 
BRANCH  29  43
ATOM     43  C   UNL A   1      37.341  32.873  41.097  1.00  0.00     0.023 A 
ATOM     44  C   UNL A   1      36.040  33.371  41.299  1.00  0.00     0.031 A 
ATOM     45  C   UNL A   1      37.737  31.754  41.853  1.00  0.00     0.131 A 
ATOM     46  C   UNL A   1      35.234  32.835  42.316  1.00  0.00     0.055 A 
ATOM     47  C   UNL A   1      36.891  31.162  42.794  1.00  0.00     0.041 A 
ATOM     48  F   UNL A   1      38.975  31.249  41.731  1.00  0.00    -0.206 F 
ATOM     49  C   UNL A   1      35.641  31.720  43.050  1.00  0.00     0.022 A 
BRANCH  46  50
ATOM     50  S   UNL A   1      33.750  33.756  42.817  1.00  0.00     0.124 S 
ATOM     51  O   UNL A   1      34.233  34.479  43.993  1.00  0.00    -0.237 OA
ATOM     52  O   UNL A   1      33.469  34.567  41.639  1.00  0.00    -0.237 OA
ATOM     53  O   UNL A   1      32.774  32.705  43.102  1.00  0.00    -0.744 OA
ENDBRANCH  46  50
ENDBRANCH  29  43
BRANCH  30  54
ATOM     54  C   UNL A   1      43.579  37.565  34.640  1.00  0.00     0.023 A 
ATOM     55  C   UNL A   1      43.310  38.897  34.293  1.00  0.00     0.031 A 
ATOM     56  C   UNL A   1      44.704  36.947  34.059  1.00  0.00     0.131 A 
ATOM     57  C   UNL A   1      44.150  39.566  33.383  1.00  0.00     0.055 A 
ATOM     58  C   UNL A   1      45.558  37.628  33.189  1.00  0.00     0.041 A 
ATOM     59  F   UNL A   1      45.008  35.674  34.356  1.00  0.00    -0.206 F 
ATOM     60  C   UNL A   1      45.280  38.945  32.842  1.00  0.00     0.022 A 
BRANCH  57  61
ATOM     61  S   UNL A   1      43.728  41.258  32.881  1.00  0.00     0.124 S 
ATOM     62  O   UNL A   1      42.302  41.312  33.185  1.00  0.00    -0.237 OA
ATOM     63  O   UNL A   1      44.598  42.055  33.739  1.00  0.00    -0.237 OA
ATOM     64  O   UNL A   1      44.064  41.286  31.459  1.00  0.00    -0.744 OA
ENDBRANCH  57  61
ENDBRANCH  30  54
BRANCH  42  65
ATOM     65  C   UNL A   1      42.833  37.602  41.606  1.00  0.00     0.023 A 
ATOM     66  C   UNL A   1      43.920  36.999  42.259  1.00  0.00     0.031 A 
ATOM     67  C   UNL A   1      42.484  38.918  41.957  1.00  0.00     0.131 A 
ATOM     68  C   UNL A   1      44.607  37.707  43.255  1.00  0.00     0.055 A 
ATOM     69  C   UNL A   1      43.201  39.633  42.914  1.00  0.00     0.041 A 
ATOM     70  F   UNL A   1      41.455  39.534  41.355  1.00  0.00    -0.206 F 
ATOM     71  C   UNL A   1      44.267  39.026  43.574  1.00  0.00     0.022 A 
BRANCH  68  72
ATOM     72  S   UNL A   1      45.935  36.870  44.162  1.00  0.00     0.124 S 
ATOM     73  O   UNL A   1      47.023  36.887  43.188  1.00  0.00    -0.237 OA
ATOM     74  O   UNL A   1      46.111  37.730  45.328  1.00  0.00    -0.237 OA
ATOM     75  O   UNL A   1      45.378  35.550  44.445  1.00  0.00    -0.744 OA
ENDBRANCH  68  72
ENDBRANCH  42  65
ENDBRANCH  16  17
ENDBRANCH   9  11
ENDBRANCH   8   9
ENDBRANCH   7   8
ENDBRANCH   6   7
ENDBRANCH   5   6
ENDBRANCH   4   5
ENDBRANCH   3   4
ENDBRANCH   2   3
ENDBRANCH   1   2
BRANCH   1  76
ATOM     76  C   UNL A   1      31.183  26.079  26.047  1.00  0.00     0.188 C 
BRANCH  76  77
ATOM     77  O   UNL A   1      31.660  25.054  26.909  1.00  0.00    -0.376 OA
BRANCH  77  78
ATOM     78  C   UNL A   1      31.676  23.743  26.345  1.00  0.00     0.202 C 
BRANCH  78  79
ATOM     79  C   UNL A   1      33.047  23.061  26.433  1.00  0.00     0.261 C 
BRANCH  79  80
ATOM     80  O   UNL A   1      34.101  23.790  25.782  1.00  0.00    -0.460 OA
BRANCH  80  81
ATOM     81  C   UNL A   1      34.725  23.181  24.753  1.00  0.00     0.338 C 
ATOM     82  O   UNL A   1      34.368  23.133  23.591  1.00  0.00    -0.246 OA
BRANCH  81  83
ATOM     83  C   UNL A   1      36.061  22.761  25.232  1.00  0.00     0.060 A 
ATOM     84  C   UNL A   1      36.396  21.405  25.116  1.00  0.00     0.017 A 
ATOM     85  C   UNL A   1      37.020  23.696  25.650  1.00  0.00     0.017 A 
ATOM     86  C   UNL A   1      37.690  20.986  25.417  1.00  0.00     0.022 A 
ATOM     87  C   UNL A   1      38.307  23.272  25.983  1.00  0.00     0.022 A 
ATOM     88  C   UNL A   1      38.626  21.913  25.892  1.00  0.00     0.082 A 
BRANCH  88  89
ATOM     89  S   UNL A   1      40.188  21.328  26.495  1.00  0.00     0.240 S 
ATOM     90  O   UNL A   1      40.251  21.597  27.918  1.00  0.00    -0.207 OA
ATOM     91  O   UNL A   1      40.403  20.007  25.963  1.00  0.00    -0.207 OA
BRANCH  89  92
ATOM     92  N   UNL A   1      41.328  22.317  25.755  1.00  0.00    -0.211 NA
ATOM     93  H   UNL A   1      41.282  23.204  26.258  1.00  0.00     0.141 HD
BRANCH  92  94
ATOM     94  C   UNL A   1      42.760  22.026  25.622  1.00  0.00     0.103 C 
BRANCH  94  95
ATOM     95  C   UNL A   1      43.751  23.020  26.219  1.00  0.00     0.020 C 
ATOM     96  C   UNL A   1      45.216  22.762  25.852  1.00  0.00     0.022 C 
ATOM     97  C   UNL A   1      43.468  24.492  25.922  1.00  0.00     0.142 C 
ATOM     98  C   UNL A   1      46.044  23.918  26.396  1.00  0.00     0.137 C 
ATOM     99  S   UNL A   1      44.973  25.346  26.369  1.00  0.00     0.150 S 
ATOM    100  O   UNL A   1      44.830  25.825  27.730  1.00  0.00    -0.229 OA
ATOM    101  O   UNL A   1      45.367  26.221  25.286  1.00  0.00    -0.229 OA
ENDBRANCH  94  95
ENDBRANCH  92  94
ENDBRANCH  89  92
ENDBRANCH  88  89
ENDBRANCH  81  83
ENDBRANCH  80  81
ENDBRANCH  79  80
ENDBRANCH  78  79
ENDBRANCH  77  78
ENDBRANCH  76  77
ENDBRANCH   1  76
TORSDOF 27
ENDMDL
MODEL 3
REMARK VINA RESULT:      -7.9      4.462      6.361
REMARK SMILES O=C(OCCOCCOCCOCCOC(=O)c1ccc(S(=O)(=O)NC[C@H]2CCS(=O)(=O)C2)cc1)c1ccc(-c2c3nc(c(-c4cc(S(=O)(=O)[O-])ccc4F)c4ccc([nH]4)c(-c4cc(S(=O)(=O)[O-])ccc4F)c4nc(c(-c5cc(S(=O)(=O)[O-])ccc5F)c5ccc2[nH]5)C=C4)C=C3)cc1
REMARK SMILES IDX 10 1 9 2 8 3 7 4 6 5 5 6 4 7 3 8 2 9 1 10 36 11 37 12 98 13
REMARK SMILES IDX 38 14 97 15 39 16 40 17 41 18 91 19 42 20 96 21 90 22 92 23
REMARK SMILES IDX 43 24 95 25 89 26 88 27 44 29 76 30 56 31 75 32 57 33 60 34
REMARK SMILES IDX 74 35 93 36 58 37 59 38 73 40 94 41 61 42 45 43 46 44 54 45
REMARK SMILES IDX 47 46 53 47 55 48 52 49 48 50 49 51 50 52 51 53 77 54 78 55
REMARK SMILES IDX 86 56 79 57 85 58 87 59 84 60 80 61 81 62 82 63 83 64 62 65
REMARK SMILES IDX 63 66 71 67 64 68 70 69 72 70 69 71 65 72 66 73 67 74 68 75
REMARK SMILES IDX 11 76 12 77 13 78 14 79 15 80 16 81 17 82 18 83 19 84 35 85
REMARK SMILES IDX 20 86 34 87 21 88 22 89 23 90 24 91 25 92 26 94 27 95 28 96
REMARK SMILES IDX 33 97 29 98 30 99 31 100 32 101
REMARK H PARENT 92 28 60 39 25 93
REMARK Flexibility Score: inf
ROOT
ATOM      1  C   UNL A   1      31.688  24.652  25.369  1.00  0.00     0.188 C 
ENDROOT
BRANCH   1   2
ATOM      2  O   UNL A   1      32.369  25.883  25.146  1.00  0.00    -0.377 OA
BRANCH   2   3
ATOM      3  C   UNL A   1      31.701  27.061  25.603  1.00  0.00     0.188 C 
BRANCH   3   4
ATOM      4  C   UNL A   1      32.488  28.359  25.415  1.00  0.00     0.188 C 
BRANCH   4   5
ATOM      5  O   UNL A   1      32.110  29.318  26.407  1.00  0.00    -0.376 OA
BRANCH   5   6
ATOM      6  C   UNL A   1      32.971  30.453  26.520  1.00  0.00     0.202 C 
BRANCH   6   7
ATOM      7  C   UNL A   1      33.955  30.373  27.687  1.00  0.00     0.261 C 
BRANCH   7   8
ATOM      8  O   UNL A   1      34.598  31.635  27.913  1.00  0.00    -0.460 OA
BRANCH   8   9
ATOM      9  C   UNL A   1      34.970  32.166  29.103  1.00  0.00     0.338 C 
ATOM     10  O   UNL A   1      34.091  32.651  29.818  1.00  0.00    -0.246 OA
BRANCH   9  11
ATOM     11  C   UNL A   1      36.377  32.179  29.623  1.00  0.00     0.060 A 
ATOM     12  C   UNL A   1      36.861  32.958  30.681  1.00  0.00     0.016 A 
ATOM     13  C   UNL A   1      37.269  31.283  29.011  1.00  0.00     0.016 A 
ATOM     14  C   UNL A   1      38.200  32.928  31.059  1.00  0.00     0.010 A 
ATOM     15  C   UNL A   1      38.610  31.227  29.398  1.00  0.00     0.010 A 
ATOM     16  C   UNL A   1      39.084  32.086  30.395  1.00  0.00    -0.014 A 
BRANCH  16  17
ATOM     17  C   UNL A   1      40.533  32.281  30.581  1.00  0.00     0.031 A 
ATOM     18  C   UNL A   1      41.283  31.183  31.271  1.00  0.00     0.074 A 
ATOM     19  C   UNL A   1      41.153  33.368  30.099  1.00  0.00     0.049 A 
ATOM     20  N   UNL A   1      42.499  31.167  31.738  1.00  0.00    -0.248 NA
ATOM     21  C   UNL A   1      40.540  29.927  31.464  1.00  0.00     0.031 C 
ATOM     22  C   UNL A   1      40.519  34.413  29.295  1.00  0.00     0.029 A 
ATOM     23  N   UNL A   1      42.454  33.777  30.223  1.00  0.00    -0.354 N 
ATOM     24  C   UNL A   1      42.655  29.914  32.323  1.00  0.00     0.074 A 
ATOM     25  C   UNL A   1      41.405  29.206  32.155  1.00  0.00     0.031 C 
ATOM     26  C   UNL A   1      41.432  35.359  29.019  1.00  0.00     0.029 A 
ATOM     27  C   UNL A   1      42.685  35.021  29.688  1.00  0.00     0.049 A 
ATOM     28  H   UNL A   1      43.154  33.233  30.654  1.00  0.00     0.167 HD
ATOM     29  C   UNL A   1      43.744  29.419  32.958  1.00  0.00     0.034 A 
ATOM     30  C   UNL A   1      43.769  35.814  29.792  1.00  0.00     0.034 A 
ATOM     31  C   UNL A   1      44.953  30.185  33.122  1.00  0.00     0.049 A 
ATOM     32  C   UNL A   1      44.941  35.299  30.590  1.00  0.00     0.074 A 
ATOM     33  C   UNL A   1      46.108  29.862  33.806  1.00  0.00     0.029 A 
ATOM     34  N   UNL A   1      45.149  31.458  32.588  1.00  0.00    -0.354 N 
ATOM     35  N   UNL A   1      45.064  34.152  31.224  1.00  0.00    -0.248 NA
ATOM     36  C   UNL A   1      46.112  36.176  30.699  1.00  0.00     0.031 C 
ATOM     37  C   UNL A   1      46.974  30.960  33.738  1.00  0.00     0.029 A 
ATOM     38  C   UNL A   1      46.394  31.942  32.947  1.00  0.00     0.049 A 
ATOM     39  H   UNL A   1      44.494  31.943  32.036  1.00  0.00     0.167 HD
ATOM     40  C   UNL A   1      46.333  34.161  31.792  1.00  0.00     0.074 A 
ATOM     41  C   UNL A   1      46.937  35.428  31.420  1.00  0.00     0.031 C 
ATOM     42  C   UNL A   1      46.950  33.216  32.546  1.00  0.00     0.034 A 
BRANCH  29  43
ATOM     43  C   UNL A   1      43.590  28.061  33.602  1.00  0.00     0.023 A 
ATOM     44  C   UNL A   1      43.365  27.914  34.984  1.00  0.00     0.031 A 
ATOM     45  C   UNL A   1      43.831  26.895  32.851  1.00  0.00     0.131 A 
ATOM     46  C   UNL A   1      43.511  26.654  35.587  1.00  0.00     0.055 A 
ATOM     47  C   UNL A   1      43.875  25.632  33.444  1.00  0.00     0.041 A 
ATOM     48  F   UNL A   1      44.084  26.970  31.535  1.00  0.00    -0.206 F 
ATOM     49  C   UNL A   1      43.742  25.509  34.824  1.00  0.00     0.022 A 
BRANCH  46  50
ATOM     50  S   UNL A   1      43.622  26.572  37.399  1.00  0.00     0.124 S 
ATOM     51  O   UNL A   1      42.253  26.212  37.764  1.00  0.00    -0.237 OA
ATOM     52  O   UNL A   1      44.631  25.542  37.607  1.00  0.00    -0.237 OA
ATOM     53  O   UNL A   1      44.022  27.926  37.779  1.00  0.00    -0.744 OA
ENDBRANCH  46  50
ENDBRANCH  29  43
BRANCH  30  54
ATOM     54  C   UNL A   1      43.745  37.190  29.214  1.00  0.00     0.023 A 
ATOM     55  C   UNL A   1      43.404  38.311  29.986  1.00  0.00     0.031 A 
ATOM     56  C   UNL A   1      44.090  37.401  27.864  1.00  0.00     0.131 A 
ATOM     57  C   UNL A   1      43.406  39.590  29.400  1.00  0.00     0.055 A 
ATOM     58  C   UNL A   1      44.132  38.677  27.299  1.00  0.00     0.041 A 
ATOM     59  F   UNL A   1      44.425  36.364  27.080  1.00  0.00    -0.206 F 
ATOM     60  C   UNL A   1      43.783  39.781  28.068  1.00  0.00     0.022 A 
BRANCH  57  61
ATOM     61  S   UNL A   1      42.873  41.011  30.396  1.00  0.00     0.124 S 
ATOM     62  O   UNL A   1      42.954  40.473  31.750  1.00  0.00    -0.237 OA
ATOM     63  O   UNL A   1      43.867  42.019  30.044  1.00  0.00    -0.237 OA
ATOM     64  O   UNL A   1      41.520  41.278  29.911  1.00  0.00    -0.744 OA
ENDBRANCH  57  61
ENDBRANCH  30  54
BRANCH  42  65
ATOM     65  C   UNL A   1      48.368  33.497  32.965  1.00  0.00     0.023 A 
ATOM     66  C   UNL A   1      49.461  33.129  32.165  1.00  0.00     0.031 A 
ATOM     67  C   UNL A   1      48.615  34.193  34.162  1.00  0.00     0.131 A 
ATOM     68  C   UNL A   1      50.762  33.437  32.589  1.00  0.00     0.055 A 
ATOM     69  C   UNL A   1      49.907  34.537  34.553  1.00  0.00     0.041 A 
ATOM     70  F   UNL A   1      47.598  34.568  34.954  1.00  0.00    -0.206 F 
ATOM     71  C   UNL A   1      50.991  34.154  33.767  1.00  0.00     0.022 A 
BRANCH  68  72
ATOM     72  S   UNL A   1      52.164  32.854  31.597  1.00  0.00     0.124 S 
ATOM     73  O   UNL A   1      53.015  34.040  31.552  1.00  0.00    -0.237 OA
ATOM     74  O   UNL A   1      52.668  31.738  32.389  1.00  0.00    -0.237 OA
ATOM     75  O   UNL A   1      51.551  32.483  30.323  1.00  0.00    -0.744 OA
ENDBRANCH  68  72
ENDBRANCH  42  65
ENDBRANCH  16  17
ENDBRANCH   9  11
ENDBRANCH   8   9
ENDBRANCH   7   8
ENDBRANCH   6   7
ENDBRANCH   5   6
ENDBRANCH   4   5
ENDBRANCH   3   4
ENDBRANCH   2   3
ENDBRANCH   1   2
BRANCH   1  76
ATOM     76  C   UNL A   1      31.637  24.079  26.801  1.00  0.00     0.188 C 
BRANCH  76  77
ATOM     77  O   UNL A   1      32.710  23.210  27.139  1.00  0.00    -0.376 OA
BRANCH  77  78
ATOM     78  C   UNL A   1      33.012  22.209  26.169  1.00  0.00     0.202 C 
BRANCH  78  79
ATOM     79  C   UNL A   1      34.492  22.178  25.769  1.00  0.00     0.261 C 
BRANCH  79  80
ATOM     80  O   UNL A   1      34.855  23.183  24.807  1.00  0.00    -0.460 OA
BRANCH  80  81
ATOM     81  C   UNL A   1      35.947  22.944  24.052  1.00  0.00     0.338 C 
ATOM     82  O   UNL A   1      36.038  22.994  22.840  1.00  0.00    -0.246 OA
BRANCH  81  83
ATOM     83  C   UNL A   1      37.103  22.827  24.971  1.00  0.00     0.060 A 
ATOM     84  C   UNL A   1      37.806  21.615  24.979  1.00  0.00     0.017 A 
ATOM     85  C   UNL A   1      37.576  23.928  25.700  1.00  0.00     0.017 A 
ATOM     86  C   UNL A   1      38.983  21.505  25.715  1.00  0.00     0.022 A 
ATOM     87  C   UNL A   1      38.739  23.809  26.464  1.00  0.00     0.022 A 
ATOM     88  C   UNL A   1      39.419  22.587  26.490  1.00  0.00     0.082 A 
BRANCH  88  89
ATOM     89  S   UNL A   1      40.780  22.356  27.603  1.00  0.00     0.240 S 
ATOM     90  O   UNL A   1      40.692  23.367  28.639  1.00  0.00    -0.207 OA
ATOM     91  O   UNL A   1      40.864  20.953  27.918  1.00  0.00    -0.207 OA
BRANCH  89  92
ATOM     92  N   UNL A   1      42.145  22.707  26.687  1.00  0.00    -0.211 NA
ATOM     93  H   UNL A   1      42.931  22.622  27.332  1.00  0.00     0.141 HD
BRANCH  92  94
ATOM     94  C   UNL A   1      42.568  22.004  25.472  1.00  0.00     0.103 C 
BRANCH  94  95
ATOM     95  C   UNL A   1      43.611  20.899  25.610  1.00  0.00     0.020 C 
ATOM     96  C   UNL A   1      43.040  19.477  25.604  1.00  0.00     0.022 C 
ATOM     97  C   UNL A   1      44.745  20.931  24.587  1.00  0.00     0.142 C 
ATOM     98  C   UNL A   1      44.211  18.504  25.596  1.00  0.00     0.137 C 
ATOM     99  S   UNL A   1      45.534  19.333  24.730  1.00  0.00     0.150 S 
ATOM    100  O   UNL A   1      46.653  19.466  25.642  1.00  0.00    -0.229 OA
ATOM    101  O   UNL A   1      45.682  18.753  23.413  1.00  0.00    -0.229 OA
ENDBRANCH  94  95
ENDBRANCH  92  94
ENDBRANCH  89  92
ENDBRANCH  88  89
ENDBRANCH  81  83
ENDBRANCH  80  81
ENDBRANCH  79  80
ENDBRANCH  78  79
ENDBRANCH  77  78
ENDBRANCH  76  77
ENDBRANCH   1  76
TORSDOF 27
ENDMDL
