MODEL 1
REMARK VINA RESULT:     -11.0      0.000      0.000
REMARK SMILES O=C(NCC(=O)OCCOCCOCCOCCOC(=O)c1ccc(-c2c3nc(c(-c4cc(S(=O)(=O)[O-])ccc4F)c4ccc([nH]4)c(-c4cc(S(=O)(=O)[O-])ccc4F)c4nc(c(-c5cc(S(=O)(=O)[O-])ccc5F)c5ccc2[nH]5)C=C4)C=C3)cc1)Nc1cccc2c1CCCC2
REMARK SMILES IDX 14 1 13 2 12 3 11 4 10 5 9 6 8 7 7 8 5 9 6 10 4 11 3 12 1 13
REMARK SMILES IDX 2 14 85 15 86 18 87 19 91 20 88 21 90 22 92 23 89 24 95 25
REMARK SMILES IDX 93 26 94 27 15 28 16 29 17 30 18 31 19 32 20 33 21 34 22 35
REMARK SMILES IDX 23 36 84 37 24 38 83 39 25 40 26 41 27 42 77 43 28 44 82 45
REMARK SMILES IDX 76 46 78 47 29 48 81 49 75 50 74 51 30 53 62 54 42 55 61 56
REMARK SMILES IDX 43 57 46 58 60 59 79 60 44 61 45 62 59 64 80 65 47 66 31 67
REMARK SMILES IDX 32 68 40 69 33 70 39 71 41 72 38 73 34 74 35 75 36 76 37 77
REMARK SMILES IDX 63 78 64 79 72 80 65 81 71 82 73 83 70 84 66 85 67 86 68 87
REMARK SMILES IDX 69 88 48 89 49 90 57 91 50 92 56 93 58 94 55 95 51 96 52 97
REMARK SMILES IDX 53 98 54 99
REMARK H PARENT 3 16 85 17 78 52 46 63
REMARK Flexibility Score: inf
ROOT
ATOM      1  C   UNL A   1      31.662  27.273  23.864  1.00  0.00     0.188 C 
ENDROOT
BRANCH   1   2
ATOM      2  O   UNL A   1      30.881  26.508  22.946  1.00  0.00    -0.377 OA
BRANCH   2   3
ATOM      3  C   UNL A   1      31.480  25.356  22.393  1.00  0.00     0.188 C 
BRANCH   3   4
ATOM      4  C   UNL A   1      32.793  25.637  21.642  1.00  0.00     0.188 C 
BRANCH   4   5
ATOM      5  O   UNL A   1      34.041  25.187  22.150  1.00  0.00    -0.376 OA
BRANCH   5   6
ATOM      6  C   UNL A   1      34.152  23.951  22.849  1.00  0.00     0.202 C 
BRANCH   6   7
ATOM      7  C   UNL A   1      35.482  23.476  23.454  1.00  0.00     0.261 C 
BRANCH   7   8
ATOM      8  O   UNL A   1      35.857  24.118  24.679  1.00  0.00    -0.462 OA
BRANCH   8   9
ATOM      9  C   UNL A   1      36.892  23.570  25.361  1.00  0.00     0.325 C 
ATOM     10  O   UNL A   1      37.851  24.193  25.807  1.00  0.00    -0.250 OA
BRANCH   9  11
ATOM     11  C   UNL A   1      36.658  22.104  25.705  1.00  0.00     0.240 C 
BRANCH  11  12
ATOM     12  N   UNL A   1      35.486  21.790  26.504  1.00  0.00    -0.327 N 
ATOM     13  O   UNL A   1      33.558  20.933  27.128  1.00  0.00    -0.248 OA
ATOM     14  C   UNL A   1      34.310  21.187  26.190  1.00  0.00     0.319 C 
ATOM     15  N   UNL A   1      34.119  20.844  24.867  1.00  0.00    -0.308 N 
ATOM     16  H   UNL A   1      35.558  22.066  27.446  1.00  0.00     0.166 HD
ATOM     17  H   UNL A   1      34.691  21.250  24.177  1.00  0.00     0.171 HD
BRANCH  15  18
ATOM     18  C   UNL A   1      33.117  19.913  24.480  1.00  0.00     0.046 A 
ATOM     19  C   UNL A   1      32.285  20.369  23.463  1.00  0.00     0.026 A 
ATOM     20  C   UNL A   1      33.332  18.540  24.578  1.00  0.00    -0.021 A 
ATOM     21  C   UNL A   1      32.050  19.528  22.373  1.00  0.00     0.002 A 
ATOM     22  C   UNL A   1      33.363  17.779  23.407  1.00  0.00    -0.043 A 
ATOM     23  C   UNL A   1      32.598  17.771  25.688  1.00  0.00     0.038 C 
ATOM     24  C   UNL A   1      32.687  18.279  22.297  1.00  0.00     0.004 A 
ATOM     25  C   UNL A   1      33.986  16.410  23.476  1.00  0.00     0.036 C 
ATOM     26  C   UNL A   1      33.087  16.330  25.866  1.00  0.00     0.005 C 
ATOM     27  C   UNL A   1      34.234  15.958  24.926  1.00  0.00     0.005 C 
ENDBRANCH  15  18
ENDBRANCH  11  12
ENDBRANCH   9  11
ENDBRANCH   8   9
ENDBRANCH   7   8
ENDBRANCH   6   7
ENDBRANCH   5   6
ENDBRANCH   4   5
ENDBRANCH   3   4
ENDBRANCH   2   3
ENDBRANCH   1   2
BRANCH   1  28
ATOM     28  C   UNL A   1      31.278  27.267  25.362  1.00  0.00     0.188 C 
BRANCH  28  29
ATOM     29  O   UNL A   1      31.724  28.416  26.077  1.00  0.00    -0.376 OA
BRANCH  29  30
ATOM     30  C   UNL A   1      31.575  29.680  25.446  1.00  0.00     0.202 C 
BRANCH  30  31
ATOM     31  C   UNL A   1      31.788  30.921  26.327  1.00  0.00     0.261 C 
BRANCH  31  32
ATOM     32  O   UNL A   1      32.840  30.847  27.300  1.00  0.00    -0.460 OA
BRANCH  32  33
ATOM     33  C   UNL A   1      33.553  31.969  27.564  1.00  0.00     0.338 C 
ATOM     34  O   UNL A   1      33.140  33.102  27.600  1.00  0.00    -0.246 OA
BRANCH  33  35
ATOM     35  C   UNL A   1      34.902  31.529  27.995  1.00  0.00     0.060 A 
ATOM     36  C   UNL A   1      35.116  30.184  28.330  1.00  0.00     0.016 A 
ATOM     37  C   UNL A   1      35.951  32.448  28.056  1.00  0.00     0.016 A 
ATOM     38  C   UNL A   1      36.377  29.762  28.762  1.00  0.00     0.010 A 
ATOM     39  C   UNL A   1      37.204  32.028  28.505  1.00  0.00     0.010 A 
ATOM     40  C   UNL A   1      37.417  30.693  28.893  1.00  0.00    -0.014 A 
BRANCH  40  41
ATOM     41  C   UNL A   1      38.652  30.367  29.650  1.00  0.00     0.031 A 
ATOM     42  C   UNL A   1      39.573  29.333  29.060  1.00  0.00     0.074 A 
ATOM     43  C   UNL A   1      38.933  30.922  30.842  1.00  0.00     0.049 A 
ATOM     44  N   UNL A   1      40.588  28.712  29.599  1.00  0.00    -0.248 NA
ATOM     45  C   UNL A   1      39.292  28.939  27.669  1.00  0.00     0.031 C 
ATOM     46  C   UNL A   1      38.163  31.984  31.485  1.00  0.00     0.029 A 
ATOM     47  N   UNL A   1      39.937  30.644  31.737  1.00  0.00    -0.354 N 
ATOM     48  C   UNL A   1      41.058  27.841  28.622  1.00  0.00     0.074 A 
ATOM     49  C   UNL A   1      40.195  27.992  27.471  1.00  0.00     0.031 C 
ATOM     50  C   UNL A   1      38.712  32.252  32.684  1.00  0.00     0.029 A 
ATOM     51  C   UNL A   1      39.833  31.342  32.919  1.00  0.00     0.049 A 
ATOM     52  H   UNL A   1      40.665  30.007  31.552  1.00  0.00     0.167 HD
ATOM     53  C   UNL A   1      42.114  26.995  28.680  1.00  0.00     0.034 A 
ATOM     54  C   UNL A   1      40.532  31.222  34.069  1.00  0.00     0.034 A 
ATOM     55  C   UNL A   1      42.950  26.841  29.844  1.00  0.00     0.049 A 
ATOM     56  C   UNL A   1      41.628  30.180  34.158  1.00  0.00     0.074 A 
ATOM     57  C   UNL A   1      44.033  25.998  30.023  1.00  0.00     0.029 A 
ATOM     58  N   UNL A   1      42.789  27.541  31.032  1.00  0.00    -0.354 N 
ATOM     59  N   UNL A   1      42.045  29.335  33.243  1.00  0.00    -0.248 NA
ATOM     60  C   UNL A   1      42.347  30.074  35.437  1.00  0.00     0.031 C 
ATOM     61  C   UNL A   1      44.479  26.135  31.340  1.00  0.00     0.029 A 
ATOM     62  C   UNL A   1      43.739  27.132  31.954  1.00  0.00     0.049 A 
ATOM     63  H   UNL A   1      42.102  28.226  31.196  1.00  0.00     0.167 HD
ATOM     64  C   UNL A   1      43.110  28.642  33.820  1.00  0.00     0.074 A 
ATOM     65  C   UNL A   1      43.266  29.159  35.161  1.00  0.00     0.031 C 
ATOM     66  C   UNL A   1      43.897  27.675  33.283  1.00  0.00     0.034 A 
BRANCH  53  67
ATOM     67  C   UNL A   1      42.383  26.139  27.468  1.00  0.00     0.023 A 
ATOM     68  C   UNL A   1      41.906  24.821  27.376  1.00  0.00     0.031 A 
ATOM     69  C   UNL A   1      43.156  26.635  26.402  1.00  0.00     0.131 A 
ATOM     70  C   UNL A   1      42.265  24.021  26.281  1.00  0.00     0.055 A 
ATOM     71  C   UNL A   1      43.435  25.862  25.274  1.00  0.00     0.041 A 
ATOM     72  F   UNL A   1      43.663  27.877  26.445  1.00  0.00    -0.206 F 
ATOM     73  C   UNL A   1      43.001  24.541  25.215  1.00  0.00     0.022 A 
BRANCH  70  74
ATOM     74  S   UNL A   1      41.881  22.249  26.343  1.00  0.00     0.124 S 
ATOM     75  O   UNL A   1      40.442  22.250  26.093  1.00  0.00    -0.237 OA
ATOM     76  O   UNL A   1      42.715  21.707  25.277  1.00  0.00    -0.237 OA
ATOM     77  O   UNL A   1      42.269  21.862  27.698  1.00  0.00    -0.744 OA
ENDBRANCH  70  74
ENDBRANCH  53  67
BRANCH  54  78
ATOM     78  C   UNL A   1      40.203  32.066  35.258  1.00  0.00     0.023 A 
ATOM     79  C   UNL A   1      39.303  31.611  36.236  1.00  0.00     0.031 A 
ATOM     80  C   UNL A   1      40.712  33.371  35.392  1.00  0.00     0.131 A 
ATOM     81  C   UNL A   1      38.889  32.473  37.264  1.00  0.00     0.055 A 
ATOM     82  C   UNL A   1      40.350  34.200  36.456  1.00  0.00     0.041 A 
ATOM     83  F   UNL A   1      41.566  33.865  34.481  1.00  0.00    -0.206 F 
ATOM     84  C   UNL A   1      39.419  33.759  37.391  1.00  0.00     0.022 A 
BRANCH  81  85
ATOM     85  S   UNL A   1      37.549  31.932  38.362  1.00  0.00     0.124 S 
ATOM     86  O   UNL A   1      36.502  32.897  38.045  1.00  0.00    -0.237 OA
ATOM     87  O   UNL A   1      37.320  30.565  37.910  1.00  0.00    -0.237 OA
ATOM     88  O   UNL A   1      38.131  32.058  39.696  1.00  0.00    -0.744 OA
ENDBRANCH  81  85
ENDBRANCH  54  78
BRANCH  66  89
ATOM     89  C   UNL A   1      45.067  27.181  34.101  1.00  0.00     0.023 A 
ATOM     90  C   UNL A   1      44.948  26.143  35.040  1.00  0.00     0.031 A 
ATOM     91  C   UNL A   1      46.342  27.742  33.894  1.00  0.00     0.131 A 
ATOM     92  C   UNL A   1      46.077  25.721  35.761  1.00  0.00     0.055 A 
ATOM     93  C   UNL A   1      47.470  27.280  34.570  1.00  0.00     0.041 A 
ATOM     94  F   UNL A   1      46.513  28.740  33.010  1.00  0.00    -0.206 F 
ATOM     95  C   UNL A   1      47.340  26.269  35.516  1.00  0.00     0.022 A 
BRANCH  92  96
ATOM     96  S   UNL A   1      45.870  24.486  37.073  1.00  0.00     0.124 S 
ATOM     97  O   UNL A   1      46.998  24.781  37.951  1.00  0.00    -0.237 OA
ATOM     98  O   UNL A   1      44.549  24.810  37.603  1.00  0.00    -0.237 OA
ATOM     99  O   UNL A   1      45.954  23.211  36.362  1.00  0.00    -0.744 OA
ENDBRANCH  92  96
ENDBRANCH  66  89
ENDBRANCH  40  41
ENDBRANCH  33  35
ENDBRANCH  32  33
ENDBRANCH  31  32
ENDBRANCH  30  31
ENDBRANCH  29  30
ENDBRANCH  28  29
ENDBRANCH   1  28
TORSDOF 25
ENDMDL
MODEL 2
REMARK VINA RESULT:     -10.1      3.217      5.382
REMARK SMILES O=C(NCC(=O)OCCOCCOCCOCCOC(=O)c1ccc(-c2c3nc(c(-c4cc(S(=O)(=O)[O-])ccc4F)c4ccc([nH]4)c(-c4cc(S(=O)(=O)[O-])ccc4F)c4nc(c(-c5cc(S(=O)(=O)[O-])ccc5F)c5ccc2[nH]5)C=C4)C=C3)cc1)Nc1cccc2c1CCCC2
REMARK SMILES IDX 14 1 13 2 12 3 11 4 10 5 9 6 8 7 7 8 5 9 6 10 4 11 3 12 1 13
REMARK SMILES IDX 2 14 85 15 86 18 87 19 91 20 88 21 90 22 92 23 89 24 95 25
REMARK SMILES IDX 93 26 94 27 15 28 16 29 17 30 18 31 19 32 20 33 21 34 22 35
REMARK SMILES IDX 23 36 84 37 24 38 83 39 25 40 26 41 27 42 77 43 28 44 82 45
REMARK SMILES IDX 76 46 78 47 29 48 81 49 75 50 74 51 30 53 62 54 42 55 61 56
REMARK SMILES IDX 43 57 46 58 60 59 79 60 44 61 45 62 59 64 80 65 47 66 31 67
REMARK SMILES IDX 32 68 40 69 33 70 39 71 41 72 38 73 34 74 35 75 36 76 37 77
REMARK SMILES IDX 63 78 64 79 72 80 65 81 71 82 73 83 70 84 66 85 67 86 68 87
REMARK SMILES IDX 69 88 48 89 49 90 57 91 50 92 56 93 58 94 55 95 51 96 52 97
REMARK SMILES IDX 53 98 54 99
REMARK H PARENT 3 16 85 17 78 52 46 63
REMARK Flexibility Score: inf
ROOT
ATOM      1  C   UNL A   1      33.436  28.582  25.139  1.00  0.00     0.188 C 
ENDROOT
BRANCH   1   2
ATOM      2  O   UNL A   1      33.954  27.489  24.381  1.00  0.00    -0.377 OA
BRANCH   2   3
ATOM      3  C   UNL A   1      33.027  26.540  23.899  1.00  0.00     0.188 C 
BRANCH   3   4
ATOM      4  C   UNL A   1      33.612  25.576  22.853  1.00  0.00     0.188 C 
BRANCH   4   5
ATOM      5  O   UNL A   1      34.079  24.286  23.222  1.00  0.00    -0.376 OA
BRANCH   5   6
ATOM      6  C   UNL A   1      33.715  23.696  24.466  1.00  0.00     0.202 C 
BRANCH   6   7
ATOM      7  C   UNL A   1      34.663  23.695  25.675  1.00  0.00     0.261 C 
BRANCH   7   8
ATOM      8  O   UNL A   1      35.927  24.332  25.457  1.00  0.00    -0.462 OA
BRANCH   8   9
ATOM      9  C   UNL A   1      36.936  23.545  25.009  1.00  0.00     0.325 C 
ATOM     10  O   UNL A   1      37.061  23.149  23.855  1.00  0.00    -0.250 OA
BRANCH   9  11
ATOM     11  C   UNL A   1      38.034  23.351  26.048  1.00  0.00     0.240 C 
BRANCH  11  12
ATOM     12  N   UNL A   1      38.666  22.045  26.108  1.00  0.00    -0.327 N 
ATOM     13  O   UNL A   1      40.191  20.478  26.354  1.00  0.00    -0.248 OA
ATOM     14  C   UNL A   1      39.972  21.672  26.167  1.00  0.00     0.319 C 
ATOM     15  N   UNL A   1      40.912  22.680  26.100  1.00  0.00    -0.308 N 
ATOM     16  H   UNL A   1      38.033  21.292  26.106  1.00  0.00     0.166 HD
ATOM     17  H   UNL A   1      40.643  23.567  25.771  1.00  0.00     0.171 HD
BRANCH  15  18
ATOM     18  C   UNL A   1      42.259  22.465  26.499  1.00  0.00     0.046 A 
ATOM     19  C   UNL A   1      43.080  21.986  25.484  1.00  0.00     0.026 A 
ATOM     20  C   UNL A   1      42.845  23.236  27.502  1.00  0.00    -0.021 A 
ATOM     21  C   UNL A   1      44.311  22.613  25.278  1.00  0.00     0.002 A 
ATOM     22  C   UNL A   1      43.916  24.070  27.168  1.00  0.00    -0.043 A 
ATOM     23  C   UNL A   1      43.093  22.579  28.868  1.00  0.00     0.038 C 
ATOM     24  C   UNL A   1      44.670  23.730  26.048  1.00  0.00     0.004 A 
ATOM     25  C   UNL A   1      44.270  25.175  28.127  1.00  0.00     0.036 C 
ATOM     26  C   UNL A   1      43.507  23.569  29.962  1.00  0.00     0.005 C 
ATOM     27  C   UNL A   1      43.554  25.019  29.481  1.00  0.00     0.005 C 
ENDBRANCH  15  18
ENDBRANCH  11  12
ENDBRANCH   9  11
ENDBRANCH   8   9
ENDBRANCH   7   8
ENDBRANCH   6   7
ENDBRANCH   5   6
ENDBRANCH   4   5
ENDBRANCH   3   4
ENDBRANCH   2   3
ENDBRANCH   1   2
BRANCH   1  28
ATOM     28  C   UNL A   1      32.915  28.321  26.571  1.00  0.00     0.188 C 
BRANCH  28  29
ATOM     29  O   UNL A   1      32.877  29.485  27.393  1.00  0.00    -0.376 OA
BRANCH  29  30
ATOM     30  C   UNL A   1      33.606  30.623  26.953  1.00  0.00     0.202 C 
BRANCH  30  31
ATOM     31  C   UNL A   1      33.847  31.731  27.990  1.00  0.00     0.261 C 
BRANCH  31  32
ATOM     32  O   UNL A   1      33.488  33.065  27.602  1.00  0.00    -0.460 OA
BRANCH  32  33
ATOM     33  C   UNL A   1      33.484  34.033  28.551  1.00  0.00     0.338 C 
ATOM     34  O   UNL A   1      32.593  34.808  28.795  1.00  0.00    -0.246 OA
BRANCH  33  35
ATOM     35  C   UNL A   1      34.706  33.837  29.369  1.00  0.00     0.060 A 
ATOM     36  C   UNL A   1      35.950  34.233  28.858  1.00  0.00     0.016 A 
ATOM     37  C   UNL A   1      34.611  33.273  30.642  1.00  0.00     0.016 A 
ATOM     38  C   UNL A   1      37.112  34.031  29.610  1.00  0.00     0.010 A 
ATOM     39  C   UNL A   1      35.774  33.056  31.383  1.00  0.00     0.010 A 
ATOM     40  C   UNL A   1      37.033  33.401  30.859  1.00  0.00    -0.014 A 
BRANCH  40  41
ATOM     41  C   UNL A   1      38.246  32.872  31.533  1.00  0.00     0.031 A 
ATOM     42  C   UNL A   1      38.915  31.674  30.914  1.00  0.00     0.074 A 
ATOM     43  C   UNL A   1      38.719  33.394  32.679  1.00  0.00     0.049 A 
ATOM     44  N   UNL A   1      39.841  30.890  31.398  1.00  0.00    -0.248 NA
ATOM     45  C   UNL A   1      38.455  31.305  29.564  1.00  0.00     0.031 C 
ATOM     46  C   UNL A   1      38.208  34.593  33.337  1.00  0.00     0.029 A 
ATOM     47  N   UNL A   1      39.726  32.958  33.505  1.00  0.00    -0.354 N 
ATOM     48  C   UNL A   1      40.065  29.926  30.422  1.00  0.00     0.074 A 
ATOM     49  C   UNL A   1      39.153  30.205  29.334  1.00  0.00     0.031 C 
ATOM     50  C   UNL A   1      38.891  34.784  34.480  1.00  0.00     0.029 A 
ATOM     51  C   UNL A   1      39.845  33.690  34.664  1.00  0.00     0.049 A 
ATOM     52  H   UNL A   1      40.308  32.194  33.289  1.00  0.00     0.167 HD
ATOM     53  C   UNL A   1      40.953  28.902  30.431  1.00  0.00     0.034 A 
ATOM     54  C   UNL A   1      40.602  33.471  35.761  1.00  0.00     0.034 A 
ATOM     55  C   UNL A   1      41.839  28.625  31.533  1.00  0.00     0.049 A 
ATOM     56  C   UNL A   1      41.496  32.248  35.807  1.00  0.00     0.074 A 
ATOM     57  C   UNL A   1      42.762  27.603  31.661  1.00  0.00     0.029 A 
ATOM     58  N   UNL A   1      41.904  29.370  32.703  1.00  0.00    -0.354 N 
ATOM     59  N   UNL A   1      41.678  31.320  34.894  1.00  0.00    -0.248 NA
ATOM     60  C   UNL A   1      42.286  32.042  37.030  1.00  0.00     0.031 C 
ATOM     61  C   UNL A   1      43.331  27.686  32.935  1.00  0.00     0.029 A 
ATOM     62  C   UNL A   1      42.836  28.816  33.565  1.00  0.00     0.049 A 
ATOM     63  H   UNL A   1      41.367  30.173  32.893  1.00  0.00     0.167 HD
ATOM     64  C   UNL A   1      42.644  30.457  35.415  1.00  0.00     0.074 A 
ATOM     65  C   UNL A   1      42.999  30.968  36.720  1.00  0.00     0.031 C 
ATOM     66  C   UNL A   1      43.197  29.351  34.856  1.00  0.00     0.034 A 
BRANCH  53  67
ATOM     67  C   UNL A   1      40.963  27.983  29.235  1.00  0.00     0.023 A 
ATOM     68  C   UNL A   1      41.852  28.177  28.164  1.00  0.00     0.031 A 
ATOM     69  C   UNL A   1      40.051  26.916  29.148  1.00  0.00     0.131 A 
ATOM     70  C   UNL A   1      41.761  27.366  27.023  1.00  0.00     0.055 A 
ATOM     71  C   UNL A   1      40.025  26.058  28.048  1.00  0.00     0.041 A 
ATOM     72  F   UNL A   1      39.159  26.698  30.128  1.00  0.00    -0.206 F 
ATOM     73  C   UNL A   1      40.874  26.289  26.970  1.00  0.00     0.022 A 
BRANCH  70  74
ATOM     74  S   UNL A   1      42.715  27.833  25.553  1.00  0.00     0.124 S 
ATOM     75  O   UNL A   1      42.701  26.590  24.785  1.00  0.00    -0.237 OA
ATOM     76  O   UNL A   1      41.932  28.933  25.003  1.00  0.00    -0.237 OA
ATOM     77  O   UNL A   1      44.020  28.206  26.096  1.00  0.00    -0.744 OA
ENDBRANCH  70  74
ENDBRANCH  53  67
BRANCH  54  78
ATOM     78  C   UNL A   1      40.529  34.388  36.939  1.00  0.00     0.023 A 
ATOM     79  C   UNL A   1      41.524  35.355  37.160  1.00  0.00     0.031 A 
ATOM     80  C   UNL A   1      39.517  34.256  37.908  1.00  0.00     0.131 A 
ATOM     81  C   UNL A   1      41.523  36.104  38.347  1.00  0.00     0.055 A 
ATOM     82  C   UNL A   1      39.482  35.052  39.054  1.00  0.00     0.041 A 
ATOM     83  F   UNL A   1      38.547  33.340  37.757  1.00  0.00    -0.206 F 
ATOM     84  C   UNL A   1      40.499  35.973  39.289  1.00  0.00     0.022 A 
BRANCH  81  85
ATOM     85  S   UNL A   1      42.951  37.166  38.704  1.00  0.00     0.124 S 
ATOM     86  O   UNL A   1      43.682  36.359  39.675  1.00  0.00    -0.237 OA
ATOM     87  O   UNL A   1      43.566  37.300  37.388  1.00  0.00    -0.237 OA
ATOM     88  O   UNL A   1      42.345  38.385  39.234  1.00  0.00    -0.744 OA
ENDBRANCH  81  85
ENDBRANCH  54  78
BRANCH  66  89
ATOM     89  C   UNL A   1      44.321  28.670  35.602  1.00  0.00     0.023 A 
ATOM     90  C   UNL A   1      44.100  27.620  36.509  1.00  0.00     0.031 A 
ATOM     91  C   UNL A   1      45.651  29.062  35.356  1.00  0.00     0.131 A 
ATOM     92  C   UNL A   1      45.190  27.021  37.161  1.00  0.00     0.055 A 
ATOM     93  C   UNL A   1      46.732  28.425  35.962  1.00  0.00     0.041 A 
ATOM     94  F   UNL A   1      45.920  30.062  34.500  1.00  0.00    -0.206 F 
ATOM     95  C   UNL A   1      46.505  27.403  36.877  1.00  0.00     0.022 A 
BRANCH  92  96
ATOM     96  S   UNL A   1      44.870  25.773  38.438  1.00  0.00     0.124 S 
ATOM     97  O   UNL A   1      46.197  25.206  38.651  1.00  0.00    -0.237 OA
ATOM     98  O   UNL A   1      44.336  26.575  39.534  1.00  0.00    -0.237 OA
ATOM     99  O   UNL A   1      43.906  24.874  37.806  1.00  0.00    -0.744 OA
ENDBRANCH  92  96
ENDBRANCH  66  89
ENDBRANCH  40  41
ENDBRANCH  33  35
ENDBRANCH  32  33
ENDBRANCH  31  32
ENDBRANCH  30  31
ENDBRANCH  29  30
ENDBRANCH  28  29
ENDBRANCH   1  28
TORSDOF 25
ENDMDL
MODEL 3
REMARK VINA RESULT:     -10.0      2.361      2.942
REMARK SMILES O=C(NCC(=O)OCCOCCOCCOCCOC(=O)c1ccc(-c2c3nc(c(-c4cc(S(=O)(=O)[O-])ccc4F)c4ccc([nH]4)c(-c4cc(S(=O)(=O)[O-])ccc4F)c4nc(c(-c5cc(S(=O)(=O)[O-])ccc5F)c5ccc2[nH]5)C=C4)C=C3)cc1)Nc1cccc2c1CCCC2
REMARK SMILES IDX 14 1 13 2 12 3 11 4 10 5 9 6 8 7 7 8 5 9 6 10 4 11 3 12 1 13
REMARK SMILES IDX 2 14 85 15 86 18 87 19 91 20 88 21 90 22 92 23 89 24 95 25
REMARK SMILES IDX 93 26 94 27 15 28 16 29 17 30 18 31 19 32 20 33 21 34 22 35
REMARK SMILES IDX 23 36 84 37 24 38 83 39 25 40 26 41 27 42 77 43 28 44 82 45
REMARK SMILES IDX 76 46 78 47 29 48 81 49 75 50 74 51 30 53 62 54 42 55 61 56
REMARK SMILES IDX 43 57 46 58 60 59 79 60 44 61 45 62 59 64 80 65 47 66 31 67
REMARK SMILES IDX 32 68 40 69 33 70 39 71 41 72 38 73 34 74 35 75 36 76 37 77
REMARK SMILES IDX 63 78 64 79 72 80 65 81 71 82 73 83 70 84 66 85 67 86 68 87
REMARK SMILES IDX 69 88 48 89 49 90 57 91 50 92 56 93 58 94 55 95 51 96 52 97
REMARK SMILES IDX 53 98 54 99
REMARK H PARENT 3 16 85 17 78 52 46 63
REMARK Flexibility Score: inf
ROOT
ATOM      1  C   UNL A   1      31.504  29.762  25.172  1.00  0.00     0.188 C 
ENDROOT
BRANCH   1   2
ATOM      2  O   UNL A   1      31.159  28.498  24.606  1.00  0.00    -0.377 OA
BRANCH   2   3
ATOM      3  C   UNL A   1      32.010  27.409  24.890  1.00  0.00     0.188 C 
BRANCH   3   4
ATOM      4  C   UNL A   1      32.328  26.533  23.666  1.00  0.00     0.188 C 
BRANCH   4   5
ATOM      5  O   UNL A   1      33.621  25.978  23.475  1.00  0.00    -0.376 OA
BRANCH   5   6
ATOM      6  C   UNL A   1      33.793  24.609  23.118  1.00  0.00     0.202 C 
BRANCH   6   7
ATOM      7  C   UNL A   1      35.078  23.836  23.451  1.00  0.00     0.261 C 
BRANCH   7   8
ATOM      8  O   UNL A   1      35.429  23.808  24.840  1.00  0.00    -0.462 OA
BRANCH   8   9
ATOM      9  C   UNL A   1      36.671  23.358  25.145  1.00  0.00     0.325 C 
ATOM     10  O   UNL A   1      37.709  23.991  24.980  1.00  0.00    -0.250 OA
BRANCH   9  11
ATOM     11  C   UNL A   1      36.646  22.042  25.913  1.00  0.00     0.240 C 
BRANCH  11  12
ATOM     12  N   UNL A   1      35.443  21.738  26.668  1.00  0.00    -0.327 N 
ATOM     13  O   UNL A   1      33.481  20.905  27.214  1.00  0.00    -0.248 OA
ATOM     14  C   UNL A   1      34.268  21.157  26.305  1.00  0.00     0.319 C 
ATOM     15  N   UNL A   1      34.119  20.832  24.973  1.00  0.00    -0.308 N 
ATOM     16  H   UNL A   1      35.486  22.002  27.615  1.00  0.00     0.166 HD
ATOM     17  H   UNL A   1      34.720  21.238  24.308  1.00  0.00     0.171 HD
BRANCH  15  18
ATOM     18  C   UNL A   1      33.116  19.923  24.540  1.00  0.00     0.046 A 
ATOM     19  C   UNL A   1      32.298  20.421  23.532  1.00  0.00     0.026 A 
ATOM     20  C   UNL A   1      33.323  18.546  24.590  1.00  0.00    -0.021 A 
ATOM     21  C   UNL A   1      32.070  19.622  22.409  1.00  0.00     0.002 A 
ATOM     22  C   UNL A   1      33.363  17.829  23.391  1.00  0.00    -0.043 A 
ATOM     23  C   UNL A   1      32.573  17.740  25.662  1.00  0.00     0.038 C 
ATOM     24  C   UNL A   1      32.702  18.374  22.293  1.00  0.00     0.004 A 
ATOM     25  C   UNL A   1      33.978  16.455  23.415  1.00  0.00     0.036 C 
ATOM     26  C   UNL A   1      33.052  16.290  25.791  1.00  0.00     0.005 C 
ATOM     27  C   UNL A   1      34.207  15.948  24.851  1.00  0.00     0.005 C 
ENDBRANCH  15  18
ENDBRANCH  11  12
ENDBRANCH   9  11
ENDBRANCH   8   9
ENDBRANCH   7   8
ENDBRANCH   6   7
ENDBRANCH   5   6
ENDBRANCH   4   5
ENDBRANCH   3   4
ENDBRANCH   2   3
ENDBRANCH   1   2
BRANCH   1  28
ATOM     28  C   UNL A   1      32.614  29.824  26.247  1.00  0.00     0.188 C 
BRANCH  28  29
ATOM     29  O   UNL A   1      32.693  31.075  26.924  1.00  0.00    -0.376 OA
BRANCH  29  30
ATOM     30  C   UNL A   1      31.802  32.102  26.511  1.00  0.00     0.202 C 
BRANCH  30  31
ATOM     31  C   UNL A   1      31.808  33.395  27.342  1.00  0.00     0.261 C 
BRANCH  31  32
ATOM     32  O   UNL A   1      33.088  33.986  27.605  1.00  0.00    -0.460 OA
BRANCH  32  33
ATOM     33  C   UNL A   1      33.335  34.458  28.852  1.00  0.00     0.338 C 
ATOM     34  O   UNL A   1      32.624  35.174  29.512  1.00  0.00    -0.246 OA
BRANCH  33  35
ATOM     35  C   UNL A   1      34.556  33.770  29.337  1.00  0.00     0.060 A 
ATOM     36  C   UNL A   1      34.434  32.691  30.224  1.00  0.00     0.016 A 
ATOM     37  C   UNL A   1      35.814  34.190  28.904  1.00  0.00     0.016 A 
ATOM     38  C   UNL A   1      35.579  32.050  30.709  1.00  0.00     0.010 A 
ATOM     39  C   UNL A   1      36.956  33.561  29.403  1.00  0.00     0.010 A 
ATOM     40  C   UNL A   1      36.848  32.512  30.333  1.00  0.00    -0.014 A 
BRANCH  40  41
ATOM     41  C   UNL A   1      38.069  32.090  31.066  1.00  0.00     0.031 A 
ATOM     42  C   UNL A   1      38.879  30.968  30.474  1.00  0.00     0.074 A 
ATOM     43  C   UNL A   1      38.430  32.640  32.239  1.00  0.00     0.049 A 
ATOM     44  N   UNL A   1      39.849  30.269  31.000  1.00  0.00    -0.248 NA
ATOM     45  C   UNL A   1      38.528  30.576  29.099  1.00  0.00     0.031 C 
ATOM     46  C   UNL A   1      37.775  33.777  32.879  1.00  0.00     0.029 A 
ATOM     47  N   UNL A   1      39.429  32.289  33.114  1.00  0.00    -0.354 N 
ATOM     48  C   UNL A   1      40.214  29.342  30.030  1.00  0.00     0.074 A 
ATOM     49  C   UNL A   1      39.337  29.549  28.897  1.00  0.00     0.031 C 
ATOM     50  C   UNL A   1      38.376  34.017  34.058  1.00  0.00     0.029 A 
ATOM     51  C   UNL A   1      39.418  33.015  34.284  1.00  0.00     0.049 A 
ATOM     52  H   UNL A   1      40.092  31.586  32.923  1.00  0.00     0.167 HD
ATOM     53  C   UNL A   1      41.192  28.407  30.078  1.00  0.00     0.034 A 
ATOM     54  C   UNL A   1      40.134  32.854  35.418  1.00  0.00     0.034 A 
ATOM     55  C   UNL A   1      42.042  28.200  31.224  1.00  0.00     0.049 A 
ATOM     56  C   UNL A   1      41.135  31.719  35.502  1.00  0.00     0.074 A 
ATOM     57  C   UNL A   1      43.050  27.267  31.393  1.00  0.00     0.029 A 
ATOM     58  N   UNL A   1      41.975  28.932  32.402  1.00  0.00    -0.354 N 
ATOM     59  N   UNL A   1      41.452  30.824  34.593  1.00  0.00    -0.248 NA
ATOM     60  C   UNL A   1      41.876  31.573  36.764  1.00  0.00     0.031 C 
ATOM     61  C   UNL A   1      43.541  27.387  32.696  1.00  0.00     0.029 A 
ATOM     62  C   UNL A   1      42.909  28.457  33.307  1.00  0.00     0.049 A 
ATOM     63  H   UNL A   1      41.356  29.679  32.569  1.00  0.00     0.167 HD
ATOM     64  C   UNL A   1      42.466  30.050  35.157  1.00  0.00     0.074 A 
ATOM     65  C   UNL A   1      42.703  30.575  36.484  1.00  0.00     0.031 C 
ATOM     66  C   UNL A   1      43.150  29.007  34.620  1.00  0.00     0.034 A 
BRANCH  53  67
ATOM     67  C   UNL A   1      41.352  27.508  28.877  1.00  0.00     0.023 A 
ATOM     68  C   UNL A   1      42.372  27.713  27.933  1.00  0.00     0.031 A 
ATOM     69  C   UNL A   1      40.452  26.450  28.655  1.00  0.00     0.131 A 
ATOM     70  C   UNL A   1      42.425  26.922  26.776  1.00  0.00     0.055 A 
ATOM     71  C   UNL A   1      40.564  25.610  27.545  1.00  0.00     0.041 A 
ATOM     72  F   UNL A   1      39.440  26.222  29.507  1.00  0.00    -0.206 F 
ATOM     73  C   UNL A   1      41.546  25.853  26.590  1.00  0.00     0.022 A 
BRANCH  70  74
ATOM     74  S   UNL A   1      43.563  27.406  25.450  1.00  0.00     0.124 S 
ATOM     75  O   UNL A   1      44.341  26.183  25.268  1.00  0.00    -0.237 OA
ATOM     76  O   UNL A   1      42.655  27.754  24.364  1.00  0.00    -0.237 OA
ATOM     77  O   UNL A   1      44.304  28.527  26.027  1.00  0.00    -0.744 OA
ENDBRANCH  70  74
ENDBRANCH  53  67
BRANCH  54  78
ATOM     78  C   UNL A   1      39.913  33.745  36.597  1.00  0.00     0.023 A 
ATOM     79  C   UNL A   1      40.806  34.790  36.886  1.00  0.00     0.031 A 
ATOM     80  C   UNL A   1      38.861  33.514  37.503  1.00  0.00     0.131 A 
ATOM     81  C   UNL A   1      40.671  35.520  38.078  1.00  0.00     0.055 A 
ATOM     82  C   UNL A   1      38.691  34.288  38.652  1.00  0.00     0.041 A 
ATOM     83  F   UNL A   1      37.984  32.521  37.286  1.00  0.00    -0.206 F 
ATOM     84  C   UNL A   1      39.609  35.288  38.955  1.00  0.00     0.022 A 
BRANCH  81  85
ATOM     85  S   UNL A   1      41.979  36.695  38.528  1.00  0.00     0.124 S 
ATOM     86  O   UNL A   1      42.592  36.963  37.231  1.00  0.00    -0.237 OA
ATOM     87  O   UNL A   1      41.214  37.790  39.115  1.00  0.00    -0.237 OA
ATOM     88  O   UNL A   1      42.807  35.940  39.465  1.00  0.00    -0.744 OA
ENDBRANCH  81  85
ENDBRANCH  54  78
BRANCH  66  89
ATOM     89  C   UNL A   1      44.293  28.426  35.419  1.00  0.00     0.023 A 
ATOM     90  C   UNL A   1      44.094  27.504  36.461  1.00  0.00     0.031 A 
ATOM     91  C   UNL A   1      45.616  28.778  35.090  1.00  0.00     0.131 A 
ATOM     92  C   UNL A   1      45.201  26.990  37.158  1.00  0.00     0.055 A 
ATOM     93  C   UNL A   1      46.712  28.221  35.747  1.00  0.00     0.041 A 
ATOM     94  F   UNL A   1      45.863  29.657  34.105  1.00  0.00    -0.206 F 
ATOM     95  C   UNL A   1      46.508  27.328  36.793  1.00  0.00     0.022 A 
BRANCH  92  96
ATOM     96  S   UNL A   1      44.914  25.921  38.594  1.00  0.00     0.124 S 
ATOM     97  O   UNL A   1      44.765  24.609  37.973  1.00  0.00    -0.237 OA
ATOM     98  O   UNL A   1      46.126  26.119  39.381  1.00  0.00    -0.237 OA
ATOM     99  O   UNL A   1      43.695  26.466  39.191  1.00  0.00    -0.744 OA
ENDBRANCH  92  96
ENDBRANCH  66  89
ENDBRANCH  40  41
ENDBRANCH  33  35
ENDBRANCH  32  33
ENDBRANCH  31  32
ENDBRANCH  30  31
ENDBRANCH  29  30
ENDBRANCH  28  29
ENDBRANCH   1  28
TORSDOF 25
ENDMDL
