MODEL 1
REMARK VINA RESULT:      -9.6      0.000      0.000
REMARK SMILES CN1C(=O)/C(=C\c2ccc(OCC(=O)OCCOCCOCCOCCOC(=O)c3ccc(-c4c5nc(c(-c6cc(S(=O)(=O)[O-])ccc6F)c6ccc([nH]6)c(-c6cc(S(=O)(=O)[O-])ccc6F)c6nc(c(-c7cc(S(=O)(=O)[O-])ccc7F)c7ccc4[nH]7)C=C6)C=C5)cc3)cc2)C(O)=NC1=S
REMARK SMILES IDX 20 1 19 2 18 3 17 4 16 5 15 6 13 7 14 8 12 9 11 10 10 11
REMARK SMILES IDX 7 12 8 13 94 14 9 15 93 16 6 17 1 18 2 19 3 20 98 21 4 22
REMARK SMILES IDX 5 23 97 24 99 25 95 26 96 27 21 29 22 30 23 31 24 32 25 33
REMARK SMILES IDX 26 34 27 35 28 36 29 37 30 38 31 39 92 40 32 41 91 42 33 43
REMARK SMILES IDX 34 44 35 45 85 46 36 47 90 48 84 49 86 50 37 51 89 52 83 53
REMARK SMILES IDX 82 54 38 56 70 57 50 58 69 59 51 60 54 61 68 62 87 63 52 64
REMARK SMILES IDX 53 65 67 67 88 68 55 69 39 70 40 71 48 72 41 73 47 74 49 75
REMARK SMILES IDX 46 76 42 77 43 78 44 79 45 80 71 81 72 82 80 83 73 84 79 85
REMARK SMILES IDX 81 86 78 87 74 88 75 89 76 90 77 91 56 92 57 93 65 94 58 95
REMARK SMILES IDX 64 96 66 97 63 98 59 99 60 100 61 101 62 102
REMARK H PARENT 96 28 86 55 54 66
REMARK Flexibility Score: inf
ROOT
ATOM      1  C   UNL A   1      34.045  30.122  27.613  1.00  0.00     0.188 C 
ENDROOT
BRANCH   1   2
ATOM      2  C   UNL A   1      33.750  28.863  26.768  1.00  0.00     0.188 C 
BRANCH   2   3
ATOM      3  O   UNL A   1      34.074  28.846  25.378  1.00  0.00    -0.376 OA
BRANCH   3   4
ATOM      4  C   UNL A   1      33.120  28.251  24.519  1.00  0.00     0.202 C 
BRANCH   4   5
ATOM      5  C   UNL A   1      31.666  28.451  24.976  1.00  0.00     0.261 C 
BRANCH   5   6
ATOM      6  O   UNL A   1      30.981  29.561  24.339  1.00  0.00    -0.461 OA
BRANCH   6   7
ATOM      7  C   UNL A   1      30.115  29.259  23.330  1.00  0.00     0.344 C 
ATOM      8  O   UNL A   1      29.416  30.077  22.744  1.00  0.00    -0.248 OA
BRANCH   7   9
ATOM      9  C   UNL A   1      30.034  27.741  23.048  1.00  0.00     0.351 C 
BRANCH   9  10
ATOM     10  O   UNL A   1      30.810  27.145  22.013  1.00  0.00    -0.482 OA
BRANCH  10  11
ATOM     11  C   UNL A   1      31.352  25.894  22.179  1.00  0.00     0.120 A 
ATOM     12  C   UNL A   1      32.556  23.456  23.106  1.00  0.00    -0.024 A 
ATOM     13  C   UNL A   1      31.286  23.851  23.543  1.00  0.00     0.012 A 
ATOM     14  C   UNL A   1      33.151  24.243  22.103  1.00  0.00     0.012 A 
ATOM     15  C   UNL A   1      30.709  25.068  23.109  1.00  0.00     0.047 A 
ATOM     16  C   UNL A   1      32.553  25.443  21.634  1.00  0.00     0.047 A 
BRANCH  12  17
ATOM     17  C   UNL A   1      33.208  22.212  23.605  1.00  0.00     0.027 C 
ATOM     18  C   UNL A   1      36.960  23.895  25.954  1.00  0.00     0.156 C 
ATOM     19  N   UNL A   1      36.215  22.715  25.502  1.00  0.00    -0.286 N 
ATOM     20  C   UNL A   1      34.840  22.856  25.503  1.00  0.00     0.265 C 
ATOM     21  C   UNL A   1      36.769  21.443  25.330  1.00  0.00     0.205 C 
ATOM     22  O   UNL A   1      34.228  23.489  26.349  1.00  0.00    -0.268 OA
ATOM     23  C   UNL A   1      34.136  21.961  24.563  1.00  0.00     0.103 C 
ATOM     24  N   UNL A   1      35.915  20.382  25.083  1.00  0.00    -0.184 NA
ATOM     25  S   UNL A   1      38.426  21.123  25.471  1.00  0.00    -0.038 S 
ATOM     26  C   UNL A   1      34.701  20.622  24.737  1.00  0.00     0.226 C 
BRANCH  26  27
ATOM     27  O   UNL A   1      33.840  19.598  24.605  1.00  0.00    -0.493 OA
ATOM     28  H   UNL A   1      34.162  18.720  24.554  1.00  0.00     0.295 HD
ENDBRANCH  26  27
ENDBRANCH  12  17
ENDBRANCH  10  11
ENDBRANCH   9  10
ENDBRANCH   7   9
ENDBRANCH   6   7
ENDBRANCH   5   6
ENDBRANCH   4   5
ENDBRANCH   3   4
ENDBRANCH   2   3
ENDBRANCH   1   2
BRANCH   1  29
ATOM     29  O   UNL A   1      35.443  30.377  27.698  1.00  0.00    -0.377 OA
BRANCH  29  30
ATOM     30  C   UNL A   1      35.764  31.756  27.854  1.00  0.00     0.188 C 
BRANCH  30  31
ATOM     31  C   UNL A   1      34.711  32.512  28.662  1.00  0.00     0.188 C 
BRANCH  31  32
ATOM     32  O   UNL A   1      34.417  33.859  28.334  1.00  0.00    -0.376 OA
BRANCH  32  33
ATOM     33  C   UNL A   1      33.117  34.411  28.421  1.00  0.00     0.202 C 
BRANCH  33  34
ATOM     34  C   UNL A   1      32.810  35.729  29.119  1.00  0.00     0.261 C 
BRANCH  34  35
ATOM     35  O   UNL A   1      33.623  35.894  30.257  1.00  0.00    -0.460 OA
BRANCH  35  36
ATOM     36  C   UNL A   1      33.189  35.260  31.363  1.00  0.00     0.338 C 
ATOM     37  O   UNL A   1      32.281  35.574  32.120  1.00  0.00    -0.246 OA
BRANCH  36  38
ATOM     38  C   UNL A   1      34.331  34.406  31.689  1.00  0.00     0.060 A 
ATOM     39  C   UNL A   1      35.644  34.858  31.461  1.00  0.00     0.016 A 
ATOM     40  C   UNL A   1      34.063  33.288  32.475  1.00  0.00     0.016 A 
ATOM     41  C   UNL A   1      36.699  34.233  32.096  1.00  0.00     0.010 A 
ATOM     42  C   UNL A   1      35.120  32.641  33.081  1.00  0.00     0.010 A 
ATOM     43  C   UNL A   1      36.429  33.116  32.889  1.00  0.00    -0.014 A 
BRANCH  43  44
ATOM     44  C   UNL A   1      37.527  32.249  33.318  1.00  0.00     0.031 A 
ATOM     45  C   UNL A   1      38.140  32.587  34.638  1.00  0.00     0.074 A 
ATOM     46  C   UNL A   1      37.992  31.300  32.494  1.00  0.00     0.049 A 
ATOM     47  N   UNL A   1      39.249  32.163  35.167  1.00  0.00    -0.248 NA
ATOM     48  C   UNL A   1      37.410  33.575  35.454  1.00  0.00     0.031 C 
ATOM     49  C   UNL A   1      37.401  30.926  31.208  1.00  0.00     0.029 A 
ATOM     50  N   UNL A   1      39.097  30.507  32.604  1.00  0.00    -0.354 N 
ATOM     51  C   UNL A   1      39.367  32.853  36.368  1.00  0.00     0.074 A 
ATOM     52  C   UNL A   1      38.232  33.738  36.476  1.00  0.00     0.031 C 
ATOM     53  C   UNL A   1      38.176  29.992  30.630  1.00  0.00     0.029 A 
ATOM     54  C   UNL A   1      39.331  29.742  31.486  1.00  0.00     0.049 A 
ATOM     55  H   UNL A   1      39.670  30.486  33.404  1.00  0.00     0.167 HD
ATOM     56  C   UNL A   1      40.354  32.752  37.287  1.00  0.00     0.034 A 
ATOM     57  C   UNL A   1      40.391  28.967  31.197  1.00  0.00     0.034 A 
ATOM     58  C   UNL A   1      41.485  31.886  37.100  1.00  0.00     0.049 A 
ATOM     59  C   UNL A   1      41.500  28.898  32.219  1.00  0.00     0.074 A 
ATOM     60  C   UNL A   1      42.569  31.675  37.928  1.00  0.00     0.029 A 
ATOM     61  N   UNL A   1      41.679  31.087  35.973  1.00  0.00    -0.354 N 
ATOM     62  N   UNL A   1      41.608  29.539  33.364  1.00  0.00    -0.248 NA
ATOM     63  C   UNL A   1      42.621  28.005  31.917  1.00  0.00     0.031 C 
ATOM     64  C   UNL A   1      43.440  30.792  37.281  1.00  0.00     0.029 A 
ATOM     65  C   UNL A   1      42.870  30.397  36.077  1.00  0.00     0.049 A 
ATOM     66  H   UNL A   1      41.055  31.025  35.214  1.00  0.00     0.167 HD
ATOM     67  C   UNL A   1      42.799  29.102  33.934  1.00  0.00     0.074 A 
ATOM     68  C   UNL A   1      43.364  28.138  33.006  1.00  0.00     0.031 C 
ATOM     69  C   UNL A   1      43.381  29.452  35.111  1.00  0.00     0.034 A 
BRANCH  56  70
ATOM     70  C   UNL A   1      40.255  33.656  38.490  1.00  0.00     0.023 A 
ATOM     71  C   UNL A   1      39.538  33.275  39.640  1.00  0.00     0.031 A 
ATOM     72  C   UNL A   1      40.780  34.958  38.445  1.00  0.00     0.131 A 
ATOM     73  C   UNL A   1      39.290  34.213  40.655  1.00  0.00     0.055 A 
ATOM     74  C   UNL A   1      40.603  35.859  39.495  1.00  0.00     0.041 A 
ATOM     75  F   UNL A   1      41.440  35.391  37.358  1.00  0.00    -0.206 F 
ATOM     76  C   UNL A   1      39.838  35.495  40.601  1.00  0.00     0.022 A 
BRANCH  73  77
ATOM     77  S   UNL A   1      38.105  33.785  41.961  1.00  0.00     0.124 S 
ATOM     78  O   UNL A   1      37.169  34.903  41.887  1.00  0.00    -0.237 OA
ATOM     79  O   UNL A   1      37.594  32.494  41.514  1.00  0.00    -0.237 OA
ATOM     80  O   UNL A   1      38.926  33.745  43.169  1.00  0.00    -0.744 OA
ENDBRANCH  73  77
ENDBRANCH  56  70
BRANCH  57  81
ATOM     81  C   UNL A   1      40.466  28.228  29.907  1.00  0.00     0.023 A 
ATOM     82  C   UNL A   1      41.386  28.605  28.916  1.00  0.00     0.031 A 
ATOM     83  C   UNL A   1      39.615  27.142  29.636  1.00  0.00     0.131 A 
ATOM     84  C   UNL A   1      41.412  27.926  27.688  1.00  0.00     0.055 A 
ATOM     85  C   UNL A   1      39.670  26.444  28.426  1.00  0.00     0.041 A 
ATOM     86  F   UNL A   1      38.724  26.732  30.552  1.00  0.00    -0.206 F 
ATOM     87  C   UNL A   1      40.567  26.842  27.440  1.00  0.00     0.022 A 
BRANCH  84  88
ATOM     88  S   UNL A   1      42.533  28.521  26.391  1.00  0.00     0.124 S 
ATOM     89  O   UNL A   1      43.039  29.756  26.979  1.00  0.00    -0.237 OA
ATOM     90  O   UNL A   1      43.486  27.421  26.289  1.00  0.00    -0.237 OA
ATOM     91  O   UNL A   1      41.656  28.693  25.236  1.00  0.00    -0.744 OA
ENDBRANCH  84  88
ENDBRANCH  57  81
BRANCH  69  92
ATOM     92  C   UNL A   1      44.661  28.743  35.457  1.00  0.00     0.023 A 
ATOM     93  C   UNL A   1      44.660  27.527  36.158  1.00  0.00     0.031 A 
ATOM     94  C   UNL A   1      45.895  29.301  35.081  1.00  0.00     0.131 A 
ATOM     95  C   UNL A   1      45.877  26.932  36.511  1.00  0.00     0.055 A 
ATOM     96  C   UNL A   1      47.101  28.674  35.383  1.00  0.00     0.041 A 
ATOM     97  F   UNL A   1      45.943  30.462  34.407  1.00  0.00    -0.206 F 
ATOM     98  C   UNL A   1      47.097  27.488  36.114  1.00  0.00     0.022 A 
BRANCH  95  99
ATOM     99  S   UNL A   1      45.846  25.463  37.571  1.00  0.00     0.124 S 
ATOM    100  O   UNL A   1      46.774  25.837  38.633  1.00  0.00    -0.237 OA
ATOM    101  O   UNL A   1      44.439  25.383  37.954  1.00  0.00    -0.237 OA
ATOM    102  O   UNL A   1      46.309  24.394  36.690  1.00  0.00    -0.744 OA
ENDBRANCH  95  99
ENDBRANCH  69  92
ENDBRANCH  43  44
ENDBRANCH  36  38
ENDBRANCH  35  36
ENDBRANCH  34  35
ENDBRANCH  33  34
ENDBRANCH  32  33
ENDBRANCH  31  32
ENDBRANCH  30  31
ENDBRANCH  29  30
ENDBRANCH   1  29
TORSDOF 27
ENDMDL
MODEL 2
REMARK VINA RESULT:      -9.1      6.075     10.040
REMARK SMILES CN1C(=O)/C(=C\c2ccc(OCC(=O)OCCOCCOCCOCCOC(=O)c3ccc(-c4c5nc(c(-c6cc(S(=O)(=O)[O-])ccc6F)c6ccc([nH]6)c(-c6cc(S(=O)(=O)[O-])ccc6F)c6nc(c(-c7cc(S(=O)(=O)[O-])ccc7F)c7ccc4[nH]7)C=C6)C=C5)cc3)cc2)C(O)=NC1=S
REMARK SMILES IDX 20 1 19 2 18 3 17 4 16 5 15 6 13 7 14 8 12 9 11 10 10 11
REMARK SMILES IDX 7 12 8 13 94 14 9 15 93 16 6 17 1 18 2 19 3 20 98 21 4 22
REMARK SMILES IDX 5 23 97 24 99 25 95 26 96 27 21 29 22 30 23 31 24 32 25 33
REMARK SMILES IDX 26 34 27 35 28 36 29 37 30 38 31 39 92 40 32 41 91 42 33 43
REMARK SMILES IDX 34 44 35 45 85 46 36 47 90 48 84 49 86 50 37 51 89 52 83 53
REMARK SMILES IDX 82 54 38 56 70 57 50 58 69 59 51 60 54 61 68 62 87 63 52 64
REMARK SMILES IDX 53 65 67 67 88 68 55 69 39 70 40 71 48 72 41 73 47 74 49 75
REMARK SMILES IDX 46 76 42 77 43 78 44 79 45 80 71 81 72 82 80 83 73 84 79 85
REMARK SMILES IDX 81 86 78 87 74 88 75 89 76 90 77 91 56 92 57 93 65 94 58 95
REMARK SMILES IDX 64 96 66 97 63 98 59 99 60 100 61 101 62 102
REMARK H PARENT 96 28 86 55 54 66
REMARK Flexibility Score: inf
ROOT
ATOM      1  C   UNL A   1      33.675  34.888  28.714  1.00  0.00     0.188 C 
ENDROOT
BRANCH   1   2
ATOM      2  C   UNL A   1      34.921  34.105  28.244  1.00  0.00     0.188 C 
BRANCH   2   3
ATOM      3  O   UNL A   1      34.774  32.800  27.685  1.00  0.00    -0.376 OA
BRANCH   3   4
ATOM      4  C   UNL A   1      33.458  32.286  27.630  1.00  0.00     0.202 C 
BRANCH   4   5
ATOM      5  C   UNL A   1      33.396  30.769  27.387  1.00  0.00     0.261 C 
BRANCH   5   6
ATOM      6  O   UNL A   1      32.132  30.294  26.853  1.00  0.00    -0.461 OA
BRANCH   6   7
ATOM      7  C   UNL A   1      32.190  29.363  25.860  1.00  0.00     0.344 C 
ATOM      8  O   UNL A   1      31.213  28.808  25.367  1.00  0.00    -0.248 OA
BRANCH   7   9
ATOM      9  C   UNL A   1      33.640  29.000  25.465  1.00  0.00     0.351 C 
BRANCH   9  10
ATOM     10  O   UNL A   1      33.956  28.583  24.141  1.00  0.00    -0.482 OA
BRANCH  10  11
ATOM     11  C   UNL A   1      33.862  27.261  23.783  1.00  0.00     0.120 A 
ATOM     12  C   UNL A   1      33.078  24.633  22.925  1.00  0.00    -0.024 A 
ATOM     13  C   UNL A   1      33.099  25.712  22.033  1.00  0.00     0.012 A 
ATOM     14  C   UNL A   1      33.578  24.874  24.218  1.00  0.00     0.012 A 
ATOM     15  C   UNL A   1      33.455  27.012  22.466  1.00  0.00     0.047 A 
ATOM     16  C   UNL A   1      33.977  26.169  24.642  1.00  0.00     0.047 A 
BRANCH  12  17
ATOM     17  C   UNL A   1      32.641  23.273  22.503  1.00  0.00     0.027 C 
ATOM     18  C   UNL A   1      33.274  20.726  26.445  1.00  0.00     0.156 C 
ATOM     19  N   UNL A   1      32.874  20.736  25.033  1.00  0.00    -0.286 N 
ATOM     20  C   UNL A   1      32.194  21.869  24.627  1.00  0.00     0.265 C 
ATOM     21  C   UNL A   1      32.908  19.622  24.191  1.00  0.00     0.205 C 
ATOM     22  O   UNL A   1      31.398  22.467  25.333  1.00  0.00    -0.268 OA
ATOM     23  C   UNL A   1      32.291  22.149  23.181  1.00  0.00     0.103 C 
ATOM     24  N   UNL A   1      32.326  19.727  22.939  1.00  0.00    -0.184 NA
ATOM     25  S   UNL A   1      33.568  18.130  24.645  1.00  0.00    -0.038 S 
ATOM     26  C   UNL A   1      32.036  20.891  22.478  1.00  0.00     0.226 C 
BRANCH  26  27
ATOM     27  O   UNL A   1      31.371  20.991  21.314  1.00  0.00    -0.493 OA
ATOM     28  H   UNL A   1      30.716  20.359  21.094  1.00  0.00     0.295 HD
ENDBRANCH  26  27
ENDBRANCH  12  17
ENDBRANCH  10  11
ENDBRANCH   9  10
ENDBRANCH   7   9
ENDBRANCH   6   7
ENDBRANCH   5   6
ENDBRANCH   4   5
ENDBRANCH   3   4
ENDBRANCH   2   3
ENDBRANCH   1   2
BRANCH   1  29
ATOM     29  O   UNL A   1      33.281  34.502  30.026  1.00  0.00    -0.377 OA
BRANCH  29  30
ATOM     30  C   UNL A   1      34.088  35.066  31.055  1.00  0.00     0.188 C 
BRANCH  30  31
ATOM     31  C   UNL A   1      34.783  34.001  31.901  1.00  0.00     0.188 C 
BRANCH  31  32
ATOM     32  O   UNL A   1      34.414  32.640  31.747  1.00  0.00    -0.376 OA
BRANCH  32  33
ATOM     33  C   UNL A   1      35.284  31.658  31.219  1.00  0.00     0.202 C 
BRANCH  33  34
ATOM     34  C   UNL A   1      36.208  30.806  32.080  1.00  0.00     0.261 C 
BRANCH  34  35
ATOM     35  O   UNL A   1      36.623  29.657  31.381  1.00  0.00    -0.460 OA
BRANCH  35  36
ATOM     36  C   UNL A   1      37.543  28.906  32.015  1.00  0.00     0.338 C 
ATOM     37  O   UNL A   1      37.450  28.320  33.085  1.00  0.00    -0.246 OA
BRANCH  36  38
ATOM     38  C   UNL A   1      38.783  29.344  31.373  1.00  0.00     0.060 A 
ATOM     39  C   UNL A   1      38.815  29.596  29.989  1.00  0.00     0.016 A 
ATOM     40  C   UNL A   1      39.805  29.761  32.223  1.00  0.00     0.016 A 
ATOM     41  C   UNL A   1      39.845  30.349  29.458  1.00  0.00     0.010 A 
ATOM     42  C   UNL A   1      40.852  30.483  31.687  1.00  0.00     0.010 A 
ATOM     43  C   UNL A   1      40.866  30.772  30.311  1.00  0.00    -0.014 A 
BRANCH  43  44
ATOM     44  C   UNL A   1      42.112  31.292  29.748  1.00  0.00     0.031 A 
ATOM     45  C   UNL A   1      43.087  30.263  29.277  1.00  0.00     0.074 A 
ATOM     46  C   UNL A   1      42.365  32.607  29.781  1.00  0.00     0.049 A 
ATOM     47  N   UNL A   1      44.340  30.397  28.954  1.00  0.00    -0.248 NA
ATOM     48  C   UNL A   1      42.580  28.880  29.199  1.00  0.00     0.031 C 
ATOM     49  C   UNL A   1      41.424  33.644  30.210  1.00  0.00     0.029 A 
ATOM     50  N   UNL A   1      43.509  33.290  29.484  1.00  0.00    -0.354 N 
ATOM     51  C   UNL A   1      44.781  29.112  28.661  1.00  0.00     0.074 A 
ATOM     52  C   UNL A   1      43.671  28.212  28.867  1.00  0.00     0.031 C 
ATOM     53  C   UNL A   1      42.046  34.835  30.179  1.00  0.00     0.029 A 
ATOM     54  C   UNL A   1      43.432  34.631  29.772  1.00  0.00     0.049 A 
ATOM     55  H   UNL A   1      44.309  32.862  29.101  1.00  0.00     0.167 HD
ATOM     56  C   UNL A   1      46.016  28.730  28.264  1.00  0.00     0.034 A 
ATOM     57  C   UNL A   1      44.405  35.560  29.740  1.00  0.00     0.034 A 
ATOM     58  C   UNL A   1      47.095  29.670  28.122  1.00  0.00     0.049 A 
ATOM     59  C   UNL A   1      45.785  35.108  29.332  1.00  0.00     0.074 A 
ATOM     60  C   UNL A   1      48.402  29.444  27.739  1.00  0.00     0.029 A 
ATOM     61  N   UNL A   1      46.981  31.035  28.382  1.00  0.00    -0.354 N 
ATOM     62  N   UNL A   1      46.203  33.894  29.039  1.00  0.00    -0.248 NA
ATOM     63  C   UNL A   1      46.820  36.141  29.246  1.00  0.00     0.031 C 
ATOM     64  C   UNL A   1      49.088  30.662  27.817  1.00  0.00     0.029 A 
ATOM     65  C   UNL A   1      48.196  31.660  28.184  1.00  0.00     0.049 A 
ATOM     66  H   UNL A   1      46.153  31.486  28.665  1.00  0.00     0.167 HD
ATOM     67  C   UNL A   1      47.546  34.024  28.705  1.00  0.00     0.074 A 
ATOM     68  C   UNL A   1      47.861  35.436  28.825  1.00  0.00     0.031 C 
ATOM     69  C   UNL A   1      48.445  33.076  28.328  1.00  0.00     0.034 A 
BRANCH  56  70
ATOM     70  C   UNL A   1      46.234  27.254  28.054  1.00  0.00     0.023 A 
ATOM     71  C   UNL A   1      45.933  26.632  26.827  1.00  0.00     0.031 A 
ATOM     72  C   UNL A   1      46.635  26.436  29.123  1.00  0.00     0.131 A 
ATOM     73  C   UNL A   1      45.951  25.233  26.726  1.00  0.00     0.055 A 
ATOM     74  C   UNL A   1      46.733  25.050  28.992  1.00  0.00     0.041 A 
ATOM     75  F   UNL A   1      46.899  26.967  30.328  1.00  0.00    -0.206 F 
ATOM     76  C   UNL A   1      46.372  24.438  27.794  1.00  0.00     0.022 A 
BRANCH  73  77
ATOM     77  S   UNL A   1      45.257  24.461  25.238  1.00  0.00     0.124 S 
ATOM     78  O   UNL A   1      44.924  23.125  25.726  1.00  0.00    -0.237 OA
ATOM     79  O   UNL A   1      44.125  25.328  24.930  1.00  0.00    -0.237 OA
ATOM     80  O   UNL A   1      46.359  24.512  24.280  1.00  0.00    -0.744 OA
ENDBRANCH  73  77
ENDBRANCH  56  70
BRANCH  57  81
ATOM     81  C   UNL A   1      44.121  36.973  30.115  1.00  0.00     0.023 A 
ATOM     82  C   UNL A   1      44.163  37.381  31.457  1.00  0.00     0.031 A 
ATOM     83  C   UNL A   1      43.793  37.935  29.144  1.00  0.00     0.131 A 
ATOM     84  C   UNL A   1      43.848  38.706  31.798  1.00  0.00     0.055 A 
ATOM     85  C   UNL A   1      43.518  39.263  29.483  1.00  0.00     0.041 A 
ATOM     86  F   UNL A   1      43.749  37.603  27.845  1.00  0.00    -0.206 F 
ATOM     87  C   UNL A   1      43.535  39.652  30.819  1.00  0.00     0.022 A 
BRANCH  84  88
ATOM     88  S   UNL A   1      43.798  39.162  33.553  1.00  0.00     0.124 S 
ATOM     89  O   UNL A   1      45.134  38.784  33.998  1.00  0.00    -0.237 OA
ATOM     90  O   UNL A   1      43.525  40.594  33.485  1.00  0.00    -0.237 OA
ATOM     91  O   UNL A   1      42.708  38.347  34.085  1.00  0.00    -0.744 OA
ENDBRANCH  84  88
ENDBRANCH  57  81
BRANCH  69  92
ATOM     92  C   UNL A   1      49.824  33.568  27.982  1.00  0.00     0.023 A 
ATOM     93  C   UNL A   1      50.181  33.877  26.660  1.00  0.00     0.031 A 
ATOM     94  C   UNL A   1      50.787  33.722  28.993  1.00  0.00     0.131 A 
ATOM     95  C   UNL A   1      51.493  34.275  26.374  1.00  0.00     0.055 A 
ATOM     96  C   UNL A   1      52.074  34.174  28.710  1.00  0.00     0.041 A 
ATOM     97  F   UNL A   1      50.488  33.439  30.271  1.00  0.00    -0.206 F 
ATOM     98  C   UNL A   1      52.437  34.441  27.392  1.00  0.00     0.022 A 
BRANCH  95  99
ATOM     99  S   UNL A   1      51.973  34.489  24.641  1.00  0.00     0.124 S 
ATOM    100  O   UNL A   1      51.320  35.749  24.299  1.00  0.00    -0.237 OA
ATOM    101  O   UNL A   1      53.430  34.530  24.723  1.00  0.00    -0.237 OA
ATOM    102  O   UNL A   1      51.423  33.306  23.983  1.00  0.00    -0.744 OA
ENDBRANCH  95  99
ENDBRANCH  69  92
ENDBRANCH  43  44
ENDBRANCH  36  38
ENDBRANCH  35  36
ENDBRANCH  34  35
ENDBRANCH  33  34
ENDBRANCH  32  33
ENDBRANCH  31  32
ENDBRANCH  30  31
ENDBRANCH  29  30
ENDBRANCH   1  29
TORSDOF 27
ENDMDL
MODEL 3
REMARK VINA RESULT:      -8.9      1.969      2.368
REMARK SMILES CN1C(=O)/C(=C\c2ccc(OCC(=O)OCCOCCOCCOCCOC(=O)c3ccc(-c4c5nc(c(-c6cc(S(=O)(=O)[O-])ccc6F)c6ccc([nH]6)c(-c6cc(S(=O)(=O)[O-])ccc6F)c6nc(c(-c7cc(S(=O)(=O)[O-])ccc7F)c7ccc4[nH]7)C=C6)C=C5)cc3)cc2)C(O)=NC1=S
REMARK SMILES IDX 20 1 19 2 18 3 17 4 16 5 15 6 13 7 14 8 12 9 11 10 10 11
REMARK SMILES IDX 7 12 8 13 94 14 9 15 93 16 6 17 1 18 2 19 3 20 98 21 4 22
REMARK SMILES IDX 5 23 97 24 99 25 95 26 96 27 21 29 22 30 23 31 24 32 25 33
REMARK SMILES IDX 26 34 27 35 28 36 29 37 30 38 31 39 92 40 32 41 91 42 33 43
REMARK SMILES IDX 34 44 35 45 85 46 36 47 90 48 84 49 86 50 37 51 89 52 83 53
REMARK SMILES IDX 82 54 38 56 70 57 50 58 69 59 51 60 54 61 68 62 87 63 52 64
REMARK SMILES IDX 53 65 67 67 88 68 55 69 39 70 40 71 48 72 41 73 47 74 49 75
REMARK SMILES IDX 46 76 42 77 43 78 44 79 45 80 71 81 72 82 80 83 73 84 79 85
REMARK SMILES IDX 81 86 78 87 74 88 75 89 76 90 77 91 56 92 57 93 65 94 58 95
REMARK SMILES IDX 64 96 66 97 63 98 59 99 60 100 61 101 62 102
REMARK H PARENT 96 28 86 55 54 66
REMARK Flexibility Score: inf
ROOT
ATOM      1  C   UNL A   1      34.136  31.651  28.058  1.00  0.00     0.188 C 
ENDROOT
BRANCH   1   2
ATOM      2  C   UNL A   1      34.534  30.454  27.166  1.00  0.00     0.188 C 
BRANCH   2   3
ATOM      3  O   UNL A   1      33.561  29.470  26.819  1.00  0.00    -0.376 OA
BRANCH   3   4
ATOM      4  C   UNL A   1      33.024  29.552  25.513  1.00  0.00     0.202 C 
BRANCH   4   5
ATOM      5  C   UNL A   1      31.516  29.261  25.445  1.00  0.00     0.261 C 
BRANCH   5   6
ATOM      6  O   UNL A   1      30.782  30.094  24.509  1.00  0.00    -0.461 OA
BRANCH   6   7
ATOM      7  C   UNL A   1      30.401  29.520  23.333  1.00  0.00     0.344 C 
ATOM      8  O   UNL A   1      30.905  29.766  22.243  1.00  0.00    -0.248 OA
BRANCH   7   9
ATOM      9  C   UNL A   1      29.190  28.573  23.497  1.00  0.00     0.351 C 
BRANCH   9  10
ATOM     10  O   UNL A   1      29.322  27.171  23.285  1.00  0.00    -0.482 OA
BRANCH  10  11
ATOM     11  C   UNL A   1      30.085  26.405  24.133  1.00  0.00     0.120 A 
ATOM     12  C   UNL A   1      31.696  24.413  25.433  1.00  0.00    -0.024 A 
ATOM     13  C   UNL A   1      32.185  25.147  24.346  1.00  0.00     0.012 A 
ATOM     14  C   UNL A   1      30.434  24.788  25.931  1.00  0.00     0.012 A 
ATOM     15  C   UNL A   1      31.378  26.104  23.687  1.00  0.00     0.047 A 
ATOM     16  C   UNL A   1      29.640  25.781  25.296  1.00  0.00     0.047 A 
BRANCH  12  17
ATOM     17  C   UNL A   1      32.506  23.353  26.095  1.00  0.00     0.027 C 
ATOM     18  C   UNL A   1      32.161  19.746  23.046  1.00  0.00     0.156 C 
ATOM     19  N   UNL A   1      32.681  20.232  24.329  1.00  0.00    -0.286 N 
ATOM     20  C   UNL A   1      33.086  21.554  24.333  1.00  0.00     0.265 C 
ATOM     21  C   UNL A   1      33.017  19.413  25.410  1.00  0.00     0.205 C 
ATOM     22  O   UNL A   1      33.628  22.096  23.383  1.00  0.00    -0.268 OA
ATOM     23  C   UNL A   1      33.063  22.192  25.663  1.00  0.00     0.103 C 
ATOM     24  N   UNL A   1      33.673  19.985  26.487  1.00  0.00    -0.184 NA
ATOM     25  S   UNL A   1      32.719  17.747  25.445  1.00  0.00    -0.038 S 
ATOM     26  C   UNL A   1      33.699  21.264  26.599  1.00  0.00     0.226 C 
BRANCH  26  27
ATOM     27  O   UNL A   1      34.427  21.824  27.580  1.00  0.00    -0.493 OA
ATOM     28  H   UNL A   1      34.444  21.434  28.432  1.00  0.00     0.295 HD
ENDBRANCH  26  27
ENDBRANCH  12  17
ENDBRANCH  10  11
ENDBRANCH   9  10
ENDBRANCH   7   9
ENDBRANCH   6   7
ENDBRANCH   5   6
ENDBRANCH   4   5
ENDBRANCH   3   4
ENDBRANCH   2   3
ENDBRANCH   1   2
BRANCH   1  29
ATOM     29  O   UNL A   1      32.900  32.221  27.644  1.00  0.00    -0.377 OA
BRANCH  29  30
ATOM     30  C   UNL A   1      32.878  33.644  27.703  1.00  0.00     0.188 C 
BRANCH  30  31
ATOM     31  C   UNL A   1      34.237  34.233  28.074  1.00  0.00     0.188 C 
BRANCH  31  32
ATOM     32  O   UNL A   1      34.296  35.494  28.720  1.00  0.00    -0.376 OA
BRANCH  32  33
ATOM     33  C   UNL A   1      33.156  36.155  29.233  1.00  0.00     0.202 C 
BRANCH  33  34
ATOM     34  C   UNL A   1      33.204  37.126  30.405  1.00  0.00     0.261 C 
BRANCH  34  35
ATOM     35  O   UNL A   1      33.807  36.526  31.527  1.00  0.00    -0.460 OA
BRANCH  35  36
ATOM     36  C   UNL A   1      33.200  35.409  31.971  1.00  0.00     0.338 C 
ATOM     37  O   UNL A   1      32.061  35.274  32.396  1.00  0.00    -0.246 OA
BRANCH  36  38
ATOM     38  C   UNL A   1      34.341  34.540  32.259  1.00  0.00     0.060 A 
ATOM     39  C   UNL A   1      35.648  34.958  31.949  1.00  0.00     0.016 A 
ATOM     40  C   UNL A   1      34.092  33.450  33.089  1.00  0.00     0.016 A 
ATOM     41  C   UNL A   1      36.723  34.327  32.544  1.00  0.00     0.010 A 
ATOM     42  C   UNL A   1      35.168  32.797  33.656  1.00  0.00     0.010 A 
ATOM     43  C   UNL A   1      36.474  33.238  33.381  1.00  0.00    -0.014 A 
BRANCH  43  44
ATOM     44  C   UNL A   1      37.575  32.359  33.775  1.00  0.00     0.031 A 
ATOM     45  C   UNL A   1      38.283  32.735  35.036  1.00  0.00     0.074 A 
ATOM     46  C   UNL A   1      37.960  31.363  32.965  1.00  0.00     0.049 A 
ATOM     47  N   UNL A   1      39.415  32.303  35.510  1.00  0.00    -0.248 NA
ATOM     48  C   UNL A   1      37.635  33.777  35.854  1.00  0.00     0.031 C 
ATOM     49  C   UNL A   1      37.275  30.952  31.739  1.00  0.00     0.029 A 
ATOM     50  N   UNL A   1      39.050  30.544  33.037  1.00  0.00    -0.354 N 
ATOM     51  C   UNL A   1      39.629  33.039  36.668  1.00  0.00     0.074 A 
ATOM     52  C   UNL A   1      38.527  33.960  36.812  1.00  0.00     0.031 C 
ATOM     53  C   UNL A   1      37.986  29.972  31.152  1.00  0.00     0.029 A 
ATOM     54  C   UNL A   1      39.189  29.727  31.941  1.00  0.00     0.049 A 
ATOM     55  H   UNL A   1      39.674  30.541  33.799  1.00  0.00     0.167 HD
ATOM     56  C   UNL A   1      40.672  32.950  37.525  1.00  0.00     0.034 A 
ATOM     57  C   UNL A   1      40.208  28.911  31.618  1.00  0.00     0.034 A 
ATOM     58  C   UNL A   1      41.766  32.044  37.302  1.00  0.00     0.049 A 
ATOM     59  C   UNL A   1      41.380  28.854  32.567  1.00  0.00     0.074 A 
ATOM     60  C   UNL A   1      42.897  31.839  38.066  1.00  0.00     0.029 A 
ATOM     61  N   UNL A   1      41.864  31.194  36.201  1.00  0.00    -0.354 N 
ATOM     62  N   UNL A   1      41.580  29.539  33.674  1.00  0.00    -0.248 NA
ATOM     63  C   UNL A   1      42.455  27.918  32.232  1.00  0.00     0.031 C 
ATOM     64  C   UNL A   1      43.701  30.904  37.402  1.00  0.00     0.029 A 
ATOM     65  C   UNL A   1      43.042  30.476  36.257  1.00  0.00     0.049 A 
ATOM     66  H   UNL A   1      41.190  31.117  35.488  1.00  0.00     0.167 HD
ATOM     67  C   UNL A   1      42.795  29.093  34.182  1.00  0.00     0.074 A 
ATOM     68  C   UNL A   1      43.273  28.075  33.263  1.00  0.00     0.031 C 
ATOM     69  C   UNL A   1      43.463  29.477  35.303  1.00  0.00     0.034 A 
BRANCH  56  70
ATOM     70  C   UNL A   1      40.677  33.906  38.690  1.00  0.00     0.023 A 
ATOM     71  C   UNL A   1      41.347  35.143  38.625  1.00  0.00     0.031 A 
ATOM     72  C   UNL A   1      40.107  33.532  39.917  1.00  0.00     0.131 A 
ATOM     73  C   UNL A   1      41.508  35.915  39.785  1.00  0.00     0.055 A 
ATOM     74  C   UNL A   1      40.197  34.346  41.048  1.00  0.00     0.041 A 
ATOM     75  F   UNL A   1      39.488  32.348  40.051  1.00  0.00    -0.206 F 
ATOM     76  C   UNL A   1      40.917  35.537  40.992  1.00  0.00     0.022 A 
BRANCH  73  77
ATOM     77  S   UNL A   1      42.640  37.333  39.734  1.00  0.00     0.124 S 
ATOM     78  O   UNL A   1      42.876  37.469  38.299  1.00  0.00    -0.237 OA
ATOM     79  O   UNL A   1      41.850  38.391  40.354  1.00  0.00    -0.237 OA
ATOM     80  O   UNL A   1      43.792  36.880  40.509  1.00  0.00    -0.744 OA
ENDBRANCH  73  77
ENDBRANCH  56  70
BRANCH  57  81
ATOM     81  C   UNL A   1      40.178  28.116  30.359  1.00  0.00     0.023 A 
ATOM     82  C   UNL A   1      41.061  28.403  29.308  1.00  0.00     0.031 A 
ATOM     83  C   UNL A   1      39.260  27.065  30.180  1.00  0.00     0.131 A 
ATOM     84  C   UNL A   1      40.989  27.674  28.111  1.00  0.00     0.055 A 
ATOM     85  C   UNL A   1      39.217  26.315  29.001  1.00  0.00     0.041 A 
ATOM     86  F   UNL A   1      38.400  26.740  31.157  1.00  0.00    -0.206 F 
ATOM     87  C   UNL A   1      40.079  26.626  27.954  1.00  0.00     0.022 A 
BRANCH  84  88
ATOM     88  S   UNL A   1      42.068  28.155  26.734  1.00  0.00     0.124 S 
ATOM     89  O   UNL A   1      41.953  29.609  26.760  1.00  0.00    -0.237 OA
ATOM     90  O   UNL A   1      43.352  27.605  27.151  1.00  0.00    -0.237 OA
ATOM     91  O   UNL A   1      41.457  27.502  25.579  1.00  0.00    -0.744 OA
ENDBRANCH  84  88
ENDBRANCH  57  81
BRANCH  69  92
ATOM     92  C   UNL A   1      44.745  28.747  35.595  1.00  0.00     0.023 A 
ATOM     93  C   UNL A   1      44.758  27.555  36.337  1.00  0.00     0.031 A 
ATOM     94  C   UNL A   1      45.966  29.259  35.124  1.00  0.00     0.131 A 
ATOM     95  C   UNL A   1      45.980  26.941  36.636  1.00  0.00     0.055 A 
ATOM     96  C   UNL A   1      47.173  28.612  35.375  1.00  0.00     0.041 A 
ATOM     97  F   UNL A   1      46.000  30.396  34.409  1.00  0.00    -0.206 F 
ATOM     98  C   UNL A   1      47.186  27.452  36.146  1.00  0.00     0.022 A 
BRANCH  95  99
ATOM     99  S   UNL A   1      45.980  25.510  37.747  1.00  0.00     0.124 S 
ATOM    100  O   UNL A   1      47.402  25.349  38.033  1.00  0.00    -0.237 OA
ATOM    101  O   UNL A   1      45.156  25.977  38.858  1.00  0.00    -0.237 OA
ATOM    102  O   UNL A   1      45.385  24.448  36.939  1.00  0.00    -0.744 OA
ENDBRANCH  95  99
ENDBRANCH  69  92
ENDBRANCH  43  44
ENDBRANCH  36  38
ENDBRANCH  35  36
ENDBRANCH  34  35
ENDBRANCH  33  34
ENDBRANCH  32  33
ENDBRANCH  31  32
ENDBRANCH  30  31
ENDBRANCH  29  30
ENDBRANCH   1  29
TORSDOF 27
ENDMDL
