MODEL 1
REMARK VINA RESULT:      -7.5      0.000      0.000
REMARK SMILES O=C(C[NH+]1CC[NH+](Cc2cc(Cl)ccc2[N+](=O)[O-])CC1)OCCOCCOCCOCCOC(=O)c1ccc(-c2c3nc(c(-c4cc(S(=O)(=O)[O-])ccc4F)c4ccc([nH]4)c(-c4cc(S(=O)(=O)[O-])ccc4F)c4nc(c(-c5cc(S(=O)(=O)[O-])ccc5F)c5ccc2[nH]5)C=C4)C=C3)cc1
REMARK SMILES IDX 26 1 25 2 24 3 23 4 22 5 21 6 2 7 1 8 3 9 4 10 5 11 20 12
REMARK SMILES IDX 6 14 19 15 7 16 8 18 9 19 10 20 15 21 11 22 14 23 12 24
REMARK SMILES IDX 13 25 16 26 17 27 18 28 27 29 28 30 29 31 30 32 31 33 32 34
REMARK SMILES IDX 33 35 34 36 35 37 36 38 37 39 98 40 38 41 97 42 39 43 40 44
REMARK SMILES IDX 41 45 91 46 42 47 96 48 90 49 92 50 43 51 95 52 89 53 88 54
REMARK SMILES IDX 44 56 76 57 56 58 75 59 57 60 60 61 74 62 93 63 58 64 59 65
REMARK SMILES IDX 73 67 94 68 61 69 45 70 46 71 54 72 47 73 53 74 55 75 52 76
REMARK SMILES IDX 48 77 49 78 50 79 51 80 77 81 78 82 86 83 79 84 85 85 87 86
REMARK SMILES IDX 84 87 80 88 81 89 82 90 83 91 62 92 63 93 71 94 64 95 70 96
REMARK SMILES IDX 72 97 69 98 65 99 66 100 67 101 68 102
REMARK H PARENT 4 13 7 17 92 55 60 66
REMARK Flexibility Score: inf
ROOT
ATOM      1  C   UNL A   1      33.000  36.624  29.237  1.00  0.00     0.188 C 
ENDROOT
BRANCH   1   2
ATOM      2  C   UNL A   1      33.823  35.335  29.276  1.00  0.00     0.188 C 
BRANCH   2   3
ATOM      3  O   UNL A   1      34.482  34.883  28.093  1.00  0.00    -0.376 OA
BRANCH   3   4
ATOM      4  C   UNL A   1      35.313  33.733  28.149  1.00  0.00     0.202 C 
BRANCH   4   5
ATOM      5  C   UNL A   1      34.596  32.452  28.491  1.00  0.00     0.261 C 
BRANCH   5   6
ATOM      6  O   UNL A   1      35.300  31.562  29.349  1.00  0.00    -0.459 OA
BRANCH   6   7
ATOM      7  C   UNL A   1      35.954  30.519  28.771  1.00  0.00     0.361 C 
ATOM      8  O   UNL A   1      35.680  30.185  27.620  1.00  0.00    -0.245 OA
BRANCH   7   9
ATOM      9  C   UNL A   1      36.870  29.679  29.664  1.00  0.00     0.386 C 
BRANCH   9  10
ATOM     10  N   UNL A   1      38.324  29.817  29.551  1.00  0.00    -0.316 N 
ATOM     11  C   UNL A   1      39.232  29.199  30.503  1.00  0.00     0.325 C 
ATOM     12  C   UNL A   1      38.858  29.883  28.196  1.00  0.00     0.325 C 
ATOM     13  H   UNL A   1      38.328  30.759  29.943  1.00  0.00     0.348 HD
ATOM     14  C   UNL A   1      40.012  27.937  30.024  1.00  0.00     0.324 C 
ATOM     15  C   UNL A   1      39.418  28.556  27.654  1.00  0.00     0.324 C 
ATOM     16  N   UNL A   1      40.218  27.739  28.579  1.00  0.00    -0.322 N 
ATOM     17  H   UNL A   1      39.764  26.834  28.466  1.00  0.00     0.348 HD
BRANCH  16  18
ATOM     18  C   UNL A   1      41.601  27.476  28.154  1.00  0.00     0.306 C 
BRANCH  18  19
ATOM     19  C   UNL A   1      41.639  26.368  27.114  1.00  0.00     0.085 A 
ATOM     20  C   UNL A   1      41.107  25.125  27.513  1.00  0.00     0.037 A 
ATOM     21  C   UNL A   1      42.454  26.401  25.964  1.00  0.00     0.278 A 
ATOM     22  C   UNL A   1      41.578  23.940  26.960  1.00  0.00     0.042 A 
ATOM     23  C   UNL A   1      42.907  25.199  25.393  1.00  0.00     0.088 A 
ATOM     24  Cl  UNL A   1      41.094  22.438  27.642  1.00  0.00    -0.084 Cl
ATOM     25  C   UNL A   1      42.508  23.973  25.928  1.00  0.00     0.027 A 
BRANCH  21  26
ATOM     26  N   UNL A   1      42.914  27.662  25.353  1.00  0.00     0.063 N 
ATOM     27  O   UNL A   1      42.055  28.385  24.828  1.00  0.00    -0.258 OA
ATOM     28  O   UNL A   1      44.113  27.951  25.438  1.00  0.00    -0.258 OA
ENDBRANCH  21  26
ENDBRANCH  18  19
ENDBRANCH  16  18
ENDBRANCH   9  10
ENDBRANCH   7   9
ENDBRANCH   6   7
ENDBRANCH   5   6
ENDBRANCH   4   5
ENDBRANCH   3   4
ENDBRANCH   2   3
ENDBRANCH   1   2
BRANCH   1  29
ATOM     29  O   UNL A   1      32.986  37.354  30.449  1.00  0.00    -0.377 OA
BRANCH  29  30
ATOM     30  C   UNL A   1      32.928  36.596  31.645  1.00  0.00     0.188 C 
BRANCH  30  31
ATOM     31  C   UNL A   1      33.969  36.976  32.719  1.00  0.00     0.188 C 
BRANCH  31  32
ATOM     32  O   UNL A   1      35.034  36.091  33.059  1.00  0.00    -0.376 OA
BRANCH  32  33
ATOM     33  C   UNL A   1      34.801  34.695  33.103  1.00  0.00     0.202 C 
BRANCH  33  34
ATOM     34  C   UNL A   1      35.862  33.828  33.807  1.00  0.00     0.261 C 
BRANCH  34  35
ATOM     35  O   UNL A   1      36.242  32.621  33.124  1.00  0.00    -0.460 OA
BRANCH  35  36
ATOM     36  C   UNL A   1      37.309  32.738  32.283  1.00  0.00     0.338 C 
ATOM     37  O   UNL A   1      37.369  33.445  31.311  1.00  0.00    -0.246 OA
BRANCH  36  38
ATOM     38  C   UNL A   1      38.495  32.025  32.865  1.00  0.00     0.060 A 
ATOM     39  C   UNL A   1      38.233  31.038  33.829  1.00  0.00     0.016 A 
ATOM     40  C   UNL A   1      39.819  32.276  32.483  1.00  0.00     0.016 A 
ATOM     41  C   UNL A   1      39.276  30.369  34.472  1.00  0.00     0.010 A 
ATOM     42  C   UNL A   1      40.873  31.625  33.149  1.00  0.00     0.010 A 
ATOM     43  C   UNL A   1      40.601  30.727  34.199  1.00  0.00    -0.014 A 
BRANCH  43  44
ATOM     44  C   UNL A   1      41.603  30.507  35.282  1.00  0.00     0.031 A 
ATOM     45  C   UNL A   1      41.724  31.607  36.314  1.00  0.00     0.074 A 
ATOM     46  C   UNL A   1      42.299  29.365  35.431  1.00  0.00     0.049 A 
ATOM     47  N   UNL A   1      42.477  31.683  37.380  1.00  0.00    -0.248 NA
ATOM     48  C   UNL A   1      40.866  32.786  36.104  1.00  0.00     0.031 C 
ATOM     49  C   UNL A   1      42.219  28.198  34.556  1.00  0.00     0.029 A 
ATOM     50  N   UNL A   1      43.208  28.999  36.395  1.00  0.00    -0.354 N 
ATOM     51  C   UNL A   1      42.186  32.917  37.957  1.00  0.00     0.074 A 
ATOM     52  C   UNL A   1      41.227  33.573  37.100  1.00  0.00     0.031 C 
ATOM     53  C   UNL A   1      43.046  27.244  35.026  1.00  0.00     0.029 A 
ATOM     54  C   UNL A   1      43.735  27.740  36.218  1.00  0.00     0.049 A 
ATOM     55  H   UNL A   1      43.459  29.584  37.146  1.00  0.00     0.167 HD
ATOM     56  C   UNL A   1      42.661  33.456  39.106  1.00  0.00     0.034 A 
ATOM     57  C   UNL A   1      44.670  27.076  36.933  1.00  0.00     0.034 A 
ATOM     58  C   UNL A   1      43.622  32.800  39.952  1.00  0.00     0.049 A 
ATOM     59  C   UNL A   1      45.264  27.738  38.159  1.00  0.00     0.074 A 
ATOM     60  C   UNL A   1      44.177  33.251  41.136  1.00  0.00     0.029 A 
ATOM     61  N   UNL A   1      44.183  31.556  39.696  1.00  0.00    -0.354 N 
ATOM     62  N   UNL A   1      44.983  28.905  38.693  1.00  0.00    -0.248 NA
ATOM     63  C   UNL A   1      46.295  26.983  38.884  1.00  0.00     0.031 C 
ATOM     64  C   UNL A   1      45.129  32.317  41.554  1.00  0.00     0.029 A 
ATOM     65  C   UNL A   1      45.104  31.239  40.682  1.00  0.00     0.049 A 
ATOM     66  H   UNL A   1      43.959  30.983  38.928  1.00  0.00     0.167 HD
ATOM     67  C   UNL A   1      45.770  29.001  39.840  1.00  0.00     0.074 A 
ATOM     68  C   UNL A   1      46.529  27.771  39.923  1.00  0.00     0.031 C 
ATOM     69  C   UNL A   1      45.855  30.008  40.749  1.00  0.00     0.034 A 
BRANCH  56  70
ATOM     70  C   UNL A   1      42.195  34.850  39.454  1.00  0.00     0.023 A 
ATOM     71  C   UNL A   1      41.050  35.081  40.239  1.00  0.00     0.031 A 
ATOM     72  C   UNL A   1      42.870  35.967  38.932  1.00  0.00     0.131 A 
ATOM     73  C   UNL A   1      40.571  36.389  40.407  1.00  0.00     0.055 A 
ATOM     74  C   UNL A   1      42.438  37.270  39.177  1.00  0.00     0.041 A 
ATOM     75  F   UNL A   1      43.949  35.807  38.149  1.00  0.00    -0.206 F 
ATOM     76  C   UNL A   1      41.272  37.487  39.905  1.00  0.00     0.022 A 
BRANCH  73  77
ATOM     77  S   UNL A   1      38.930  36.626  41.147  1.00  0.00     0.124 S 
ATOM     78  O   UNL A   1      39.276  37.036  42.505  1.00  0.00    -0.237 OA
ATOM     79  O   UNL A   1      38.346  37.657  40.296  1.00  0.00    -0.237 OA
ATOM     80  O   UNL A   1      38.313  35.305  41.040  1.00  0.00    -0.744 OA
ENDBRANCH  73  77
ENDBRANCH  56  70
BRANCH  57  81
ATOM     81  C   UNL A   1      45.143  25.723  36.509  1.00  0.00     0.023 A 
ATOM     82  C   UNL A   1      46.409  25.538  35.927  1.00  0.00     0.031 A 
ATOM     83  C   UNL A   1      44.297  24.603  36.602  1.00  0.00     0.131 A 
ATOM     84  C   UNL A   1      46.772  24.281  35.417  1.00  0.00     0.055 A 
ATOM     85  C   UNL A   1      44.682  23.343  36.142  1.00  0.00     0.041 A 
ATOM     86  F   UNL A   1      43.072  24.720  37.141  1.00  0.00    -0.206 F 
ATOM     87  C   UNL A   1      45.921  23.178  35.532  1.00  0.00     0.022 A 
BRANCH  84  88
ATOM     88  S   UNL A   1      48.340  24.121  34.515  1.00  0.00     0.124 S 
ATOM     89  O   UNL A   1      49.266  24.806  35.408  1.00  0.00    -0.237 OA
ATOM     90  O   UNL A   1      48.487  22.673  34.423  1.00  0.00    -0.237 OA
ATOM     91  O   UNL A   1      48.074  24.799  33.248  1.00  0.00    -0.744 OA
ENDBRANCH  84  88
ENDBRANCH  57  81
BRANCH  69  92
ATOM     92  C   UNL A   1      46.752  29.790  41.946  1.00  0.00     0.023 A 
ATOM     93  C   UNL A   1      46.284  29.201  43.133  1.00  0.00     0.031 A 
ATOM     94  C   UNL A   1      48.100  30.191  41.896  1.00  0.00     0.131 A 
ATOM     95  C   UNL A   1      47.135  29.094  44.244  1.00  0.00     0.055 A 
ATOM     96  C   UNL A   1      48.961  30.017  42.980  1.00  0.00     0.041 A 
ATOM     97  F   UNL A   1      48.604  30.760  40.789  1.00  0.00    -0.206 F 
ATOM     98  C   UNL A   1      48.476  29.481  44.169  1.00  0.00     0.022 A 
BRANCH  95  99
ATOM     99  S   UNL A   1      46.437  28.548  45.826  1.00  0.00     0.124 S 
ATOM    100  O   UNL A   1      45.677  29.722  46.243  1.00  0.00    -0.237 OA
ATOM    101  O   UNL A   1      45.650  27.384  45.435  1.00  0.00    -0.237 OA
ATOM    102  O   UNL A   1      47.617  28.254  46.639  1.00  0.00    -0.744 OA
ENDBRANCH  95  99
ENDBRANCH  69  92
ENDBRANCH  43  44
ENDBRANCH  36  38
ENDBRANCH  35  36
ENDBRANCH  34  35
ENDBRANCH  33  34
ENDBRANCH  32  33
ENDBRANCH  31  32
ENDBRANCH  30  31
ENDBRANCH  29  30
ENDBRANCH   1  29
TORSDOF 27
ENDMDL
MODEL 2
REMARK VINA RESULT:      -7.0      5.859      9.568
REMARK SMILES O=C(C[NH+]1CC[NH+](Cc2cc(Cl)ccc2[N+](=O)[O-])CC1)OCCOCCOCCOCCOC(=O)c1ccc(-c2c3nc(c(-c4cc(S(=O)(=O)[O-])ccc4F)c4ccc([nH]4)c(-c4cc(S(=O)(=O)[O-])ccc4F)c4nc(c(-c5cc(S(=O)(=O)[O-])ccc5F)c5ccc2[nH]5)C=C4)C=C3)cc1
REMARK SMILES IDX 26 1 25 2 24 3 23 4 22 5 21 6 2 7 1 8 3 9 4 10 5 11 20 12
REMARK SMILES IDX 6 14 19 15 7 16 8 18 9 19 10 20 15 21 11 22 14 23 12 24
REMARK SMILES IDX 13 25 16 26 17 27 18 28 27 29 28 30 29 31 30 32 31 33 32 34
REMARK SMILES IDX 33 35 34 36 35 37 36 38 37 39 98 40 38 41 97 42 39 43 40 44
REMARK SMILES IDX 41 45 91 46 42 47 96 48 90 49 92 50 43 51 95 52 89 53 88 54
REMARK SMILES IDX 44 56 76 57 56 58 75 59 57 60 60 61 74 62 93 63 58 64 59 65
REMARK SMILES IDX 73 67 94 68 61 69 45 70 46 71 54 72 47 73 53 74 55 75 52 76
REMARK SMILES IDX 48 77 49 78 50 79 51 80 77 81 78 82 86 83 79 84 85 85 87 86
REMARK SMILES IDX 84 87 80 88 81 89 82 90 83 91 62 92 63 93 71 94 64 95 70 96
REMARK SMILES IDX 72 97 69 98 65 99 66 100 67 101 68 102
REMARK H PARENT 4 13 7 17 92 55 60 66
REMARK Flexibility Score: inf
ROOT
ATOM      1  C   UNL A   1      35.185  34.374  31.711  1.00  0.00     0.188 C 
ENDROOT
BRANCH   1   2
ATOM      2  C   UNL A   1      33.822  34.993  31.401  1.00  0.00     0.188 C 
BRANCH   2   3
ATOM      3  O   UNL A   1      33.222  34.774  30.123  1.00  0.00    -0.376 OA
BRANCH   3   4
ATOM      4  C   UNL A   1      33.993  34.205  29.075  1.00  0.00     0.202 C 
BRANCH   4   5
ATOM      5  C   UNL A   1      33.188  33.542  27.987  1.00  0.00     0.261 C 
BRANCH   5   6
ATOM      6  O   UNL A   1      33.512  32.182  27.723  1.00  0.00    -0.459 OA
BRANCH   6   7
ATOM      7  C   UNL A   1      32.553  31.410  27.143  1.00  0.00     0.361 C 
ATOM      8  O   UNL A   1      31.488  31.914  26.793  1.00  0.00    -0.245 OA
BRANCH   7   9
ATOM      9  C   UNL A   1      32.776  29.895  27.139  1.00  0.00     0.386 C 
BRANCH   9  10
ATOM     10  N   UNL A   1      33.216  29.228  25.911  1.00  0.00    -0.316 N 
ATOM     11  C   UNL A   1      33.991  27.999  25.940  1.00  0.00     0.325 C 
ATOM     12  C   UNL A   1      32.310  29.319  24.772  1.00  0.00     0.325 C 
ATOM     13  H   UNL A   1      33.988  29.878  25.760  1.00  0.00     0.348 HD
ATOM     14  C   UNL A   1      33.247  26.681  25.563  1.00  0.00     0.324 C 
ATOM     15  C   UNL A   1      31.413  28.088  24.557  1.00  0.00     0.324 C 
ATOM     16  N   UNL A   1      32.036  26.767  24.728  1.00  0.00    -0.322 N 
ATOM     17  H   UNL A   1      31.365  26.327  25.357  1.00  0.00     0.348 HD
BRANCH  16  18
ATOM     18  C   UNL A   1      32.007  25.897  23.544  1.00  0.00     0.306 C 
BRANCH  18  19
ATOM     19  C   UNL A   1      31.850  24.441  23.953  1.00  0.00     0.085 A 
ATOM     20  C   UNL A   1      30.824  24.165  24.880  1.00  0.00     0.037 A 
ATOM     21  C   UNL A   1      32.841  23.458  23.750  1.00  0.00     0.278 A 
ATOM     22  C   UNL A   1      30.927  23.090  25.755  1.00  0.00     0.042 A 
ATOM     23  C   UNL A   1      32.925  22.360  24.623  1.00  0.00     0.088 A 
ATOM     24  Cl  UNL A   1      29.790  22.930  27.034  1.00  0.00    -0.084 Cl
ATOM     25  C   UNL A   1      31.998  22.210  25.656  1.00  0.00     0.027 A 
BRANCH  21  26
ATOM     26  N   UNL A   1      33.852  23.560  22.681  1.00  0.00     0.063 N 
ATOM     27  O   UNL A   1      33.469  23.371  21.517  1.00  0.00    -0.258 OA
ATOM     28  O   UNL A   1      35.006  23.872  22.996  1.00  0.00    -0.258 OA
ENDBRANCH  21  26
ENDBRANCH  18  19
ENDBRANCH  16  18
ENDBRANCH   9  10
ENDBRANCH   7   9
ENDBRANCH   6   7
ENDBRANCH   5   6
ENDBRANCH   4   5
ENDBRANCH   3   4
ENDBRANCH   2   3
ENDBRANCH   1   2
BRANCH   1  29
ATOM     29  O   UNL A   1      35.132  33.140  32.402  1.00  0.00    -0.377 OA
BRANCH  29  30
ATOM     30  C   UNL A   1      35.341  31.971  31.628  1.00  0.00     0.188 C 
BRANCH  30  31
ATOM     31  C   UNL A   1      36.337  30.953  32.226  1.00  0.00     0.188 C 
BRANCH  31  32
ATOM     32  O   UNL A   1      37.447  30.477  31.468  1.00  0.00    -0.376 OA
BRANCH  32  33
ATOM     33  C   UNL A   1      37.596  29.088  31.238  1.00  0.00     0.202 C 
BRANCH  33  34
ATOM     34  C   UNL A   1      38.211  28.250  32.374  1.00  0.00     0.261 C 
BRANCH  34  35
ATOM     35  O   UNL A   1      38.821  28.990  33.444  1.00  0.00    -0.460 OA
BRANCH  35  36
ATOM     36  C   UNL A   1      40.184  29.050  33.410  1.00  0.00     0.338 C 
ATOM     37  O   UNL A   1      40.917  28.210  32.958  1.00  0.00    -0.246 OA
BRANCH  36  38
ATOM     38  C   UNL A   1      40.642  30.421  33.816  1.00  0.00     0.060 A 
ATOM     39  C   UNL A   1      41.952  30.532  34.311  1.00  0.00     0.016 A 
ATOM     40  C   UNL A   1      39.851  31.571  33.704  1.00  0.00     0.016 A 
ATOM     41  C   UNL A   1      42.441  31.755  34.773  1.00  0.00     0.010 A 
ATOM     42  C   UNL A   1      40.330  32.798  34.195  1.00  0.00     0.010 A 
ATOM     43  C   UNL A   1      41.599  32.872  34.802  1.00  0.00    -0.014 A 
BRANCH  43  44
ATOM     44  C   UNL A   1      41.884  33.913  35.831  1.00  0.00     0.031 A 
ATOM     45  C   UNL A   1      42.732  35.083  35.381  1.00  0.00     0.074 A 
ATOM     46  C   UNL A   1      41.348  33.906  37.066  1.00  0.00     0.049 A 
ATOM     47  N   UNL A   1      43.114  36.148  36.036  1.00  0.00    -0.248 NA
ATOM     48  C   UNL A   1      43.211  35.035  33.989  1.00  0.00     0.031 C 
ATOM     49  C   UNL A   1      40.454  32.882  37.601  1.00  0.00     0.029 A 
ATOM     50  N   UNL A   1      41.474  34.810  38.094  1.00  0.00    -0.354 N 
ATOM     51  C   UNL A   1      43.880  36.886  35.138  1.00  0.00     0.074 A 
ATOM     52  C   UNL A   1      43.948  36.128  33.911  1.00  0.00     0.031 C 
ATOM     53  C   UNL A   1      40.111  33.217  38.859  1.00  0.00     0.029 A 
ATOM     54  C   UNL A   1      40.781  34.464  39.231  1.00  0.00     0.049 A 
ATOM     55  H   UNL A   1      42.012  35.632  38.022  1.00  0.00     0.167 HD
ATOM     56  C   UNL A   1      44.466  38.096  35.308  1.00  0.00     0.034 A 
ATOM     57  C   UNL A   1      40.709  35.081  40.431  1.00  0.00     0.034 A 
ATOM     58  C   UNL A   1      44.401  38.845  36.535  1.00  0.00     0.049 A 
ATOM     59  C   UNL A   1      41.455  36.384  40.634  1.00  0.00     0.074 A 
ATOM     60  C   UNL A   1      44.958  40.077  36.822  1.00  0.00     0.029 A 
ATOM     61  N   UNL A   1      43.748  38.422  37.685  1.00  0.00    -0.354 N 
ATOM     62  N   UNL A   1      42.177  37.071  39.778  1.00  0.00    -0.248 NA
ATOM     63  C   UNL A   1      41.364  36.999  41.965  1.00  0.00     0.031 C 
ATOM     64  C   UNL A   1      44.710  40.363  38.168  1.00  0.00     0.029 A 
ATOM     65  C   UNL A   1      43.919  39.354  38.696  1.00  0.00     0.049 A 
ATOM     66  H   UNL A   1      43.239  37.585  37.770  1.00  0.00     0.167 HD
ATOM     67  C   UNL A   1      42.587  38.218  40.456  1.00  0.00     0.074 A 
ATOM     68  C   UNL A   1      42.023  38.134  41.787  1.00  0.00     0.031 C 
ATOM     69  C   UNL A   1      43.351  39.254  40.020  1.00  0.00     0.034 A 
BRANCH  56  70
ATOM     70  C   UNL A   1      45.285  38.630  34.156  1.00  0.00     0.023 A 
ATOM     71  C   UNL A   1      46.659  38.358  34.027  1.00  0.00     0.031 A 
ATOM     72  C   UNL A   1      44.693  39.485  33.210  1.00  0.00     0.131 A 
ATOM     73  C   UNL A   1      47.408  38.999  33.029  1.00  0.00     0.055 A 
ATOM     74  C   UNL A   1      45.426  40.049  32.166  1.00  0.00     0.041 A 
ATOM     75  F   UNL A   1      43.393  39.807  33.301  1.00  0.00    -0.206 F 
ATOM     76  C   UNL A   1      46.796  39.822  32.081  1.00  0.00     0.022 A 
BRANCH  73  77
ATOM     77  S   UNL A   1      49.219  38.879  33.086  1.00  0.00     0.124 S 
ATOM     78  O   UNL A   1      49.407  37.518  33.583  1.00  0.00    -0.237 OA
ATOM     79  O   UNL A   1      49.595  39.110  31.696  1.00  0.00    -0.237 OA
ATOM     80  O   UNL A   1      49.603  39.935  34.021  1.00  0.00    -0.744 OA
ENDBRANCH  73  77
ENDBRANCH  56  70
BRANCH  57  81
ATOM     81  C   UNL A   1      39.936  34.479  41.560  1.00  0.00     0.023 A 
ATOM     82  C   UNL A   1      40.494  33.486  42.383  1.00  0.00     0.031 A 
ATOM     83  C   UNL A   1      38.590  34.827  41.776  1.00  0.00     0.131 A 
ATOM     84  C   UNL A   1      39.700  32.843  43.348  1.00  0.00     0.055 A 
ATOM     85  C   UNL A   1      37.819  34.224  42.772  1.00  0.00     0.041 A 
ATOM     86  F   UNL A   1      38.000  35.763  41.015  1.00  0.00    -0.206 F 
ATOM     87  C   UNL A   1      38.369  33.215  43.556  1.00  0.00     0.022 A 
BRANCH  84  88
ATOM     88  S   UNL A   1      40.402  31.446  44.271  1.00  0.00     0.124 S 
ATOM     89  O   UNL A   1      39.461  31.320  45.378  1.00  0.00    -0.237 OA
ATOM     90  O   UNL A   1      40.369  30.381  43.275  1.00  0.00    -0.237 OA
ATOM     91  O   UNL A   1      41.737  31.916  44.634  1.00  0.00    -0.744 OA
ENDBRANCH  84  88
ENDBRANCH  57  81
BRANCH  69  92
ATOM     92  C   UNL A   1      43.566  40.408  40.972  1.00  0.00     0.023 A 
ATOM     93  C   UNL A   1      42.614  41.431  41.131  1.00  0.00     0.031 A 
ATOM     94  C   UNL A   1      44.751  40.489  41.725  1.00  0.00     0.131 A 
ATOM     95  C   UNL A   1      42.895  42.523  41.967  1.00  0.00     0.055 A 
ATOM     96  C   UNL A   1      44.994  41.540  42.609  1.00  0.00     0.041 A 
ATOM     97  F   UNL A   1      45.696  39.541  41.615  1.00  0.00    -0.206 F 
ATOM     98  C   UNL A   1      44.071  42.575  42.721  1.00  0.00     0.022 A 
BRANCH  95  99
ATOM     99  S   UNL A   1      41.755  43.934  41.969  1.00  0.00     0.124 S 
ATOM    100  O   UNL A   1      42.669  45.062  42.119  1.00  0.00    -0.237 OA
ATOM    101  O   UNL A   1      41.102  43.809  40.671  1.00  0.00    -0.237 OA
ATOM    102  O   UNL A   1      40.894  43.677  43.123  1.00  0.00    -0.744 OA
ENDBRANCH  95  99
ENDBRANCH  69  92
ENDBRANCH  43  44
ENDBRANCH  36  38
ENDBRANCH  35  36
ENDBRANCH  34  35
ENDBRANCH  33  34
ENDBRANCH  32  33
ENDBRANCH  31  32
ENDBRANCH  30  31
ENDBRANCH  29  30
ENDBRANCH   1  29
TORSDOF 27
ENDMDL
MODEL 3
REMARK VINA RESULT:      -7.0      1.833      2.240
REMARK SMILES O=C(C[NH+]1CC[NH+](Cc2cc(Cl)ccc2[N+](=O)[O-])CC1)OCCOCCOCCOCCOC(=O)c1ccc(-c2c3nc(c(-c4cc(S(=O)(=O)[O-])ccc4F)c4ccc([nH]4)c(-c4cc(S(=O)(=O)[O-])ccc4F)c4nc(c(-c5cc(S(=O)(=O)[O-])ccc5F)c5ccc2[nH]5)C=C4)C=C3)cc1
REMARK SMILES IDX 26 1 25 2 24 3 23 4 22 5 21 6 2 7 1 8 3 9 4 10 5 11 20 12
REMARK SMILES IDX 6 14 19 15 7 16 8 18 9 19 10 20 15 21 11 22 14 23 12 24
REMARK SMILES IDX 13 25 16 26 17 27 18 28 27 29 28 30 29 31 30 32 31 33 32 34
REMARK SMILES IDX 33 35 34 36 35 37 36 38 37 39 98 40 38 41 97 42 39 43 40 44
REMARK SMILES IDX 41 45 91 46 42 47 96 48 90 49 92 50 43 51 95 52 89 53 88 54
REMARK SMILES IDX 44 56 76 57 56 58 75 59 57 60 60 61 74 62 93 63 58 64 59 65
REMARK SMILES IDX 73 67 94 68 61 69 45 70 46 71 54 72 47 73 53 74 55 75 52 76
REMARK SMILES IDX 48 77 49 78 50 79 51 80 77 81 78 82 86 83 79 84 85 85 87 86
REMARK SMILES IDX 84 87 80 88 81 89 82 90 83 91 62 92 63 93 71 94 64 95 70 96
REMARK SMILES IDX 72 97 69 98 65 99 66 100 67 101 68 102
REMARK H PARENT 4 13 7 17 92 55 60 66
REMARK Flexibility Score: inf
ROOT
ATOM      1  C   UNL A   1      32.881  36.622  29.252  1.00  0.00     0.188 C 
ENDROOT
BRANCH   1   2
ATOM      2  C   UNL A   1      33.536  35.250  29.086  1.00  0.00     0.188 C 
BRANCH   2   3
ATOM      3  O   UNL A   1      34.903  35.166  28.681  1.00  0.00    -0.376 OA
BRANCH   3   4
ATOM      4  C   UNL A   1      35.452  33.906  28.324  1.00  0.00     0.202 C 
BRANCH   4   5
ATOM      5  C   UNL A   1      34.477  32.756  28.372  1.00  0.00     0.261 C 
BRANCH   5   6
ATOM      6  O   UNL A   1      34.841  31.675  29.221  1.00  0.00    -0.459 OA
BRANCH   6   7
ATOM      7  C   UNL A   1      35.584  30.673  28.679  1.00  0.00     0.361 C 
ATOM      8  O   UNL A   1      35.543  30.465  27.468  1.00  0.00    -0.245 OA
BRANCH   7   9
ATOM      9  C   UNL A   1      36.290  29.717  29.644  1.00  0.00     0.386 C 
BRANCH   9  10
ATOM     10  N   UNL A   1      37.748  29.765  29.780  1.00  0.00    -0.316 N 
ATOM     11  C   UNL A   1      38.474  28.817  30.609  1.00  0.00     0.325 C 
ATOM     12  C   UNL A   1      38.488  30.192  28.599  1.00  0.00     0.325 C 
ATOM     13  H   UNL A   1      37.724  30.541  30.441  1.00  0.00     0.348 HD
ATOM     14  C   UNL A   1      39.276  27.700  29.874  1.00  0.00     0.324 C 
ATOM     15  C   UNL A   1      39.079  29.050  27.754  1.00  0.00     0.324 C 
ATOM     16  N   UNL A   1      39.697  27.930  28.481  1.00  0.00    -0.322 N 
ATOM     17  H   UNL A   1      39.234  27.141  28.032  1.00  0.00     0.348 HD
BRANCH  16  18
ATOM     18  C   UNL A   1      41.118  27.697  28.190  1.00  0.00     0.306 C 
BRANCH  18  19
ATOM     19  C   UNL A   1      41.278  26.599  27.150  1.00  0.00     0.085 A 
ATOM     20  C   UNL A   1      40.691  25.357  27.464  1.00  0.00     0.037 A 
ATOM     21  C   UNL A   1      42.230  26.638  26.110  1.00  0.00     0.278 A 
ATOM     22  C   UNL A   1      41.217  24.174  26.960  1.00  0.00     0.042 A 
ATOM     23  C   UNL A   1      42.742  25.437  25.587  1.00  0.00     0.088 A 
ATOM     24  Cl  UNL A   1      40.641  22.670  27.559  1.00  0.00    -0.084 Cl
ATOM     25  C   UNL A   1      42.270  24.210  26.053  1.00  0.00     0.027 A 
BRANCH  21  26
ATOM     26  N   UNL A   1      42.773  27.901  25.577  1.00  0.00     0.063 N 
ATOM     27  O   UNL A   1      43.695  28.435  26.210  1.00  0.00    -0.258 OA
ATOM     28  O   UNL A   1      42.317  28.330  24.511  1.00  0.00    -0.258 OA
ENDBRANCH  21  26
ENDBRANCH  18  19
ENDBRANCH  16  18
ENDBRANCH   9  10
ENDBRANCH   7   9
ENDBRANCH   6   7
ENDBRANCH   5   6
ENDBRANCH   4   5
ENDBRANCH   3   4
ENDBRANCH   2   3
ENDBRANCH   1   2
BRANCH   1  29
ATOM     29  O   UNL A   1      32.789  37.076  30.589  1.00  0.00    -0.377 OA
BRANCH  29  30
ATOM     30  C   UNL A   1      32.941  36.097  31.602  1.00  0.00     0.188 C 
BRANCH  30  31
ATOM     31  C   UNL A   1      34.020  36.406  32.662  1.00  0.00     0.188 C 
BRANCH  31  32
ATOM     32  O   UNL A   1      35.168  35.574  32.810  1.00  0.00    -0.376 OA
BRANCH  32  33
ATOM     33  C   UNL A   1      35.151  34.256  32.295  1.00  0.00     0.202 C 
BRANCH  33  34
ATOM     34  C   UNL A   1      35.643  33.132  33.227  1.00  0.00     0.261 C 
BRANCH  34  35
ATOM     35  O   UNL A   1      36.576  32.202  32.654  1.00  0.00    -0.460 OA
BRANCH  35  36
ATOM     36  C   UNL A   1      37.701  32.759  32.118  1.00  0.00     0.338 C 
ATOM     37  O   UNL A   1      37.735  33.694  31.362  1.00  0.00    -0.246 OA
BRANCH  36  38
ATOM     38  C   UNL A   1      38.918  32.182  32.780  1.00  0.00     0.060 A 
ATOM     39  C   UNL A   1      38.757  30.957  33.450  1.00  0.00     0.016 A 
ATOM     40  C   UNL A   1      40.184  32.781  32.742  1.00  0.00     0.016 A 
ATOM     41  C   UNL A   1      39.818  30.378  34.148  1.00  0.00     0.010 A 
ATOM     42  C   UNL A   1      41.246  32.216  33.469  1.00  0.00     0.010 A 
ATOM     43  C   UNL A   1      41.040  31.053  34.237  1.00  0.00    -0.014 A 
BRANCH  43  44
ATOM     44  C   UNL A   1      41.881  30.784  35.439  1.00  0.00     0.031 A 
ATOM     45  C   UNL A   1      41.582  31.619  36.665  1.00  0.00     0.074 A 
ATOM     46  C   UNL A   1      42.788  29.792  35.505  1.00  0.00     0.049 A 
ATOM     47  N   UNL A   1      42.119  31.589  37.856  1.00  0.00    -0.248 NA
ATOM     48  C   UNL A   1      40.521  32.629  36.514  1.00  0.00     0.031 C 
ATOM     49  C   UNL A   1      43.118  28.865  34.426  1.00  0.00     0.029 A 
ATOM     50  N   UNL A   1      43.593  29.393  36.547  1.00  0.00    -0.354 N 
ATOM     51  C   UNL A   1      41.466  32.578  38.587  1.00  0.00     0.074 A 
ATOM     52  C   UNL A   1      40.529  33.219  37.695  1.00  0.00     0.031 C 
ATOM     53  C   UNL A   1      44.057  28.003  34.863  1.00  0.00     0.029 A 
ATOM     54  C   UNL A   1      44.416  28.333  36.243  1.00  0.00     0.049 A 
ATOM     55  H   UNL A   1      43.581  29.827  37.431  1.00  0.00     0.167 HD
ATOM     56  C   UNL A   1      41.616  32.917  39.890  1.00  0.00     0.034 A 
ATOM     57  C   UNL A   1      45.353  27.712  36.993  1.00  0.00     0.034 A 
ATOM     58  C   UNL A   1      42.556  32.280  40.773  1.00  0.00     0.049 A 
ATOM     59  C   UNL A   1      45.578  28.174  38.418  1.00  0.00     0.074 A 
ATOM     60  C   UNL A   1      42.797  32.543  42.109  1.00  0.00     0.029 A 
ATOM     61  N   UNL A   1      43.420  31.258  40.404  1.00  0.00    -0.354 N 
ATOM     62  N   UNL A   1      44.955  29.111  39.097  1.00  0.00    -0.248 NA
ATOM     63  C   UNL A   1      46.627  27.482  39.180  1.00  0.00     0.031 C 
ATOM     64  C   UNL A   1      43.861  31.736  42.526  1.00  0.00     0.029 A 
ATOM     65  C   UNL A   1      44.222  30.904  41.477  1.00  0.00     0.049 A 
ATOM     66  H   UNL A   1      43.459  30.846  39.511  1.00  0.00     0.167 HD
ATOM     67  C   UNL A   1      45.509  29.088  40.377  1.00  0.00     0.074 A 
ATOM     68  C   UNL A   1      46.506  28.039  40.376  1.00  0.00     0.031 C 
ATOM     69  C   UNL A   1      45.215  29.855  41.459  1.00  0.00     0.034 A 
BRANCH  56  70
ATOM     70  C   UNL A   1      40.794  34.079  40.396  1.00  0.00     0.023 A 
ATOM     71  C   UNL A   1      41.232  35.411  40.281  1.00  0.00     0.031 A 
ATOM     72  C   UNL A   1      39.583  33.841  41.070  1.00  0.00     0.131 A 
ATOM     73  C   UNL A   1      40.508  36.441  40.901  1.00  0.00     0.055 A 
ATOM     74  C   UNL A   1      38.822  34.879  41.608  1.00  0.00     0.041 A 
ATOM     75  F   UNL A   1      39.132  32.589  41.240  1.00  0.00    -0.206 F 
ATOM     76  C   UNL A   1      39.292  36.188  41.540  1.00  0.00     0.022 A 
BRANCH  73  77
ATOM     77  S   UNL A   1      41.259  38.090  41.008  1.00  0.00     0.124 S 
ATOM     78  O   UNL A   1      40.480  38.832  40.019  1.00  0.00    -0.237 OA
ATOM     79  O   UNL A   1      41.031  38.451  42.403  1.00  0.00    -0.237 OA
ATOM     80  O   UNL A   1      42.654  37.855  40.643  1.00  0.00    -0.744 OA
ENDBRANCH  73  77
ENDBRANCH  56  70
BRANCH  57  81
ATOM     81  C   UNL A   1      46.185  26.608  36.424  1.00  0.00     0.023 A 
ATOM     82  C   UNL A   1      45.708  25.288  36.361  1.00  0.00     0.031 A 
ATOM     83  C   UNL A   1      47.510  26.845  36.013  1.00  0.00     0.131 A 
ATOM     84  C   UNL A   1      46.560  24.251  35.947  1.00  0.00     0.055 A 
ATOM     85  C   UNL A   1      48.337  25.819  35.551  1.00  0.00     0.041 A 
ATOM     86  F   UNL A   1      48.024  28.084  36.058  1.00  0.00    -0.206 F 
ATOM     87  C   UNL A   1      47.868  24.509  35.530  1.00  0.00     0.022 A 
BRANCH  84  88
ATOM     88  S   UNL A   1      45.967  22.537  36.047  1.00  0.00     0.124 S 
ATOM     89  O   UNL A   1      46.410  22.148  37.380  1.00  0.00    -0.237 OA
ATOM     90  O   UNL A   1      44.529  22.707  35.872  1.00  0.00    -0.237 OA
ATOM     91  O   UNL A   1      46.653  21.875  34.940  1.00  0.00    -0.744 OA
ENDBRANCH  84  88
ENDBRANCH  57  81
BRANCH  69  92
ATOM     92  C   UNL A   1      45.937  29.543  42.750  1.00  0.00     0.023 A 
ATOM     93  C   UNL A   1      47.159  30.151  43.088  1.00  0.00     0.031 A 
ATOM     94  C   UNL A   1      45.394  28.610  43.652  1.00  0.00     0.131 A 
ATOM     95  C   UNL A   1      47.831  29.768  44.259  1.00  0.00     0.055 A 
ATOM     96  C   UNL A   1      46.031  28.286  44.850  1.00  0.00     0.041 A 
ATOM     97  F   UNL A   1      44.230  27.997  43.384  1.00  0.00    -0.206 F 
ATOM     98  C   UNL A   1      47.266  28.853  45.151  1.00  0.00     0.022 A 
BRANCH  95  99
ATOM     99  S   UNL A   1      49.508  30.395  44.545  1.00  0.00     0.124 S 
ATOM    100  O   UNL A   1      49.574  31.519  43.617  1.00  0.00    -0.237 OA
ATOM    101  O   UNL A   1      49.474  30.740  45.963  1.00  0.00    -0.237 OA
ATOM    102  O   UNL A   1      50.363  29.259  44.203  1.00  0.00    -0.744 OA
ENDBRANCH  95  99
ENDBRANCH  69  92
ENDBRANCH  43  44
ENDBRANCH  36  38
ENDBRANCH  35  36
ENDBRANCH  34  35
ENDBRANCH  33  34
ENDBRANCH  32  33
ENDBRANCH  31  32
ENDBRANCH  30  31
ENDBRANCH  29  30
ENDBRANCH   1  29
TORSDOF 27
ENDMDL
