MODEL 1
REMARK VINA RESULT:     -11.7      0.000      0.000
REMARK SMILES O=C(OCCOCCOCCOCCOC(=O)c1ccccc1C(=O)Nc1ccc(N2C(=O)[C@H]3[C@@H]4CC[C@@H](C4)[C@@H]3C2=O)cc1)c1ccc(-c2c3nc(c(-c4cc(S(=O)(=O)[O-])ccc4F)c4ccc([nH]4)c(-c4cc(S(=O)(=O)[O-])ccc4F)c4nc(c(-c5cc(S(=O)(=O)[O-])ccc5F)c5ccc2[nH]5)C=C4)C=C3)cc1
REMARK SMILES IDX 9 1 8 2 7 3 6 4 5 5 4 6 3 7 2 8 1 9 45 10 46 11 107 12 47 13
REMARK SMILES IDX 106 14 48 15 49 16 50 17 100 18 51 19 105 20 99 21 101 22
REMARK SMILES IDX 52 23 104 24 98 25 97 26 53 28 85 29 65 30 84 31 66 32 69 33
REMARK SMILES IDX 83 34 102 35 67 36 68 37 82 39 103 40 70 41 54 42 55 43
REMARK SMILES IDX 63 44 56 45 62 46 64 47 61 48 57 49 58 50 59 51 60 52 86 53
REMARK SMILES IDX 87 54 95 55 88 56 94 57 96 58 93 59 89 60 90 61 91 62 92 63
REMARK SMILES IDX 71 64 72 65 80 66 73 67 79 68 81 69 78 70 74 71 75 72 76 73
REMARK SMILES IDX 77 74 10 75 11 76 12 77 13 78 14 79 15 80 16 81 17 82 18 83
REMARK SMILES IDX 19 84 23 85 20 86 22 87 21 88 24 89 25 90 26 91 27 93 28 94
REMARK SMILES IDX 44 95 29 96 43 97 30 98 31 99 32 100 41 101 33 102 34 103
REMARK SMILES IDX 40 104 42 105 35 106 38 107 36 108 39 109 37 110
REMARK H PARENT 101 27 69 38 26 92
REMARK Flexibility Score: inf
ROOT
ATOM      1  O   UNL A   1      40.941  21.296  25.931  1.00  0.00    -0.377 OA
ENDROOT
BRANCH   1   2
ATOM      2  C   UNL A   1      41.410  20.059  26.457  1.00  0.00     0.188 C 
BRANCH   2   3
ATOM      3  C   UNL A   1      42.628  19.528  25.697  1.00  0.00     0.188 C 
BRANCH   3   4
ATOM      4  O   UNL A   1      43.607  20.561  25.592  1.00  0.00    -0.376 OA
BRANCH   4   5
ATOM      5  C   UNL A   1      44.969  20.151  25.541  1.00  0.00     0.202 C 
BRANCH   5   6
ATOM      6  C   UNL A   1      45.871  21.299  25.104  1.00  0.00     0.261 C 
BRANCH   6   7
ATOM      7  O   UNL A   1      45.575  22.494  25.847  1.00  0.00    -0.460 OA
BRANCH   7   8
ATOM      8  C   UNL A   1      44.959  23.607  25.369  1.00  0.00     0.338 C 
ATOM      9  O   UNL A   1      44.971  23.817  24.156  1.00  0.00    -0.246 OA
BRANCH   8  10
ATOM     10  C   UNL A   1      44.160  24.543  26.221  1.00  0.00     0.060 A 
ATOM     11  C   UNL A   1      44.028  25.915  26.005  1.00  0.00     0.016 A 
ATOM     12  C   UNL A   1      43.399  23.970  27.253  1.00  0.00     0.016 A 
ATOM     13  C   UNL A   1      43.204  26.701  26.812  1.00  0.00     0.010 A 
ATOM     14  C   UNL A   1      42.590  24.760  28.087  1.00  0.00     0.010 A 
ATOM     15  C   UNL A   1      42.519  26.147  27.894  1.00  0.00    -0.014 A 
BRANCH  15  16
ATOM     16  C   UNL A   1      42.005  27.071  28.944  1.00  0.00     0.031 A 
ATOM     17  C   UNL A   1      42.928  27.386  30.094  1.00  0.00     0.074 A 
ATOM     18  C   UNL A   1      40.881  27.799  28.790  1.00  0.00     0.049 A 
ATOM     19  N   UNL A   1      42.725  28.127  31.150  1.00  0.00    -0.248 NA
ATOM     20  C   UNL A   1      44.283  26.813  30.013  1.00  0.00     0.031 C 
ATOM     21  C   UNL A   1      40.025  27.793  27.604  1.00  0.00     0.029 A 
ATOM     22  N   UNL A   1      40.315  28.756  29.602  1.00  0.00    -0.354 N 
ATOM     23  C   UNL A   1      43.908  28.073  31.880  1.00  0.00     0.074 A 
ATOM     24  C   UNL A   1      44.830  27.246  31.137  1.00  0.00     0.031 C 
ATOM     25  C   UNL A   1      39.090  28.751  27.738  1.00  0.00     0.029 A 
ATOM     26  C   UNL A   1      39.206  29.370  29.059  1.00  0.00     0.049 A 
ATOM     27  H   UNL A   1      40.672  28.983  30.491  1.00  0.00     0.167 HD
ATOM     28  C   UNL A   1      44.196  28.645  33.074  1.00  0.00     0.034 A 
ATOM     29  C   UNL A   1      38.370  30.294  29.584  1.00  0.00     0.034 A 
ATOM     30  C   UNL A   1      43.275  29.467  33.810  1.00  0.00     0.049 A 
ATOM     31  C   UNL A   1      38.619  30.767  31.005  1.00  0.00     0.074 A 
ATOM     32  C   UNL A   1      43.405  29.977  35.089  1.00  0.00     0.029 A 
ATOM     33  N   UNL A   1      42.051  29.907  33.327  1.00  0.00    -0.354 N 
ATOM     34  N   UNL A   1      39.662  30.564  31.777  1.00  0.00    -0.248 NA
ATOM     35  C   UNL A   1      37.557  31.565  31.636  1.00  0.00     0.031 C 
ATOM     36  C   UNL A   1      42.230  30.668  35.404  1.00  0.00     0.029 A 
ATOM     37  C   UNL A   1      41.401  30.654  34.295  1.00  0.00     0.049 A 
ATOM     38  H   UNL A   1      41.697  29.716  32.429  1.00  0.00     0.167 HD
ATOM     39  C   UNL A   1      39.381  31.220  32.977  1.00  0.00     0.074 A 
ATOM     40  C   UNL A   1      38.093  31.859  32.810  1.00  0.00     0.031 C 
ATOM     41  C   UNL A   1      40.111  31.277  34.121  1.00  0.00     0.034 A 
BRANCH  28  42
ATOM     42  C   UNL A   1      45.513  28.271  33.701  1.00  0.00     0.023 A 
ATOM     43  C   UNL A   1      45.734  27.018  34.292  1.00  0.00     0.031 A 
ATOM     44  C   UNL A   1      46.539  29.231  33.768  1.00  0.00     0.131 A 
ATOM     45  C   UNL A   1      46.936  26.778  34.979  1.00  0.00     0.055 A 
ATOM     46  C   UNL A   1      47.756  28.962  34.390  1.00  0.00     0.041 A 
ATOM     47  F   UNL A   1      46.360  30.458  33.251  1.00  0.00    -0.206 F 
ATOM     48  C   UNL A   1      47.956  27.734  35.011  1.00  0.00     0.022 A 
BRANCH  45  49
ATOM     49  S   UNL A   1      47.089  25.259  35.957  1.00  0.00     0.124 S 
ATOM     50  O   UNL A   1      45.729  24.727  35.896  1.00  0.00    -0.237 OA
ATOM     51  O   UNL A   1      48.100  24.510  35.219  1.00  0.00    -0.237 OA
ATOM     52  O   UNL A   1      47.504  25.739  37.273  1.00  0.00    -0.744 OA
ENDBRANCH  45  49
ENDBRANCH  28  42
BRANCH  29  53
ATOM     53  C   UNL A   1      37.156  30.776  28.844  1.00  0.00     0.023 A 
ATOM     54  C   UNL A   1      36.806  32.138  28.820  1.00  0.00     0.031 A 
ATOM     55  C   UNL A   1      36.249  29.866  28.269  1.00  0.00     0.131 A 
ATOM     56  C   UNL A   1      35.564  32.540  28.295  1.00  0.00     0.055 A 
ATOM     57  C   UNL A   1      35.054  30.278  27.675  1.00  0.00     0.041 A 
ATOM     58  F   UNL A   1      36.497  28.546  28.293  1.00  0.00    -0.206 F 
ATOM     59  C   UNL A   1      34.696  31.621  27.703  1.00  0.00     0.022 A 
BRANCH  56  60
ATOM     60  S   UNL A   1      35.017  34.253  28.550  1.00  0.00     0.124 S 
ATOM     61  O   UNL A   1      36.197  34.852  29.164  1.00  0.00    -0.237 OA
ATOM     62  O   UNL A   1      34.712  34.684  27.191  1.00  0.00    -0.237 OA
ATOM     63  O   UNL A   1      33.861  34.113  29.433  1.00  0.00    -0.744 OA
ENDBRANCH  56  60
ENDBRANCH  29  53
BRANCH  41  64
ATOM     64  C   UNL A   1      39.539  32.065  35.276  1.00  0.00     0.023 A 
ATOM     65  C   UNL A   1      39.902  33.404  35.503  1.00  0.00     0.031 A 
ATOM     66  C   UNL A   1      38.606  31.476  36.149  1.00  0.00     0.131 A 
ATOM     67  C   UNL A   1      39.373  34.096  36.603  1.00  0.00     0.055 A 
ATOM     68  C   UNL A   1      38.039  32.188  37.208  1.00  0.00     0.041 A 
ATOM     69  F   UNL A   1      38.220  30.202  35.978  1.00  0.00    -0.206 F 
ATOM     70  C   UNL A   1      38.431  33.502  37.446  1.00  0.00     0.022 A 
BRANCH  67  71
ATOM     71  S   UNL A   1      39.989  35.765  36.961  1.00  0.00     0.124 S 
ATOM     72  O   UNL A   1      39.234  36.118  38.159  1.00  0.00    -0.237 OA
ATOM     73  O   UNL A   1      41.417  35.535  37.151  1.00  0.00    -0.237 OA
ATOM     74  O   UNL A   1      39.639  36.525  35.762  1.00  0.00    -0.744 OA
ENDBRANCH  67  71
ENDBRANCH  41  64
ENDBRANCH  15  16
ENDBRANCH   8  10
ENDBRANCH   7   8
ENDBRANCH   6   7
ENDBRANCH   5   6
ENDBRANCH   4   5
ENDBRANCH   3   4
ENDBRANCH   2   3
ENDBRANCH   1   2
BRANCH   1  75
ATOM     75  C   UNL A   1      39.686  21.728  26.458  1.00  0.00     0.188 C 
BRANCH  75  76
ATOM     76  C   UNL A   1      38.574  22.021  25.414  1.00  0.00     0.188 C 
BRANCH  76  77
ATOM     77  O   UNL A   1      37.463  21.132  25.579  1.00  0.00    -0.376 OA
BRANCH  77  78
ATOM     78  C   UNL A   1      36.197  21.708  25.238  1.00  0.00     0.202 C 
BRANCH  78  79
ATOM     79  C   UNL A   1      36.287  23.230  24.638  1.00  0.00     0.261 C 
BRANCH  79  80
ATOM     80  O   UNL A   1      35.014  24.773  24.862  1.00  0.00    -0.460 OA
BRANCH  80  81
ATOM     81  C   UNL A   1      34.117  25.843  24.918  1.00  0.00     0.339 C 
ATOM     82  O   UNL A   1      33.966  26.637  25.833  1.00  0.00    -0.246 OA
BRANCH  81  83
ATOM     83  C   UNL A   1      33.375  25.995  23.624  1.00  0.00     0.072 A 
ATOM     84  C   UNL A   1      33.912  25.241  22.559  1.00  0.00     0.016 A 
ATOM     85  C   UNL A   1      32.142  26.668  23.457  1.00  0.00     0.054 A 
ATOM     86  C   UNL A   1      33.243  25.145  21.340  1.00  0.00     0.001 A 
ATOM     87  C   UNL A   1      31.508  26.595  22.196  1.00  0.00     0.015 A 
ATOM     88  C   UNL A   1      32.048  25.833  21.153  1.00  0.00     0.001 A 
BRANCH  85  89
ATOM     89  C   UNL A   1      31.382  27.436  24.507  1.00  0.00     0.256 C 
ATOM     90  O   UNL A   1      31.387  28.667  24.446  1.00  0.00    -0.269 OA
ATOM     91  N   UNL A   1      30.698  26.818  25.537  1.00  0.00    -0.322 N 
ATOM     92  H   UNL A   1      30.351  27.385  26.263  1.00  0.00     0.170 HD
BRANCH  91  93
ATOM     93  C   UNL A   1      30.463  25.441  25.617  1.00  0.00     0.041 A 
ATOM     94  C   UNL A   1      30.098  24.602  24.052  1.00  0.00     0.028 A 
ATOM     95  C   UNL A   1      31.450  24.599  26.880  1.00  0.00     0.028 A 
ATOM     96  C   UNL A   1      30.901  23.016  23.698  1.00  0.00     0.029 A 
ATOM     97  C   UNL A   1      32.167  22.968  26.532  1.00  0.00     0.029 A 
ATOM     98  C   UNL A   1      31.883  22.170  24.947  1.00  0.00     0.052 A 
BRANCH  98  99
ATOM     99  N   UNL A   1      32.257  20.825  24.705  1.00  0.00    -0.250 N 
ATOM    100  C   UNL A   1      32.180  20.179  23.460  1.00  0.00     0.237 C 
ATOM    101  C   UNL A   1      33.024  20.038  25.586  1.00  0.00     0.237 C 
ATOM    102  O   UNL A   1      31.948  20.632  22.358  1.00  0.00    -0.274 OA
ATOM    103  C   UNL A   1      32.600  18.774  23.805  1.00  0.00     0.095 C 
ATOM    104  C   UNL A   1      33.813  19.190  24.636  1.00  0.00     0.095 C 
ATOM    105  O   UNL A   1      33.101  20.027  26.800  1.00  0.00    -0.274 OA
ATOM    106  C   UNL A   1      33.118  17.538  23.082  1.00  0.00     0.002 C 
ATOM    107  C   UNL A   1      34.669  17.940  24.671  1.00  0.00     0.002 C 
ATOM    108  C   UNL A   1      32.933  16.375  24.106  1.00  0.00     0.005 C 
ATOM    109  C   UNL A   1      34.645  17.646  23.149  1.00  0.00     0.009 C 
ATOM    110  C   UNL A   1      33.942  16.720  25.225  1.00  0.00     0.005 C 
ENDBRANCH  98  99
ENDBRANCH  91  93
ENDBRANCH  85  89
ENDBRANCH  81  83
ENDBRANCH  80  81
ENDBRANCH  79  80
ENDBRANCH  78  79
ENDBRANCH  77  78
ENDBRANCH  76  77
ENDBRANCH  75  76
ENDBRANCH   1  75
TORSDOF 26
ENDMDL
MODEL 2
REMARK VINA RESULT:     -11.6      2.559      3.205
REMARK SMILES O=C(OCCOCCOCCOCCOC(=O)c1ccccc1C(=O)Nc1ccc(N2C(=O)[C@H]3[C@@H]4CC[C@@H](C4)[C@@H]3C2=O)cc1)c1ccc(-c2c3nc(c(-c4cc(S(=O)(=O)[O-])ccc4F)c4ccc([nH]4)c(-c4cc(S(=O)(=O)[O-])ccc4F)c4nc(c(-c5cc(S(=O)(=O)[O-])ccc5F)c5ccc2[nH]5)C=C4)C=C3)cc1
REMARK SMILES IDX 9 1 8 2 7 3 6 4 5 5 4 6 3 7 2 8 1 9 45 10 46 11 107 12 47 13
REMARK SMILES IDX 106 14 48 15 49 16 50 17 100 18 51 19 105 20 99 21 101 22
REMARK SMILES IDX 52 23 104 24 98 25 97 26 53 28 85 29 65 30 84 31 66 32 69 33
REMARK SMILES IDX 83 34 102 35 67 36 68 37 82 39 103 40 70 41 54 42 55 43
REMARK SMILES IDX 63 44 56 45 62 46 64 47 61 48 57 49 58 50 59 51 60 52 86 53
REMARK SMILES IDX 87 54 95 55 88 56 94 57 96 58 93 59 89 60 90 61 91 62 92 63
REMARK SMILES IDX 71 64 72 65 80 66 73 67 79 68 81 69 78 70 74 71 75 72 76 73
REMARK SMILES IDX 77 74 10 75 11 76 12 77 13 78 14 79 15 80 16 81 17 82 18 83
REMARK SMILES IDX 19 84 23 85 20 86 22 87 21 88 24 89 25 90 26 91 27 93 28 94
REMARK SMILES IDX 44 95 29 96 43 97 30 98 31 99 32 100 41 101 33 102 34 103
REMARK SMILES IDX 40 104 42 105 35 106 38 107 36 108 39 109 37 110
REMARK H PARENT 101 27 69 38 26 92
REMARK Flexibility Score: inf
ROOT
ATOM      1  O   UNL A   1      40.845  20.972  26.112  1.00  0.00    -0.377 OA
ENDROOT
BRANCH   1   2
ATOM      2  C   UNL A   1      41.222  19.830  26.874  1.00  0.00     0.188 C 
BRANCH   2   3
ATOM      3  C   UNL A   1      42.115  18.871  26.082  1.00  0.00     0.188 C 
BRANCH   3   4
ATOM      4  O   UNL A   1      43.093  19.621  25.362  1.00  0.00    -0.376 OA
BRANCH   4   5
ATOM      5  C   UNL A   1      44.232  18.907  24.895  1.00  0.00     0.202 C 
BRANCH   5   6
ATOM      6  C   UNL A   1      44.954  19.683  23.800  1.00  0.00     0.261 C 
BRANCH   6   7
ATOM      7  O   UNL A   1      45.347  20.984  24.268  1.00  0.00    -0.460 OA
BRANCH   7   8
ATOM      8  C   UNL A   1      44.709  22.157  24.015  1.00  0.00     0.338 C 
ATOM      9  O   UNL A   1      44.348  22.400  22.863  1.00  0.00    -0.246 OA
BRANCH   8  10
ATOM     10  C   UNL A   1      44.311  23.131  25.080  1.00  0.00     0.060 A 
ATOM     11  C   UNL A   1      44.162  24.506  24.899  1.00  0.00     0.016 A 
ATOM     12  C   UNL A   1      43.956  22.597  26.329  1.00  0.00     0.016 A 
ATOM     13  C   UNL A   1      43.719  25.331  25.934  1.00  0.00     0.010 A 
ATOM     14  C   UNL A   1      43.537  23.425  27.384  1.00  0.00     0.010 A 
ATOM     15  C   UNL A   1      43.453  24.813  27.201  1.00  0.00    -0.014 A 
BRANCH  15  16
ATOM     16  C   UNL A   1      43.393  25.763  28.347  1.00  0.00     0.031 A 
ATOM     17  C   UNL A   1      44.685  26.060  29.065  1.00  0.00     0.074 A 
ATOM     18  C   UNL A   1      42.312  26.527  28.606  1.00  0.00     0.049 A 
ATOM     19  N   UNL A   1      44.910  26.818  30.104  1.00  0.00    -0.248 NA
ATOM     20  C   UNL A   1      45.897  25.442  28.498  1.00  0.00     0.031 C 
ATOM     21  C   UNL A   1      41.075  26.537  27.825  1.00  0.00     0.029 A 
ATOM     22  N   UNL A   1      42.115  27.510  29.550  1.00  0.00    -0.354 N 
ATOM     23  C   UNL A   1      46.278  26.733  30.343  1.00  0.00     0.074 A 
ATOM     24  C   UNL A   1      46.835  25.868  29.328  1.00  0.00     0.031 C 
ATOM     25  C   UNL A   1      40.283  27.526  28.276  1.00  0.00     0.029 A 
ATOM     26  C   UNL A   1      40.900  28.153  29.446  1.00  0.00     0.049 A 
ATOM     27  H   UNL A   1      42.783  27.733  30.238  1.00  0.00     0.167 HD
ATOM     28  C   UNL A   1      47.005  27.306  31.331  1.00  0.00     0.034 A 
ATOM     29  C   UNL A   1      40.345  29.110  30.225  1.00  0.00     0.034 A 
ATOM     30  C   UNL A   1      46.447  28.165  32.340  1.00  0.00     0.049 A 
ATOM     31  C   UNL A   1      41.117  29.588  31.440  1.00  0.00     0.074 A 
ATOM     32  C   UNL A   1      47.057  28.683  33.467  1.00  0.00     0.029 A 
ATOM     33  N   UNL A   1      45.143  28.640  32.337  1.00  0.00    -0.354 N 
ATOM     34  N   UNL A   1      42.367  29.360  31.773  1.00  0.00    -0.248 NA
ATOM     35  C   UNL A   1      40.388  30.427  32.405  1.00  0.00     0.031 C 
ATOM     36  C   UNL A   1      46.103  29.416  34.182  1.00  0.00     0.029 A 
ATOM     37  C   UNL A   1      44.920  29.418  33.461  1.00  0.00     0.049 A 
ATOM     38  H   UNL A   1      44.475  28.452  31.640  1.00  0.00     0.167 HD
ATOM     39  C   UNL A   1      42.571  30.036  32.977  1.00  0.00     0.074 A 
ATOM     40  C   UNL A   1      41.331  30.715  33.288  1.00  0.00     0.031 C 
ATOM     41  C   UNL A   1      43.675  30.081  33.766  1.00  0.00     0.034 A 
BRANCH  28  42
ATOM     42  C   UNL A   1      48.450  26.896  31.431  1.00  0.00     0.023 A 
ATOM     43  C   UNL A   1      49.470  27.566  30.737  1.00  0.00     0.031 A 
ATOM     44  C   UNL A   1      48.791  25.757  32.183  1.00  0.00     0.131 A 
ATOM     45  C   UNL A   1      50.778  27.054  30.764  1.00  0.00     0.055 A 
ATOM     46  C   UNL A   1      50.103  25.296  32.262  1.00  0.00     0.041 A 
ATOM     47  F   UNL A   1      47.845  25.060  32.832  1.00  0.00    -0.206 F 
ATOM     48  C   UNL A   1      51.104  25.937  31.540  1.00  0.00     0.022 A 
BRANCH  45  49
ATOM     49  S   UNL A   1      52.016  27.776  29.652  1.00  0.00     0.124 S 
ATOM     50  O   UNL A   1      51.198  28.671  28.837  1.00  0.00    -0.237 OA
ATOM     51  O   UNL A   1      52.936  28.421  30.582  1.00  0.00    -0.237 OA
ATOM     52  O   UNL A   1      52.555  26.618  28.942  1.00  0.00    -0.744 OA
ENDBRANCH  45  49
ENDBRANCH  28  42
BRANCH  29  53
ATOM     53  C   UNL A   1      38.955  29.623  29.979  1.00  0.00     0.023 A 
ATOM     54  C   UNL A   1      38.730  30.933  29.518  1.00  0.00     0.031 A 
ATOM     55  C   UNL A   1      37.827  28.862  30.337  1.00  0.00     0.131 A 
ATOM     56  C   UNL A   1      37.425  31.457  29.487  1.00  0.00     0.055 A 
ATOM     57  C   UNL A   1      36.526  29.359  30.227  1.00  0.00     0.041 A 
ATOM     58  F   UNL A   1      37.968  27.619  30.825  1.00  0.00    -0.206 F 
ATOM     59  C   UNL A   1      36.321  30.671  29.818  1.00  0.00     0.022 A 
BRANCH  56  60
ATOM     60  S   UNL A   1      37.199  33.233  29.177  1.00  0.00     0.124 S 
ATOM     61  O   UNL A   1      38.575  33.674  28.977  1.00  0.00    -0.237 OA
ATOM     62  O   UNL A   1      36.347  33.232  27.994  1.00  0.00    -0.237 OA
ATOM     63  O   UNL A   1      36.564  33.714  30.401  1.00  0.00    -0.744 OA
ENDBRANCH  56  60
ENDBRANCH  29  53
BRANCH  41  64
ATOM     64  C   UNL A   1      43.596  30.898  35.034  1.00  0.00     0.023 A 
ATOM     65  C   UNL A   1      43.940  32.261  35.052  1.00  0.00     0.031 A 
ATOM     66  C   UNL A   1      43.153  30.313  36.234  1.00  0.00     0.131 A 
ATOM     67  C   UNL A   1      43.882  32.982  36.254  1.00  0.00     0.055 A 
ATOM     68  C   UNL A   1      43.043  31.050  37.414  1.00  0.00     0.041 A 
ATOM     69  F   UNL A   1      42.808  29.016  36.275  1.00  0.00    -0.206 F 
ATOM     70  C   UNL A   1      43.419  32.390  37.432  1.00  0.00     0.022 A 
BRANCH  67  71
ATOM     71  S   UNL A   1      44.491  34.691  36.276  1.00  0.00     0.124 S 
ATOM     72  O   UNL A   1      43.882  35.247  35.071  1.00  0.00    -0.237 OA
ATOM     73  O   UNL A   1      43.970  35.192  37.543  1.00  0.00    -0.237 OA
ATOM     74  O   UNL A   1      45.944  34.538  36.222  1.00  0.00    -0.744 OA
ENDBRANCH  67  71
ENDBRANCH  41  64
ENDBRANCH  15  16
ENDBRANCH   8  10
ENDBRANCH   7   8
ENDBRANCH   6   7
ENDBRANCH   5   6
ENDBRANCH   4   5
ENDBRANCH   3   4
ENDBRANCH   2   3
ENDBRANCH   1   2
BRANCH   1  75
ATOM     75  C   UNL A   1      39.704  21.669  26.613  1.00  0.00     0.188 C 
BRANCH  75  76
ATOM     76  C   UNL A   1      38.641  22.079  25.558  1.00  0.00     0.188 C 
BRANCH  76  77
ATOM     77  O   UNL A   1      37.574  21.124  25.501  1.00  0.00    -0.376 OA
BRANCH  77  78
ATOM     78  C   UNL A   1      36.336  21.657  25.018  1.00  0.00     0.202 C 
BRANCH  78  79
ATOM     79  C   UNL A   1      36.422  23.213  24.510  1.00  0.00     0.261 C 
BRANCH  79  80
ATOM     80  O   UNL A   1      35.096  24.709  24.734  1.00  0.00    -0.460 OA
BRANCH  80  81
ATOM     81  C   UNL A   1      34.192  25.773  24.794  1.00  0.00     0.339 C 
ATOM     82  O   UNL A   1      34.054  26.579  25.700  1.00  0.00    -0.246 OA
BRANCH  81  83
ATOM     83  C   UNL A   1      33.420  25.900  23.515  1.00  0.00     0.072 A 
ATOM     84  C   UNL A   1      33.927  25.118  22.456  1.00  0.00     0.016 A 
ATOM     85  C   UNL A   1      32.186  26.576  23.361  1.00  0.00     0.054 A 
ATOM     86  C   UNL A   1      33.228  24.997  21.255  1.00  0.00     0.001 A 
ATOM     87  C   UNL A   1      31.523  26.477  22.118  1.00  0.00     0.015 A 
ATOM     88  C   UNL A   1      32.033  25.688  21.081  1.00  0.00     0.001 A 
BRANCH  85  89
ATOM     89  C   UNL A   1      31.456  27.372  24.411  1.00  0.00     0.256 C 
ATOM     90  O   UNL A   1      31.453  28.601  24.313  1.00  0.00    -0.269 OA
ATOM     91  N   UNL A   1      30.807  26.783  25.480  1.00  0.00    -0.322 N 
ATOM     92  H   UNL A   1      30.480  27.371  26.200  1.00  0.00     0.170 HD
BRANCH  91  93
ATOM     93  C   UNL A   1      30.581  25.408  25.609  1.00  0.00     0.041 A 
ATOM     94  C   UNL A   1      30.119  24.531  24.091  1.00  0.00     0.028 A 
ATOM     95  C   UNL A   1      31.648  24.599  26.827  1.00  0.00     0.028 A 
ATOM     96  C   UNL A   1      30.902  22.937  23.726  1.00  0.00     0.029 A 
ATOM     97  C   UNL A   1      32.345  22.960  26.474  1.00  0.00     0.029 A 
ATOM     98  C   UNL A   1      31.963  22.123  24.931  1.00  0.00     0.052 A 
BRANCH  98  99
ATOM     99  N   UNL A   1      32.323  20.772  24.698  1.00  0.00    -0.250 N 
ATOM    100  C   UNL A   1      32.171  20.097  23.477  1.00  0.00     0.237 C 
ATOM    101  C   UNL A   1      33.146  20.008  25.549  1.00  0.00     0.237 C 
ATOM    102  O   UNL A   1      31.871  20.523  22.380  1.00  0.00    -0.274 OA
ATOM    103  C   UNL A   1      32.615  18.701  23.829  1.00  0.00     0.095 C 
ATOM    104  C   UNL A   1      33.876  19.138  24.572  1.00  0.00     0.095 C 
ATOM    105  O   UNL A   1      33.297  20.026  26.756  1.00  0.00    -0.274 OA
ATOM    106  C   UNL A   1      33.089  17.448  23.105  1.00  0.00     0.002 C 
ATOM    107  C   UNL A   1      34.735  17.889  24.584  1.00  0.00     0.002 C 
ATOM    108  C   UNL A   1      32.970  16.310  24.167  1.00  0.00     0.005 C 
ATOM    109  C   UNL A   1      34.617  17.559  23.075  1.00  0.00     0.009 C 
ATOM    110  C   UNL A   1      34.046  16.683  25.213  1.00  0.00     0.005 C 
ENDBRANCH  98  99
ENDBRANCH  91  93
ENDBRANCH  85  89
ENDBRANCH  81  83
ENDBRANCH  80  81
ENDBRANCH  79  80
ENDBRANCH  78  79
ENDBRANCH  77  78
ENDBRANCH  76  77
ENDBRANCH  75  76
ENDBRANCH   1  75
TORSDOF 26
ENDMDL
MODEL 3
REMARK VINA RESULT:     -11.4      3.899      9.832
REMARK SMILES O=C(OCCOCCOCCOCCOC(=O)c1ccccc1C(=O)Nc1ccc(N2C(=O)[C@H]3[C@@H]4CC[C@@H](C4)[C@@H]3C2=O)cc1)c1ccc(-c2c3nc(c(-c4cc(S(=O)(=O)[O-])ccc4F)c4ccc([nH]4)c(-c4cc(S(=O)(=O)[O-])ccc4F)c4nc(c(-c5cc(S(=O)(=O)[O-])ccc5F)c5ccc2[nH]5)C=C4)C=C3)cc1
REMARK SMILES IDX 9 1 8 2 7 3 6 4 5 5 4 6 3 7 2 8 1 9 45 10 46 11 107 12 47 13
REMARK SMILES IDX 106 14 48 15 49 16 50 17 100 18 51 19 105 20 99 21 101 22
REMARK SMILES IDX 52 23 104 24 98 25 97 26 53 28 85 29 65 30 84 31 66 32 69 33
REMARK SMILES IDX 83 34 102 35 67 36 68 37 82 39 103 40 70 41 54 42 55 43
REMARK SMILES IDX 63 44 56 45 62 46 64 47 61 48 57 49 58 50 59 51 60 52 86 53
REMARK SMILES IDX 87 54 95 55 88 56 94 57 96 58 93 59 89 60 90 61 91 62 92 63
REMARK SMILES IDX 71 64 72 65 80 66 73 67 79 68 81 69 78 70 74 71 75 72 76 73
REMARK SMILES IDX 77 74 10 75 11 76 12 77 13 78 14 79 15 80 16 81 17 82 18 83
REMARK SMILES IDX 19 84 23 85 20 86 22 87 21 88 24 89 25 90 26 91 27 93 28 94
REMARK SMILES IDX 44 95 29 96 43 97 30 98 31 99 32 100 41 101 33 102 34 103
REMARK SMILES IDX 40 104 42 105 35 106 38 107 36 108 39 109 37 110
REMARK H PARENT 101 27 69 38 26 92
REMARK Flexibility Score: inf
ROOT
ATOM      1  O   UNL A   1      32.061  30.420  25.393  1.00  0.00    -0.377 OA
ENDROOT
BRANCH   1   2
ATOM      2  C   UNL A   1      32.394  30.735  26.741  1.00  0.00     0.188 C 
BRANCH   2   3
ATOM      3  C   UNL A   1      33.572  29.905  27.257  1.00  0.00     0.188 C 
BRANCH   3   4
ATOM      4  O   UNL A   1      34.450  30.744  28.007  1.00  0.00    -0.376 OA
BRANCH   4   5
ATOM      5  C   UNL A   1      35.792  30.295  28.158  1.00  0.00     0.202 C 
BRANCH   5   6
ATOM      6  C   UNL A   1      36.397  30.806  29.460  1.00  0.00     0.261 C 
BRANCH   6   7
ATOM      7  O   UNL A   1      36.619  29.723  30.380  1.00  0.00    -0.460 OA
BRANCH   7   8
ATOM      8  C   UNL A   1      37.174  29.819  31.618  1.00  0.00     0.338 C 
ATOM      9  O   UNL A   1      36.465  30.171  32.560  1.00  0.00    -0.246 OA
BRANCH   8  10
ATOM     10  C   UNL A   1      38.579  29.408  31.929  1.00  0.00     0.060 A 
ATOM     11  C   UNL A   1      39.682  30.262  31.952  1.00  0.00     0.016 A 
ATOM     12  C   UNL A   1      38.776  28.079  32.337  1.00  0.00     0.016 A 
ATOM     13  C   UNL A   1      40.947  29.804  32.322  1.00  0.00     0.010 A 
ATOM     14  C   UNL A   1      40.053  27.604  32.683  1.00  0.00     0.010 A 
ATOM     15  C   UNL A   1      41.161  28.463  32.639  1.00  0.00    -0.014 A 
BRANCH  15  16
ATOM     16  C   UNL A   1      42.561  27.953  32.618  1.00  0.00     0.031 A 
ATOM     17  C   UNL A   1      43.173  27.567  33.941  1.00  0.00     0.074 A 
ATOM     18  C   UNL A   1      43.196  27.609  31.479  1.00  0.00     0.049 A 
ATOM     19  N   UNL A   1      44.373  27.129  34.211  1.00  0.00    -0.248 NA
ATOM     20  C   UNL A   1      42.286  27.651  35.114  1.00  0.00     0.031 C 
ATOM     21  C   UNL A   1      42.622  27.681  30.136  1.00  0.00     0.029 A 
ATOM     22  N   UNL A   1      44.436  27.044  31.280  1.00  0.00    -0.354 N 
ATOM     23  C   UNL A   1      44.400  26.928  35.587  1.00  0.00     0.074 A 
ATOM     24  C   UNL A   1      43.090  27.270  36.093  1.00  0.00     0.031 C 
ATOM     25  C   UNL A   1      43.478  27.113  29.266  1.00  0.00     0.029 A 
ATOM     26  C   UNL A   1      44.707  26.734  29.964  1.00  0.00     0.049 A 
ATOM     27  H   UNL A   1      45.071  26.876  32.013  1.00  0.00     0.167 HD
ATOM     28  C   UNL A   1      45.428  26.514  36.366  1.00  0.00     0.034 A 
ATOM     29  C   UNL A   1      45.827  26.235  29.394  1.00  0.00     0.034 A 
ATOM     30  C   UNL A   1      46.730  26.176  35.858  1.00  0.00     0.049 A 
ATOM     31  C   UNL A   1      47.029  25.966  30.281  1.00  0.00     0.074 A 
ATOM     32  C   UNL A   1      47.883  25.885  36.564  1.00  0.00     0.029 A 
ATOM     33  N   UNL A   1      47.049  26.074  34.512  1.00  0.00    -0.354 N 
ATOM     34  N   UNL A   1      47.109  25.956  31.592  1.00  0.00    -0.248 NA
ATOM     35  C   UNL A   1      48.304  25.676  29.605  1.00  0.00     0.031 C 
ATOM     36  C   UNL A   1      48.916  25.675  35.643  1.00  0.00     0.029 A 
ATOM     37  C   UNL A   1      48.389  25.758  34.365  1.00  0.00     0.049 A 
ATOM     38  H   UNL A   1      46.416  26.206  33.770  1.00  0.00     0.167 HD
ATOM     39  C   UNL A   1      48.437  25.648  31.891  1.00  0.00     0.074 A 
ATOM     40  C   UNL A   1      49.110  25.438  30.627  1.00  0.00     0.031 C 
ATOM     41  C   UNL A   1      49.052  25.562  33.099  1.00  0.00     0.034 A 
BRANCH  28  42
ATOM     42  C   UNL A   1      45.204  26.549  37.854  1.00  0.00     0.023 A 
ATOM     43  C   UNL A   1      45.389  27.716  38.613  1.00  0.00     0.031 A 
ATOM     44  C   UNL A   1      44.872  25.360  38.527  1.00  0.00     0.131 A 
ATOM     45  C   UNL A   1      45.296  27.652  40.013  1.00  0.00     0.055 A 
ATOM     46  C   UNL A   1      44.713  25.320  39.911  1.00  0.00     0.041 A 
ATOM     47  F   UNL A   1      44.725  24.211  37.849  1.00  0.00    -0.206 F 
ATOM     48  C   UNL A   1      44.938  26.467  40.664  1.00  0.00     0.022 A 
BRANCH  45  49
ATOM     49  S   UNL A   1      45.798  29.100  40.984  1.00  0.00     0.124 S 
ATOM     50  O   UNL A   1      44.517  29.764  41.212  1.00  0.00    -0.237 OA
ATOM     51  O   UNL A   1      46.420  28.493  42.155  1.00  0.00    -0.237 OA
ATOM     52  O   UNL A   1      46.710  29.811  40.091  1.00  0.00    -0.744 OA
ENDBRANCH  45  49
ENDBRANCH  28  42
BRANCH  29  53
ATOM     53  C   UNL A   1      45.944  26.047  27.909  1.00  0.00     0.023 A 
ATOM     54  C   UNL A   1      46.530  27.030  27.091  1.00  0.00     0.031 A 
ATOM     55  C   UNL A   1      45.345  24.946  27.268  1.00  0.00     0.131 A 
ATOM     56  C   UNL A   1      46.449  26.924  25.691  1.00  0.00     0.055 A 
ATOM     57  C   UNL A   1      45.339  24.805  25.878  1.00  0.00     0.041 A 
ATOM     58  F   UNL A   1      44.729  23.991  27.983  1.00  0.00    -0.206 F 
ATOM     59  C   UNL A   1      45.876  25.807  25.080  1.00  0.00     0.022 A 
BRANCH  56  60
ATOM     60  S   UNL A   1      46.945  28.345  24.673  1.00  0.00     0.124 S 
ATOM     61  O   UNL A   1      46.302  29.450  25.377  1.00  0.00    -0.237 OA
ATOM     62  O   UNL A   1      48.400  28.290  24.757  1.00  0.00    -0.237 OA
ATOM     63  O   UNL A   1      46.385  28.035  23.360  1.00  0.00    -0.744 OA
ENDBRANCH  56  60
ENDBRANCH  29  53
BRANCH  41  64
ATOM     64  C   UNL A   1      50.523  25.218  33.111  1.00  0.00     0.023 A 
ATOM     65  C   UNL A   1      50.965  23.882  33.099  1.00  0.00     0.031 A 
ATOM     66  C   UNL A   1      51.495  26.234  33.114  1.00  0.00     0.131 A 
ATOM     67  C   UNL A   1      52.338  23.599  33.140  1.00  0.00     0.055 A 
ATOM     68  C   UNL A   1      52.861  25.946  33.097  1.00  0.00     0.041 A 
ATOM     69  F   UNL A   1      51.131  27.527  33.122  1.00  0.00    -0.206 F 
ATOM     70  C   UNL A   1      53.289  24.622  33.121  1.00  0.00     0.022 A 
BRANCH  67  71
ATOM     71  S   UNL A   1      52.867  21.870  33.292  1.00  0.00     0.124 S 
ATOM     72  O   UNL A   1      52.156  21.438  34.491  1.00  0.00    -0.237 OA
ATOM     73  O   UNL A   1      52.406  21.291  32.034  1.00  0.00    -0.237 OA
ATOM     74  O   UNL A   1      54.319  21.966  33.432  1.00  0.00    -0.744 OA
ENDBRANCH  67  71
ENDBRANCH  41  64
ENDBRANCH  15  16
ENDBRANCH   8  10
ENDBRANCH   7   8
ENDBRANCH   6   7
ENDBRANCH   5   6
ENDBRANCH   4   5
ENDBRANCH   3   4
ENDBRANCH   2   3
ENDBRANCH   1   2
BRANCH   1  75
ATOM     75  C   UNL A   1      31.315  29.213  25.233  1.00  0.00     0.188 C 
BRANCH  75  76
ATOM     76  C   UNL A   1      30.820  28.905  23.794  1.00  0.00     0.188 C 
BRANCH  76  77
ATOM     77  O   UNL A   1      29.528  29.478  23.558  1.00  0.00    -0.376 OA
BRANCH  77  78
ATOM     78  C   UNL A   1      28.560  28.551  23.053  1.00  0.00     0.202 C 
BRANCH  78  79
ATOM     79  C   UNL A   1      28.693  27.036  23.662  1.00  0.00     0.261 C 
BRANCH  79  80
ATOM     80  O   UNL A   1      30.178  26.215  24.744  1.00  0.00    -0.460 OA
BRANCH  80  81
ATOM     81  C   UNL A   1      31.144  25.573  25.523  1.00  0.00     0.339 C 
ATOM     82  O   UNL A   1      31.082  25.309  26.713  1.00  0.00    -0.246 OA
BRANCH  81  83
ATOM     83  C   UNL A   1      32.303  25.123  24.686  1.00  0.00     0.072 A 
ATOM     84  C   UNL A   1      33.343  26.072  24.583  1.00  0.00     0.016 A 
ATOM     85  C   UNL A   1      32.488  23.820  24.167  1.00  0.00     0.054 A 
ATOM     86  C   UNL A   1      34.557  25.743  23.981  1.00  0.00     0.001 A 
ATOM     87  C   UNL A   1      33.708  23.527  23.518  1.00  0.00     0.015 A 
ATOM     88  C   UNL A   1      34.735  24.476  23.435  1.00  0.00     0.001 A 
BRANCH  85  89
ATOM     89  C   UNL A   1      31.529  22.663  24.270  1.00  0.00     0.256 C 
ATOM     90  O   UNL A   1      30.483  22.713  23.620  1.00  0.00    -0.269 OA
ATOM     91  N   UNL A   1      31.768  21.562  25.072  1.00  0.00    -0.322 N 
ATOM     92  H   UNL A   1      31.033  20.919  25.201  1.00  0.00     0.170 HD
BRANCH  91  93
ATOM     93  C   UNL A   1      32.983  21.298  25.713  1.00  0.00     0.041 A 
ATOM     94  C   UNL A   1      34.182  20.313  24.774  1.00  0.00     0.028 A 
ATOM     95  C   UNL A   1      33.562  22.644  26.776  1.00  0.00     0.028 A 
ATOM     96  C   UNL A   1      35.920  20.827  24.758  1.00  0.00     0.029 A 
ATOM     97  C   UNL A   1      35.325  23.078  26.812  1.00  0.00     0.029 A 
ATOM     98  C   UNL A   1      36.506  22.163  25.813  1.00  0.00     0.052 A 
BRANCH  98  99
ATOM     99  N   UNL A   1      37.905  22.337  25.955  1.00  0.00    -0.250 N 
ATOM    100  C   UNL A   1      38.527  23.500  26.435  1.00  0.00     0.237 C 
ATOM    101  C   UNL A   1      38.847  21.290  25.919  1.00  0.00     0.237 C 
ATOM    102  O   UNL A   1      38.047  24.488  26.952  1.00  0.00    -0.274 OA
ATOM    103  C   UNL A   1      39.988  23.165  26.279  1.00  0.00     0.095 C 
ATOM    104  C   UNL A   1      39.879  21.771  26.893  1.00  0.00     0.095 C 
ATOM    105  O   UNL A   1      38.860  20.235  25.312  1.00  0.00    -0.274 OA
ATOM    106  C   UNL A   1      41.325  23.650  26.824  1.00  0.00     0.002 C 
ATOM    107  C   UNL A   1      41.304  21.443  27.292  1.00  0.00     0.002 C 
ATOM    108  C   UNL A   1      42.390  23.040  25.860  1.00  0.00     0.005 C 
ATOM    109  C   UNL A   1      41.603  22.764  28.043  1.00  0.00     0.009 C 
ATOM    110  C   UNL A   1      42.294  21.522  26.135  1.00  0.00     0.005 C 
ENDBRANCH  98  99
ENDBRANCH  91  93
ENDBRANCH  85  89
ENDBRANCH  81  83
ENDBRANCH  80  81
ENDBRANCH  79  80
ENDBRANCH  78  79
ENDBRANCH  77  78
ENDBRANCH  76  77
ENDBRANCH  75  76
ENDBRANCH   1  75
TORSDOF 26
ENDMDL
