MODEL 1
REMARK VINA RESULT:     -10.6      0.000      0.000
REMARK SMILES C[C@@H]1[C@@H](C(=O)OCCOCCOCCOCCOC(=O)c2ccc(-c3c4nc(c(-c5cc(S(=O)(=O)[O-])ccc5F)c5ccc([nH]5)c(-c5cc(S(=O)(=O)[O-])ccc5F)c5nc(c(-c6cc(S(=O)(=O)[O-])ccc6F)c6ccc3[nH]6)C=C5)C=C4)cc2)CCN1C(=O)N1CCC[C@H]2CCC[C@@H]21
REMARK SMILES IDX 13 1 12 2 11 3 10 4 9 5 8 6 7 7 6 8 4 9 5 10 3 11 1 12 2 13
REMARK SMILES IDX 86 14 84 15 85 16 87 17 88 18 89 19 90 20 97 21 91 22 93 23
REMARK SMILES IDX 96 24 92 25 94 26 95 27 14 28 15 29 16 30 17 31 18 32 19 33
REMARK SMILES IDX 20 34 21 35 22 36 83 37 23 38 82 39 24 40 25 41 26 42 76 43
REMARK SMILES IDX 27 44 81 45 75 46 77 47 28 48 80 49 74 50 73 51 29 53 61 54
REMARK SMILES IDX 41 55 60 56 42 57 45 58 59 59 78 60 43 61 44 62 58 64 79 65
REMARK SMILES IDX 46 66 30 67 31 68 39 69 32 70 38 71 40 72 37 73 33 74 34 75
REMARK SMILES IDX 35 76 36 77 62 78 63 79 71 80 64 81 70 82 72 83 69 84 65 85
REMARK SMILES IDX 66 86 67 87 68 88 47 89 48 90 56 91 49 92 55 93 57 94 54 95
REMARK SMILES IDX 50 96 51 97 52 98 53 99
REMARK H PARENT 77 52 45 63
REMARK Flexibility Score: inf
ROOT
ATOM      1  C   UNL A   1      33.960  34.710  28.515  1.00  0.00     0.188 C 
ENDROOT
BRANCH   1   2
ATOM      2  O   UNL A   1      34.647  33.949  27.529  1.00  0.00    -0.377 OA
BRANCH   2   3
ATOM      3  C   UNL A   1      35.327  32.806  27.997  1.00  0.00     0.188 C 
BRANCH   3   4
ATOM      4  C   UNL A   1      34.524  31.504  27.830  1.00  0.00     0.188 C 
BRANCH   4   5
ATOM      5  O   UNL A   1      33.113  31.495  27.662  1.00  0.00    -0.376 OA
BRANCH   5   6
ATOM      6  C   UNL A   1      32.395  30.490  26.961  1.00  0.00     0.202 C 
BRANCH   6   7
ATOM      7  C   UNL A   1      33.030  29.387  26.095  1.00  0.00     0.261 C 
BRANCH   7   8
ATOM      8  O   UNL A   1      32.143  28.445  25.505  1.00  0.00    -0.463 OA
BRANCH   8   9
ATOM      9  C   UNL A   1      32.587  27.929  24.335  1.00  0.00     0.311 C 
ATOM     10  O   UNL A   1      33.761  27.876  24.004  1.00  0.00    -0.252 OA
BRANCH   9  11
ATOM     11  C   UNL A   1      31.422  27.341  23.564  1.00  0.00     0.123 C 
ATOM     12  C   UNL A   1      29.085  26.523  23.984  1.00  0.00     0.032 C 
ATOM     13  C   UNL A   1      30.522  26.550  24.516  1.00  0.00     0.098 C 
ATOM     14  N   UNL A   1      31.169  25.231  24.546  1.00  0.00    -0.321 N 
ATOM     15  C   UNL A   1      31.868  26.313  22.543  1.00  0.00     0.039 C 
ATOM     16  C   UNL A   1      32.044  25.061  23.388  1.00  0.00     0.122 C 
BRANCH  14  17
ATOM     17  C   UNL A   1      31.521  24.562  25.719  1.00  0.00     0.320 C 
ATOM     18  O   UNL A   1      30.753  24.452  26.673  1.00  0.00    -0.248 OA
BRANCH  17  19
ATOM     19  N   UNL A   1      32.754  23.949  25.699  1.00  0.00    -0.321 N 
ATOM     20  C   UNL A   1      33.942  24.663  26.148  1.00  0.00     0.121 C 
ATOM     21  C   UNL A   1      32.900  22.503  25.735  1.00  0.00     0.090 C 
ATOM     22  C   UNL A   1      35.172  24.290  25.314  1.00  0.00     0.022 C 
ATOM     23  C   UNL A   1      34.020  22.137  24.753  1.00  0.00     0.012 C 
ATOM     24  C   UNL A   1      31.767  21.597  25.260  1.00  0.00     0.025 C 
ATOM     25  C   UNL A   1      35.341  22.767  25.184  1.00  0.00     0.007 C 
ATOM     26  C   UNL A   1      33.964  20.621  24.710  1.00  0.00     0.006 C 
ATOM     27  C   UNL A   1      32.468  20.300  24.826  1.00  0.00     0.002 C 
ENDBRANCH  17  19
ENDBRANCH  14  17
ENDBRANCH   9  11
ENDBRANCH   8   9
ENDBRANCH   7   8
ENDBRANCH   6   7
ENDBRANCH   5   6
ENDBRANCH   4   5
ENDBRANCH   3   4
ENDBRANCH   2   3
ENDBRANCH   1   2
BRANCH   1  28
ATOM     28  C   UNL A   1      34.246  34.406  30.004  1.00  0.00     0.188 C 
BRANCH  28  29
ATOM     29  O   UNL A   1      33.443  35.148  30.916  1.00  0.00    -0.376 OA
BRANCH  29  30
ATOM     30  C   UNL A   1      33.580  34.871  32.301  1.00  0.00     0.202 C 
BRANCH  30  31
ATOM     31  C   UNL A   1      34.978  34.447  32.779  1.00  0.00     0.261 C 
BRANCH  31  32
ATOM     32  O   UNL A   1      35.286  33.050  32.660  1.00  0.00    -0.460 OA
BRANCH  32  33
ATOM     33  C   UNL A   1      36.295  32.577  33.431  1.00  0.00     0.338 C 
ATOM     34  O   UNL A   1      36.365  32.622  34.640  1.00  0.00    -0.246 OA
BRANCH  33  35
ATOM     35  C   UNL A   1      37.202  31.799  32.555  1.00  0.00     0.060 A 
ATOM     36  C   UNL A   1      38.083  30.883  33.143  1.00  0.00     0.016 A 
ATOM     37  C   UNL A   1      37.175  31.966  31.168  1.00  0.00     0.016 A 
ATOM     38  C   UNL A   1      38.972  30.159  32.348  1.00  0.00     0.010 A 
ATOM     39  C   UNL A   1      38.083  31.258  30.375  1.00  0.00     0.010 A 
ATOM     40  C   UNL A   1      39.010  30.380  30.965  1.00  0.00    -0.014 A 
BRANCH  40  41
ATOM     41  C   UNL A   1      40.155  29.866  30.171  1.00  0.00     0.031 A 
ATOM     42  C   UNL A   1      41.341  30.770  29.975  1.00  0.00     0.074 A 
ATOM     43  C   UNL A   1      40.158  28.621  29.663  1.00  0.00     0.049 A 
ATOM     44  N   UNL A   1      42.430  30.579  29.279  1.00  0.00    -0.248 NA
ATOM     45  C   UNL A   1      41.283  32.073  30.659  1.00  0.00     0.031 C 
ATOM     46  C   UNL A   1      39.095  27.633  29.835  1.00  0.00     0.029 A 
ATOM     47  N   UNL A   1      41.094  27.978  28.889  1.00  0.00    -0.354 N 
ATOM     48  C   UNL A   1      43.186  31.737  29.434  1.00  0.00     0.074 A 
ATOM     49  C   UNL A   1      42.410  32.640  30.257  1.00  0.00     0.031 C 
ATOM     50  C   UNL A   1      39.433  26.511  29.176  1.00  0.00     0.029 A 
ATOM     51  C   UNL A   1      40.715  26.713  28.500  1.00  0.00     0.049 A 
ATOM     52  H   UNL A   1      41.954  28.383  28.637  1.00  0.00     0.167 HD
ATOM     53  C   UNL A   1      44.418  32.018  28.943  1.00  0.00     0.034 A 
ATOM     54  C   UNL A   1      41.320  25.837  27.671  1.00  0.00     0.034 A 
ATOM     55  C   UNL A   1      45.171  31.113  28.111  1.00  0.00     0.049 A 
ATOM     56  C   UNL A   1      42.646  26.214  27.047  1.00  0.00     0.074 A 
ATOM     57  C   UNL A   1      46.430  31.291  27.564  1.00  0.00     0.029 A 
ATOM     58  N   UNL A   1      44.732  29.863  27.693  1.00  0.00    -0.354 N 
ATOM     59  N   UNL A   1      43.353  27.311  27.203  1.00  0.00    -0.248 NA
ATOM     60  C   UNL A   1      43.257  25.231  26.143  1.00  0.00     0.031 C 
ATOM     61  C   UNL A   1      46.713  30.191  26.749  1.00  0.00     0.029 A 
ATOM     62  C   UNL A   1      45.676  29.279  26.863  1.00  0.00     0.049 A 
ATOM     63  H   UNL A   1      43.874  29.452  27.948  1.00  0.00     0.167 HD
ATOM     64  C   UNL A   1      44.508  27.129  26.444  1.00  0.00     0.074 A 
ATOM     65  C   UNL A   1      44.409  25.814  25.846  1.00  0.00     0.031 C 
ATOM     66  C   UNL A   1      45.561  27.969  26.265  1.00  0.00     0.034 A 
BRANCH  53  67
ATOM     67  C   UNL A   1      44.991  33.381  29.247  1.00  0.00     0.023 A 
ATOM     68  C   UNL A   1      45.879  33.593  30.316  1.00  0.00     0.031 A 
ATOM     69  C   UNL A   1      44.619  34.494  28.470  1.00  0.00     0.131 A 
ATOM     70  C   UNL A   1      46.306  34.893  30.624  1.00  0.00     0.055 A 
ATOM     71  C   UNL A   1      45.118  35.772  28.729  1.00  0.00     0.041 A 
ATOM     72  F   UNL A   1      43.754  34.360  27.454  1.00  0.00    -0.206 F 
ATOM     73  C   UNL A   1      45.954  35.980  29.821  1.00  0.00     0.022 A 
BRANCH  70  74
ATOM     74  S   UNL A   1      47.203  35.166  32.178  1.00  0.00     0.124 S 
ATOM     75  O   UNL A   1      46.193  34.797  33.168  1.00  0.00    -0.237 OA
ATOM     76  O   UNL A   1      48.335  34.257  32.052  1.00  0.00    -0.237 OA
ATOM     77  O   UNL A   1      47.534  36.588  32.138  1.00  0.00    -0.744 OA
ENDBRANCH  70  74
ENDBRANCH  53  67
BRANCH  54  78
ATOM     78  C   UNL A   1      40.670  24.534  27.335  1.00  0.00     0.023 A 
ATOM     79  C   UNL A   1      41.331  23.315  27.552  1.00  0.00     0.031 A 
ATOM     80  C   UNL A   1      39.404  24.496  26.724  1.00  0.00     0.131 A 
ATOM     81  C   UNL A   1      40.748  22.115  27.113  1.00  0.00     0.055 A 
ATOM     82  C   UNL A   1      38.801  23.295  26.347  1.00  0.00     0.041 A 
ATOM     83  F   UNL A   1      38.731  25.633  26.484  1.00  0.00    -0.206 F 
ATOM     84  C   UNL A   1      39.481  22.095  26.526  1.00  0.00     0.022 A 
BRANCH  81  85
ATOM     85  S   UNL A   1      41.719  20.586  27.224  1.00  0.00     0.124 S 
ATOM     86  O   UNL A   1      41.926  20.265  25.817  1.00  0.00    -0.237 OA
ATOM     87  O   UNL A   1      42.896  21.028  27.963  1.00  0.00    -0.237 OA
ATOM     88  O   UNL A   1      40.835  19.675  27.950  1.00  0.00    -0.744 OA
ENDBRANCH  81  85
ENDBRANCH  54  78
BRANCH  66  89
ATOM     89  C   UNL A   1      46.717  27.464  25.431  1.00  0.00     0.023 A 
ATOM     90  C   UNL A   1      46.950  27.924  24.122  1.00  0.00     0.031 A 
ATOM     91  C   UNL A   1      47.601  26.504  25.958  1.00  0.00     0.131 A 
ATOM     92  C   UNL A   1      48.001  27.381  23.366  1.00  0.00     0.055 A 
ATOM     93  C   UNL A   1      48.686  26.019  25.226  1.00  0.00     0.041 A 
ATOM     94  F   UNL A   1      47.428  26.025  27.200  1.00  0.00    -0.206 F 
ATOM     95  C   UNL A   1      48.881  26.446  23.917  1.00  0.00     0.022 A 
BRANCH  92  96
ATOM     96  S   UNL A   1      48.139  27.833  21.615  1.00  0.00     0.124 S 
ATOM     97  O   UNL A   1      48.376  26.538  20.986  1.00  0.00    -0.237 OA
ATOM     98  O   UNL A   1      46.841  28.445  21.348  1.00  0.00    -0.237 OA
ATOM     99  O   UNL A   1      49.274  28.754  21.587  1.00  0.00    -0.744 OA
ENDBRANCH  92  96
ENDBRANCH  66  89
ENDBRANCH  40  41
ENDBRANCH  33  35
ENDBRANCH  32  33
ENDBRANCH  31  32
ENDBRANCH  30  31
ENDBRANCH  29  30
ENDBRANCH  28  29
ENDBRANCH   1  28
TORSDOF 25
ENDMDL
MODEL 2
REMARK VINA RESULT:      -9.5      3.654      8.658
REMARK SMILES C[C@@H]1[C@@H](C(=O)OCCOCCOCCOCCOC(=O)c2ccc(-c3c4nc(c(-c5cc(S(=O)(=O)[O-])ccc5F)c5ccc([nH]5)c(-c5cc(S(=O)(=O)[O-])ccc5F)c5nc(c(-c6cc(S(=O)(=O)[O-])ccc6F)c6ccc3[nH]6)C=C5)C=C4)cc2)CCN1C(=O)N1CCC[C@H]2CCC[C@@H]21
REMARK SMILES IDX 13 1 12 2 11 3 10 4 9 5 8 6 7 7 6 8 4 9 5 10 3 11 1 12 2 13
REMARK SMILES IDX 86 14 84 15 85 16 87 17 88 18 89 19 90 20 97 21 91 22 93 23
REMARK SMILES IDX 96 24 92 25 94 26 95 27 14 28 15 29 16 30 17 31 18 32 19 33
REMARK SMILES IDX 20 34 21 35 22 36 83 37 23 38 82 39 24 40 25 41 26 42 76 43
REMARK SMILES IDX 27 44 81 45 75 46 77 47 28 48 80 49 74 50 73 51 29 53 61 54
REMARK SMILES IDX 41 55 60 56 42 57 45 58 59 59 78 60 43 61 44 62 58 64 79 65
REMARK SMILES IDX 46 66 30 67 31 68 39 69 32 70 38 71 40 72 37 73 33 74 34 75
REMARK SMILES IDX 35 76 36 77 62 78 63 79 71 80 64 81 70 82 72 83 69 84 65 85
REMARK SMILES IDX 66 86 67 87 68 88 47 89 48 90 56 91 49 92 55 93 57 94 54 95
REMARK SMILES IDX 50 96 51 97 52 98 53 99
REMARK H PARENT 77 52 45 63
REMARK Flexibility Score: inf
ROOT
ATOM      1  C   UNL A   1      34.452  32.994  28.713  1.00  0.00     0.188 C 
ENDROOT
BRANCH   1   2
ATOM      2  O   UNL A   1      35.417  32.236  27.993  1.00  0.00    -0.377 OA
BRANCH   2   3
ATOM      3  C   UNL A   1      35.532  30.879  28.358  1.00  0.00     0.188 C 
BRANCH   3   4
ATOM      4  C   UNL A   1      34.898  29.915  27.341  1.00  0.00     0.188 C 
BRANCH   4   5
ATOM      5  O   UNL A   1      33.628  30.155  26.753  1.00  0.00    -0.376 OA
BRANCH   5   6
ATOM      6  C   UNL A   1      33.010  29.302  25.798  1.00  0.00     0.202 C 
BRANCH   6   7
ATOM      7  C   UNL A   1      33.443  29.159  24.328  1.00  0.00     0.261 C 
BRANCH   7   8
ATOM      8  O   UNL A   1      33.837  27.861  23.900  1.00  0.00    -0.463 OA
BRANCH   8   9
ATOM      9  C   UNL A   1      33.420  27.543  22.653  1.00  0.00     0.311 C 
ATOM     10  O   UNL A   1      34.053  27.768  21.634  1.00  0.00    -0.252 OA
BRANCH   9  11
ATOM     11  C   UNL A   1      32.113  26.780  22.732  1.00  0.00     0.123 C 
ATOM     12  C   UNL A   1      30.787  25.452  24.403  1.00  0.00     0.032 C 
ATOM     13  C   UNL A   1      32.189  25.746  23.859  1.00  0.00     0.098 C 
ATOM     14  N   UNL A   1      32.822  24.597  23.196  1.00  0.00    -0.321 N 
ATOM     15  C   UNL A   1      31.855  25.949  21.490  1.00  0.00     0.039 C 
ATOM     16  C   UNL A   1      32.690  24.703  21.744  1.00  0.00     0.122 C 
BRANCH  14  17
ATOM     17  C   UNL A   1      33.944  23.932  23.691  1.00  0.00     0.320 C 
ATOM     18  O   UNL A   1      35.064  24.071  23.201  1.00  0.00    -0.248 OA
BRANCH  17  19
ATOM     19  N   UNL A   1      33.731  23.184  24.827  1.00  0.00    -0.321 N 
ATOM     20  C   UNL A   1      33.815  23.801  26.144  1.00  0.00     0.121 C 
ATOM     21  C   UNL A   1      32.952  21.957  24.811  1.00  0.00     0.090 C 
ATOM     22  C   UNL A   1      34.417  22.843  27.177  1.00  0.00     0.022 C 
ATOM     23  C   UNL A   1      33.675  20.950  25.714  1.00  0.00     0.012 C 
ATOM     24  C   UNL A   1      32.794  21.156  23.522  1.00  0.00     0.025 C 
ATOM     25  C   UNL A   1      33.739  21.463  27.149  1.00  0.00     0.007 C 
ATOM     26  C   UNL A   1      32.910  19.660  25.479  1.00  0.00     0.006 C 
ATOM     27  C   UNL A   1      32.531  19.716  23.993  1.00  0.00     0.002 C 
ENDBRANCH  17  19
ENDBRANCH  14  17
ENDBRANCH   9  11
ENDBRANCH   8   9
ENDBRANCH   7   8
ENDBRANCH   6   7
ENDBRANCH   5   6
ENDBRANCH   4   5
ENDBRANCH   3   4
ENDBRANCH   2   3
ENDBRANCH   1   2
BRANCH   1  28
ATOM     28  C   UNL A   1      34.867  33.601  30.073  1.00  0.00     0.188 C 
BRANCH  28  29
ATOM     29  O   UNL A   1      34.218  33.013  31.197  1.00  0.00    -0.376 OA
BRANCH  29  30
ATOM     30  C   UNL A   1      35.029  32.403  32.190  1.00  0.00     0.202 C 
BRANCH  30  31
ATOM     31  C   UNL A   1      36.484  32.103  31.796  1.00  0.00     0.261 C 
BRANCH  31  32
ATOM     32  O   UNL A   1      36.824  30.716  31.652  1.00  0.00    -0.460 OA
BRANCH  32  33
ATOM     33  C   UNL A   1      37.814  30.242  32.445  1.00  0.00     0.338 C 
ATOM     34  O   UNL A   1      37.687  29.519  33.409  1.00  0.00    -0.246 OA
BRANCH  33  35
ATOM     35  C   UNL A   1      39.105  30.582  31.803  1.00  0.00     0.060 A 
ATOM     36  C   UNL A   1      40.122  31.139  32.589  1.00  0.00     0.016 A 
ATOM     37  C   UNL A   1      39.311  30.347  30.441  1.00  0.00     0.016 A 
ATOM     38  C   UNL A   1      41.337  31.501  32.007  1.00  0.00     0.010 A 
ATOM     39  C   UNL A   1      40.520  30.732  29.855  1.00  0.00     0.010 A 
ATOM     40  C   UNL A   1      41.524  31.344  30.628  1.00  0.00    -0.014 A 
BRANCH  40  41
ATOM     41  C   UNL A   1      42.667  32.018  29.961  1.00  0.00     0.031 A 
ATOM     42  C   UNL A   1      43.878  31.190  29.626  1.00  0.00     0.074 A 
ATOM     43  C   UNL A   1      42.624  33.321  29.633  1.00  0.00     0.049 A 
ATOM     44  N   UNL A   1      45.018  31.553  29.101  1.00  0.00    -0.248 NA
ATOM     45  C   UNL A   1      43.785  29.752  29.933  1.00  0.00     0.031 C 
ATOM     46  C   UNL A   1      41.486  34.212  29.852  1.00  0.00     0.029 A 
ATOM     47  N   UNL A   1      43.572  34.124  29.047  1.00  0.00    -0.354 N 
ATOM     48  C   UNL A   1      45.783  30.393  29.019  1.00  0.00     0.074 A 
ATOM     49  C   UNL A   1      44.989  29.324  29.587  1.00  0.00     0.031 C 
ATOM     50  C   UNL A   1      41.806  35.442  29.414  1.00  0.00     0.029 A 
ATOM     51  C   UNL A   1      43.185  35.439  28.925  1.00  0.00     0.049 A 
ATOM     52  H   UNL A   1      44.446  33.790  28.742  1.00  0.00     0.167 HD
ATOM     53  C   UNL A   1      47.028  30.233  28.509  1.00  0.00     0.034 A 
ATOM     54  C   UNL A   1      43.876  36.516  28.497  1.00  0.00     0.034 A 
ATOM     55  C   UNL A   1      47.811  31.312  27.962  1.00  0.00     0.049 A 
ATOM     56  C   UNL A   1      45.303  36.334  28.031  1.00  0.00     0.074 A 
ATOM     57  C   UNL A   1      49.081  31.263  27.412  1.00  0.00     0.029 A 
ATOM     58  N   UNL A   1      47.408  32.640  27.905  1.00  0.00    -0.354 N 
ATOM     59  N   UNL A   1      46.016  35.231  27.955  1.00  0.00    -0.248 NA
ATOM     60  C   UNL A   1      46.016  37.538  27.586  1.00  0.00     0.031 C 
ATOM     61  C   UNL A   1      49.476  32.568  27.104  1.00  0.00     0.029 A 
ATOM     62  C   UNL A   1      48.419  33.423  27.369  1.00  0.00     0.049 A 
ATOM     63  H   UNL A   1      46.532  32.977  28.204  1.00  0.00     0.167 HD
ATOM     64  C   UNL A   1      47.245  35.610  27.418  1.00  0.00     0.074 A 
ATOM     65  C   UNL A   1      47.171  37.036  27.177  1.00  0.00     0.031 C 
ATOM     66  C   UNL A   1      48.335  34.848  27.141  1.00  0.00     0.034 A 
BRANCH  53  67
ATOM     67  C   UNL A   1      47.634  28.852  28.579  1.00  0.00     0.023 A 
ATOM     68  C   UNL A   1      47.514  27.933  27.522  1.00  0.00     0.031 A 
ATOM     69  C   UNL A   1      48.317  28.438  29.737  1.00  0.00     0.131 A 
ATOM     70  C   UNL A   1      48.004  26.627  27.672  1.00  0.00     0.055 A 
ATOM     71  C   UNL A   1      48.879  27.164  29.844  1.00  0.00     0.041 A 
ATOM     72  F   UNL A   1      48.440  29.260  30.790  1.00  0.00    -0.206 F 
ATOM     73  C   UNL A   1      48.710  26.244  28.814  1.00  0.00     0.022 A 
BRANCH  70  74
ATOM     74  S   UNL A   1      47.571  25.390  26.416  1.00  0.00     0.124 S 
ATOM     75  O   UNL A   1      48.657  25.558  25.452  1.00  0.00    -0.237 OA
ATOM     76  O   UNL A   1      47.581  24.148  27.179  1.00  0.00    -0.237 OA
ATOM     77  O   UNL A   1      46.258  25.825  25.945  1.00  0.00    -0.744 OA
ENDBRANCH  70  74
ENDBRANCH  53  67
BRANCH  54  78
ATOM     78  C   UNL A   1      43.259  37.876  28.526  1.00  0.00     0.023 A 
ATOM     79  C   UNL A   1      43.446  38.736  29.619  1.00  0.00     0.031 A 
ATOM     80  C   UNL A   1      42.412  38.307  27.489  1.00  0.00     0.131 A 
ATOM     81  C   UNL A   1      42.755  39.958  29.676  1.00  0.00     0.055 A 
ATOM     82  C   UNL A   1      41.776  39.550  27.520  1.00  0.00     0.041 A 
ATOM     83  F   UNL A   1      42.189  37.521  26.423  1.00  0.00    -0.206 F 
ATOM     84  C   UNL A   1      41.934  40.377  28.627  1.00  0.00     0.022 A 
BRANCH  81  85
ATOM     85  S   UNL A   1      42.861  40.947  31.194  1.00  0.00     0.124 S 
ATOM     86  O   UNL A   1      41.464  41.303  31.412  1.00  0.00    -0.237 OA
ATOM     87  O   UNL A   1      43.436  39.993  32.137  1.00  0.00    -0.237 OA
ATOM     88  O   UNL A   1      43.738  42.054  30.817  1.00  0.00    -0.744 OA
ENDBRANCH  81  85
ENDBRANCH  54  78
BRANCH  66  89
ATOM     89  C   UNL A   1      49.516  35.534  26.491  1.00  0.00     0.023 A 
ATOM     90  C   UNL A   1      50.600  36.023  27.241  1.00  0.00     0.031 A 
ATOM     91  C   UNL A   1      49.553  35.700  25.094  1.00  0.00     0.131 A 
ATOM     92  C   UNL A   1      51.644  36.706  26.598  1.00  0.00     0.055 A 
ATOM     93  C   UNL A   1      50.628  36.319  24.453  1.00  0.00     0.041 A 
ATOM     94  F   UNL A   1      48.545  35.257  24.326  1.00  0.00    -0.206 F 
ATOM     95  C   UNL A   1      51.674  36.840  25.207  1.00  0.00     0.022 A 
BRANCH  92  96
ATOM     96  S   UNL A   1      52.913  37.514  27.612  1.00  0.00     0.124 S 
ATOM     97  O   UNL A   1      53.412  38.546  26.708  1.00  0.00    -0.237 OA
ATOM     98  O   UNL A   1      52.142  37.987  28.757  1.00  0.00    -0.237 OA
ATOM     99  O   UNL A   1      53.856  36.436  27.904  1.00  0.00    -0.744 OA
ENDBRANCH  92  96
ENDBRANCH  66  89
ENDBRANCH  40  41
ENDBRANCH  33  35
ENDBRANCH  32  33
ENDBRANCH  31  32
ENDBRANCH  30  31
ENDBRANCH  29  30
ENDBRANCH  28  29
ENDBRANCH   1  28
TORSDOF 25
ENDMDL
MODEL 3
REMARK VINA RESULT:      -9.4      4.953     12.187
REMARK SMILES C[C@@H]1[C@@H](C(=O)OCCOCCOCCOCCOC(=O)c2ccc(-c3c4nc(c(-c5cc(S(=O)(=O)[O-])ccc5F)c5ccc([nH]5)c(-c5cc(S(=O)(=O)[O-])ccc5F)c5nc(c(-c6cc(S(=O)(=O)[O-])ccc6F)c6ccc3[nH]6)C=C5)C=C4)cc2)CCN1C(=O)N1CCC[C@H]2CCC[C@@H]21
REMARK SMILES IDX 13 1 12 2 11 3 10 4 9 5 8 6 7 7 6 8 4 9 5 10 3 11 1 12 2 13
REMARK SMILES IDX 86 14 84 15 85 16 87 17 88 18 89 19 90 20 97 21 91 22 93 23
REMARK SMILES IDX 96 24 92 25 94 26 95 27 14 28 15 29 16 30 17 31 18 32 19 33
REMARK SMILES IDX 20 34 21 35 22 36 83 37 23 38 82 39 24 40 25 41 26 42 76 43
REMARK SMILES IDX 27 44 81 45 75 46 77 47 28 48 80 49 74 50 73 51 29 53 61 54
REMARK SMILES IDX 41 55 60 56 42 57 45 58 59 59 78 60 43 61 44 62 58 64 79 65
REMARK SMILES IDX 46 66 30 67 31 68 39 69 32 70 38 71 40 72 37 73 33 74 34 75
REMARK SMILES IDX 35 76 36 77 62 78 63 79 71 80 64 81 70 82 72 83 69 84 65 85
REMARK SMILES IDX 66 86 67 87 68 88 47 89 48 90 56 91 49 92 55 93 57 94 54 95
REMARK SMILES IDX 50 96 51 97 52 98 53 99
REMARK H PARENT 77 52 45 63
REMARK Flexibility Score: inf
ROOT
ATOM      1  C   UNL A   1      40.285  22.373  26.949  1.00  0.00     0.188 C 
ENDROOT
BRANCH   1   2
ATOM      2  O   UNL A   1      40.729  23.678  26.599  1.00  0.00    -0.377 OA
BRANCH   2   3
ATOM      3  C   UNL A   1      40.671  24.645  27.623  1.00  0.00     0.188 C 
BRANCH   3   4
ATOM      4  C   UNL A   1      39.327  25.393  27.684  1.00  0.00     0.188 C 
BRANCH   4   5
ATOM      5  O   UNL A   1      39.166  26.615  28.389  1.00  0.00    -0.376 OA
BRANCH   5   6
ATOM      6  C   UNL A   1      40.193  27.252  29.137  1.00  0.00     0.202 C 
BRANCH   6   7
ATOM      7  C   UNL A   1      40.700  28.686  28.901  1.00  0.00     0.261 C 
BRANCH   7   8
ATOM      8  O   UNL A   1      40.035  29.726  29.608  1.00  0.00    -0.463 OA
BRANCH   8   9
ATOM      9  C   UNL A   1      40.505  29.928  30.860  1.00  0.00     0.311 C 
ATOM     10  O   UNL A   1      41.628  30.328  31.121  1.00  0.00    -0.252 OA
BRANCH   9  11
ATOM     11  C   UNL A   1      39.397  29.684  31.865  1.00  0.00     0.123 C 
ATOM     12  C   UNL A   1      36.907  29.962  32.052  1.00  0.00     0.032 C 
ATOM     13  C   UNL A   1      38.209  30.597  31.552  1.00  0.00     0.098 C 
ATOM     14  N   UNL A   1      38.569  31.840  32.249  1.00  0.00    -0.321 N 
ATOM     15  C   UNL A   1      39.800  30.077  33.273  1.00  0.00     0.039 C 
ATOM     16  C   UNL A   1      39.579  31.581  33.274  1.00  0.00     0.122 C 
BRANCH  14  17
ATOM     17  C   UNL A   1      38.577  33.098  31.646  1.00  0.00     0.320 C 
ATOM     18  O   UNL A   1      39.607  33.628  31.234  1.00  0.00    -0.248 OA
BRANCH  17  19
ATOM     19  N   UNL A   1      37.336  33.666  31.455  1.00  0.00    -0.321 N 
ATOM     20  C   UNL A   1      36.783  34.580  32.445  1.00  0.00     0.121 C 
ATOM     21  C   UNL A   1      36.750  33.819  30.134  1.00  0.00     0.090 C 
ATOM     22  C   UNL A   1      35.265  34.414  32.578  1.00  0.00     0.022 C 
ATOM     23  C   UNL A   1      35.261  33.471  30.258  1.00  0.00     0.012 C 
ATOM     24  C   UNL A   1      37.182  32.914  28.984  1.00  0.00     0.025 C 
ATOM     25  C   UNL A   1      34.560  34.434  31.212  1.00  0.00     0.007 C 
ATOM     26  C   UNL A   1      34.785  33.464  28.817  1.00  0.00     0.006 C 
ATOM     27  C   UNL A   1      35.976  32.897  28.032  1.00  0.00     0.002 C 
ENDBRANCH  17  19
ENDBRANCH  14  17
ENDBRANCH   9  11
ENDBRANCH   8   9
ENDBRANCH   7   8
ENDBRANCH   6   7
ENDBRANCH   5   6
ENDBRANCH   4   5
ENDBRANCH   3   4
ENDBRANCH   2   3
ENDBRANCH   1   2
BRANCH   1  28
ATOM     28  C   UNL A   1      41.285  21.425  27.651  1.00  0.00     0.188 C 
BRANCH  28  29
ATOM     29  O   UNL A   1      42.639  21.600  27.245  1.00  0.00    -0.376 OA
BRANCH  29  30
ATOM     30  C   UNL A   1      42.975  21.298  25.899  1.00  0.00     0.202 C 
BRANCH  30  31
ATOM     31  C   UNL A   1      44.161  22.071  25.300  1.00  0.00     0.261 C 
BRANCH  31  32
ATOM     32  O   UNL A   1      43.941  23.467  25.049  1.00  0.00    -0.460 OA
BRANCH  32  33
ATOM     33  C   UNL A   1      45.040  24.246  24.910  1.00  0.00     0.338 C 
ATOM     34  O   UNL A   1      45.932  24.103  24.102  1.00  0.00    -0.246 OA
BRANCH  33  35
ATOM     35  C   UNL A   1      44.861  25.435  25.775  1.00  0.00     0.060 A 
ATOM     36  C   UNL A   1      45.982  25.976  26.417  1.00  0.00     0.016 A 
ATOM     37  C   UNL A   1      43.600  26.013  25.944  1.00  0.00     0.016 A 
ATOM     38  C   UNL A   1      45.839  27.076  27.264  1.00  0.00     0.010 A 
ATOM     39  C   UNL A   1      43.455  27.099  26.812  1.00  0.00     0.010 A 
ATOM     40  C   UNL A   1      44.568  27.612  27.503  1.00  0.00    -0.014 A 
BRANCH  40  41
ATOM     41  C   UNL A   1      44.369  28.552  28.636  1.00  0.00     0.031 A 
ATOM     42  C   UNL A   1      44.177  27.972  30.011  1.00  0.00     0.074 A 
ATOM     43  C   UNL A   1      44.389  29.885  28.457  1.00  0.00     0.049 A 
ATOM     44  N   UNL A   1      43.929  28.575  31.143  1.00  0.00    -0.248 NA
ATOM     45  C   UNL A   1      44.275  26.507  30.116  1.00  0.00     0.031 C 
ATOM     46  C   UNL A   1      44.625  30.565  27.185  1.00  0.00     0.029 A 
ATOM     47  N   UNL A   1      44.200  30.907  29.356  1.00  0.00    -0.354 N 
ATOM     48  C   UNL A   1      43.835  27.565  32.096  1.00  0.00     0.074 A 
ATOM     49  C   UNL A   1      44.012  26.310  31.398  1.00  0.00     0.031 C 
ATOM     50  C   UNL A   1      44.557  31.894  27.384  1.00  0.00     0.029 A 
ATOM     51  C   UNL A   1      44.230  32.158  28.785  1.00  0.00     0.049 A 
ATOM     52  H   UNL A   1      44.058  30.758  30.318  1.00  0.00     0.167 HD
ATOM     53  C   UNL A   1      43.628  27.675  33.431  1.00  0.00     0.034 A 
ATOM     54  C   UNL A   1      43.991  33.371  29.327  1.00  0.00     0.034 A 
ATOM     55  C   UNL A   1      43.438  28.934  34.108  1.00  0.00     0.049 A 
ATOM     56  C   UNL A   1      43.656  33.463  30.800  1.00  0.00     0.074 A 
ATOM     57  C   UNL A   1      43.227  29.163  35.457  1.00  0.00     0.029 A 
ATOM     58  N   UNL A   1      43.419  30.177  33.488  1.00  0.00    -0.354 N 
ATOM     59  N   UNL A   1      43.572  32.501  31.692  1.00  0.00    -0.248 NA
ATOM     60  C   UNL A   1      43.392  34.803  31.338  1.00  0.00     0.031 C 
ATOM     61  C   UNL A   1      42.998  30.529  35.639  1.00  0.00     0.029 A 
ATOM     62  C   UNL A   1      43.161  31.170  34.420  1.00  0.00     0.049 A 
ATOM     63  H   UNL A   1      43.567  30.330  32.527  1.00  0.00     0.167 HD
ATOM     64  C   UNL A   1      43.283  33.130  32.902  1.00  0.00     0.074 A 
ATOM     65  C   UNL A   1      43.222  34.550  32.627  1.00  0.00     0.031 C 
ATOM     66  C   UNL A   1      43.094  32.584  34.132  1.00  0.00     0.034 A 
BRANCH  53  67
ATOM     67  C   UNL A   1      43.540  26.395  34.227  1.00  0.00     0.023 A 
ATOM     68  C   UNL A   1      44.668  25.593  34.473  1.00  0.00     0.031 A 
ATOM     69  C   UNL A   1      42.299  25.955  34.722  1.00  0.00     0.131 A 
ATOM     70  C   UNL A   1      44.520  24.362  35.129  1.00  0.00     0.055 A 
ATOM     71  C   UNL A   1      42.174  24.770  35.450  1.00  0.00     0.041 A 
ATOM     72  F   UNL A   1      41.182  26.663  34.494  1.00  0.00    -0.206 F 
ATOM     73  C   UNL A   1      43.287  23.958  35.644  1.00  0.00     0.022 A 
BRANCH  70  74
ATOM     74  S   UNL A   1      45.934  23.225  35.165  1.00  0.00     0.124 S 
ATOM     75  O   UNL A   1      45.992  22.873  36.583  1.00  0.00    -0.237 OA
ATOM     76  O   UNL A   1      45.510  22.164  34.261  1.00  0.00    -0.237 OA
ATOM     77  O   UNL A   1      47.046  24.046  34.690  1.00  0.00    -0.744 OA
ENDBRANCH  70  74
ENDBRANCH  53  67
BRANCH  54  78
ATOM     78  C   UNL A   1      44.008  34.600  28.478  1.00  0.00     0.023 A 
ATOM     79  C   UNL A   1      45.216  35.199  28.090  1.00  0.00     0.031 A 
ATOM     80  C   UNL A   1      42.810  35.235  28.104  1.00  0.00     0.131 A 
ATOM     81  C   UNL A   1      45.202  36.421  27.398  1.00  0.00     0.055 A 
ATOM     82  C   UNL A   1      42.800  36.417  27.361  1.00  0.00     0.041 A 
ATOM     83  F   UNL A   1      41.624  34.712  28.456  1.00  0.00    -0.206 F 
ATOM     84  C   UNL A   1      44.002  37.026  27.017  1.00  0.00     0.022 A 
BRANCH  81  85
ATOM     85  S   UNL A   1      46.779  37.266  27.094  1.00  0.00     0.124 S 
ATOM     86  O   UNL A   1      47.692  36.140  26.942  1.00  0.00    -0.237 OA
ATOM     87  O   UNL A   1      46.487  38.024  25.882  1.00  0.00    -0.237 OA
ATOM     88  O   UNL A   1      46.971  38.070  28.299  1.00  0.00    -0.744 OA
ENDBRANCH  81  85
ENDBRANCH  54  78
BRANCH  66  89
ATOM     89  C   UNL A   1      42.860  33.534  35.284  1.00  0.00     0.023 A 
ATOM     90  C   UNL A   1      41.579  34.021  35.602  1.00  0.00     0.031 A 
ATOM     91  C   UNL A   1      43.941  33.960  36.078  1.00  0.00     0.131 A 
ATOM     92  C   UNL A   1      41.421  34.949  36.644  1.00  0.00     0.055 A 
ATOM     93  C   UNL A   1      43.767  34.829  37.157  1.00  0.00     0.041 A 
ATOM     94  F   UNL A   1      45.188  33.532  35.822  1.00  0.00    -0.206 F 
ATOM     95  C   UNL A   1      42.504  35.340  37.435  1.00  0.00     0.022 A 
BRANCH  92  96
ATOM     96  S   UNL A   1      39.798  35.721  36.884  1.00  0.00     0.124 S 
ATOM     97  O   UNL A   1      38.891  34.604  36.640  1.00  0.00    -0.237 OA
ATOM     98  O   UNL A   1      39.877  36.189  38.265  1.00  0.00    -0.237 OA
ATOM     99  O   UNL A   1      39.767  36.777  35.875  1.00  0.00    -0.744 OA
ENDBRANCH  92  96
ENDBRANCH  66  89
ENDBRANCH  40  41
ENDBRANCH  33  35
ENDBRANCH  32  33
ENDBRANCH  31  32
ENDBRANCH  30  31
ENDBRANCH  29  30
ENDBRANCH  28  29
ENDBRANCH   1  28
TORSDOF 25
ENDMDL
