MODEL 1
REMARK VINA RESULT:      -8.1      0.000      0.000
REMARK SMILES Cc1cc2c(c(C)c1Br)C=C(C(=O)OCCOCCOCCOCCOC(=O)c1ccc(-c3c4nc(c(-c5cc(S(=O)(=O)[O-])ccc5F)c5ccc([nH]5)c(-c5cc(S(=O)(=O)[O-])ccc5F)c5nc(c(-c6cc(S(=O)(=O)[O-])ccc6F)c6ccc3[nH]6)C=C5)C=C4)cc1)[C@@H](C(F)(F)F)O2
REMARK SMILES IDX 21 1 20 2 19 3 18 4 17 5 16 6 15 7 14 8 12 9 13 10 11 11
REMARK SMILES IDX 1 12 2 13 3 14 8 15 4 16 6 17 9 18 5 19 97 20 7 21 10 22
REMARK SMILES IDX 92 23 93 24 94 25 95 26 96 27 22 28 23 29 24 30 25 31 26 32
REMARK SMILES IDX 27 33 28 34 29 35 30 36 91 37 31 38 90 39 32 40 33 41 34 42
REMARK SMILES IDX 84 43 35 44 89 45 83 46 85 47 36 48 88 49 82 50 81 51 37 53
REMARK SMILES IDX 69 54 49 55 68 56 50 57 53 58 67 59 86 60 51 61 52 62 66 64
REMARK SMILES IDX 87 65 54 66 38 67 39 68 47 69 40 70 46 71 48 72 45 73 41 74
REMARK SMILES IDX 42 75 43 76 44 77 70 78 71 79 79 80 72 81 78 82 80 83 77 84
REMARK SMILES IDX 73 85 74 86 75 87 76 88 55 89 56 90 64 91 57 92 63 93 65 94
REMARK SMILES IDX 62 95 58 96 59 97 60 98 61 99
REMARK H PARENT 85 52 53 63
REMARK Flexibility Score: inf
ROOT
ATOM      1  C   UNL A   1      44.370  18.223  26.060  1.00  0.00     0.188 C 
ENDROOT
BRANCH   1   2
ATOM      2  O   UNL A   1      44.856  18.139  24.720  1.00  0.00    -0.377 OA
BRANCH   2   3
ATOM      3  C   UNL A   1      45.239  19.346  24.084  1.00  0.00     0.188 C 
BRANCH   3   4
ATOM      4  C   UNL A   1      44.478  20.573  24.619  1.00  0.00     0.188 C 
BRANCH   4   5
ATOM      5  O   UNL A   1      44.567  21.721  23.798  1.00  0.00    -0.376 OA
BRANCH   5   6
ATOM      6  C   UNL A   1      43.877  22.923  24.102  1.00  0.00     0.202 C 
BRANCH   6   7
ATOM      7  C   UNL A   1      44.478  24.162  24.798  1.00  0.00     0.261 C 
BRANCH   7   8
ATOM      8  O   UNL A   1      44.748  24.073  26.196  1.00  0.00    -0.460 OA
BRANCH   8   9
ATOM      9  C   UNL A   1      45.950  23.608  26.573  1.00  0.00     0.338 C 
ATOM     10  O   UNL A   1      46.669  22.841  25.958  1.00  0.00    -0.246 OA
BRANCH   9  11
ATOM     11  C   UNL A   1      46.345  24.347  27.792  1.00  0.00     0.087 C 
ATOM     12  C   UNL A   1      46.561  27.860  33.192  1.00  0.00     0.046 C 
ATOM     13  C   UNL A   1      46.325  26.778  32.174  1.00  0.00    -0.033 A 
ATOM     14  C   UNL A   1      47.217  26.677  31.099  1.00  0.00     0.051 A 
ATOM     15  C   UNL A   1      45.237  25.883  32.243  1.00  0.00     0.024 A 
ATOM     16  C   UNL A   1      46.973  25.796  30.050  1.00  0.00     0.128 A 
ATOM     17  C   UNL A   1      44.994  24.954  31.203  1.00  0.00    -0.026 A 
ATOM     18  Br  UNL A   1      44.072  25.985  33.759  1.00  0.00    -0.050 Br
ATOM     19  C   UNL A   1      45.837  24.983  30.062  1.00  0.00     0.021 A 
ATOM     20  O   UNL A   1      47.898  25.826  29.047  1.00  0.00    -0.475 OA
ATOM     21  C   UNL A   1      43.879  23.935  31.265  1.00  0.00     0.046 C 
ATOM     22  C   UNL A   1      45.516  24.252  28.840  1.00  0.00     0.027 C 
ATOM     23  C   UNL A   1      47.657  25.079  27.825  1.00  0.00     0.316 C 
BRANCH  23  24
ATOM     24  C   UNL A   1      47.820  26.047  26.646  1.00  0.00     0.430 C 
ATOM     25  F   UNL A   1      48.405  25.437  25.587  1.00  0.00    -0.167 F 
ATOM     26  F   UNL A   1      46.636  26.533  26.215  1.00  0.00    -0.167 F 
ATOM     27  F   UNL A   1      48.595  27.106  26.979  1.00  0.00    -0.167 F 
ENDBRANCH  23  24
ENDBRANCH   9  11
ENDBRANCH   8   9
ENDBRANCH   7   8
ENDBRANCH   6   7
ENDBRANCH   5   6
ENDBRANCH   4   5
ENDBRANCH   3   4
ENDBRANCH   2   3
ENDBRANCH   1   2
BRANCH   1  28
ATOM     28  C   UNL A   1      42.871  18.017  26.385  1.00  0.00     0.188 C 
BRANCH  28  29
ATOM     29  O   UNL A   1      42.273  19.099  27.093  1.00  0.00    -0.376 OA
BRANCH  29  30
ATOM     30  C   UNL A   1      41.109  19.689  26.535  1.00  0.00     0.202 C 
BRANCH  30  31
ATOM     31  C   UNL A   1      41.230  21.173  26.166  1.00  0.00     0.261 C 
BRANCH  31  32
ATOM     32  O   UNL A   1      40.690  22.097  27.121  1.00  0.00    -0.460 OA
BRANCH  32  33
ATOM     33  C   UNL A   1      39.866  23.060  26.653  1.00  0.00     0.338 C 
ATOM     34  O   UNL A   1      38.782  22.900  26.120  1.00  0.00    -0.246 OA
BRANCH  33  35
ATOM     35  C   UNL A   1      40.418  24.362  27.080  1.00  0.00     0.060 A 
ATOM     36  C   UNL A   1      40.925  24.492  28.381  1.00  0.00     0.016 A 
ATOM     37  C   UNL A   1      40.451  25.441  26.195  1.00  0.00     0.016 A 
ATOM     38  C   UNL A   1      41.439  25.718  28.807  1.00  0.00     0.010 A 
ATOM     39  C   UNL A   1      40.941  26.674  26.631  1.00  0.00     0.010 A 
ATOM     40  C   UNL A   1      41.409  26.825  27.949  1.00  0.00    -0.014 A 
BRANCH  40  41
ATOM     41  C   UNL A   1      41.649  28.182  28.496  1.00  0.00     0.031 A 
ATOM     42  C   UNL A   1      43.072  28.671  28.565  1.00  0.00     0.074 A 
ATOM     43  C   UNL A   1      40.636  28.978  28.884  1.00  0.00     0.049 A 
ATOM     44  N   UNL A   1      43.542  29.791  29.046  1.00  0.00    -0.248 NA
ATOM     45  C   UNL A   1      44.101  27.772  28.016  1.00  0.00     0.031 C 
ATOM     46  C   UNL A   1      39.216  28.643  28.800  1.00  0.00     0.029 A 
ATOM     47  N   UNL A   1      40.652  30.241  29.424  1.00  0.00    -0.354 N 
ATOM     48  C   UNL A   1      44.916  29.735  28.852  1.00  0.00     0.074 A 
ATOM     49  C   UNL A   1      45.210  28.458  28.242  1.00  0.00     0.031 C 
ATOM     50  C   UNL A   1      38.496  29.676  29.273  1.00  0.00     0.029 A 
ATOM     51  C   UNL A   1      39.403  30.730  29.729  1.00  0.00     0.049 A 
ATOM     52  H   UNL A   1      41.481  30.749  29.578  1.00  0.00     0.167 HD
ATOM     53  C   UNL A   1      45.849  30.671  29.146  1.00  0.00     0.034 A 
ATOM     54  C   UNL A   1      39.038  31.884  30.326  1.00  0.00     0.034 A 
ATOM     55  C   UNL A   1      45.549  31.937  29.759  1.00  0.00     0.049 A 
ATOM     56  C   UNL A   1      40.108  32.864  30.748  1.00  0.00     0.074 A 
ATOM     57  C   UNL A   1      46.424  32.953  30.100  1.00  0.00     0.029 A 
ATOM     58  N   UNL A   1      44.280  32.362  30.125  1.00  0.00    -0.354 N 
ATOM     59  N   UNL A   1      41.409  32.787  30.585  1.00  0.00    -0.248 NA
ATOM     60  C   UNL A   1      39.663  34.083  31.438  1.00  0.00     0.031 C 
ATOM     61  C   UNL A   1      45.694  33.961  30.735  1.00  0.00     0.029 A 
ATOM     62  C   UNL A   1      44.354  33.609  30.721  1.00  0.00     0.049 A 
ATOM     63  H   UNL A   1      43.450  31.851  29.983  1.00  0.00     0.167 HD
ATOM     64  C   UNL A   1      41.932  33.956  31.132  1.00  0.00     0.074 A 
ATOM     65  C   UNL A   1      40.808  34.726  31.622  1.00  0.00     0.031 C 
ATOM     66  C   UNL A   1      43.225  34.360  31.214  1.00  0.00     0.034 A 
BRANCH  53  67
ATOM     67  C   UNL A   1      47.286  30.346  28.843  1.00  0.00     0.023 A 
ATOM     68  C   UNL A   1      48.116  29.727  29.792  1.00  0.00     0.031 A 
ATOM     69  C   UNL A   1      47.821  30.628  27.574  1.00  0.00     0.131 A 
ATOM     70  C   UNL A   1      49.449  29.436  29.467  1.00  0.00     0.055 A 
ATOM     71  C   UNL A   1      49.130  30.282  27.237  1.00  0.00     0.041 A 
ATOM     72  F   UNL A   1      47.075  31.239  26.640  1.00  0.00    -0.206 F 
ATOM     73  C   UNL A   1      49.953  29.686  28.189  1.00  0.00     0.022 A 
BRANCH  70  74
ATOM     74  S   UNL A   1      50.537  28.782  30.761  1.00  0.00     0.124 S 
ATOM     75  O   UNL A   1      49.785  29.107  31.970  1.00  0.00    -0.237 OA
ATOM     76  O   UNL A   1      50.621  27.366  30.421  1.00  0.00    -0.237 OA
ATOM     77  O   UNL A   1      51.774  29.539  30.581  1.00  0.00    -0.744 OA
ENDBRANCH  70  74
ENDBRANCH  53  67
BRANCH  54  78
ATOM     78  C   UNL A   1      37.601  32.168  30.601  1.00  0.00     0.023 A 
ATOM     79  C   UNL A   1      36.739  32.603  29.582  1.00  0.00     0.031 A 
ATOM     80  C   UNL A   1      37.075  32.039  31.899  1.00  0.00     0.131 A 
ATOM     81  C   UNL A   1      35.404  32.918  29.881  1.00  0.00     0.055 A 
ATOM     82  C   UNL A   1      35.736  32.311  32.184  1.00  0.00     0.041 A 
ATOM     83  F   UNL A   1      37.858  31.630  32.910  1.00  0.00    -0.206 F 
ATOM     84  C   UNL A   1      34.893  32.760  31.173  1.00  0.00     0.022 A 
BRANCH  81  85
ATOM     85  S   UNL A   1      34.346  33.579  28.564  1.00  0.00     0.124 S 
ATOM     86  O   UNL A   1      33.503  32.430  28.257  1.00  0.00    -0.237 OA
ATOM     87  O   UNL A   1      33.690  34.698  29.233  1.00  0.00    -0.237 OA
ATOM     88  O   UNL A   1      35.298  33.955  27.520  1.00  0.00    -0.744 OA
ENDBRANCH  81  85
ENDBRANCH  54  78
BRANCH  66  89
ATOM     89  C   UNL A   1      43.504  35.705  31.833  1.00  0.00     0.023 A 
ATOM     90  C   UNL A   1      43.683  35.853  33.217  1.00  0.00     0.031 A 
ATOM     91  C   UNL A   1      43.655  36.841  31.016  1.00  0.00     0.131 A 
ATOM     92  C   UNL A   1      43.981  37.117  33.750  1.00  0.00     0.055 A 
ATOM     93  C   UNL A   1      44.001  38.084  31.546  1.00  0.00     0.041 A 
ATOM     94  F   UNL A   1      43.501  36.751  29.685  1.00  0.00    -0.206 F 
ATOM     95  C   UNL A   1      44.161  38.228  32.921  1.00  0.00     0.022 A 
BRANCH  92  96
ATOM     96  S   UNL A   1      44.100  37.297  35.550  1.00  0.00     0.124 S 
ATOM     97  O   UNL A   1      44.728  38.608  35.681  1.00  0.00    -0.237 OA
ATOM     98  O   UNL A   1      42.705  37.215  35.969  1.00  0.00    -0.237 OA
ATOM     99  O   UNL A   1      44.935  36.166  35.954  1.00  0.00    -0.744 OA
ENDBRANCH  92  96
ENDBRANCH  66  89
ENDBRANCH  40  41
ENDBRANCH  33  35
ENDBRANCH  32  33
ENDBRANCH  31  32
ENDBRANCH  30  31
ENDBRANCH  29  30
ENDBRANCH  28  29
ENDBRANCH   1  28
TORSDOF 24
ENDMDL
MODEL 2
REMARK VINA RESULT:      -8.0      4.622      7.315
REMARK SMILES Cc1cc2c(c(C)c1Br)C=C(C(=O)OCCOCCOCCOCCOC(=O)c1ccc(-c3c4nc(c(-c5cc(S(=O)(=O)[O-])ccc5F)c5ccc([nH]5)c(-c5cc(S(=O)(=O)[O-])ccc5F)c5nc(c(-c6cc(S(=O)(=O)[O-])ccc6F)c6ccc3[nH]6)C=C5)C=C4)cc1)[C@@H](C(F)(F)F)O2
REMARK SMILES IDX 21 1 20 2 19 3 18 4 17 5 16 6 15 7 14 8 12 9 13 10 11 11
REMARK SMILES IDX 1 12 2 13 3 14 8 15 4 16 6 17 9 18 5 19 97 20 7 21 10 22
REMARK SMILES IDX 92 23 93 24 94 25 95 26 96 27 22 28 23 29 24 30 25 31 26 32
REMARK SMILES IDX 27 33 28 34 29 35 30 36 91 37 31 38 90 39 32 40 33 41 34 42
REMARK SMILES IDX 84 43 35 44 89 45 83 46 85 47 36 48 88 49 82 50 81 51 37 53
REMARK SMILES IDX 69 54 49 55 68 56 50 57 53 58 67 59 86 60 51 61 52 62 66 64
REMARK SMILES IDX 87 65 54 66 38 67 39 68 47 69 40 70 46 71 48 72 45 73 41 74
REMARK SMILES IDX 42 75 43 76 44 77 70 78 71 79 79 80 72 81 78 82 80 83 77 84
REMARK SMILES IDX 73 85 74 86 75 87 76 88 55 89 56 90 64 91 57 92 63 93 65 94
REMARK SMILES IDX 62 95 58 96 59 97 60 98 61 99
REMARK H PARENT 85 52 53 63
REMARK Flexibility Score: inf
ROOT
ATOM      1  C   UNL A   1      42.748  19.084  26.041  1.00  0.00     0.188 C 
ENDROOT
BRANCH   1   2
ATOM      2  O   UNL A   1      41.372  18.844  25.744  1.00  0.00    -0.377 OA
BRANCH   2   3
ATOM      3  C   UNL A   1      40.433  19.827  26.145  1.00  0.00     0.188 C 
BRANCH   3   4
ATOM      4  C   UNL A   1      39.037  19.608  25.532  1.00  0.00     0.188 C 
BRANCH   4   5
ATOM      5  O   UNL A   1      38.367  20.797  25.162  1.00  0.00    -0.376 OA
BRANCH   5   6
ATOM      6  C   UNL A   1      38.491  21.999  25.907  1.00  0.00     0.202 C 
BRANCH   6   7
ATOM      7  C   UNL A   1      37.590  23.244  25.777  1.00  0.00     0.261 C 
BRANCH   7   8
ATOM      8  O   UNL A   1      36.339  23.092  25.106  1.00  0.00    -0.460 OA
BRANCH   8   9
ATOM      9  C   UNL A   1      35.218  23.258  25.826  1.00  0.00     0.338 C 
ATOM     10  O   UNL A   1      34.983  22.815  26.936  1.00  0.00    -0.246 OA
BRANCH   9  11
ATOM     11  C   UNL A   1      34.379  24.245  25.113  1.00  0.00     0.087 C 
ATOM     12  C   UNL A   1      30.277  28.924  23.427  1.00  0.00     0.046 C 
ATOM     13  C   UNL A   1      31.447  28.142  23.962  1.00  0.00    -0.033 A 
ATOM     14  C   UNL A   1      31.761  26.922  23.351  1.00  0.00     0.051 A 
ATOM     15  C   UNL A   1      32.220  28.574  25.060  1.00  0.00     0.024 A 
ATOM     16  C   UNL A   1      32.735  26.086  23.888  1.00  0.00     0.128 A 
ATOM     17  C   UNL A   1      33.240  27.752  25.597  1.00  0.00    -0.026 A 
ATOM     18  Br  UNL A   1      31.826  30.280  25.835  1.00  0.00    -0.050 Br
ATOM     19  C   UNL A   1      33.429  26.460  25.040  1.00  0.00     0.021 A 
ATOM     20  O   UNL A   1      32.913  24.909  23.219  1.00  0.00    -0.475 OA
ATOM     21  C   UNL A   1      34.134  28.199  26.732  1.00  0.00     0.046 C 
ATOM     22  C   UNL A   1      34.268  25.452  25.681  1.00  0.00     0.027 C 
ATOM     23  C   UNL A   1      33.776  23.886  23.783  1.00  0.00     0.316 C 
BRANCH  23  24
ATOM     24  C   UNL A   1      32.977  22.577  23.835  1.00  0.00     0.430 C 
ATOM     25  F   UNL A   1      33.771  21.507  23.589  1.00  0.00    -0.167 F 
ATOM     26  F   UNL A   1      32.404  22.374  25.041  1.00  0.00    -0.167 F 
ATOM     27  F   UNL A   1      31.988  22.565  22.910  1.00  0.00    -0.167 F 
ENDBRANCH  23  24
ENDBRANCH   9  11
ENDBRANCH   8   9
ENDBRANCH   7   8
ENDBRANCH   6   7
ENDBRANCH   5   6
ENDBRANCH   4   5
ENDBRANCH   3   4
ENDBRANCH   2   3
ENDBRANCH   1   2
BRANCH   1  28
ATOM     28  C   UNL A   1      43.832  19.005  24.939  1.00  0.00     0.188 C 
BRANCH  28  29
ATOM     29  O   UNL A   1      44.190  20.265  24.381  1.00  0.00    -0.376 OA
BRANCH  29  30
ATOM     30  C   UNL A   1      44.926  21.163  25.198  1.00  0.00     0.202 C 
BRANCH  30  31
ATOM     31  C   UNL A   1      45.093  22.582  24.639  1.00  0.00     0.261 C 
BRANCH  31  32
ATOM     32  O   UNL A   1      43.879  23.246  24.260  1.00  0.00    -0.460 OA
BRANCH  32  33
ATOM     33  C   UNL A   1      42.957  23.450  25.226  1.00  0.00     0.338 C 
ATOM     34  O   UNL A   1      42.141  22.645  25.642  1.00  0.00    -0.246 OA
BRANCH  33  35
ATOM     35  C   UNL A   1      43.239  24.765  25.837  1.00  0.00     0.060 A 
ATOM     36  C   UNL A   1      43.644  24.820  27.178  1.00  0.00     0.016 A 
ATOM     37  C   UNL A   1      43.122  25.935  25.084  1.00  0.00     0.016 A 
ATOM     38  C   UNL A   1      43.904  26.054  27.776  1.00  0.00     0.010 A 
ATOM     39  C   UNL A   1      43.357  27.170  25.691  1.00  0.00     0.010 A 
ATOM     40  C   UNL A   1      43.718  27.237  27.048  1.00  0.00    -0.014 A 
BRANCH  40  41
ATOM     41  C   UNL A   1      43.678  28.536  27.761  1.00  0.00     0.031 A 
ATOM     42  C   UNL A   1      44.960  29.320  27.867  1.00  0.00     0.074 A 
ATOM     43  C   UNL A   1      42.534  29.032  28.265  1.00  0.00     0.049 A 
ATOM     44  N   UNL A   1      45.193  30.449  28.479  1.00  0.00    -0.248 NA
ATOM     45  C   UNL A   1      46.136  28.747  27.189  1.00  0.00     0.031 C 
ATOM     46  C   UNL A   1      41.220  28.399  28.164  1.00  0.00     0.029 A 
ATOM     47  N   UNL A   1      42.296  30.191  28.962  1.00  0.00    -0.354 N 
ATOM     48  C   UNL A   1      46.536  30.727  28.256  1.00  0.00     0.074 A 
ATOM     49  C   UNL A   1      47.076  29.632  27.482  1.00  0.00     0.031 C 
ATOM     50  C   UNL A   1      40.312  29.180  28.778  1.00  0.00     0.029 A 
ATOM     51  C   UNL A   1      40.985  30.347  29.349  1.00  0.00     0.049 A 
ATOM     52  H   UNL A   1      42.999  30.850  29.166  1.00  0.00     0.167 HD
ATOM     53  C   UNL A   1      47.252  31.806  28.652  1.00  0.00     0.034 A 
ATOM     54  C   UNL A   1      40.403  31.309  30.096  1.00  0.00     0.034 A 
ATOM     55  C   UNL A   1      46.709  32.889  29.426  1.00  0.00     0.049 A 
ATOM     56  C   UNL A   1      41.249  32.445  30.621  1.00  0.00     0.074 A 
ATOM     57  C   UNL A   1      47.353  34.026  29.880  1.00  0.00     0.029 A 
ATOM     58  N   UNL A   1      45.395  32.970  29.866  1.00  0.00    -0.354 N 
ATOM     59  N   UNL A   1      42.526  32.682  30.427  1.00  0.00    -0.248 NA
ATOM     60  C   UNL A   1      40.577  33.441  31.469  1.00  0.00     0.031 C 
ATOM     61  C   UNL A   1      46.449  34.761  30.652  1.00  0.00     0.029 A 
ATOM     62  C   UNL A   1      45.220  34.121  30.616  1.00  0.00     0.049 A 
ATOM     63  H   UNL A   1      44.693  32.308  29.674  1.00  0.00     0.167 HD
ATOM     64  C   UNL A   1      42.803  33.864  31.109  1.00  0.00     0.074 A 
ATOM     65  C   UNL A   1      41.560  34.297  31.714  1.00  0.00     0.031 C 
ATOM     66  C   UNL A   1      43.978  34.534  31.220  1.00  0.00     0.034 A 
BRANCH  53  67
ATOM     67  C   UNL A   1      48.710  31.850  28.284  1.00  0.00     0.023 A 
ATOM     68  C   UNL A   1      49.169  32.598  27.187  1.00  0.00     0.031 A 
ATOM     69  C   UNL A   1      49.656  31.163  29.064  1.00  0.00     0.131 A 
ATOM     70  C   UNL A   1      50.538  32.618  26.882  1.00  0.00     0.055 A 
ATOM     71  C   UNL A   1      51.023  31.235  28.790  1.00  0.00     0.041 A 
ATOM     72  F   UNL A   1      49.266  30.416  30.109  1.00  0.00    -0.206 F 
ATOM     73  C   UNL A   1      51.469  31.962  27.690  1.00  0.00     0.022 A 
BRANCH  70  74
ATOM     74  S   UNL A   1      51.080  33.462  25.372  1.00  0.00     0.124 S 
ATOM     75  O   UNL A   1      49.900  34.254  25.037  1.00  0.00    -0.237 OA
ATOM     76  O   UNL A   1      52.245  34.212  25.827  1.00  0.00    -0.237 OA
ATOM     77  O   UNL A   1      51.368  32.364  24.452  1.00  0.00    -0.744 OA
ENDBRANCH  70  74
ENDBRANCH  53  67
BRANCH  54  78
ATOM     78  C   UNL A   1      38.952  31.228  30.429  1.00  0.00     0.023 A 
ATOM     79  C   UNL A   1      37.988  31.877  29.641  1.00  0.00     0.031 A 
ATOM     80  C   UNL A   1      38.511  30.524  31.564  1.00  0.00     0.131 A 
ATOM     81  C   UNL A   1      36.635  31.831  30.012  1.00  0.00     0.055 A 
ATOM     82  C   UNL A   1      37.159  30.445  31.905  1.00  0.00     0.041 A 
ATOM     83  F   UNL A   1      39.393  29.890  32.354  1.00  0.00    -0.206 F 
ATOM     84  C   UNL A   1      36.213  31.107  31.130  1.00  0.00     0.022 A 
BRANCH  81  85
ATOM     85  S   UNL A   1      35.429  32.769  29.033  1.00  0.00     0.124 S 
ATOM     86  O   UNL A   1      34.244  32.702  29.880  1.00  0.00    -0.237 OA
ATOM     87  O   UNL A   1      36.072  34.075  28.927  1.00  0.00    -0.237 OA
ATOM     88  O   UNL A   1      35.348  32.017  27.782  1.00  0.00    -0.744 OA
ENDBRANCH  81  85
ENDBRANCH  54  78
BRANCH  66  89
ATOM     89  C   UNL A   1      43.981  35.823  32.002  1.00  0.00     0.023 A 
ATOM     90  C   UNL A   1      43.931  37.070  31.360  1.00  0.00     0.031 A 
ATOM     91  C   UNL A   1      43.967  35.796  33.408  1.00  0.00     0.131 A 
ATOM     92  C   UNL A   1      43.894  38.246  32.125  1.00  0.00     0.055 A 
ATOM     93  C   UNL A   1      43.880  36.965  34.164  1.00  0.00     0.041 A 
ATOM     94  F   UNL A   1      44.007  34.628  34.070  1.00  0.00    -0.206 F 
ATOM     95  C   UNL A   1      43.848  38.200  33.522  1.00  0.00     0.022 A 
BRANCH  92  96
ATOM     96  S   UNL A   1      43.939  39.844  31.270  1.00  0.00     0.124 S 
ATOM     97  O   UNL A   1      43.552  40.767  32.332  1.00  0.00    -0.237 OA
ATOM     98  O   UNL A   1      45.327  39.927  30.828  1.00  0.00    -0.237 OA
ATOM     99  O   UNL A   1      42.958  39.687  30.197  1.00  0.00    -0.744 OA
ENDBRANCH  92  96
ENDBRANCH  66  89
ENDBRANCH  40  41
ENDBRANCH  33  35
ENDBRANCH  32  33
ENDBRANCH  31  32
ENDBRANCH  30  31
ENDBRANCH  29  30
ENDBRANCH  28  29
ENDBRANCH   1  28
TORSDOF 24
ENDMDL
MODEL 3
REMARK VINA RESULT:      -7.9      5.614     10.242
REMARK SMILES Cc1cc2c(c(C)c1Br)C=C(C(=O)OCCOCCOCCOCCOC(=O)c1ccc(-c3c4nc(c(-c5cc(S(=O)(=O)[O-])ccc5F)c5ccc([nH]5)c(-c5cc(S(=O)(=O)[O-])ccc5F)c5nc(c(-c6cc(S(=O)(=O)[O-])ccc6F)c6ccc3[nH]6)C=C5)C=C4)cc1)[C@@H](C(F)(F)F)O2
REMARK SMILES IDX 21 1 20 2 19 3 18 4 17 5 16 6 15 7 14 8 12 9 13 10 11 11
REMARK SMILES IDX 1 12 2 13 3 14 8 15 4 16 6 17 9 18 5 19 97 20 7 21 10 22
REMARK SMILES IDX 92 23 93 24 94 25 95 26 96 27 22 28 23 29 24 30 25 31 26 32
REMARK SMILES IDX 27 33 28 34 29 35 30 36 91 37 31 38 90 39 32 40 33 41 34 42
REMARK SMILES IDX 84 43 35 44 89 45 83 46 85 47 36 48 88 49 82 50 81 51 37 53
REMARK SMILES IDX 69 54 49 55 68 56 50 57 53 58 67 59 86 60 51 61 52 62 66 64
REMARK SMILES IDX 87 65 54 66 38 67 39 68 47 69 40 70 46 71 48 72 45 73 41 74
REMARK SMILES IDX 42 75 43 76 44 77 70 78 71 79 79 80 72 81 78 82 80 83 77 84
REMARK SMILES IDX 73 85 74 86 75 87 76 88 55 89 56 90 64 91 57 92 63 93 65 94
REMARK SMILES IDX 62 95 58 96 59 97 60 98 61 99
REMARK H PARENT 85 52 53 63
REMARK Flexibility Score: inf
ROOT
ATOM      1  C   UNL A   1      30.991  29.554  24.597  1.00  0.00     0.188 C 
ENDROOT
BRANCH   1   2
ATOM      2  O   UNL A   1      29.947  29.604  23.624  1.00  0.00    -0.377 OA
BRANCH   2   3
ATOM      3  C   UNL A   1      30.259  29.188  22.305  1.00  0.00     0.188 C 
BRANCH   3   4
ATOM      4  C   UNL A   1      31.414  28.170  22.255  1.00  0.00     0.188 C 
BRANCH   4   5
ATOM      5  O   UNL A   1      31.054  26.901  21.746  1.00  0.00    -0.376 OA
BRANCH   5   6
ATOM      6  C   UNL A   1      32.009  25.874  21.530  1.00  0.00     0.202 C 
BRANCH   6   7
ATOM      7  C   UNL A   1      33.445  25.837  22.093  1.00  0.00     0.261 C 
BRANCH   7   8
ATOM      8  O   UNL A   1      33.602  25.800  23.511  1.00  0.00    -0.460 OA
BRANCH   8   9
ATOM      9  C   UNL A   1      32.835  24.943  24.204  1.00  0.00     0.338 C 
ATOM     10  O   UNL A   1      31.649  25.055  24.457  1.00  0.00    -0.246 OA
BRANCH   9  11
ATOM     11  C   UNL A   1      33.642  23.728  24.446  1.00  0.00     0.087 C 
ATOM     12  C   UNL A   1      38.304  19.306  24.968  1.00  0.00     0.046 C 
ATOM     13  C   UNL A   1      37.420  20.511  25.147  1.00  0.00    -0.033 A 
ATOM     14  C   UNL A   1      36.067  20.394  24.803  1.00  0.00     0.051 A 
ATOM     15  C   UNL A   1      37.898  21.751  25.620  1.00  0.00     0.024 A 
ATOM     16  C   UNL A   1      35.231  21.506  24.807  1.00  0.00     0.128 A 
ATOM     17  C   UNL A   1      37.052  22.885  25.666  1.00  0.00    -0.026 A 
ATOM     18  Br  UNL A   1      39.732  21.872  26.157  1.00  0.00    -0.050 Br
ATOM     19  C   UNL A   1      35.728  22.760  25.172  1.00  0.00     0.021 A 
ATOM     20  O   UNL A   1      33.948  21.262  24.413  1.00  0.00    -0.475 OA
ATOM     21  C   UNL A   1      37.505  24.216  26.223  1.00  0.00     0.046 C 
ATOM     22  C   UNL A   1      34.872  23.920  24.939  1.00  0.00     0.027 C 
ATOM     23  C   UNL A   1      33.034  22.373  24.213  1.00  0.00     0.316 C 
BRANCH  23  24
ATOM     24  C   UNL A   1      32.430  22.234  22.809  1.00  0.00     0.430 C 
ATOM     25  F   UNL A   1      32.244  20.933  22.481  1.00  0.00    -0.167 F 
ATOM     26  F   UNL A   1      31.228  22.841  22.707  1.00  0.00    -0.167 F 
ATOM     27  F   UNL A   1      33.239  22.775  21.867  1.00  0.00    -0.167 F 
ENDBRANCH  23  24
ENDBRANCH   9  11
ENDBRANCH   8   9
ENDBRANCH   7   8
ENDBRANCH   6   7
ENDBRANCH   5   6
ENDBRANCH   4   5
ENDBRANCH   3   4
ENDBRANCH   2   3
ENDBRANCH   1   2
BRANCH   1  28
ATOM     28  C   UNL A   1      31.125  28.358  25.571  1.00  0.00     0.188 C 
BRANCH  28  29
ATOM     29  O   UNL A   1      32.465  27.921  25.777  1.00  0.00    -0.376 OA
BRANCH  29  30
ATOM     30  C   UNL A   1      33.512  28.777  25.345  1.00  0.00     0.202 C 
BRANCH  30  31
ATOM     31  C   UNL A   1      34.139  29.657  26.434  1.00  0.00     0.261 C 
BRANCH  31  32
ATOM     32  O   UNL A   1      33.266  30.628  27.028  1.00  0.00    -0.460 OA
BRANCH  32  33
ATOM     33  C   UNL A   1      33.835  31.742  27.538  1.00  0.00     0.338 C 
ATOM     34  O   UNL A   1      33.330  32.849  27.621  1.00  0.00    -0.246 OA
BRANCH  33  35
ATOM     35  C   UNL A   1      35.111  31.342  28.163  1.00  0.00     0.060 A 
ATOM     36  C   UNL A   1      35.196  30.096  28.801  1.00  0.00     0.016 A 
ATOM     37  C   UNL A   1      36.223  32.185  28.104  1.00  0.00     0.016 A 
ATOM     38  C   UNL A   1      36.390  29.706  29.409  1.00  0.00     0.010 A 
ATOM     39  C   UNL A   1      37.409  31.804  28.735  1.00  0.00     0.010 A 
ATOM     40  C   UNL A   1      37.488  30.576  29.416  1.00  0.00    -0.014 A 
BRANCH  40  41
ATOM     41  C   UNL A   1      38.629  30.307  30.324  1.00  0.00     0.031 A 
ATOM     42  C   UNL A   1      39.709  29.376  29.838  1.00  0.00     0.074 A 
ATOM     43  C   UNL A   1      38.732  30.899  31.527  1.00  0.00     0.049 A 
ATOM     44  N   UNL A   1      40.774  28.945  30.459  1.00  0.00    -0.248 NA
ATOM     45  C   UNL A   1      39.563  28.863  28.465  1.00  0.00     0.031 C 
ATOM     46  C   UNL A   1      37.787  31.870  32.076  1.00  0.00     0.029 A 
ATOM     47  N   UNL A   1      39.688  30.770  32.505  1.00  0.00    -0.354 N 
ATOM     48  C   UNL A   1      41.428  28.119  29.554  1.00  0.00     0.074 A 
ATOM     49  C   UNL A   1      40.624  28.079  28.353  1.00  0.00     0.031 C 
ATOM     50  C   UNL A   1      38.212  32.249  33.295  1.00  0.00     0.029 A 
ATOM     51  C   UNL A   1      39.436  31.521  33.630  1.00  0.00     0.049 A 
ATOM     52  H   UNL A   1      40.481  30.194  32.409  1.00  0.00     0.167 HD
ATOM     53  C   UNL A   1      42.601  27.461  29.706  1.00  0.00     0.034 A 
ATOM     54  C   UNL A   1      40.105  31.593  34.800  1.00  0.00     0.034 A 
ATOM     55  C   UNL A   1      43.393  27.501  30.906  1.00  0.00     0.049 A 
ATOM     56  C   UNL A   1      41.352  30.761  34.987  1.00  0.00     0.074 A 
ATOM     57  C   UNL A   1      44.595  26.866  31.161  1.00  0.00     0.029 A 
ATOM     58  N   UNL A   1      43.063  28.210  32.053  1.00  0.00    -0.354 N 
ATOM     59  N   UNL A   1      41.946  29.959  34.132  1.00  0.00    -0.248 NA
ATOM     60  C   UNL A   1      42.017  30.838  36.296  1.00  0.00     0.031 C 
ATOM     61  C   UNL A   1      44.958  27.135  32.484  1.00  0.00     0.029 A 
ATOM     62  C   UNL A   1      44.021  27.999  33.030  1.00  0.00     0.049 A 
ATOM     63  H   UNL A   1      42.265  28.778  32.156  1.00  0.00     0.167 HD
ATOM     64  C   UNL A   1      43.063  29.457  34.793  1.00  0.00     0.074 A 
ATOM     65  C   UNL A   1      43.068  30.050  36.115  1.00  0.00     0.031 C 
ATOM     66  C   UNL A   1      44.006  28.589  34.345  1.00  0.00     0.034 A 
BRANCH  53  67
ATOM     67  C   UNL A   1      43.082  26.613  28.560  1.00  0.00     0.023 A 
ATOM     68  C   UNL A   1      44.105  27.049  27.702  1.00  0.00     0.031 A 
ATOM     69  C   UNL A   1      42.532  25.338  28.347  1.00  0.00     0.131 A 
ATOM     70  C   UNL A   1      44.528  26.225  26.649  1.00  0.00     0.055 A 
ATOM     71  C   UNL A   1      42.998  24.499  27.333  1.00  0.00     0.041 A 
ATOM     72  F   UNL A   1      41.536  24.885  29.125  1.00  0.00    -0.206 F 
ATOM     73  C   UNL A   1      43.999  24.944  26.475  1.00  0.00     0.022 A 
BRANCH  70  74
ATOM     74  S   UNL A   1      45.737  26.876  25.466  1.00  0.00     0.124 S 
ATOM     75  O   UNL A   1      46.178  25.657  24.794  1.00  0.00    -0.237 OA
ATOM     76  O   UNL A   1      44.936  27.794  24.664  1.00  0.00    -0.237 OA
ATOM     77  O   UNL A   1      46.741  27.510  26.318  1.00  0.00    -0.744 OA
ENDBRANCH  70  74
ENDBRANCH  53  67
BRANCH  54  78
ATOM     78  C   UNL A   1      39.596  32.453  35.906  1.00  0.00     0.023 A 
ATOM     79  C   UNL A   1      39.991  33.796  36.023  1.00  0.00     0.031 A 
ATOM     80  C   UNL A   1      38.730  31.933  36.885  1.00  0.00     0.131 A 
ATOM     81  C   UNL A   1      39.540  34.565  37.107  1.00  0.00     0.055 A 
ATOM     82  C   UNL A   1      38.250  32.714  37.937  1.00  0.00     0.041 A 
ATOM     83  F   UNL A   1      38.326  30.654  36.821  1.00  0.00    -0.206 F 
ATOM     84  C   UNL A   1      38.661  34.038  38.056  1.00  0.00     0.022 A 
BRANCH  81  85
ATOM     85  S   UNL A   1      40.154  36.263  37.286  1.00  0.00     0.124 S 
ATOM     86  O   UNL A   1      41.550  36.037  37.643  1.00  0.00    -0.237 OA
ATOM     87  O   UNL A   1      39.912  36.817  35.958  1.00  0.00    -0.237 OA
ATOM     88  O   UNL A   1      39.318  36.817  38.349  1.00  0.00    -0.744 OA
ENDBRANCH  81  85
ENDBRANCH  54  78
BRANCH  66  89
ATOM     89  C   UNL A   1      45.140  28.241  35.275  1.00  0.00     0.023 A 
ATOM     90  C   UNL A   1      45.050  27.163  36.170  1.00  0.00     0.031 A 
ATOM     91  C   UNL A   1      46.348  28.959  35.216  1.00  0.00     0.131 A 
ATOM     92  C   UNL A   1      46.144  26.846  36.990  1.00  0.00     0.055 A 
ATOM     93  C   UNL A   1      47.449  28.609  35.997  1.00  0.00     0.041 A 
ATOM     94  F   UNL A   1      46.487  29.995  34.372  1.00  0.00    -0.206 F 
ATOM     95  C   UNL A   1      47.349  27.550  36.895  1.00  0.00     0.022 A 
BRANCH  92  96
ATOM     96  S   UNL A   1      45.962  25.518  38.211  1.00  0.00     0.124 S 
ATOM     97  O   UNL A   1      46.332  24.340  37.433  1.00  0.00    -0.237 OA
ATOM     98  O   UNL A   1      46.903  25.915  39.252  1.00  0.00    -0.237 OA
ATOM     99  O   UNL A   1      44.552  25.593  38.591  1.00  0.00    -0.744 OA
ENDBRANCH  92  96
ENDBRANCH  66  89
ENDBRANCH  40  41
ENDBRANCH  33  35
ENDBRANCH  32  33
ENDBRANCH  31  32
ENDBRANCH  30  31
ENDBRANCH  29  30
ENDBRANCH  28  29
ENDBRANCH   1  28
TORSDOF 24
ENDMDL
