MODEL 1
REMARK VINA RESULT:      -8.6      0.000      0.000
REMARK SMILES C[C@H]1[C@H](C(=O)OCCOCCOCCOCCOC(=O)c2ccc(-c3c4nc(c(-c5cc(S(=O)(=O)[O-])ccc5F)c5ccc([nH]5)c(-c5cc(S(=O)(=O)[O-])ccc5F)c5nc(c(-c6cc(S(=O)(=O)[O-])ccc6F)c6ccc3[nH]6)C=C5)C=C4)cc2)CC[N@@H+]1Cc1ccc(Br)cc1F
REMARK SMILES IDX 13 1 12 2 11 3 10 4 9 5 8 6 7 7 6 8 4 9 5 10 3 11 1 12 2 13
REMARK SMILES IDX 86 14 84 15 85 16 87 18 88 19 89 20 94 21 90 22 93 23 95 24
REMARK SMILES IDX 91 25 92 26 14 27 15 28 16 29 17 30 18 31 19 32 20 33 21 34
REMARK SMILES IDX 22 35 83 36 23 37 82 38 24 39 25 40 26 41 76 42 27 43 81 44
REMARK SMILES IDX 75 45 77 46 28 47 80 48 74 49 73 50 29 52 61 53 41 54 60 55
REMARK SMILES IDX 42 56 45 57 59 58 78 59 43 60 44 61 58 63 79 64 46 65 30 66
REMARK SMILES IDX 31 67 39 68 32 69 38 70 40 71 37 72 33 73 34 74 35 75 36 76
REMARK SMILES IDX 62 77 63 78 71 79 64 80 70 81 72 82 69 83 65 84 66 85 67 86
REMARK SMILES IDX 68 87 47 88 48 89 56 90 49 91 55 92 57 93 54 94 50 95 51 96
REMARK SMILES IDX 52 97 53 98
REMARK H PARENT 86 17 77 51 45 62
REMARK Flexibility Score: inf
ROOT
ATOM      1  C   UNL A   1      36.121  30.381  27.919  1.00  0.00     0.188 C 
ENDROOT
BRANCH   1   2
ATOM      2  O   UNL A   1      35.324  29.286  27.526  1.00  0.00    -0.377 OA
BRANCH   2   3
ATOM      3  C   UNL A   1      34.309  29.601  26.610  1.00  0.00     0.188 C 
BRANCH   3   4
ATOM      4  C   UNL A   1      32.990  30.281  26.999  1.00  0.00     0.188 C 
BRANCH   4   5
ATOM      5  O   UNL A   1      31.765  29.567  27.017  1.00  0.00    -0.376 OA
BRANCH   5   6
ATOM      6  C   UNL A   1      31.414  28.590  26.057  1.00  0.00     0.202 C 
BRANCH   6   7
ATOM      7  C   UNL A   1      31.570  27.075  26.280  1.00  0.00     0.261 C 
BRANCH   7   8
ATOM      8  O   UNL A   1      32.910  26.556  26.350  1.00  0.00    -0.463 OA
BRANCH   8   9
ATOM      9  C   UNL A   1      33.062  25.242  26.079  1.00  0.00     0.315 C 
ATOM     10  O   UNL A   1      34.135  24.651  26.174  1.00  0.00    -0.252 OA
BRANCH   9  11
ATOM     11  C   UNL A   1      31.806  24.508  25.619  1.00  0.00     0.162 C 
ATOM     12  C   UNL A   1      30.416  24.477  23.501  1.00  0.00     0.076 C 
ATOM     13  C   UNL A   1      31.657  23.897  24.212  1.00  0.00     0.195 C 
ATOM     14  N   UNL A   1      31.400  22.464  24.374  1.00  0.00    -0.328 N 
ATOM     15  C   UNL A   1      31.535  23.360  26.580  1.00  0.00     0.083 C 
ATOM     16  C   UNL A   1      30.940  22.249  25.736  1.00  0.00     0.263 C 
ATOM     17  H   UNL A   1      30.652  22.184  23.740  1.00  0.00     0.348 HD
BRANCH  14  18
ATOM     18  C   UNL A   1      32.434  21.555  23.863  1.00  0.00     0.302 C 
BRANCH  18  19
ATOM     19  C   UNL A   1      33.861  21.749  24.321  1.00  0.00     0.042 A 
ATOM     20  C   UNL A   1      34.293  21.234  25.558  1.00  0.00     0.014 A 
ATOM     21  C   UNL A   1      34.777  22.483  23.564  1.00  0.00     0.133 A 
ATOM     22  C   UNL A   1      35.609  21.427  25.994  1.00  0.00     0.016 A 
ATOM     23  C   UNL A   1      36.097  22.654  23.972  1.00  0.00     0.055 A 
ATOM     24  F   UNL A   1      34.394  23.052  22.413  1.00  0.00    -0.206 F 
ATOM     25  C   UNL A   1      36.507  22.126  25.191  1.00  0.00     0.020 A 
ATOM     26  Br  UNL A   1      38.297  22.348  25.750  1.00  0.00    -0.051 Br
ENDBRANCH  18  19
ENDBRANCH  14  18
ENDBRANCH   9  11
ENDBRANCH   8   9
ENDBRANCH   7   8
ENDBRANCH   6   7
ENDBRANCH   5   6
ENDBRANCH   4   5
ENDBRANCH   3   4
ENDBRANCH   2   3
ENDBRANCH   1   2
BRANCH   1  27
ATOM     27  C   UNL A   1      37.484  29.883  28.385  1.00  0.00     0.188 C 
BRANCH  27  28
ATOM     28  O   UNL A   1      37.736  30.152  29.753  1.00  0.00    -0.376 OA
BRANCH  28  29
ATOM     29  C   UNL A   1      36.712  30.627  30.620  1.00  0.00     0.202 C 
BRANCH  29  30
ATOM     30  C   UNL A   1      36.867  31.521  31.880  1.00  0.00     0.261 C 
BRANCH  30  31
ATOM     31  O   UNL A   1      37.755  32.642  31.868  1.00  0.00    -0.460 OA
BRANCH  31  32
ATOM     32  C   UNL A   1      37.532  33.607  30.959  1.00  0.00     0.338 C 
ATOM     33  O   UNL A   1      36.458  34.118  30.689  1.00  0.00    -0.246 OA
BRANCH  32  34
ATOM     34  C   UNL A   1      38.855  34.093  30.503  1.00  0.00     0.060 A 
ATOM     35  C   UNL A   1      38.986  34.493  29.168  1.00  0.00     0.016 A 
ATOM     36  C   UNL A   1      39.945  34.180  31.376  1.00  0.00     0.016 A 
ATOM     37  C   UNL A   1      40.219  34.924  28.685  1.00  0.00     0.010 A 
ATOM     38  C   UNL A   1      41.192  34.581  30.884  1.00  0.00     0.010 A 
ATOM     39  C   UNL A   1      41.341  34.904  29.523  1.00  0.00    -0.014 A 
BRANCH  39  40
ATOM     40  C   UNL A   1      42.681  34.940  28.888  1.00  0.00     0.031 A 
ATOM     41  C   UNL A   1      43.216  36.285  28.465  1.00  0.00     0.074 A 
ATOM     42  C   UNL A   1      43.446  33.840  28.787  1.00  0.00     0.049 A 
ATOM     43  N   UNL A   1      44.372  36.597  27.942  1.00  0.00    -0.248 NA
ATOM     44  C   UNL A   1      42.318  37.434  28.667  1.00  0.00     0.031 C 
ATOM     45  C   UNL A   1      43.058  32.498  29.221  1.00  0.00     0.029 A 
ATOM     46  N   UNL A   1      44.718  33.680  28.300  1.00  0.00    -0.354 N 
ATOM     47  C   UNL A   1      44.342  37.976  27.756  1.00  0.00     0.074 A 
ATOM     48  C   UNL A   1      43.034  38.430  28.175  1.00  0.00     0.031 C 
ATOM     49  C   UNL A   1      44.074  31.653  28.980  1.00  0.00     0.029 A 
ATOM     50  C   UNL A   1      45.172  32.383  28.348  1.00  0.00     0.049 A 
ATOM     51  H   UNL A   1      45.256  34.426  27.948  1.00  0.00     0.167 HD
ATOM     52  C   UNL A   1      45.320  38.792  27.293  1.00  0.00     0.034 A 
ATOM     53  C   UNL A   1      46.335  31.852  27.918  1.00  0.00     0.034 A 
ATOM     54  C   UNL A   1      46.613  38.320  26.866  1.00  0.00     0.049 A 
ATOM     55  C   UNL A   1      47.376  32.768  27.315  1.00  0.00     0.074 A 
ATOM     56  C   UNL A   1      47.679  39.052  26.375  1.00  0.00     0.029 A 
ATOM     57  N   UNL A   1      47.013  36.988  26.865  1.00  0.00    -0.354 N 
ATOM     58  N   UNL A   1      47.338  34.071  27.147  1.00  0.00    -0.248 NA
ATOM     59  C   UNL A   1      48.624  32.141  26.860  1.00  0.00     0.031 C 
ATOM     60  C   UNL A   1      48.688  38.159  26.000  1.00  0.00     0.029 A 
ATOM     61  C   UNL A   1      48.295  36.877  26.349  1.00  0.00     0.049 A 
ATOM     62  H   UNL A   1      46.465  36.235  27.185  1.00  0.00     0.167 HD
ATOM     63  C   UNL A   1      48.573  34.421  26.603  1.00  0.00     0.074 A 
ATOM     64  C   UNL A   1      49.335  33.195  26.491  1.00  0.00     0.031 C 
ATOM     65  C   UNL A   1      49.040  35.643  26.233  1.00  0.00     0.034 A 
BRANCH  52  66
ATOM     66  C   UNL A   1      44.995  40.262  27.172  1.00  0.00     0.023 A 
ATOM     67  C   UNL A   1      44.479  40.816  25.986  1.00  0.00     0.031 A 
ATOM     68  C   UNL A   1      45.249  41.132  28.247  1.00  0.00     0.131 A 
ATOM     69  C   UNL A   1      44.305  42.205  25.879  1.00  0.00     0.055 A 
ATOM     70  C   UNL A   1      44.989  42.502  28.164  1.00  0.00     0.041 A 
ATOM     71  F   UNL A   1      45.769  40.669  29.394  1.00  0.00    -0.206 F 
ATOM     72  C   UNL A   1      44.528  43.047  26.970  1.00  0.00     0.022 A 
BRANCH  69  73
ATOM     73  S   UNL A   1      43.932  42.910  24.250  1.00  0.00     0.124 S 
ATOM     74  O   UNL A   1      42.538  42.514  24.070  1.00  0.00    -0.237 OA
ATOM     75  O   UNL A   1      44.171  44.334  24.461  1.00  0.00    -0.237 OA
ATOM     76  O   UNL A   1      44.883  42.243  23.362  1.00  0.00    -0.744 OA
ENDBRANCH  69  73
ENDBRANCH  52  66
BRANCH  53  77
ATOM     77  C   UNL A   1      46.575  30.381  28.003  1.00  0.00     0.023 A 
ATOM     78  C   UNL A   1      46.228  29.519  26.950  1.00  0.00     0.031 A 
ATOM     79  C   UNL A   1      47.095  29.805  29.176  1.00  0.00     0.131 A 
ATOM     80  C   UNL A   1      46.352  28.130  27.110  1.00  0.00     0.055 A 
ATOM     81  C   UNL A   1      47.274  28.427  29.309  1.00  0.00     0.041 A 
ATOM     82  F   UNL A   1      47.438  30.580  30.218  1.00  0.00    -0.206 F 
ATOM     83  C   UNL A   1      46.887  27.580  28.277  1.00  0.00     0.022 A 
BRANCH  80  84
ATOM     84  S   UNL A   1      45.709  27.042  25.808  1.00  0.00     0.124 S 
ATOM     85  O   UNL A   1      46.726  25.999  25.765  1.00  0.00    -0.237 OA
ATOM     86  O   UNL A   1      44.412  26.653  26.353  1.00  0.00    -0.237 OA
ATOM     87  O   UNL A   1      45.654  27.912  24.635  1.00  0.00    -0.744 OA
ENDBRANCH  80  84
ENDBRANCH  53  77
BRANCH  65  88
ATOM     88  C   UNL A   1      50.462  35.715  25.725  1.00  0.00     0.023 A 
ATOM     89  C   UNL A   1      51.564  35.462  26.560  1.00  0.00     0.031 A 
ATOM     90  C   UNL A   1      50.719  36.071  24.387  1.00  0.00     0.131 A 
ATOM     91  C   UNL A   1      52.868  35.648  26.075  1.00  0.00     0.055 A 
ATOM     92  C   UNL A   1      52.018  36.175  23.889  1.00  0.00     0.041 A 
ATOM     93  F   UNL A   1      49.708  36.328  23.542  1.00  0.00    -0.206 F 
ATOM     94  C   UNL A   1      53.102  35.982  24.739  1.00  0.00     0.022 A 
BRANCH  91  95
ATOM     95  S   UNL A   1      54.250  35.578  27.248  1.00  0.00     0.124 S 
ATOM     96  O   UNL A   1      53.564  35.298  28.506  1.00  0.00    -0.237 OA
ATOM     97  O   UNL A   1      55.061  34.492  26.709  1.00  0.00    -0.237 OA
ATOM     98  O   UNL A   1      54.850  36.907  27.151  1.00  0.00    -0.744 OA
ENDBRANCH  91  95
ENDBRANCH  65  88
ENDBRANCH  39  40
ENDBRANCH  32  34
ENDBRANCH  31  32
ENDBRANCH  30  31
ENDBRANCH  29  30
ENDBRANCH  28  29
ENDBRANCH  27  28
ENDBRANCH   1  27
TORSDOF 25
ENDMDL
MODEL 2
REMARK VINA RESULT:      -8.4      8.951     12.812
REMARK SMILES C[C@H]1[C@H](C(=O)OCCOCCOCCOCCOC(=O)c2ccc(-c3c4nc(c(-c5cc(S(=O)(=O)[O-])ccc5F)c5ccc([nH]5)c(-c5cc(S(=O)(=O)[O-])ccc5F)c5nc(c(-c6cc(S(=O)(=O)[O-])ccc6F)c6ccc3[nH]6)C=C5)C=C4)cc2)CC[N@@H+]1Cc1ccc(Br)cc1F
REMARK SMILES IDX 13 1 12 2 11 3 10 4 9 5 8 6 7 7 6 8 4 9 5 10 3 11 1 12 2 13
REMARK SMILES IDX 86 14 84 15 85 16 87 18 88 19 89 20 94 21 90 22 93 23 95 24
REMARK SMILES IDX 91 25 92 26 14 27 15 28 16 29 17 30 18 31 19 32 20 33 21 34
REMARK SMILES IDX 22 35 83 36 23 37 82 38 24 39 25 40 26 41 76 42 27 43 81 44
REMARK SMILES IDX 75 45 77 46 28 47 80 48 74 49 73 50 29 52 61 53 41 54 60 55
REMARK SMILES IDX 42 56 45 57 59 58 78 59 43 60 44 61 58 63 79 64 46 65 30 66
REMARK SMILES IDX 31 67 39 68 32 69 38 70 40 71 37 72 33 73 34 74 35 75 36 76
REMARK SMILES IDX 62 77 63 78 71 79 64 80 70 81 72 82 69 83 65 84 66 85 67 86
REMARK SMILES IDX 68 87 47 88 48 89 56 90 49 91 55 92 57 93 54 94 50 95 51 96
REMARK SMILES IDX 52 97 53 98
REMARK H PARENT 86 17 77 51 45 62
REMARK Flexibility Score: inf
ROOT
ATOM      1  C   UNL A   1      40.857  27.939  28.027  1.00  0.00     0.188 C 
ENDROOT
BRANCH   1   2
ATOM      2  O   UNL A   1      40.303  26.716  28.461  1.00  0.00    -0.377 OA
BRANCH   2   3
ATOM      3  C   UNL A   1      39.695  25.959  27.449  1.00  0.00     0.188 C 
BRANCH   3   4
ATOM      4  C   UNL A   1      39.334  24.475  27.594  1.00  0.00     0.188 C 
BRANCH   4   5
ATOM      5  O   UNL A   1      38.811  23.730  26.507  1.00  0.00    -0.376 OA
BRANCH   5   6
ATOM      6  C   UNL A   1      37.458  23.784  26.100  1.00  0.00     0.202 C 
BRANCH   6   7
ATOM      7  C   UNL A   1      36.934  23.175  24.787  1.00  0.00     0.261 C 
BRANCH   7   8
ATOM      8  O   UNL A   1      35.553  22.774  24.755  1.00  0.00    -0.463 OA
BRANCH   8   9
ATOM      9  C   UNL A   1      34.919  22.889  23.568  1.00  0.00     0.315 C 
ATOM     10  O   UNL A   1      35.429  23.402  22.575  1.00  0.00    -0.252 OA
BRANCH   9  11
ATOM     11  C   UNL A   1      33.492  22.350  23.522  1.00  0.00     0.162 C 
ATOM     12  C   UNL A   1      32.279  20.378  24.551  1.00  0.00     0.076 C 
ATOM     13  C   UNL A   1      32.749  21.832  24.769  1.00  0.00     0.195 C 
ATOM     14  N   UNL A   1      31.531  22.632  24.926  1.00  0.00    -0.328 N 
ATOM     15  C   UNL A   1      32.586  23.426  22.940  1.00  0.00     0.083 C 
ATOM     16  C   UNL A   1      31.255  23.272  23.650  1.00  0.00     0.263 C 
ATOM     17  H   UNL A   1      30.751  22.015  25.145  1.00  0.00     0.348 HD
BRANCH  14  18
ATOM     18  C   UNL A   1      31.454  23.472  26.128  1.00  0.00     0.302 C 
BRANCH  18  19
ATOM     19  C   UNL A   1      31.859  24.925  26.025  1.00  0.00     0.042 A 
ATOM     20  C   UNL A   1      33.219  25.289  25.979  1.00  0.00     0.014 A 
ATOM     21  C   UNL A   1      30.909  25.948  26.021  1.00  0.00     0.133 A 
ATOM     22  C   UNL A   1      33.598  26.634  25.900  1.00  0.00     0.016 A 
ATOM     23  C   UNL A   1      31.272  27.288  25.911  1.00  0.00     0.055 A 
ATOM     24  F   UNL A   1      29.606  25.655  26.133  1.00  0.00    -0.206 F 
ATOM     25  C   UNL A   1      32.620  27.625  25.854  1.00  0.00     0.020 A 
ATOM     26  Br  UNL A   1      33.123  29.438  25.698  1.00  0.00    -0.051 Br
ENDBRANCH  18  19
ENDBRANCH  14  18
ENDBRANCH   9  11
ENDBRANCH   8   9
ENDBRANCH   7   8
ENDBRANCH   6   7
ENDBRANCH   5   6
ENDBRANCH   4   5
ENDBRANCH   3   4
ENDBRANCH   2   3
ENDBRANCH   1   2
BRANCH   1  27
ATOM     27  C   UNL A   1      40.383  29.068  28.934  1.00  0.00     0.188 C 
BRANCH  27  28
ATOM     28  O   UNL A   1      39.218  28.737  29.670  1.00  0.00    -0.376 OA
BRANCH  28  29
ATOM     29  C   UNL A   1      38.139  29.655  29.808  1.00  0.00     0.202 C 
BRANCH  29  30
ATOM     30  C   UNL A   1      36.772  29.422  30.508  1.00  0.00     0.261 C 
BRANCH  30  31
ATOM     31  O   UNL A   1      36.584  29.796  31.875  1.00  0.00    -0.460 OA
BRANCH  31  32
ATOM     32  C   UNL A   1      37.360  29.202  32.798  1.00  0.00     0.338 C 
ATOM     33  O   UNL A   1      37.666  28.022  32.842  1.00  0.00    -0.246 OA
BRANCH  32  34
ATOM     34  C   UNL A   1      37.956  30.276  33.625  1.00  0.00     0.060 A 
ATOM     35  C   UNL A   1      39.154  30.004  34.297  1.00  0.00     0.016 A 
ATOM     36  C   UNL A   1      37.365  31.542  33.721  1.00  0.00     0.016 A 
ATOM     37  C   UNL A   1      39.733  30.971  35.114  1.00  0.00     0.010 A 
ATOM     38  C   UNL A   1      37.929  32.503  34.567  1.00  0.00     0.010 A 
ATOM     39  C   UNL A   1      39.087  32.199  35.306  1.00  0.00    -0.014 A 
BRANCH  39  40
ATOM     40  C   UNL A   1      39.478  33.011  36.484  1.00  0.00     0.031 A 
ATOM     41  C   UNL A   1      40.557  34.046  36.291  1.00  0.00     0.074 A 
ATOM     42  C   UNL A   1      38.828  32.914  37.657  1.00  0.00     0.049 A 
ATOM     43  N   UNL A   1      41.040  34.916  37.137  1.00  0.00    -0.248 NA
ATOM     44  C   UNL A   1      41.168  34.105  34.952  1.00  0.00     0.031 C 
ATOM     45  C   UNL A   1      37.728  31.993  37.940  1.00  0.00     0.029 A 
ATOM     46  N   UNL A   1      38.992  33.611  38.827  1.00  0.00    -0.354 N 
ATOM     47  C   UNL A   1      42.009  35.628  36.434  1.00  0.00     0.074 A 
ATOM     48  C   UNL A   1      42.077  35.052  35.109  1.00  0.00     0.031 C 
ATOM     49  C   UNL A   1      37.314  32.185  39.204  1.00  0.00     0.029 A 
ATOM     50  C   UNL A   1      38.139  33.218  39.830  1.00  0.00     0.049 A 
ATOM     51  H   UNL A   1      39.659  34.327  38.937  1.00  0.00     0.167 HD
ATOM     52  C   UNL A   1      42.760  36.676  36.849  1.00  0.00     0.034 A 
ATOM     53  C   UNL A   1      38.048  33.637  41.109  1.00  0.00     0.034 A 
ATOM     54  C   UNL A   1      42.689  37.228  38.179  1.00  0.00     0.049 A 
ATOM     55  C   UNL A   1      38.965  34.745  41.580  1.00  0.00     0.074 A 
ATOM     56  C   UNL A   1      43.405  38.284  38.712  1.00  0.00     0.029 A 
ATOM     57  N   UNL A   1      41.860  36.759  39.191  1.00  0.00    -0.354 N 
ATOM     58  N   UNL A   1      39.875  35.412  40.906  1.00  0.00    -0.248 NA
ATOM     59  C   UNL A   1      38.829  35.164  42.981  1.00  0.00     0.031 C 
ATOM     60  C   UNL A   1      43.072  38.399  40.066  1.00  0.00     0.029 A 
ATOM     61  C   UNL A   1      42.075  37.481  40.355  1.00  0.00     0.049 A 
ATOM     62  H   UNL A   1      41.216  36.021  39.095  1.00  0.00     0.167 HD
ATOM     63  C   UNL A   1      40.390  36.356  41.793  1.00  0.00     0.074 A 
ATOM     64  C   UNL A   1      39.674  36.181  43.040  1.00  0.00     0.031 C 
ATOM     65  C   UNL A   1      41.361  37.288  41.597  1.00  0.00     0.034 A 
BRANCH  52  66
ATOM     66  C   UNL A   1      43.761  37.241  35.869  1.00  0.00     0.023 A 
ATOM     67  C   UNL A   1      43.437  38.299  34.999  1.00  0.00     0.031 A 
ATOM     68  C   UNL A   1      45.048  36.684  35.773  1.00  0.00     0.131 A 
ATOM     69  C   UNL A   1      44.358  38.713  34.025  1.00  0.00     0.055 A 
ATOM     70  C   UNL A   1      45.992  37.160  34.861  1.00  0.00     0.041 A 
ATOM     71  F   UNL A   1      45.407  35.654  36.555  1.00  0.00    -0.206 F 
ATOM     72  C   UNL A   1      45.644  38.171  33.970  1.00  0.00     0.022 A 
BRANCH  69  73
ATOM     73  S   UNL A   1      43.800  39.858  32.733  1.00  0.00     0.124 S 
ATOM     74  O   UNL A   1      42.551  40.357  33.302  1.00  0.00    -0.237 OA
ATOM     75  O   UNL A   1      44.900  40.814  32.664  1.00  0.00    -0.237 OA
ATOM     76  O   UNL A   1      43.644  39.000  31.560  1.00  0.00    -0.744 OA
ENDBRANCH  69  73
ENDBRANCH  52  66
BRANCH  53  77
ATOM     77  C   UNL A   1      37.085  32.997  42.053  1.00  0.00     0.023 A 
ATOM     78  C   UNL A   1      37.513  32.085  43.031  1.00  0.00     0.031 A 
ATOM     79  C   UNL A   1      35.703  33.236  41.941  1.00  0.00     0.131 A 
ATOM     80  C   UNL A   1      36.570  31.407  43.819  1.00  0.00     0.055 A 
ATOM     81  C   UNL A   1      34.772  32.606  42.768  1.00  0.00     0.041 A 
ATOM     82  F   UNL A   1      35.236  34.094  41.018  1.00  0.00    -0.206 F 
ATOM     83  C   UNL A   1      35.204  31.673  43.704  1.00  0.00     0.022 A 
BRANCH  80  84
ATOM     84  S   UNL A   1      37.147  30.094  44.931  1.00  0.00     0.124 S 
ATOM     85  O   UNL A   1      37.906  29.247  44.020  1.00  0.00    -0.237 OA
ATOM     86  O   UNL A   1      37.926  30.847  45.908  1.00  0.00    -0.237 OA
ATOM     87  O   UNL A   1      35.907  29.512  45.441  1.00  0.00    -0.744 OA
ENDBRANCH  80  84
ENDBRANCH  53  77
BRANCH  65  88
ATOM     88  C   UNL A   1      41.662  38.223  42.746  1.00  0.00     0.023 A 
ATOM     89  C   UNL A   1      42.657  37.938  43.697  1.00  0.00     0.031 A 
ATOM     90  C   UNL A   1      40.919  39.408  42.906  1.00  0.00     0.131 A 
ATOM     91  C   UNL A   1      42.827  38.780  44.807  1.00  0.00     0.055 A 
ATOM     92  C   UNL A   1      41.149  40.284  43.969  1.00  0.00     0.041 A 
ATOM     93  F   UNL A   1      39.954  39.735  42.032  1.00  0.00    -0.206 F 
ATOM     94  C   UNL A   1      42.093  39.962  44.938  1.00  0.00     0.022 A 
BRANCH  91  95
ATOM     95  S   UNL A   1      43.924  38.240  46.147  1.00  0.00     0.124 S 
ATOM     96  O   UNL A   1      43.737  36.793  46.126  1.00  0.00    -0.237 OA
ATOM     97  O   UNL A   1      45.226  38.721  45.695  1.00  0.00    -0.237 OA
ATOM     98  O   UNL A   1      43.387  38.919  47.325  1.00  0.00    -0.744 OA
ENDBRANCH  91  95
ENDBRANCH  65  88
ENDBRANCH  39  40
ENDBRANCH  32  34
ENDBRANCH  31  32
ENDBRANCH  30  31
ENDBRANCH  29  30
ENDBRANCH  28  29
ENDBRANCH  27  28
ENDBRANCH   1  27
TORSDOF 25
ENDMDL
MODEL 3
REMARK VINA RESULT:      -8.2      2.195      7.482
REMARK SMILES C[C@H]1[C@H](C(=O)OCCOCCOCCOCCOC(=O)c2ccc(-c3c4nc(c(-c5cc(S(=O)(=O)[O-])ccc5F)c5ccc([nH]5)c(-c5cc(S(=O)(=O)[O-])ccc5F)c5nc(c(-c6cc(S(=O)(=O)[O-])ccc6F)c6ccc3[nH]6)C=C5)C=C4)cc2)CC[N@@H+]1Cc1ccc(Br)cc1F
REMARK SMILES IDX 13 1 12 2 11 3 10 4 9 5 8 6 7 7 6 8 4 9 5 10 3 11 1 12 2 13
REMARK SMILES IDX 86 14 84 15 85 16 87 18 88 19 89 20 94 21 90 22 93 23 95 24
REMARK SMILES IDX 91 25 92 26 14 27 15 28 16 29 17 30 18 31 19 32 20 33 21 34
REMARK SMILES IDX 22 35 83 36 23 37 82 38 24 39 25 40 26 41 76 42 27 43 81 44
REMARK SMILES IDX 75 45 77 46 28 47 80 48 74 49 73 50 29 52 61 53 41 54 60 55
REMARK SMILES IDX 42 56 45 57 59 58 78 59 43 60 44 61 58 63 79 64 46 65 30 66
REMARK SMILES IDX 31 67 39 68 32 69 38 70 40 71 37 72 33 73 34 74 35 75 36 76
REMARK SMILES IDX 62 77 63 78 71 79 64 80 70 81 72 82 69 83 65 84 66 85 67 86
REMARK SMILES IDX 68 87 47 88 48 89 56 90 49 91 55 92 57 93 54 94 50 95 51 96
REMARK SMILES IDX 52 97 53 98
REMARK H PARENT 86 17 77 51 45 62
REMARK Flexibility Score: inf
ROOT
ATOM      1  C   UNL A   1      34.107  31.387  27.739  1.00  0.00     0.188 C 
ENDROOT
BRANCH   1   2
ATOM      2  O   UNL A   1      33.277  30.249  27.674  1.00  0.00    -0.377 OA
BRANCH   2   3
ATOM      3  C   UNL A   1      33.365  29.529  26.473  1.00  0.00     0.188 C 
BRANCH   3   4
ATOM      4  C   UNL A   1      32.570  29.878  25.209  1.00  0.00     0.188 C 
BRANCH   4   5
ATOM      5  O   UNL A   1      32.210  28.886  24.262  1.00  0.00    -0.376 OA
BRANCH   5   6
ATOM      6  C   UNL A   1      33.072  28.432  23.238  1.00  0.00     0.202 C 
BRANCH   6   7
ATOM      7  C   UNL A   1      33.148  26.967  22.768  1.00  0.00     0.261 C 
BRANCH   7   8
ATOM      8  O   UNL A   1      33.978  26.075  23.534  1.00  0.00    -0.463 OA
BRANCH   8   9
ATOM      9  C   UNL A   1      33.497  25.686  24.735  1.00  0.00     0.315 C 
ATOM     10  O   UNL A   1      34.203  25.528  25.727  1.00  0.00    -0.252 OA
BRANCH   9  11
ATOM     11  C   UNL A   1      31.994  25.428  24.797  1.00  0.00     0.162 C 
ATOM     12  C   UNL A   1      30.264  24.485  23.205  1.00  0.00     0.076 C 
ATOM     13  C   UNL A   1      31.339  24.142  24.257  1.00  0.00     0.195 C 
ATOM     14  N   UNL A   1      30.630  23.503  25.369  1.00  0.00    -0.328 N 
ATOM     15  C   UNL A   1      31.546  25.522  26.248  1.00  0.00     0.083 C 
ATOM     16  C   UNL A   1      30.428  24.509  26.399  1.00  0.00     0.263 C 
ATOM     17  H   UNL A   1      29.714  23.192  25.047  1.00  0.00     0.348 HD
BRANCH  14  18
ATOM     18  C   UNL A   1      31.137  22.193  25.798  1.00  0.00     0.302 C 
BRANCH  18  19
ATOM     19  C   UNL A   1      32.613  21.903  25.650  1.00  0.00     0.042 A 
ATOM     20  C   UNL A   1      33.093  21.176  24.543  1.00  0.00     0.014 A 
ATOM     21  C   UNL A   1      33.535  22.299  26.621  1.00  0.00     0.133 A 
ATOM     22  C   UNL A   1      34.456  20.891  24.411  1.00  0.00     0.016 A 
ATOM     23  C   UNL A   1      34.898  22.048  26.484  1.00  0.00     0.055 A 
ATOM     24  F   UNL A   1      33.118  22.931  27.726  1.00  0.00    -0.206 F 
ATOM     25  C   UNL A   1      35.353  21.341  25.377  1.00  0.00     0.020 A 
ATOM     26  Br  UNL A   1      37.200  21.001  25.180  1.00  0.00    -0.051 Br
ENDBRANCH  18  19
ENDBRANCH  14  18
ENDBRANCH   9  11
ENDBRANCH   8   9
ENDBRANCH   7   8
ENDBRANCH   6   7
ENDBRANCH   5   6
ENDBRANCH   4   5
ENDBRANCH   3   4
ENDBRANCH   2   3
ENDBRANCH   1   2
BRANCH   1  27
ATOM     27  C   UNL A   1      35.560  30.954  27.896  1.00  0.00     0.188 C 
BRANCH  27  28
ATOM     28  O   UNL A   1      35.940  30.766  29.249  1.00  0.00    -0.376 OA
BRANCH  28  29
ATOM     29  C   UNL A   1      36.632  31.776  29.975  1.00  0.00     0.202 C 
BRANCH  29  30
ATOM     30  C   UNL A   1      36.997  31.786  31.484  1.00  0.00     0.261 C 
BRANCH  30  31
ATOM     31  O   UNL A   1      38.046  32.626  31.972  1.00  0.00    -0.460 OA
BRANCH  31  32
ATOM     32  C   UNL A   1      38.104  33.886  31.508  1.00  0.00     0.338 C 
ATOM     33  O   UNL A   1      37.357  34.805  31.800  1.00  0.00    -0.246 OA
BRANCH  32  34
ATOM     34  C   UNL A   1      39.370  34.016  30.750  1.00  0.00     0.060 A 
ATOM     35  C   UNL A   1      40.486  33.302  31.202  1.00  0.00     0.016 A 
ATOM     36  C   UNL A   1      39.457  34.805  29.597  1.00  0.00     0.016 A 
ATOM     37  C   UNL A   1      41.706  33.421  30.542  1.00  0.00     0.010 A 
ATOM     38  C   UNL A   1      40.690  34.950  28.952  1.00  0.00     0.010 A 
ATOM     39  C   UNL A   1      41.830  34.297  29.457  1.00  0.00    -0.014 A 
BRANCH  39  40
ATOM     40  C   UNL A   1      43.194  34.728  29.065  1.00  0.00     0.031 A 
ATOM     41  C   UNL A   1      44.166  33.658  28.635  1.00  0.00     0.074 A 
ATOM     42  C   UNL A   1      43.530  36.027  28.987  1.00  0.00     0.049 A 
ATOM     43  N   UNL A   1      45.391  33.771  28.197  1.00  0.00    -0.248 NA
ATOM     44  C   UNL A   1      43.679  32.271  28.710  1.00  0.00     0.031 C 
ATOM     45  C   UNL A   1      42.652  37.149  29.316  1.00  0.00     0.029 A 
ATOM     46  N   UNL A   1      44.701  36.622  28.589  1.00  0.00    -0.354 N 
ATOM     47  C   UNL A   1      45.821  32.472  27.939  1.00  0.00     0.074 A 
ATOM     48  C   UNL A   1      44.742  31.588  28.321  1.00  0.00     0.031 C 
ATOM     49  C   UNL A   1      43.317  38.297  29.104  1.00  0.00     0.029 A 
ATOM     50  C   UNL A   1      44.675  37.995  28.656  1.00  0.00     0.049 A 
ATOM     51  H   UNL A   1      45.486  36.112  28.284  1.00  0.00     0.167 HD
ATOM     52  C   UNL A   1      47.000  32.056  27.419  1.00  0.00     0.034 A 
ATOM     53  C   UNL A   1      45.644  38.896  28.396  1.00  0.00     0.034 A 
ATOM     54  C   UNL A   1      48.071  32.951  27.058  1.00  0.00     0.049 A 
ATOM     55  C   UNL A   1      46.987  38.402  27.906  1.00  0.00     0.074 A 
ATOM     56  C   UNL A   1      49.310  32.643  26.527  1.00  0.00     0.029 A 
ATOM     57  N   UNL A   1      48.034  34.333  27.204  1.00  0.00    -0.354 N 
ATOM     58  N   UNL A   1      47.382  37.172  27.664  1.00  0.00    -0.248 NA
ATOM     59  C   UNL A   1      48.009  39.423  27.640  1.00  0.00     0.031 C 
ATOM     60  C   UNL A   1      50.051  33.825  26.431  1.00  0.00     0.029 A 
ATOM     61  C   UNL A   1      49.242  34.886  26.807  1.00  0.00     0.049 A 
ATOM     62  H   UNL A   1      47.263  34.844  27.540  1.00  0.00     0.167 HD
ATOM     63  C   UNL A   1      48.685  37.277  27.180  1.00  0.00     0.074 A 
ATOM     64  C   UNL A   1      48.998  38.692  27.148  1.00  0.00     0.031 C 
ATOM     65  C   UNL A   1      49.545  36.299  26.791  1.00  0.00     0.034 A 
BRANCH  52  66
ATOM     66  C   UNL A   1      47.205  30.566  27.272  1.00  0.00     0.023 A 
ATOM     67  C   UNL A   1      46.920  29.890  26.072  1.00  0.00     0.031 A 
ATOM     68  C   UNL A   1      47.651  29.804  28.365  1.00  0.00     0.131 A 
ATOM     69  C   UNL A   1      47.013  28.491  26.017  1.00  0.00     0.055 A 
ATOM     70  C   UNL A   1      47.826  28.421  28.278  1.00  0.00     0.041 A 
ATOM     71  F   UNL A   1      47.911  30.387  29.545  1.00  0.00    -0.206 F 
ATOM     72  C   UNL A   1      47.492  27.755  27.103  1.00  0.00     0.022 A 
BRANCH  69  73
ATOM     73  S   UNL A   1      46.350  27.632  24.562  1.00  0.00     0.124 S 
ATOM     74  O   UNL A   1      47.065  26.360  24.621  1.00  0.00    -0.237 OA
ATOM     75  O   UNL A   1      44.921  27.578  24.852  1.00  0.00    -0.237 OA
ATOM     76  O   UNL A   1      46.729  28.502  23.450  1.00  0.00    -0.744 OA
ENDBRANCH  69  73
ENDBRANCH  52  66
BRANCH  53  77
ATOM     77  C   UNL A   1      45.408  40.353  28.622  1.00  0.00     0.023 A 
ATOM     78  C   UNL A   1      45.364  40.897  29.916  1.00  0.00     0.031 A 
ATOM     79  C   UNL A   1      45.149  41.214  27.540  1.00  0.00     0.131 A 
ATOM     80  C   UNL A   1      45.016  42.244  30.098  1.00  0.00     0.055 A 
ATOM     81  C   UNL A   1      44.863  42.568  27.722  1.00  0.00     0.041 A 
ATOM     82  F   UNL A   1      45.170  40.747  26.280  1.00  0.00    -0.206 F 
ATOM     83  C   UNL A   1      44.780  43.087  29.009  1.00  0.00     0.022 A 
BRANCH  80  84
ATOM     84  S   UNL A   1      44.775  42.860  31.788  1.00  0.00     0.124 S 
ATOM     85  O   UNL A   1      43.376  42.528  32.028  1.00  0.00    -0.237 OA
ATOM     86  O   UNL A   1      45.758  42.082  32.536  1.00  0.00    -0.237 OA
ATOM     87  O   UNL A   1      45.069  44.288  31.675  1.00  0.00    -0.744 OA
ENDBRANCH  80  84
ENDBRANCH  53  77
BRANCH  65  88
ATOM     88  C   UNL A   1      50.886  36.735  26.245  1.00  0.00     0.023 A 
ATOM     89  C   UNL A   1      51.947  37.109  27.089  1.00  0.00     0.031 A 
ATOM     90  C   UNL A   1      51.095  36.805  24.855  1.00  0.00     0.131 A 
ATOM     91  C   UNL A   1      53.135  37.611  26.538  1.00  0.00     0.055 A 
ATOM     92  C   UNL A   1      52.309  37.229  24.313  1.00  0.00     0.041 A 
ATOM     93  F   UNL A   1      50.119  36.464  23.998  1.00  0.00    -0.206 F 
ATOM     94  C   UNL A   1      53.332  37.654  25.155  1.00  0.00     0.022 A 
BRANCH  91  95
ATOM     95  S   UNL A   1      54.371  38.334  27.652  1.00  0.00     0.124 S 
ATOM     96  O   UNL A   1      55.617  38.048  26.947  1.00  0.00    -0.237 OA
ATOM     97  O   UNL A   1      53.970  39.736  27.693  1.00  0.00    -0.237 OA
ATOM     98  O   UNL A   1      54.182  37.597  28.900  1.00  0.00    -0.744 OA
ENDBRANCH  91  95
ENDBRANCH  65  88
ENDBRANCH  39  40
ENDBRANCH  32  34
ENDBRANCH  31  32
ENDBRANCH  30  31
ENDBRANCH  29  30
ENDBRANCH  28  29
ENDBRANCH  27  28
ENDBRANCH   1  27
TORSDOF 25
ENDMDL
