MODEL 1
REMARK VINA RESULT:      -7.9      0.000      0.000
REMARK SMILES O=C1[NH+]=C(Nc2ccc(C(=O)OCCOCCOCCOCCOC(=O)c3ccc(-c4c5nc(c(-c6cc(S(=O)(=O)[O-])ccc6F)c6ccc([nH]6)c(-c6cc(S(=O)(=O)[O-])ccc6F)c6nc(c(-c7cc(S(=O)(=O)[O-])ccc7F)c7ccc4[nH]7)C=C6)C=C5)cc3)c(O)c2)S/C1=C\c1ccc[nH]1
REMARK SMILES IDX 19 1 18 2 17 3 16 4 15 5 14 6 13 7 12 8 10 9 11 10 9 11 6 12
REMARK SMILES IDX 7 13 92 14 8 15 90 16 5 17 1 18 2 19 3 20 94 21 4 22 93 24
REMARK SMILES IDX 95 25 96 27 97 28 100 29 98 30 99 31 91 33 20 35 21 36 22 37
REMARK SMILES IDX 23 38 24 39 25 40 26 41 27 42 28 43 89 44 29 45 88 46 30 47
REMARK SMILES IDX 31 48 32 49 82 50 33 51 87 52 81 53 83 54 34 55 86 56 80 57
REMARK SMILES IDX 79 58 35 60 67 61 47 62 66 63 48 64 51 65 65 66 84 67 49 68
REMARK SMILES IDX 50 69 64 71 85 72 52 73 36 74 37 75 45 76 38 77 44 78 46 79
REMARK SMILES IDX 43 80 39 81 40 82 41 83 42 84 68 85 69 86 77 87 70 88 76 89
REMARK SMILES IDX 78 90 75 91 71 92 72 93 73 94 74 95 53 96 54 97 62 98 55 99
REMARK SMILES IDX 61 100 63 101 60 102 56 103 57 104 58 105 59 106
REMARK H PARENT 3 23 5 26 100 32 91 34 83 59 51 70
REMARK Flexibility Score: inf
ROOT
ATOM      1  C   UNL A   1      42.697  19.474  25.788  1.00  0.00     0.188 C 
ENDROOT
BRANCH   1   2
ATOM      2  O   UNL A   1      42.272  20.058  27.018  1.00  0.00    -0.377 OA
BRANCH   2   3
ATOM      3  C   UNL A   1      42.453  21.457  27.156  1.00  0.00     0.188 C 
BRANCH   3   4
ATOM      4  C   UNL A   1      41.287  22.268  26.560  1.00  0.00     0.188 C 
BRANCH   4   5
ATOM      5  O   UNL A   1      41.526  23.628  26.250  1.00  0.00    -0.376 OA
BRANCH   5   6
ATOM      6  C   UNL A   1      40.782  24.702  26.806  1.00  0.00     0.202 C 
BRANCH   6   7
ATOM      7  C   UNL A   1      41.011  25.416  28.156  1.00  0.00     0.261 C 
BRANCH   7   8
ATOM      8  O   UNL A   1      39.954  26.194  28.710  1.00  0.00    -0.460 OA
BRANCH   8   9
ATOM      9  C   UNL A   1      40.104  27.535  28.673  1.00  0.00     0.341 C 
ATOM     10  O   UNL A   1      40.172  28.238  27.681  1.00  0.00    -0.246 OA
BRANCH   9  11
ATOM     11  C   UNL A   1      39.942  28.044  30.055  1.00  0.00     0.102 A 
ATOM     12  C   UNL A   1      39.496  28.936  32.686  1.00  0.00     0.129 A 
ATOM     13  C   UNL A   1      38.617  28.028  32.089  1.00  0.00     0.053 A 
ATOM     14  C   UNL A   1      40.641  29.330  31.979  1.00  0.00     0.098 A 
ATOM     15  C   UNL A   1      38.812  27.620  30.766  1.00  0.00     0.024 A 
ATOM     16  C   UNL A   1      40.887  28.850  30.694  1.00  0.00     0.134 A 
BRANCH  12  17
ATOM     17  N   UNL A   1      39.267  29.464  33.959  1.00  0.00    -0.234 N 
ATOM     18  O   UNL A   1      36.283  33.046  33.847  1.00  0.00    -0.240 OA
ATOM     19  C   UNL A   1      37.150  32.296  34.284  1.00  0.00     0.346 C 
ATOM     20  N   UNL A   1      37.744  31.276  33.575  1.00  0.00    -0.199 N 
ATOM     21  C   UNL A   1      37.678  32.392  35.676  1.00  0.00     0.111 C 
ATOM     22  C   UNL A   1      38.577  30.589  34.283  1.00  0.00     0.322 C 
ATOM     23  H   UNL A   1      37.553  31.091  32.627  1.00  0.00     0.316 HD
ATOM     24  S   UNL A   1      38.832  31.146  35.925  1.00  0.00     0.006 SA
ATOM     25  C   UNL A   1      37.248  33.320  36.544  1.00  0.00     0.050 C 
ATOM     26  H   UNL A   1      39.651  28.959  34.713  1.00  0.00     0.313 HD
BRANCH  25  27
ATOM     27  C   UNL A   1      37.810  33.492  37.832  1.00  0.00     0.039 A 
ATOM     28  C   UNL A   1      37.431  33.084  39.097  1.00  0.00     0.027 A 
ATOM     29  N   UNL A   1      38.998  34.171  37.956  1.00  0.00    -0.362 N 
ATOM     30  C   UNL A   1      38.412  33.542  40.009  1.00  0.00     0.020 A 
ATOM     31  C   UNL A   1      39.364  34.217  39.279  1.00  0.00     0.083 A 
ATOM     32  H   UNL A   1      39.508  34.565  37.212  1.00  0.00     0.166 HD
ENDBRANCH  25  27
ENDBRANCH  12  17
BRANCH  16  33
ATOM     33  O   UNL A   1      42.091  29.185  30.143  1.00  0.00    -0.507 OA
ATOM     34  H   UNL A   1      42.459  30.033  30.300  1.00  0.00     0.293 HD
ENDBRANCH  16  33
ENDBRANCH   9  11
ENDBRANCH   8   9
ENDBRANCH   7   8
ENDBRANCH   6   7
ENDBRANCH   5   6
ENDBRANCH   4   5
ENDBRANCH   3   4
ENDBRANCH   2   3
ENDBRANCH   1   2
BRANCH   1  35
ATOM     35  C   UNL A   1      43.818  18.405  25.783  1.00  0.00     0.188 C 
BRANCH  35  36
ATOM     36  O   UNL A   1      44.619  18.411  24.608  1.00  0.00    -0.376 OA
BRANCH  36  37
ATOM     37  C   UNL A   1      45.076  19.649  24.092  1.00  0.00     0.202 C 
BRANCH  37  38
ATOM     38  C   UNL A   1      46.109  20.419  24.925  1.00  0.00     0.261 C 
BRANCH  38  39
ATOM     39  O   UNL A   1      45.706  21.709  25.401  1.00  0.00    -0.460 OA
BRANCH  39  40
ATOM     40  C   UNL A   1      46.179  22.795  24.749  1.00  0.00     0.338 C 
ATOM     41  O   UNL A   1      46.610  22.836  23.613  1.00  0.00    -0.246 OA
BRANCH  40  42
ATOM     42  C   UNL A   1      45.900  23.965  25.609  1.00  0.00     0.060 A 
ATOM     43  C   UNL A   1      46.926  24.515  26.390  1.00  0.00     0.016 A 
ATOM     44  C   UNL A   1      44.626  24.536  25.607  1.00  0.00     0.016 A 
ATOM     45  C   UNL A   1      46.670  25.630  27.193  1.00  0.00     0.010 A 
ATOM     46  C   UNL A   1      44.369  25.636  26.425  1.00  0.00     0.010 A 
ATOM     47  C   UNL A   1      45.380  26.173  27.242  1.00  0.00    -0.014 A 
BRANCH  47  48
ATOM     48  C   UNL A   1      45.000  27.157  28.285  1.00  0.00     0.031 A 
ATOM     49  C   UNL A   1      45.169  28.616  27.962  1.00  0.00     0.074 A 
ATOM     50  C   UNL A   1      44.571  26.774  29.501  1.00  0.00     0.049 A 
ATOM     51  N   UNL A   1      45.104  29.656  28.749  1.00  0.00    -0.248 NA
ATOM     52  C   UNL A   1      45.471  28.935  26.559  1.00  0.00     0.031 C 
ATOM     53  C   UNL A   1      44.308  25.396  29.910  1.00  0.00     0.029 A 
ATOM     54  N   UNL A   1      44.306  27.517  30.626  1.00  0.00    -0.354 N 
ATOM     55  C   UNL A   1      45.377  30.754  27.940  1.00  0.00     0.074 A 
ATOM     56  C   UNL A   1      45.638  30.246  26.610  1.00  0.00     0.031 C 
ATOM     57  C   UNL A   1      43.945  25.390  31.205  1.00  0.00     0.029 A 
ATOM     58  C   UNL A   1      44.005  26.753  31.731  1.00  0.00     0.049 A 
ATOM     59  H   UNL A   1      44.330  28.500  30.641  1.00  0.00     0.167 HD
ATOM     60  C   UNL A   1      45.410  32.065  28.279  1.00  0.00     0.034 A 
ATOM     61  C   UNL A   1      43.846  27.112  33.023  1.00  0.00     0.034 A 
ATOM     62  C   UNL A   1      45.163  32.549  29.615  1.00  0.00     0.049 A 
ATOM     63  C   UNL A   1      43.996  28.571  33.404  1.00  0.00     0.074 A 
ATOM     64  C   UNL A   1      45.159  33.855  30.070  1.00  0.00     0.029 A 
ATOM     65  N   UNL A   1      44.894  31.744  30.714  1.00  0.00    -0.354 N 
ATOM     66  N   UNL A   1      44.265  29.603  32.637  1.00  0.00    -0.248 NA
ATOM     67  C   UNL A   1      43.824  28.911  34.824  1.00  0.00     0.031 C 
ATOM     68  C   UNL A   1      44.975  33.833  31.455  1.00  0.00     0.029 A 
ATOM     69  C   UNL A   1      44.761  32.523  31.851  1.00  0.00     0.049 A 
ATOM     70  H   UNL A   1      44.810  30.762  30.688  1.00  0.00     0.167 HD
ATOM     71  C   UNL A   1      44.247  30.717  33.475  1.00  0.00     0.074 A 
ATOM     72  C   UNL A   1      43.945  30.231  34.805  1.00  0.00     0.031 C 
ATOM     73  C   UNL A   1      44.452  32.024  33.172  1.00  0.00     0.034 A 
BRANCH  60  74
ATOM     74  C   UNL A   1      45.784  33.053  27.202  1.00  0.00     0.023 A 
ATOM     75  C   UNL A   1      47.119  33.427  26.970  1.00  0.00     0.031 A 
ATOM     76  C   UNL A   1      44.786  33.654  26.415  1.00  0.00     0.131 A 
ATOM     77  C   UNL A   1      47.412  34.426  26.029  1.00  0.00     0.055 A 
ATOM     78  C   UNL A   1      45.092  34.583  25.419  1.00  0.00     0.041 A 
ATOM     79  F   UNL A   1      43.491  33.359  26.611  1.00  0.00    -0.206 F 
ATOM     80  C   UNL A   1      46.411  34.986  25.231  1.00  0.00     0.022 A 
BRANCH  77  81
ATOM     81  S   UNL A   1      49.097  35.093  25.973  1.00  0.00     0.124 S 
ATOM     82  O   UNL A   1      49.735  34.202  25.007  1.00  0.00    -0.237 OA
ATOM     83  O   UNL A   1      48.879  36.464  25.530  1.00  0.00    -0.237 OA
ATOM     84  O   UNL A   1      49.568  34.948  27.349  1.00  0.00    -0.744 OA
ENDBRANCH  77  81
ENDBRANCH  60  74
BRANCH  61  85
ATOM     85  C   UNL A   1      43.584  26.083  34.072  1.00  0.00     0.023 A 
ATOM     86  C   UNL A   1      44.597  25.209  34.500  1.00  0.00     0.031 A 
ATOM     87  C   UNL A   1      42.298  25.912  34.617  1.00  0.00     0.131 A 
ATOM     88  C   UNL A   1      44.297  24.176  35.401  1.00  0.00     0.055 A 
ATOM     89  C   UNL A   1      42.020  24.923  35.562  1.00  0.00     0.041 A 
ATOM     90  F   UNL A   1      41.288  26.711  34.237  1.00  0.00    -0.206 F 
ATOM     91  C   UNL A   1      43.020  24.037  35.949  1.00  0.00     0.022 A 
BRANCH  88  92
ATOM     92  S   UNL A   1      45.579  22.945  35.768  1.00  0.00     0.124 S 
ATOM     93  O   UNL A   1      44.862  21.696  35.540  1.00  0.00    -0.237 OA
ATOM     94  O   UNL A   1      46.611  23.283  34.793  1.00  0.00    -0.237 OA
ATOM     95  O   UNL A   1      45.926  23.221  37.161  1.00  0.00    -0.744 OA
ENDBRANCH  88  92
ENDBRANCH  61  85
BRANCH  73  96
ATOM     96  C   UNL A   1      44.280  33.040  34.277  1.00  0.00     0.023 A 
ATOM     97  C   UNL A   1      43.071  33.724  34.488  1.00  0.00     0.031 A 
ATOM     98  C   UNL A   1      45.346  33.293  35.161  1.00  0.00     0.131 A 
ATOM     99  C   UNL A   1      42.969  34.654  35.536  1.00  0.00     0.055 A 
ATOM    100  C   UNL A   1      45.219  34.170  36.238  1.00  0.00     0.041 A 
ATOM    101  F   UNL A   1      46.526  32.669  35.005  1.00  0.00    -0.206 F 
ATOM    102  C   UNL A   1      44.027  34.862  36.425  1.00  0.00     0.022 A 
BRANCH  99 103
ATOM    103  S   UNL A   1      41.455  35.641  35.687  1.00  0.00     0.124 S 
ATOM    104  O   UNL A   1      41.533  36.106  37.069  1.00  0.00    -0.237 OA
ATOM    105  O   UNL A   1      41.642  36.661  34.660  1.00  0.00    -0.237 OA
ATOM    106  O   UNL A   1      40.388  34.679  35.416  1.00  0.00    -0.744 OA
ENDBRANCH  99 103
ENDBRANCH  73  96
ENDBRANCH  47  48
ENDBRANCH  40  42
ENDBRANCH  39  40
ENDBRANCH  38  39
ENDBRANCH  37  38
ENDBRANCH  36  37
ENDBRANCH  35  36
ENDBRANCH   1  35
TORSDOF 26
ENDMDL
MODEL 2
REMARK VINA RESULT:      -7.6      5.576      7.135
REMARK SMILES O=C1[NH+]=C(Nc2ccc(C(=O)OCCOCCOCCOCCOC(=O)c3ccc(-c4c5nc(c(-c6cc(S(=O)(=O)[O-])ccc6F)c6ccc([nH]6)c(-c6cc(S(=O)(=O)[O-])ccc6F)c6nc(c(-c7cc(S(=O)(=O)[O-])ccc7F)c7ccc4[nH]7)C=C6)C=C5)cc3)c(O)c2)S/C1=C\c1ccc[nH]1
REMARK SMILES IDX 19 1 18 2 17 3 16 4 15 5 14 6 13 7 12 8 10 9 11 10 9 11 6 12
REMARK SMILES IDX 7 13 92 14 8 15 90 16 5 17 1 18 2 19 3 20 94 21 4 22 93 24
REMARK SMILES IDX 95 25 96 27 97 28 100 29 98 30 99 31 91 33 20 35 21 36 22 37
REMARK SMILES IDX 23 38 24 39 25 40 26 41 27 42 28 43 89 44 29 45 88 46 30 47
REMARK SMILES IDX 31 48 32 49 82 50 33 51 87 52 81 53 83 54 34 55 86 56 80 57
REMARK SMILES IDX 79 58 35 60 67 61 47 62 66 63 48 64 51 65 65 66 84 67 49 68
REMARK SMILES IDX 50 69 64 71 85 72 52 73 36 74 37 75 45 76 38 77 44 78 46 79
REMARK SMILES IDX 43 80 39 81 40 82 41 83 42 84 68 85 69 86 77 87 70 88 76 89
REMARK SMILES IDX 78 90 75 91 71 92 72 93 73 94 74 95 53 96 54 97 62 98 55 99
REMARK SMILES IDX 61 100 63 101 60 102 56 103 57 104 58 105 59 106
REMARK H PARENT 3 23 5 26 100 32 91 34 83 59 51 70
REMARK Flexibility Score: inf
ROOT
ATOM      1  C   UNL A   1      41.516  19.523  25.844  1.00  0.00     0.188 C 
ENDROOT
BRANCH   1   2
ATOM      2  O   UNL A   1      40.712  20.342  26.693  1.00  0.00    -0.377 OA
BRANCH   2   3
ATOM      3  C   UNL A   1      39.704  21.115  26.065  1.00  0.00     0.188 C 
BRANCH   3   4
ATOM      4  C   UNL A   1      38.649  20.248  25.351  1.00  0.00     0.188 C 
BRANCH   4   5
ATOM      5  O   UNL A   1      37.597  20.916  24.683  1.00  0.00    -0.376 OA
BRANCH   5   6
ATOM      6  C   UNL A   1      36.230  20.785  25.043  1.00  0.00     0.202 C 
BRANCH   6   7
ATOM      7  C   UNL A   1      35.432  21.630  26.061  1.00  0.00     0.261 C 
BRANCH   7   8
ATOM      8  O   UNL A   1      34.309  21.043  26.711  1.00  0.00    -0.460 OA
BRANCH   8   9
ATOM      9  C   UNL A   1      33.341  20.542  25.915  1.00  0.00     0.341 C 
ATOM     10  O   UNL A   1      33.056  19.368  25.757  1.00  0.00    -0.246 OA
BRANCH   9  11
ATOM     11  C   UNL A   1      32.522  21.678  25.431  1.00  0.00     0.102 A 
ATOM     12  C   UNL A   1      31.002  23.791  24.363  1.00  0.00     0.129 A 
ATOM     13  C   UNL A   1      31.564  22.828  23.519  1.00  0.00     0.053 A 
ATOM     14  C   UNL A   1      31.144  23.639  25.750  1.00  0.00     0.098 A 
ATOM     15  C   UNL A   1      32.358  21.805  24.045  1.00  0.00     0.024 A 
ATOM     16  C   UNL A   1      31.856  22.564  26.280  1.00  0.00     0.134 A 
BRANCH  12  17
ATOM     17  N   UNL A   1      30.309  24.899  23.867  1.00  0.00    -0.234 N 
ATOM     18  O   UNL A   1      33.202  28.244  22.388  1.00  0.00    -0.240 OA
ATOM     19  C   UNL A   1      32.156  27.722  22.763  1.00  0.00     0.346 C 
ATOM     20  N   UNL A   1      32.038  26.431  23.224  1.00  0.00    -0.199 N 
ATOM     21  C   UNL A   1      30.847  28.438  22.758  1.00  0.00     0.111 C 
ATOM     22  C   UNL A   1      30.819  26.101  23.491  1.00  0.00     0.322 C 
ATOM     23  H   UNL A   1      32.804  25.823  23.340  1.00  0.00     0.316 HD
ATOM     24  S   UNL A   1      29.621  27.366  23.299  1.00  0.00     0.006 SA
ATOM     25  C   UNL A   1      30.727  29.711  22.355  1.00  0.00     0.050 C 
ATOM     26  H   UNL A   1      29.333  24.795  23.778  1.00  0.00     0.313 HD
BRANCH  25  27
ATOM     27  C   UNL A   1      29.514  30.438  22.441  1.00  0.00     0.039 A 
ATOM     28  C   UNL A   1      28.782  30.943  23.498  1.00  0.00     0.027 A 
ATOM     29  N   UNL A   1      28.863  30.787  21.283  1.00  0.00    -0.362 N 
ATOM     30  C   UNL A   1      27.652  31.604  22.962  1.00  0.00     0.020 A 
ATOM     31  C   UNL A   1      27.722  31.486  21.592  1.00  0.00     0.083 A 
ATOM     32  H   UNL A   1      29.167  30.570  20.372  1.00  0.00     0.166 HD
ENDBRANCH  25  27
ENDBRANCH  12  17
BRANCH  16  33
ATOM     33  O   UNL A   1      31.824  22.430  27.639  1.00  0.00    -0.507 OA
ATOM     34  H   UNL A   1      32.540  22.021  28.086  1.00  0.00     0.293 HD
ENDBRANCH  16  33
ENDBRANCH   9  11
ENDBRANCH   8   9
ENDBRANCH   7   8
ENDBRANCH   6   7
ENDBRANCH   5   6
ENDBRANCH   4   5
ENDBRANCH   3   4
ENDBRANCH   2   3
ENDBRANCH   1   2
BRANCH   1  35
ATOM     35  C   UNL A   1      42.894  19.014  26.334  1.00  0.00     0.188 C 
BRANCH  35  36
ATOM     36  O   UNL A   1      43.766  18.605  25.288  1.00  0.00    -0.376 OA
BRANCH  36  37
ATOM     37  C   UNL A   1      44.236  19.572  24.366  1.00  0.00     0.202 C 
BRANCH  37  38
ATOM     38  C   UNL A   1      45.316  20.545  24.857  1.00  0.00     0.261 C 
BRANCH  38  39
ATOM     39  O   UNL A   1      44.856  21.811  25.344  1.00  0.00    -0.460 OA
BRANCH  39  40
ATOM     40  C   UNL A   1      45.106  22.903  24.586  1.00  0.00     0.338 C 
ATOM     41  O   UNL A   1      45.212  22.945  23.375  1.00  0.00    -0.246 OA
BRANCH  40  42
ATOM     42  C   UNL A   1      45.040  24.073  25.488  1.00  0.00     0.060 A 
ATOM     43  C   UNL A   1      46.154  24.414  26.268  1.00  0.00     0.016 A 
ATOM     44  C   UNL A   1      43.882  24.851  25.527  1.00  0.00     0.016 A 
ATOM     45  C   UNL A   1      46.102  25.528  27.110  1.00  0.00     0.010 A 
ATOM     46  C   UNL A   1      43.825  25.951  26.384  1.00  0.00     0.010 A 
ATOM     47  C   UNL A   1      44.923  26.280  27.200  1.00  0.00    -0.014 A 
BRANCH  47  48
ATOM     48  C   UNL A   1      44.728  27.277  28.280  1.00  0.00     0.031 A 
ATOM     49  C   UNL A   1      45.049  28.713  27.970  1.00  0.00     0.074 A 
ATOM     50  C   UNL A   1      44.333  26.920  29.515  1.00  0.00     0.049 A 
ATOM     51  N   UNL A   1      45.157  29.735  28.775  1.00  0.00    -0.248 NA
ATOM     52  C   UNL A   1      45.299  29.027  26.555  1.00  0.00     0.031 C 
ATOM     53  C   UNL A   1      43.934  25.574  29.919  1.00  0.00     0.029 A 
ATOM     54  N   UNL A   1      44.229  27.662  30.666  1.00  0.00    -0.354 N 
ATOM     55  C   UNL A   1      45.509  30.812  27.967  1.00  0.00     0.074 A 
ATOM     56  C   UNL A   1      45.624  30.308  26.616  1.00  0.00     0.031 C 
ATOM     57  C   UNL A   1      43.654  25.580  31.234  1.00  0.00     0.029 A 
ATOM     58  C   UNL A   1      43.908  26.915  31.776  1.00  0.00     0.049 A 
ATOM     59  H   UNL A   1      44.371  28.636  30.695  1.00  0.00     0.167 HD
ATOM     60  C   UNL A   1      45.718  32.102  28.324  1.00  0.00     0.034 A 
ATOM     61  C   UNL A   1      43.874  27.260  33.081  1.00  0.00     0.034 A 
ATOM     62  C   UNL A   1      45.614  32.580  29.680  1.00  0.00     0.049 A 
ATOM     63  C   UNL A   1      44.219  28.681  33.474  1.00  0.00     0.074 A 
ATOM     64  C   UNL A   1      45.793  33.867  30.155  1.00  0.00     0.029 A 
ATOM     65  N   UNL A   1      45.320  31.788  30.781  1.00  0.00    -0.354 N 
ATOM     66  N   UNL A   1      44.561  29.692  32.707  1.00  0.00    -0.248 NA
ATOM     67  C   UNL A   1      44.178  29.007  34.907  1.00  0.00     0.031 C 
ATOM     68  C   UNL A   1      45.695  33.835  31.548  1.00  0.00     0.029 A 
ATOM     69  C   UNL A   1      45.352  32.550  31.937  1.00  0.00     0.049 A 
ATOM     70  H   UNL A   1      45.118  30.824  30.746  1.00  0.00     0.167 HD
ATOM     71  C   UNL A   1      44.729  30.781  33.563  1.00  0.00     0.074 A 
ATOM     72  C   UNL A   1      44.454  30.303  34.901  1.00  0.00     0.031 C 
ATOM     73  C   UNL A   1      45.068  32.061  33.267  1.00  0.00     0.034 A 
BRANCH  60  74
ATOM     74  C   UNL A   1      46.140  33.064  27.241  1.00  0.00     0.023 A 
ATOM     75  C   UNL A   1      47.492  33.279  26.925  1.00  0.00     0.031 A 
ATOM     76  C   UNL A   1      45.173  33.799  26.532  1.00  0.00     0.131 A 
ATOM     77  C   UNL A   1      47.843  34.258  25.983  1.00  0.00     0.055 A 
ATOM     78  C   UNL A   1      45.525  34.709  25.533  1.00  0.00     0.041 A 
ATOM     79  F   UNL A   1      43.867  33.659  26.810  1.00  0.00    -0.206 F 
ATOM     80  C   UNL A   1      46.868  34.954  25.264  1.00  0.00     0.022 A 
BRANCH  77  81
ATOM     81  S   UNL A   1      49.589  34.718  25.825  1.00  0.00     0.124 S 
ATOM     82  O   UNL A   1      49.503  35.927  25.008  1.00  0.00    -0.237 OA
ATOM     83  O   UNL A   1      49.992  34.913  27.212  1.00  0.00    -0.237 OA
ATOM     84  O   UNL A   1      50.188  33.564  25.155  1.00  0.00    -0.744 OA
ENDBRANCH  77  81
ENDBRANCH  60  74
BRANCH  61  85
ATOM     85  C   UNL A   1      43.557  26.244  34.129  1.00  0.00     0.023 A 
ATOM     86  C   UNL A   1      44.484  25.249  34.478  1.00  0.00     0.031 A 
ATOM     87  C   UNL A   1      42.296  26.214  34.752  1.00  0.00     0.131 A 
ATOM     88  C   UNL A   1      44.119  24.237  35.380  1.00  0.00     0.055 A 
ATOM     89  C   UNL A   1      41.961  25.242  35.698  1.00  0.00     0.041 A 
ATOM     90  F   UNL A   1      41.366  27.134  34.451  1.00  0.00    -0.206 F 
ATOM     91  C   UNL A   1      42.872  24.237  36.006  1.00  0.00     0.022 A 
BRANCH  88  92
ATOM     92  S   UNL A   1      45.267  22.857  35.645  1.00  0.00     0.124 S 
ATOM     93  O   UNL A   1      46.484  23.362  35.021  1.00  0.00    -0.237 OA
ATOM     94  O   UNL A   1      45.285  22.753  37.101  1.00  0.00    -0.237 OA
ATOM     95  O   UNL A   1      44.625  21.743  34.951  1.00  0.00    -0.744 OA
ENDBRANCH  88  92
ENDBRANCH  61  85
BRANCH  73  96
ATOM     96  C   UNL A   1      45.088  33.064  34.397  1.00  0.00     0.023 A 
ATOM     97  C   UNL A   1      43.947  33.794  34.774  1.00  0.00     0.031 A 
ATOM     98  C   UNL A   1      46.270  33.259  35.134  1.00  0.00     0.131 A 
ATOM     99  C   UNL A   1      44.024  34.709  35.836  1.00  0.00     0.055 A 
ATOM    100  C   UNL A   1      46.324  34.122  36.228  1.00  0.00     0.041 A 
ATOM    101  F   UNL A   1      47.392  32.590  34.815  1.00  0.00    -0.206 F 
ATOM    102  C   UNL A   1      45.199  34.859  36.580  1.00  0.00     0.022 A 
BRANCH  99 103
ATOM    103  S   UNL A   1      42.587  35.755  36.199  1.00  0.00     0.124 S 
ATOM    104  O   UNL A   1      42.106  36.082  34.861  1.00  0.00    -0.237 OA
ATOM    105  O   UNL A   1      41.739  34.860  36.980  1.00  0.00    -0.237 OA
ATOM    106  O   UNL A   1      43.156  36.875  36.944  1.00  0.00    -0.744 OA
ENDBRANCH  99 103
ENDBRANCH  73  96
ENDBRANCH  47  48
ENDBRANCH  40  42
ENDBRANCH  39  40
ENDBRANCH  38  39
ENDBRANCH  37  38
ENDBRANCH  36  37
ENDBRANCH  35  36
ENDBRANCH   1  35
TORSDOF 26
ENDMDL
MODEL 3
REMARK VINA RESULT:      -7.1      7.208     13.790
REMARK SMILES O=C1[NH+]=C(Nc2ccc(C(=O)OCCOCCOCCOCCOC(=O)c3ccc(-c4c5nc(c(-c6cc(S(=O)(=O)[O-])ccc6F)c6ccc([nH]6)c(-c6cc(S(=O)(=O)[O-])ccc6F)c6nc(c(-c7cc(S(=O)(=O)[O-])ccc7F)c7ccc4[nH]7)C=C6)C=C5)cc3)c(O)c2)S/C1=C\c1ccc[nH]1
REMARK SMILES IDX 19 1 18 2 17 3 16 4 15 5 14 6 13 7 12 8 10 9 11 10 9 11 6 12
REMARK SMILES IDX 7 13 92 14 8 15 90 16 5 17 1 18 2 19 3 20 94 21 4 22 93 24
REMARK SMILES IDX 95 25 96 27 97 28 100 29 98 30 99 31 91 33 20 35 21 36 22 37
REMARK SMILES IDX 23 38 24 39 25 40 26 41 27 42 28 43 89 44 29 45 88 46 30 47
REMARK SMILES IDX 31 48 32 49 82 50 33 51 87 52 81 53 83 54 34 55 86 56 80 57
REMARK SMILES IDX 79 58 35 60 67 61 47 62 66 63 48 64 51 65 65 66 84 67 49 68
REMARK SMILES IDX 50 69 64 71 85 72 52 73 36 74 37 75 45 76 38 77 44 78 46 79
REMARK SMILES IDX 43 80 39 81 40 82 41 83 42 84 68 85 69 86 77 87 70 88 76 89
REMARK SMILES IDX 78 90 75 91 71 92 72 93 73 94 74 95 53 96 54 97 62 98 55 99
REMARK SMILES IDX 61 100 63 101 60 102 56 103 57 104 58 105 59 106
REMARK H PARENT 3 23 5 26 100 32 91 34 83 59 51 70
REMARK Flexibility Score: inf
ROOT
ATOM      1  C   UNL A   1      35.733  30.155  28.089  1.00  0.00     0.188 C 
ENDROOT
BRANCH   1   2
ATOM      2  O   UNL A   1      35.191  31.471  28.192  1.00  0.00    -0.377 OA
BRANCH   2   3
ATOM      3  C   UNL A   1      33.807  31.614  27.921  1.00  0.00     0.188 C 
BRANCH   3   4
ATOM      4  C   UNL A   1      33.267  30.509  26.994  1.00  0.00     0.188 C 
BRANCH   4   5
ATOM      5  O   UNL A   1      31.866  30.428  26.820  1.00  0.00    -0.376 OA
BRANCH   5   6
ATOM      6  C   UNL A   1      31.197  30.837  25.637  1.00  0.00     0.202 C 
BRANCH   6   7
ATOM      7  C   UNL A   1      31.016  30.040  24.326  1.00  0.00     0.261 C 
BRANCH   7   8
ATOM      8  O   UNL A   1      30.426  28.744  24.384  1.00  0.00    -0.460 OA
BRANCH   8   9
ATOM      9  C   UNL A   1      30.478  28.003  23.259  1.00  0.00     0.341 C 
ATOM     10  O   UNL A   1      30.299  28.390  22.117  1.00  0.00    -0.246 OA
BRANCH   9  11
ATOM     11  C   UNL A   1      31.017  26.671  23.620  1.00  0.00     0.102 A 
ATOM     12  C   UNL A   1      32.179  24.184  24.236  1.00  0.00     0.129 A 
ATOM     13  C   UNL A   1      32.947  25.198  23.656  1.00  0.00     0.053 A 
ATOM     14  C   UNL A   1      30.847  24.457  24.576  1.00  0.00     0.098 A 
ATOM     15  C   UNL A   1      32.360  26.417  23.307  1.00  0.00     0.024 A 
ATOM     16  C   UNL A   1      30.285  25.706  24.314  1.00  0.00     0.134 A 
BRANCH  12  17
ATOM     17  N   UNL A   1      32.698  22.910  24.484  1.00  0.00    -0.234 N 
ATOM     18  O   UNL A   1      31.729  19.934  21.027  1.00  0.00    -0.240 OA
ATOM     19  C   UNL A   1      32.060  20.316  22.145  1.00  0.00     0.346 C 
ATOM     20  N   UNL A   1      32.021  21.622  22.578  1.00  0.00    -0.199 N 
ATOM     21  C   UNL A   1      32.567  19.391  23.201  1.00  0.00     0.111 C 
ATOM     22  C   UNL A   1      32.487  21.772  23.772  1.00  0.00     0.322 C 
ATOM     23  H   UNL A   1      31.673  22.365  22.033  1.00  0.00     0.316 HD
ATOM     24  S   UNL A   1      32.972  20.303  24.597  1.00  0.00     0.006 SA
ATOM     25  C   UNL A   1      32.682  18.070  23.002  1.00  0.00     0.050 C 
ATOM     26  H   UNL A   1      33.288  22.827  25.269  1.00  0.00     0.313 HD
BRANCH  25  27
ATOM     27  C   UNL A   1      33.062  17.165  24.023  1.00  0.00     0.039 A 
ATOM     28  C   UNL A   1      32.386  16.588  25.080  1.00  0.00     0.027 A 
ATOM     29  N   UNL A   1      34.346  16.678  24.037  1.00  0.00    -0.362 N 
ATOM     30  C   UNL A   1      33.292  15.739  25.759  1.00  0.00     0.020 A 
ATOM     31  C   UNL A   1      34.497  15.819  25.098  1.00  0.00     0.083 A 
ATOM     32  H   UNL A   1      35.049  16.908  23.388  1.00  0.00     0.166 HD
ENDBRANCH  25  27
ENDBRANCH  12  17
BRANCH  16  33
ATOM     33  O   UNL A   1      29.027  25.917  24.801  1.00  0.00    -0.507 OA
ATOM     34  H   UNL A   1      28.605  25.254  25.312  1.00  0.00     0.293 HD
ENDBRANCH  16  33
ENDBRANCH   9  11
ENDBRANCH   8   9
ENDBRANCH   7   8
ENDBRANCH   6   7
ENDBRANCH   5   6
ENDBRANCH   4   5
ENDBRANCH   3   4
ENDBRANCH   2   3
ENDBRANCH   1   2
BRANCH   1  35
ATOM     35  C   UNL A   1      37.207  29.889  28.482  1.00  0.00     0.188 C 
BRANCH  35  36
ATOM     36  O   UNL A   1      37.423  29.784  29.884  1.00  0.00    -0.376 OA
BRANCH  36  37
ATOM     37  C   UNL A   1      38.156  30.801  30.545  1.00  0.00     0.202 C 
BRANCH  37  38
ATOM     38  C   UNL A   1      37.406  32.093  30.896  1.00  0.00     0.261 C 
BRANCH  38  39
ATOM     39  O   UNL A   1      37.943  32.865  31.976  1.00  0.00    -0.460 OA
BRANCH  39  40
ATOM     40  C   UNL A   1      38.168  34.181  31.757  1.00  0.00     0.338 C 
ATOM     41  O   UNL A   1      37.543  35.116  32.218  1.00  0.00    -0.246 OA
BRANCH  40  42
ATOM     42  C   UNL A   1      39.435  34.276  31.000  1.00  0.00     0.060 A 
ATOM     43  C   UNL A   1      40.655  34.048  31.652  1.00  0.00     0.016 A 
ATOM     44  C   UNL A   1      39.402  34.553  29.632  1.00  0.00     0.016 A 
ATOM     45  C   UNL A   1      41.853  34.122  30.936  1.00  0.00     0.010 A 
ATOM     46  C   UNL A   1      40.601  34.646  28.925  1.00  0.00     0.010 A 
ATOM     47  C   UNL A   1      41.833  34.458  29.576  1.00  0.00    -0.014 A 
BRANCH  47  48
ATOM     48  C   UNL A   1      43.077  34.829  28.859  1.00  0.00     0.031 A 
ATOM     49  C   UNL A   1      44.044  33.727  28.524  1.00  0.00     0.074 A 
ATOM     50  C   UNL A   1      43.372  36.107  28.561  1.00  0.00     0.049 A 
ATOM     51  N   UNL A   1      45.273  33.801  28.088  1.00  0.00    -0.248 NA
ATOM     52  C   UNL A   1      43.554  32.355  28.729  1.00  0.00     0.031 C 
ATOM     53  C   UNL A   1      42.490  37.251  28.778  1.00  0.00     0.029 A 
ATOM     54  N   UNL A   1      44.515  36.657  28.032  1.00  0.00    -0.354 N 
ATOM     55  C   UNL A   1      45.713  32.485  27.986  1.00  0.00     0.074 A 
ATOM     56  C   UNL A   1      44.628  31.639  28.435  1.00  0.00     0.031 C 
ATOM     57  C   UNL A   1      43.135  38.372  28.410  1.00  0.00     0.029 A 
ATOM     58  C   UNL A   1      44.493  38.032  27.987  1.00  0.00     0.049 A 
ATOM     59  H   UNL A   1      45.276  36.119  27.717  1.00  0.00     0.167 HD
ATOM     60  C   UNL A   1      46.914  32.028  27.559  1.00  0.00     0.034 A 
ATOM     61  C   UNL A   1      45.473  38.911  27.686  1.00  0.00     0.034 A 
ATOM     62  C   UNL A   1      47.989  32.889  27.132  1.00  0.00     0.049 A 
ATOM     63  C   UNL A   1      46.845  38.384  27.318  1.00  0.00     0.074 A 
ATOM     64  C   UNL A   1      49.243  32.535  26.670  1.00  0.00     0.029 A 
ATOM     65  N   UNL A   1      47.942  34.276  27.131  1.00  0.00    -0.354 N 
ATOM     66  N   UNL A   1      47.258  37.140  27.233  1.00  0.00    -0.248 NA
ATOM     67  C   UNL A   1      47.882  39.379  27.008  1.00  0.00     0.031 C 
ATOM     68  C   UNL A   1      49.982  33.705  26.474  1.00  0.00     0.029 A 
ATOM     69  C   UNL A   1      49.157  34.792  26.715  1.00  0.00     0.049 A 
ATOM     70  H   UNL A   1      47.158  34.815  27.390  1.00  0.00     0.167 HD
ATOM     71  C   UNL A   1      48.587  37.206  26.816  1.00  0.00     0.074 A 
ATOM     72  C   UNL A   1      48.906  38.610  26.669  1.00  0.00     0.031 C 
ATOM     73  C   UNL A   1      49.460  36.198  26.566  1.00  0.00     0.034 A 
BRANCH  60  74
ATOM     74  C   UNL A   1      47.144  30.537  27.596  1.00  0.00     0.023 A 
ATOM     75  C   UNL A   1      46.932  29.725  26.468  1.00  0.00     0.031 A 
ATOM     76  C   UNL A   1      47.553  29.913  28.788  1.00  0.00     0.131 A 
ATOM     77  C   UNL A   1      47.057  28.332  26.575  1.00  0.00     0.055 A 
ATOM     78  C   UNL A   1      47.762  28.535  28.865  1.00  0.00     0.041 A 
ATOM     79  F   UNL A   1      47.743  30.631  29.906  1.00  0.00    -0.206 F 
ATOM     80  C   UNL A   1      47.499  27.733  27.757  1.00  0.00     0.022 A 
BRANCH  77  81
ATOM     81  S   UNL A   1      46.484  27.305  25.195  1.00  0.00     0.124 S 
ATOM     82  O   UNL A   1      47.663  26.482  24.931  1.00  0.00    -0.237 OA
ATOM     83  O   UNL A   1      45.339  26.612  25.772  1.00  0.00    -0.237 OA
ATOM     84  O   UNL A   1      46.167  28.278  24.152  1.00  0.00    -0.744 OA
ENDBRANCH  77  81
ENDBRANCH  60  74
BRANCH  61  85
ATOM     85  C   UNL A   1      45.229  40.382  27.770  1.00  0.00     0.023 A 
ATOM     86  C   UNL A   1      44.991  41.144  26.615  1.00  0.00     0.031 A 
ATOM     87  C   UNL A   1      45.294  41.060  29.002  1.00  0.00     0.131 A 
ATOM     88  C   UNL A   1      44.880  42.541  26.708  1.00  0.00     0.055 A 
ATOM     89  C   UNL A   1      45.118  42.441  29.096  1.00  0.00     0.041 A 
ATOM     90  F   UNL A   1      45.529  40.384  30.138  1.00  0.00    -0.206 F 
ATOM     91  C   UNL A   1      44.924  43.193  27.941  1.00  0.00     0.022 A 
BRANCH  88  92
ATOM     92  S   UNL A   1      44.782  43.506  25.174  1.00  0.00     0.124 S 
ATOM     93  O   UNL A   1      44.981  44.864  25.669  1.00  0.00    -0.237 OA
ATOM     94  O   UNL A   1      45.874  42.940  24.390  1.00  0.00    -0.237 OA
ATOM     95  O   UNL A   1      43.440  43.214  24.674  1.00  0.00    -0.744 OA
ENDBRANCH  88  92
ENDBRANCH  61  85
BRANCH  73  96
ATOM     96  C   UNL A   1      50.826  36.563  26.032  1.00  0.00     0.023 A 
ATOM     97  C   UNL A   1      51.925  36.796  26.876  1.00  0.00     0.031 A 
ATOM     98  C   UNL A   1      51.032  36.639  24.642  1.00  0.00     0.131 A 
ATOM     99  C   UNL A   1      53.172  37.127  26.322  1.00  0.00     0.055 A 
ATOM    100  C   UNL A   1      52.287  36.906  24.096  1.00  0.00     0.041 A 
ATOM    101  F   UNL A   1      50.016  36.429  23.789  1.00  0.00    -0.206 F 
ATOM    102  C   UNL A   1      53.364  37.160  24.938  1.00  0.00     0.022 A 
BRANCH  99 103
ATOM    103  S   UNL A   1      54.532  37.581  27.433  1.00  0.00     0.124 S 
ATOM    104  O   UNL A   1      55.636  37.774  26.498  1.00  0.00    -0.237 OA
ATOM    105  O   UNL A   1      54.022  38.789  28.075  1.00  0.00    -0.237 OA
ATOM    106  O   UNL A   1      54.660  36.421  28.312  1.00  0.00    -0.744 OA
ENDBRANCH  99 103
ENDBRANCH  73  96
ENDBRANCH  47  48
ENDBRANCH  40  42
ENDBRANCH  39  40
ENDBRANCH  38  39
ENDBRANCH  37  38
ENDBRANCH  36  37
ENDBRANCH  35  36
ENDBRANCH   1  35
TORSDOF 26
ENDMDL
