MODEL 1
REMARK VINA RESULT:      -9.2      0.000      0.000
REMARK SMILES Nc1ccc(S[C@@H](C(=O)OCCOCCOCCOCCOC(=O)c2ccc(-c3c4nc(c(-c5cc(S(=O)(=O)[O-])ccc5F)c5ccc([nH]5)c(-c5cc(S(=O)(=O)[O-])ccc5F)c5nc(c(-c6cc(S(=O)(=O)[O-])ccc6F)c6ccc3[nH]6)C=C5)C=C4)cc2)C2CC2)cc1F
REMARK SMILES IDX 16 1 15 2 14 3 13 4 12 5 11 6 10 7 8 8 9 9 7 10 6 11 5 12
REMARK SMILES IDX 2 13 3 14 92 15 4 16 91 17 93 18 1 19 88 22 89 23 90 24
REMARK SMILES IDX 17 25 18 26 19 27 20 28 21 29 22 30 23 31 24 32 25 33 26 34
REMARK SMILES IDX 87 35 27 36 86 37 28 38 29 39 30 40 80 41 31 42 85 43 79 44
REMARK SMILES IDX 81 45 32 46 84 47 78 48 77 49 33 51 65 52 45 53 64 54 46 55
REMARK SMILES IDX 49 56 63 57 82 58 47 59 48 60 62 62 83 63 50 64 34 65 35 66
REMARK SMILES IDX 43 67 36 68 42 69 44 70 41 71 37 72 38 73 39 74 40 75 66 76
REMARK SMILES IDX 67 77 75 78 68 79 74 80 76 81 73 82 69 83 70 84 71 85 72 86
REMARK SMILES IDX 51 87 52 88 60 89 53 90 59 91 61 92 58 93 54 94 55 95 56 96
REMARK SMILES IDX 57 97
REMARK H PARENT 1 20 1 21 81 50 49 61
REMARK Flexibility Score: inf
ROOT
ATOM      1  O   UNL A   1      39.159  22.223  26.797  1.00  0.00    -0.377 OA
ENDROOT
BRANCH   1   2
ATOM      2  C   UNL A   1      38.803  21.822  25.493  1.00  0.00     0.188 C 
BRANCH   2   3
ATOM      3  C   UNL A   1      37.456  21.216  25.037  1.00  0.00     0.188 C 
BRANCH   3   4
ATOM      4  O   UNL A   1      36.573  22.009  24.280  1.00  0.00    -0.376 OA
BRANCH   4   5
ATOM      5  C   UNL A   1      36.077  23.247  24.744  1.00  0.00     0.202 C 
BRANCH   5   6
ATOM      6  C   UNL A   1      35.450  23.480  26.133  1.00  0.00     0.261 C 
BRANCH   6   7
ATOM      7  O   UNL A   1      34.477  22.517  26.585  1.00  0.00    -0.462 OA
BRANCH   7   8
ATOM      8  C   UNL A   1      33.181  22.892  26.630  1.00  0.00     0.319 C 
ATOM      9  O   UNL A   1      32.588  23.001  27.702  1.00  0.00    -0.251 OA
BRANCH   8  10
ATOM     10  C   UNL A   1      32.482  23.153  25.272  1.00  0.00     0.164 C 
BRANCH  10  11
ATOM     11  S   UNL A   1      30.923  24.166  25.181  1.00  0.00    -0.110 SA
BRANCH  11  12
ATOM     12  C   UNL A   1      31.052  25.675  24.195  1.00  0.00     0.011 A 
ATOM     13  C   UNL A   1      31.678  28.143  22.863  1.00  0.00     0.068 A 
ATOM     14  C   UNL A   1      30.520  28.005  23.615  1.00  0.00     0.030 A 
ATOM     15  C   UNL A   1      32.448  26.992  22.669  1.00  0.00     0.147 A 
ATOM     16  C   UNL A   1      30.219  26.790  24.262  1.00  0.00     0.017 A 
ATOM     17  C   UNL A   1      32.160  25.787  23.333  1.00  0.00     0.056 A 
ATOM     18  F   UNL A   1      33.544  27.065  21.896  1.00  0.00    -0.205 F 
BRANCH  13  19
ATOM     19  N   UNL A   1      31.997  29.362  22.275  1.00  0.00    -0.396 N 
ATOM     20  H   UNL A   1      31.614  29.602  21.401  1.00  0.00     0.156 HD
ATOM     21  H   UNL A   1      32.608  29.984  22.734  1.00  0.00     0.156 HD
ENDBRANCH  13  19
ENDBRANCH  11  12
ENDBRANCH  10  11
BRANCH  10  22
ATOM     22  C   UNL A   1      32.615  22.100  24.197  1.00  0.00     0.014 C 
ATOM     23  C   UNL A   1      31.691  22.064  22.988  1.00  0.00     0.006 C 
ATOM     24  C   UNL A   1      33.148  22.304  22.790  1.00  0.00     0.006 C 
ENDBRANCH  10  22
ENDBRANCH   8  10
ENDBRANCH   7   8
ENDBRANCH   6   7
ENDBRANCH   5   6
ENDBRANCH   4   5
ENDBRANCH   3   4
ENDBRANCH   2   3
ENDBRANCH   1   2
BRANCH   1  25
ATOM     25  C   UNL A   1      40.523  22.364  27.089  1.00  0.00     0.188 C 
BRANCH  25  26
ATOM     26  C   UNL A   1      41.398  21.498  26.181  1.00  0.00     0.188 C 
BRANCH  26  27
ATOM     27  O   UNL A   1      41.867  20.314  26.815  1.00  0.00    -0.376 OA
BRANCH  27  28
ATOM     28  C   UNL A   1      42.047  19.136  26.036  1.00  0.00     0.202 C 
BRANCH  28  29
ATOM     29  C   UNL A   1      43.410  18.753  25.430  1.00  0.00     0.261 C 
BRANCH  29  30
ATOM     30  O   UNL A   1      43.877  19.483  24.298  1.00  0.00    -0.460 OA
BRANCH  30  31
ATOM     31  C   UNL A   1      45.131  19.957  24.309  1.00  0.00     0.338 C 
ATOM     32  O   UNL A   1      46.116  19.464  23.783  1.00  0.00    -0.246 OA
BRANCH  31  33
ATOM     33  C   UNL A   1      45.021  21.312  24.877  1.00  0.00     0.060 A 
ATOM     34  C   UNL A   1      44.609  22.354  24.039  1.00  0.00     0.016 A 
ATOM     35  C   UNL A   1      45.212  21.524  26.249  1.00  0.00     0.016 A 
ATOM     36  C   UNL A   1      44.393  23.620  24.569  1.00  0.00     0.010 A 
ATOM     37  C   UNL A   1      45.037  22.803  26.772  1.00  0.00     0.010 A 
ATOM     38  C   UNL A   1      44.660  23.856  25.924  1.00  0.00    -0.014 A 
BRANCH  38  39
ATOM     39  C   UNL A   1      44.826  25.254  26.365  1.00  0.00     0.031 A 
ATOM     40  C   UNL A   1      46.205  25.838  26.258  1.00  0.00     0.074 A 
ATOM     41  C   UNL A   1      43.777  25.986  26.776  1.00  0.00     0.049 A 
ATOM     42  N   UNL A   1      46.633  27.027  26.581  1.00  0.00    -0.248 NA
ATOM     43  C   UNL A   1      47.245  24.952  25.706  1.00  0.00     0.031 C 
ATOM     44  C   UNL A   1      42.395  25.517  26.844  1.00  0.00     0.029 A 
ATOM     45  N   UNL A   1      43.716  27.284  27.209  1.00  0.00    -0.354 N 
ATOM     46  C   UNL A   1      47.989  27.031  26.273  1.00  0.00     0.074 A 
ATOM     47  C   UNL A   1      48.321  25.715  25.777  1.00  0.00     0.031 C 
ATOM     48  C   UNL A   1      41.619  26.517  27.301  1.00  0.00     0.029 A 
ATOM     49  C   UNL A   1      42.457  27.677  27.596  1.00  0.00     0.049 A 
ATOM     50  H   UNL A   1      44.500  27.880  27.239  1.00  0.00     0.167 HD
ATOM     51  C   UNL A   1      48.873  28.049  26.389  1.00  0.00     0.034 A 
ATOM     52  C   UNL A   1      42.049  28.834  28.154  1.00  0.00     0.034 A 
ATOM     53  C   UNL A   1      48.513  29.341  26.914  1.00  0.00     0.049 A 
ATOM     54  C   UNL A   1      43.076  29.922  28.377  1.00  0.00     0.074 A 
ATOM     55  C   UNL A   1      49.313  30.451  27.099  1.00  0.00     0.029 A 
ATOM     56  N   UNL A   1      47.240  29.687  27.358  1.00  0.00    -0.354 N 
ATOM     57  N   UNL A   1      44.360  29.918  28.091  1.00  0.00    -0.248 NA
ATOM     58  C   UNL A   1      42.601  31.169  28.988  1.00  0.00     0.031 C 
ATOM     59  C   UNL A   1      48.548  31.436  27.730  1.00  0.00     0.029 A 
ATOM     60  C   UNL A   1      47.244  30.980  27.848  1.00  0.00     0.049 A 
ATOM     61  H   UNL A   1      46.453  29.097  27.328  1.00  0.00     0.167 HD
ATOM     62  C   UNL A   1      44.834  31.177  28.451  1.00  0.00     0.074 A 
ATOM     63  C   UNL A   1      43.697  31.912  28.967  1.00  0.00     0.031 C 
ATOM     64  C   UNL A   1      46.091  31.687  28.359  1.00  0.00     0.034 A 
BRANCH  51  65
ATOM     65  C   UNL A   1      50.307  27.769  26.012  1.00  0.00     0.023 A 
ATOM     66  C   UNL A   1      50.753  27.837  24.680  1.00  0.00     0.031 A 
ATOM     67  C   UNL A   1      51.231  27.378  26.995  1.00  0.00     0.131 A 
ATOM     68  C   UNL A   1      52.064  27.449  24.360  1.00  0.00     0.055 A 
ATOM     69  C   UNL A   1      52.557  27.076  26.682  1.00  0.00     0.041 A 
ATOM     70  F   UNL A   1      50.856  27.259  28.279  1.00  0.00    -0.206 F 
ATOM     71  C   UNL A   1      52.977  27.096  25.355  1.00  0.00     0.022 A 
BRANCH  68  72
ATOM     72  S   UNL A   1      52.512  27.261  22.611  1.00  0.00     0.124 S 
ATOM     73  O   UNL A   1      53.328  26.049  22.644  1.00  0.00    -0.237 OA
ATOM     74  O   UNL A   1      51.212  27.138  21.963  1.00  0.00    -0.237 OA
ATOM     75  O   UNL A   1      53.246  28.489  22.312  1.00  0.00    -0.744 OA
ENDBRANCH  68  72
ENDBRANCH  51  65
BRANCH  52  76
ATOM     76  C   UNL A   1      40.629  29.016  28.576  1.00  0.00     0.023 A 
ATOM     77  C   UNL A   1      40.246  28.896  29.921  1.00  0.00     0.031 A 
ATOM     78  C   UNL A   1      39.621  29.261  27.626  1.00  0.00     0.131 A 
ATOM     79  C   UNL A   1      38.888  28.974  30.273  1.00  0.00     0.055 A 
ATOM     80  C   UNL A   1      38.279  29.398  27.988  1.00  0.00     0.041 A 
ATOM     81  F   UNL A   1      39.927  29.378  26.323  1.00  0.00    -0.206 F 
ATOM     82  C   UNL A   1      37.905  29.240  29.318  1.00  0.00     0.022 A 
BRANCH  79  83
ATOM     83  S   UNL A   1      38.414  28.621  31.988  1.00  0.00     0.124 S 
ATOM     84  O   UNL A   1      38.536  27.169  32.036  1.00  0.00    -0.237 OA
ATOM     85  O   UNL A   1      39.412  29.375  32.739  1.00  0.00    -0.237 OA
ATOM     86  O   UNL A   1      37.050  29.137  32.076  1.00  0.00    -0.744 OA
ENDBRANCH  79  83
ENDBRANCH  52  76
BRANCH  64  87
ATOM     87  C   UNL A   1      46.283  33.127  28.768  1.00  0.00     0.023 A 
ATOM     88  C   UNL A   1      46.080  34.189  27.871  1.00  0.00     0.031 A 
ATOM     89  C   UNL A   1      46.666  33.436  30.086  1.00  0.00     0.131 A 
ATOM     90  C   UNL A   1      46.316  35.507  28.288  1.00  0.00     0.055 A 
ATOM     91  C   UNL A   1      46.828  34.753  30.515  1.00  0.00     0.041 A 
ATOM     92  F   UNL A   1      46.876  32.460  30.983  1.00  0.00    -0.206 F 
ATOM     93  C   UNL A   1      46.667  35.797  29.610  1.00  0.00     0.022 A 
BRANCH  90  94
ATOM     94  S   UNL A   1      46.262  36.833  27.053  1.00  0.00     0.124 S 
ATOM     95  O   UNL A   1      47.316  37.727  27.523  1.00  0.00    -0.237 OA
ATOM     96  O   UNL A   1      46.542  36.117  25.812  1.00  0.00    -0.237 OA
ATOM     97  O   UNL A   1      44.904  37.358  27.173  1.00  0.00    -0.744 OA
ENDBRANCH  90  94
ENDBRANCH  64  87
ENDBRANCH  38  39
ENDBRANCH  31  33
ENDBRANCH  30  31
ENDBRANCH  29  30
ENDBRANCH  28  29
ENDBRANCH  27  28
ENDBRANCH  26  27
ENDBRANCH  25  26
ENDBRANCH   1  25
TORSDOF 27
ENDMDL
MODEL 2
REMARK VINA RESULT:      -8.8      5.075     10.417
REMARK SMILES Nc1ccc(S[C@@H](C(=O)OCCOCCOCCOCCOC(=O)c2ccc(-c3c4nc(c(-c5cc(S(=O)(=O)[O-])ccc5F)c5ccc([nH]5)c(-c5cc(S(=O)(=O)[O-])ccc5F)c5nc(c(-c6cc(S(=O)(=O)[O-])ccc6F)c6ccc3[nH]6)C=C5)C=C4)cc2)C2CC2)cc1F
REMARK SMILES IDX 16 1 15 2 14 3 13 4 12 5 11 6 10 7 8 8 9 9 7 10 6 11 5 12
REMARK SMILES IDX 2 13 3 14 92 15 4 16 91 17 93 18 1 19 88 22 89 23 90 24
REMARK SMILES IDX 17 25 18 26 19 27 20 28 21 29 22 30 23 31 24 32 25 33 26 34
REMARK SMILES IDX 87 35 27 36 86 37 28 38 29 39 30 40 80 41 31 42 85 43 79 44
REMARK SMILES IDX 81 45 32 46 84 47 78 48 77 49 33 51 65 52 45 53 64 54 46 55
REMARK SMILES IDX 49 56 63 57 82 58 47 59 48 60 62 62 83 63 50 64 34 65 35 66
REMARK SMILES IDX 43 67 36 68 42 69 44 70 41 71 37 72 38 73 39 74 40 75 66 76
REMARK SMILES IDX 67 77 75 78 68 79 74 80 76 81 73 82 69 83 70 84 71 85 72 86
REMARK SMILES IDX 51 87 52 88 60 89 53 90 59 91 61 92 58 93 54 94 55 95 56 96
REMARK SMILES IDX 57 97
REMARK H PARENT 1 20 1 21 81 50 49 61
REMARK Flexibility Score: inf
ROOT
ATOM      1  O   UNL A   1      31.428  31.175  25.741  1.00  0.00    -0.377 OA
ENDROOT
BRANCH   1   2
ATOM      2  C   UNL A   1      31.785  29.819  25.887  1.00  0.00     0.188 C 
BRANCH   2   3
ATOM      3  C   UNL A   1      32.626  29.190  27.020  1.00  0.00     0.188 C 
BRANCH   3   4
ATOM      4  O   UNL A   1      32.541  27.803  27.243  1.00  0.00    -0.376 OA
BRANCH   4   5
ATOM      5  C   UNL A   1      32.493  26.866  26.186  1.00  0.00     0.202 C 
BRANCH   5   6
ATOM      6  C   UNL A   1      31.809  25.486  26.264  1.00  0.00     0.261 C 
BRANCH   6   7
ATOM      7  O   UNL A   1      32.667  24.333  26.367  1.00  0.00    -0.462 OA
BRANCH   7   8
ATOM      8  C   UNL A   1      32.403  23.268  25.582  1.00  0.00     0.319 C 
ATOM      9  O   UNL A   1      31.491  22.489  25.853  1.00  0.00    -0.251 OA
BRANCH   8  10
ATOM     10  C   UNL A   1      33.316  23.069  24.345  1.00  0.00     0.164 C 
BRANCH  10  11
ATOM     11  S   UNL A   1      32.872  23.818  22.701  1.00  0.00    -0.110 SA
BRANCH  11  12
ATOM     12  C   UNL A   1      32.570  25.599  22.732  1.00  0.00     0.011 A 
ATOM     13  C   UNL A   1      31.852  28.357  22.362  1.00  0.00     0.068 A 
ATOM     14  C   UNL A   1      33.180  27.965  22.451  1.00  0.00     0.030 A 
ATOM     15  C   UNL A   1      30.884  27.376  22.601  1.00  0.00     0.147 A 
ATOM     16  C   UNL A   1      33.522  26.610  22.635  1.00  0.00     0.017 A 
ATOM     17  C   UNL A   1      31.226  26.022  22.763  1.00  0.00     0.056 A 
ATOM     18  F   UNL A   1      29.588  27.725  22.587  1.00  0.00    -0.205 F 
BRANCH  13  19
ATOM     19  N   UNL A   1      31.523  29.686  22.121  1.00  0.00    -0.396 N 
ATOM     20  H   UNL A   1      30.666  29.911  21.692  1.00  0.00     0.156 HD
ATOM     21  H   UNL A   1      32.147  30.403  22.379  1.00  0.00     0.156 HD
ENDBRANCH  13  19
ENDBRANCH  11  12
ENDBRANCH  10  11
BRANCH  10  22
ATOM     22  C   UNL A   1      34.120  21.792  24.261  1.00  0.00     0.014 C 
ATOM     23  C   UNL A   1      35.607  21.756  24.582  1.00  0.00     0.006 C 
ATOM     24  C   UNL A   1      34.656  20.981  25.427  1.00  0.00     0.006 C 
ENDBRANCH  10  22
ENDBRANCH   8  10
ENDBRANCH   7   8
ENDBRANCH   6   7
ENDBRANCH   5   6
ENDBRANCH   4   5
ENDBRANCH   3   4
ENDBRANCH   2   3
ENDBRANCH   1   2
BRANCH   1  25
ATOM     25  C   UNL A   1      31.314  31.952  26.903  1.00  0.00     0.188 C 
BRANCH  25  26
ATOM     26  C   UNL A   1      32.139  33.237  26.817  1.00  0.00     0.188 C 
BRANCH  26  27
ATOM     27  O   UNL A   1      32.187  33.958  28.042  1.00  0.00    -0.376 OA
BRANCH  27  28
ATOM     28  C   UNL A   1      33.315  34.781  28.319  1.00  0.00     0.202 C 
BRANCH  28  29
ATOM     29  C   UNL A   1      34.760  34.266  28.181  1.00  0.00     0.261 C 
BRANCH  29  30
ATOM     30  O   UNL A   1      35.026  32.901  28.494  1.00  0.00    -0.460 OA
BRANCH  30  31
ATOM     31  C   UNL A   1      35.133  32.544  29.782  1.00  0.00     0.338 C 
ATOM     32  O   UNL A   1      34.303  32.693  30.665  1.00  0.00    -0.246 OA
BRANCH  31  33
ATOM     33  C   UNL A   1      36.353  31.722  29.850  1.00  0.00     0.060 A 
ATOM     34  C   UNL A   1      36.321  30.544  30.604  1.00  0.00     0.016 A 
ATOM     35  C   UNL A   1      37.476  32.055  29.081  1.00  0.00     0.016 A 
ATOM     36  C   UNL A   1      37.420  29.694  30.600  1.00  0.00     0.010 A 
ATOM     37  C   UNL A   1      38.594  31.225  29.112  1.00  0.00     0.010 A 
ATOM     38  C   UNL A   1      38.575  30.062  29.898  1.00  0.00    -0.014 A 
BRANCH  38  39
ATOM     39  C   UNL A   1      39.840  29.379  30.235  1.00  0.00     0.031 A 
ATOM     40  C   UNL A   1      40.609  29.919  31.406  1.00  0.00     0.074 A 
ATOM     41  C   UNL A   1      40.243  28.286  29.567  1.00  0.00     0.049 A 
ATOM     42  N   UNL A   1      41.744  29.522  31.911  1.00  0.00    -0.248 NA
ATOM     43  C   UNL A   1      40.006  31.068  32.106  1.00  0.00     0.031 C 
ATOM     44  C   UNL A   1      39.521  27.657  28.463  1.00  0.00     0.029 A 
ATOM     45  N   UNL A   1      41.360  27.510  29.727  1.00  0.00    -0.354 N 
ATOM     46  C   UNL A   1      41.992  30.372  32.984  1.00  0.00     0.074 A 
ATOM     47  C   UNL A   1      40.911  31.330  33.032  1.00  0.00     0.031 C 
ATOM     48  C   UNL A   1      40.221  26.589  28.039  1.00  0.00     0.029 A 
ATOM     49  C   UNL A   1      41.456  26.489  28.812  1.00  0.00     0.049 A 
ATOM     50  H   UNL A   1      42.030  27.669  30.432  1.00  0.00     0.167 HD
ATOM     51  C   UNL A   1      43.029  30.345  33.853  1.00  0.00     0.034 A 
ATOM     52  C   UNL A   1      42.450  25.600  28.615  1.00  0.00     0.034 A 
ATOM     53  C   UNL A   1      44.104  29.392  33.758  1.00  0.00     0.049 A 
ATOM     54  C   UNL A   1      43.653  25.658  29.530  1.00  0.00     0.074 A 
ATOM     55  C   UNL A   1      45.219  29.266  34.564  1.00  0.00     0.029 A 
ATOM     56  N   UNL A   1      44.203  28.408  32.780  1.00  0.00    -0.354 N 
ATOM     57  N   UNL A   1      43.887  26.468  30.539  1.00  0.00    -0.248 NA
ATOM     58  C   UNL A   1      44.720  24.679  29.287  1.00  0.00     0.031 C 
ATOM     59  C   UNL A   1      46.032  28.266  34.024  1.00  0.00     0.029 A 
ATOM     60  C   UNL A   1      45.379  27.696  32.941  1.00  0.00     0.049 A 
ATOM     61  H   UNL A   1      43.536  28.244  32.076  1.00  0.00     0.167 HD
ATOM     62  C   UNL A   1      45.109  26.068  31.074  1.00  0.00     0.074 A 
ATOM     63  C   UNL A   1      45.556  24.942  30.280  1.00  0.00     0.031 C 
ATOM     64  C   UNL A   1      45.799  26.576  32.129  1.00  0.00     0.034 A 
BRANCH  51  65
ATOM     65  C   UNL A   1      43.071  31.417  34.915  1.00  0.00     0.023 A 
ATOM     66  C   UNL A   1      42.173  31.428  35.998  1.00  0.00     0.031 A 
ATOM     67  C   UNL A   1      43.992  32.473  34.815  1.00  0.00     0.131 A 
ATOM     68  C   UNL A   1      42.168  32.510  36.893  1.00  0.00     0.055 A 
ATOM     69  C   UNL A   1      44.040  33.502  35.757  1.00  0.00     0.041 A 
ATOM     70  F   UNL A   1      44.850  32.537  33.784  1.00  0.00    -0.206 F 
ATOM     71  C   UNL A   1      43.114  33.532  36.796  1.00  0.00     0.022 A 
BRANCH  68  72
ATOM     72  S   UNL A   1      40.811  32.641  38.090  1.00  0.00     0.124 S 
ATOM     73  O   UNL A   1      40.626  34.088  38.169  1.00  0.00    -0.237 OA
ATOM     74  O   UNL A   1      39.741  31.896  37.438  1.00  0.00    -0.237 OA
ATOM     75  O   UNL A   1      41.358  32.023  39.297  1.00  0.00    -0.744 OA
ENDBRANCH  68  72
ENDBRANCH  51  65
BRANCH  52  76
ATOM     76  C   UNL A   1      42.380  24.616  27.494  1.00  0.00     0.023 A 
ATOM     77  C   UNL A   1      41.651  23.423  27.615  1.00  0.00     0.031 A 
ATOM     78  C   UNL A   1      43.090  24.833  26.299  1.00  0.00     0.131 A 
ATOM     79  C   UNL A   1      41.686  22.473  26.581  1.00  0.00     0.055 A 
ATOM     80  C   UNL A   1      43.072  23.913  25.249  1.00  0.00     0.041 A 
ATOM     81  F   UNL A   1      43.811  25.954  26.130  1.00  0.00    -0.206 F 
ATOM     82  C   UNL A   1      42.378  22.717  25.393  1.00  0.00     0.022 A 
BRANCH  79  83
ATOM     83  S   UNL A   1      40.893  20.864  26.854  1.00  0.00     0.124 S 
ATOM     84  O   UNL A   1      40.778  20.833  28.307  1.00  0.00    -0.237 OA
ATOM     85  O   UNL A   1      39.644  21.013  26.114  1.00  0.00    -0.237 OA
ATOM     86  O   UNL A   1      41.845  19.915  26.281  1.00  0.00    -0.744 OA
ENDBRANCH  79  83
ENDBRANCH  52  76
BRANCH  64  87
ATOM     87  C   UNL A   1      47.076  25.874  32.520  1.00  0.00     0.023 A 
ATOM     88  C   UNL A   1      48.296  26.132  31.873  1.00  0.00     0.031 A 
ATOM     89  C   UNL A   1      47.067  24.937  33.569  1.00  0.00     0.131 A 
ATOM     90  C   UNL A   1      49.445  25.419  32.244  1.00  0.00     0.055 A 
ATOM     91  C   UNL A   1      48.229  24.284  33.982  1.00  0.00     0.041 A 
ATOM     92  F   UNL A   1      45.929  24.650  34.220  1.00  0.00    -0.206 F 
ATOM     93  C   UNL A   1      49.423  24.514  33.309  1.00  0.00     0.022 A 
BRANCH  90  94
ATOM     94  S   UNL A   1      50.947  25.611  31.248  1.00  0.00     0.124 S 
ATOM     95  O   UNL A   1      51.919  24.838  32.015  1.00  0.00    -0.237 OA
ATOM     96  O   UNL A   1      50.549  25.039  29.966  1.00  0.00    -0.237 OA
ATOM     97  O   UNL A   1      51.171  27.055  31.240  1.00  0.00    -0.744 OA
ENDBRANCH  90  94
ENDBRANCH  64  87
ENDBRANCH  38  39
ENDBRANCH  31  33
ENDBRANCH  30  31
ENDBRANCH  29  30
ENDBRANCH  28  29
ENDBRANCH  27  28
ENDBRANCH  26  27
ENDBRANCH  25  26
ENDBRANCH   1  25
TORSDOF 27
ENDMDL
MODEL 3
REMARK VINA RESULT:      -8.7      1.821      1.994
REMARK SMILES Nc1ccc(S[C@@H](C(=O)OCCOCCOCCOCCOC(=O)c2ccc(-c3c4nc(c(-c5cc(S(=O)(=O)[O-])ccc5F)c5ccc([nH]5)c(-c5cc(S(=O)(=O)[O-])ccc5F)c5nc(c(-c6cc(S(=O)(=O)[O-])ccc6F)c6ccc3[nH]6)C=C5)C=C4)cc2)C2CC2)cc1F
REMARK SMILES IDX 16 1 15 2 14 3 13 4 12 5 11 6 10 7 8 8 9 9 7 10 6 11 5 12
REMARK SMILES IDX 2 13 3 14 92 15 4 16 91 17 93 18 1 19 88 22 89 23 90 24
REMARK SMILES IDX 17 25 18 26 19 27 20 28 21 29 22 30 23 31 24 32 25 33 26 34
REMARK SMILES IDX 87 35 27 36 86 37 28 38 29 39 30 40 80 41 31 42 85 43 79 44
REMARK SMILES IDX 81 45 32 46 84 47 78 48 77 49 33 51 65 52 45 53 64 54 46 55
REMARK SMILES IDX 49 56 63 57 82 58 47 59 48 60 62 62 83 63 50 64 34 65 35 66
REMARK SMILES IDX 43 67 36 68 42 69 44 70 41 71 37 72 38 73 39 74 40 75 66 76
REMARK SMILES IDX 67 77 75 78 68 79 74 80 76 81 73 82 69 83 70 84 71 85 72 86
REMARK SMILES IDX 51 87 52 88 60 89 53 90 59 91 61 92 58 93 54 94 55 95 56 96
REMARK SMILES IDX 57 97
REMARK H PARENT 1 20 1 21 81 50 49 61
REMARK Flexibility Score: inf
ROOT
ATOM      1  O   UNL A   1      39.300  22.230  26.875  1.00  0.00    -0.377 OA
ENDROOT
BRANCH   1   2
ATOM      2  C   UNL A   1      38.704  21.979  25.623  1.00  0.00     0.188 C 
BRANCH   2   3
ATOM      3  C   UNL A   1      37.345  21.292  25.355  1.00  0.00     0.188 C 
BRANCH   3   4
ATOM      4  O   UNL A   1      36.226  22.091  25.054  1.00  0.00    -0.376 OA
BRANCH   4   5
ATOM      5  C   UNL A   1      35.821  23.170  25.871  1.00  0.00     0.202 C 
BRANCH   5   6
ATOM      6  C   UNL A   1      34.649  23.126  26.872  1.00  0.00     0.261 C 
BRANCH   6   7
ATOM      7  O   UNL A   1      33.421  22.523  26.419  1.00  0.00    -0.462 OA
BRANCH   7   8
ATOM      8  C   UNL A   1      32.270  23.203  26.603  1.00  0.00     0.319 C 
ATOM      9  O   UNL A   1      31.493  22.904  27.509  1.00  0.00    -0.251 OA
BRANCH   8  10
ATOM     10  C   UNL A   1      31.972  24.355  25.610  1.00  0.00     0.164 C 
BRANCH  10  11
ATOM     11  S   UNL A   1      30.926  25.807  26.120  1.00  0.00    -0.110 SA
BRANCH  11  12
ATOM     12  C   UNL A   1      31.822  27.366  26.302  1.00  0.00     0.011 A 
ATOM     13  C   UNL A   1      33.561  29.584  26.860  1.00  0.00     0.068 A 
ATOM     14  C   UNL A   1      32.227  29.602  27.240  1.00  0.00     0.030 A 
ATOM     15  C   UNL A   1      33.981  28.506  26.074  1.00  0.00     0.147 A 
ATOM     16  C   UNL A   1      31.381  28.511  26.960  1.00  0.00     0.017 A 
ATOM     17  C   UNL A   1      33.142  27.408  25.813  1.00  0.00     0.056 A 
ATOM     18  F   UNL A   1      35.248  28.479  25.630  1.00  0.00    -0.205 F 
BRANCH  13  19
ATOM     19  N   UNL A   1      34.405  30.638  27.191  1.00  0.00    -0.396 N 
ATOM     20  H   UNL A   1      35.183  30.481  27.773  1.00  0.00     0.156 HD
ATOM     21  H   UNL A   1      34.223  31.542  26.845  1.00  0.00     0.156 HD
ENDBRANCH  13  19
ENDBRANCH  11  12
ENDBRANCH  10  11
BRANCH  10  22
ATOM     22  C   UNL A   1      31.912  24.018  24.138  1.00  0.00     0.014 C 
ATOM     23  C   UNL A   1      30.596  23.979  23.375  1.00  0.00     0.006 C 
ATOM     24  C   UNL A   1      31.631  24.981  23.000  1.00  0.00     0.006 C 
ENDBRANCH  10  22
ENDBRANCH   8  10
ENDBRANCH   7   8
ENDBRANCH   6   7
ENDBRANCH   5   6
ENDBRANCH   4   5
ENDBRANCH   3   4
ENDBRANCH   2   3
ENDBRANCH   1   2
BRANCH   1  25
ATOM     25  C   UNL A   1      40.694  22.366  26.923  1.00  0.00     0.188 C 
BRANCH  25  26
ATOM     26  C   UNL A   1      41.402  21.329  26.048  1.00  0.00     0.188 C 
BRANCH  26  27
ATOM     27  O   UNL A   1      41.883  20.209  26.780  1.00  0.00    -0.376 OA
BRANCH  27  28
ATOM     28  C   UNL A   1      42.136  18.988  26.093  1.00  0.00     0.202 C 
BRANCH  28  29
ATOM     29  C   UNL A   1      43.480  18.702  25.398  1.00  0.00     0.261 C 
BRANCH  29  30
ATOM     30  O   UNL A   1      43.880  19.545  24.321  1.00  0.00    -0.460 OA
BRANCH  30  31
ATOM     31  C   UNL A   1      45.127  20.036  24.314  1.00  0.00     0.338 C 
ATOM     32  O   UNL A   1      46.110  19.557  23.772  1.00  0.00    -0.246 OA
BRANCH  31  33
ATOM     33  C   UNL A   1      45.008  21.388  24.887  1.00  0.00     0.060 A 
ATOM     34  C   UNL A   1      44.618  22.435  24.046  1.00  0.00     0.016 A 
ATOM     35  C   UNL A   1      45.168  21.592  26.264  1.00  0.00     0.016 A 
ATOM     36  C   UNL A   1      44.394  23.699  24.578  1.00  0.00     0.010 A 
ATOM     37  C   UNL A   1      44.985  22.868  26.791  1.00  0.00     0.010 A 
ATOM     38  C   UNL A   1      44.630  23.927  25.940  1.00  0.00    -0.014 A 
BRANCH  38  39
ATOM     39  C   UNL A   1      44.790  25.322  26.393  1.00  0.00     0.031 A 
ATOM     40  C   UNL A   1      46.166  25.913  26.291  1.00  0.00     0.074 A 
ATOM     41  C   UNL A   1      43.738  26.046  26.810  1.00  0.00     0.049 A 
ATOM     42  N   UNL A   1      46.588  27.102  26.624  1.00  0.00    -0.248 NA
ATOM     43  C   UNL A   1      47.210  25.036  25.731  1.00  0.00     0.031 C 
ATOM     44  C   UNL A   1      42.358  25.570  26.876  1.00  0.00     0.029 A 
ATOM     45  N   UNL A   1      43.671  27.340  27.254  1.00  0.00    -0.354 N 
ATOM     46  C   UNL A   1      47.945  27.114  26.315  1.00  0.00     0.074 A 
ATOM     47  C   UNL A   1      48.282  25.804  25.808  1.00  0.00     0.031 C 
ATOM     48  C   UNL A   1      41.577  26.562  27.341  1.00  0.00     0.029 A 
ATOM     49  C   UNL A   1      42.411  27.723  27.646  1.00  0.00     0.049 A 
ATOM     50  H   UNL A   1      44.453  27.939  27.289  1.00  0.00     0.167 HD
ATOM     51  C   UNL A   1      48.824  28.136  26.439  1.00  0.00     0.034 A 
ATOM     52  C   UNL A   1      41.997  28.874  28.213  1.00  0.00     0.034 A 
ATOM     53  C   UNL A   1      48.458  29.421  26.975  1.00  0.00     0.049 A 
ATOM     54  C   UNL A   1      43.020  29.964  28.445  1.00  0.00     0.074 A 
ATOM     55  C   UNL A   1      49.253  30.534  27.169  1.00  0.00     0.029 A 
ATOM     56  N   UNL A   1      47.184  29.757  27.422  1.00  0.00    -0.354 N 
ATOM     57  N   UNL A   1      44.303  29.969  28.158  1.00  0.00    -0.248 NA
ATOM     58  C   UNL A   1      42.539  31.204  29.067  1.00  0.00     0.031 C 
ATOM     59  C   UNL A   1      48.484  31.510  27.809  1.00  0.00     0.029 A 
ATOM     60  C   UNL A   1      47.182  31.047  27.924  1.00  0.00     0.049 A 
ATOM     61  H   UNL A   1      46.399  29.164  27.388  1.00  0.00     0.167 HD
ATOM     62  C   UNL A   1      44.772  31.227  28.529  1.00  0.00     0.074 A 
ATOM     63  C   UNL A   1      43.631  31.952  29.052  1.00  0.00     0.031 C 
ATOM     64  C   UNL A   1      46.026  31.743  28.441  1.00  0.00     0.034 A 
BRANCH  51  65
ATOM     65  C   UNL A   1      50.259  27.865  26.059  1.00  0.00     0.023 A 
ATOM     66  C   UNL A   1      50.747  28.119  24.764  1.00  0.00     0.031 A 
ATOM     67  C   UNL A   1      51.141  27.296  26.993  1.00  0.00     0.131 A 
ATOM     68  C   UNL A   1      52.053  27.738  24.421  1.00  0.00     0.055 A 
ATOM     69  C   UNL A   1      52.466  26.999  26.670  1.00  0.00     0.041 A 
ATOM     70  F   UNL A   1      50.724  26.997  28.234  1.00  0.00    -0.206 F 
ATOM     71  C   UNL A   1      52.925  27.206  25.373  1.00  0.00     0.022 A 
BRANCH  68  72
ATOM     72  S   UNL A   1      52.547  27.803  22.676  1.00  0.00     0.124 S 
ATOM     73  O   UNL A   1      53.091  26.462  22.473  1.00  0.00    -0.237 OA
ATOM     74  O   UNL A   1      51.287  28.089  22.001  1.00  0.00    -0.237 OA
ATOM     75  O   UNL A   1      53.535  28.880  22.639  1.00  0.00    -0.744 OA
ENDBRANCH  68  72
ENDBRANCH  51  65
BRANCH  52  76
ATOM     76  C   UNL A   1      40.577  29.046  28.638  1.00  0.00     0.023 A 
ATOM     77  C   UNL A   1      40.202  28.962  29.988  1.00  0.00     0.031 A 
ATOM     78  C   UNL A   1      39.560  29.245  27.686  1.00  0.00     0.131 A 
ATOM     79  C   UNL A   1      38.845  29.028  30.344  1.00  0.00     0.055 A 
ATOM     80  C   UNL A   1      38.218  29.371  28.052  1.00  0.00     0.041 A 
ATOM     81  F   UNL A   1      39.857  29.326  26.379  1.00  0.00    -0.206 F 
ATOM     82  C   UNL A   1      37.853  29.248  29.387  1.00  0.00     0.022 A 
BRANCH  79  83
ATOM     83  S   UNL A   1      38.386  28.721  32.072  1.00  0.00     0.124 S 
ATOM     84  O   UNL A   1      38.809  27.337  32.249  1.00  0.00    -0.237 OA
ATOM     85  O   UNL A   1      39.171  29.728  32.778  1.00  0.00    -0.237 OA
ATOM     86  O   UNL A   1      36.942  28.940  32.084  1.00  0.00    -0.744 OA
ENDBRANCH  79  83
ENDBRANCH  52  76
BRANCH  64  87
ATOM     87  C   UNL A   1      46.211  33.181  28.862  1.00  0.00     0.023 A 
ATOM     88  C   UNL A   1      46.556  33.534  30.177  1.00  0.00     0.031 A 
ATOM     89  C   UNL A   1      46.047  34.213  27.920  1.00  0.00     0.131 A 
ATOM     90  C   UNL A   1      46.671  34.887  30.527  1.00  0.00     0.055 A 
ATOM     91  C   UNL A   1      46.234  35.553  28.257  1.00  0.00     0.041 A 
ATOM     92  F   UNL A   1      45.714  33.933  26.650  1.00  0.00    -0.206 F 
ATOM     93  C   UNL A   1      46.534  35.897  29.571  1.00  0.00     0.022 A 
BRANCH  90  94
ATOM     94  S   UNL A   1      46.898  35.317  32.273  1.00  0.00     0.124 S 
ATOM     95  O   UNL A   1      46.104  36.537  32.390  1.00  0.00    -0.237 OA
ATOM     96  O   UNL A   1      46.364  34.143  32.957  1.00  0.00    -0.237 OA
ATOM     97  O   UNL A   1      48.342  35.502  32.397  1.00  0.00    -0.744 OA
ENDBRANCH  90  94
ENDBRANCH  64  87
ENDBRANCH  38  39
ENDBRANCH  31  33
ENDBRANCH  30  31
ENDBRANCH  29  30
ENDBRANCH  28  29
ENDBRANCH  27  28
ENDBRANCH  26  27
ENDBRANCH  25  26
ENDBRANCH   1  25
TORSDOF 27
ENDMDL
