MODEL 1
REMARK VINA RESULT:     -10.5      0.000      0.000
REMARK SMILES Cc1ccc(C(=O)OCCOCCOCCOCCOC(=O)c2ccc(-c3c4nc(c(-c5cc(S(=O)(=O)[O-])ccc5F)c5ccc([nH]5)c(-c5cc(S(=O)(=O)[O-])ccc5F)c5nc(c(-c6cc(S(=O)(=O)[O-])ccc6F)c6ccc3[nH]6)C=C5)C=C4)cc2)c(NC(=O)CN2C(=O)/C(=C/c3ccccc3C)SC2=S)c1
REMARK SMILES IDX 13 1 12 2 11 3 10 4 9 5 8 6 6 7 7 8 5 9 1 10 2 11 3 12
REMARK SMILES IDX 106 13 4 14 86 15 87 16 88 17 89 19 90 20 91 21 92 22 104 23
REMARK SMILES IDX 93 24 94 25 103 26 105 27 95 28 96 29 97 30 101 31 98 32
REMARK SMILES IDX 100 33 102 34 99 35 14 36 15 37 16 38 17 39 18 40 19 41
REMARK SMILES IDX 20 42 21 43 22 44 23 45 24 46 85 47 25 48 84 49 26 50 27 51
REMARK SMILES IDX 28 52 78 53 29 54 83 55 77 56 79 57 30 58 82 59 76 60 75 61
REMARK SMILES IDX 31 63 63 64 43 65 62 66 44 67 47 68 61 69 80 70 45 71 46 72
REMARK SMILES IDX 60 74 81 75 48 76 32 77 33 78 41 79 34 80 40 81 42 82 39 83
REMARK SMILES IDX 35 84 36 85 37 86 38 87 64 88 65 89 73 90 66 91 72 92 74 93
REMARK SMILES IDX 71 94 67 95 68 96 69 97 70 98 49 99 50 100 58 101 51 102
REMARK SMILES IDX 57 103 59 104 56 105 52 106 53 107 54 108 55 109
REMARK H PARENT 87 18 79 62 47 73
REMARK Flexibility Score: inf
ROOT
ATOM      1  C   UNL A   1      38.026  34.178  36.672  1.00  0.00     0.188 C 
ENDROOT
BRANCH   1   2
ATOM      2  C   UNL A   1      39.305  35.001  37.799  1.00  0.00     0.188 C 
BRANCH   2   3
ATOM      3  O   UNL A   1      39.725  36.617  38.364  1.00  0.00    -0.376 OA
BRANCH   3   4
ATOM      4  C   UNL A   1      40.947  37.203  39.564  1.00  0.00     0.202 C 
BRANCH   4   5
ATOM      5  C   UNL A   1      42.536  38.037  39.126  1.00  0.00     0.261 C 
BRANCH   5   6
ATOM      6  O   UNL A   1      44.066  37.315  38.536  1.00  0.00    -0.460 OA
BRANCH   6   7
ATOM      7  C   UNL A   1      44.712  37.022  37.284  1.00  0.00     0.340 C 
ATOM      8  O   UNL A   1      45.926  37.031  37.107  1.00  0.00    -0.246 OA
BRANCH   7   9
ATOM      9  C   UNL A   1      44.351  37.217  35.899  1.00  0.00     0.083 A 
ATOM     10  C   UNL A   1      44.139  38.192  31.736  1.00  0.00     0.044 C 
ATOM     11  C   UNL A   1      44.312  37.968  33.209  1.00  0.00    -0.049 A 
ATOM     12  C   UNL A   1      45.095  36.888  33.567  1.00  0.00     0.004 A 
ATOM     13  C   UNL A   1      43.805  38.807  34.241  1.00  0.00     0.030 A 
ATOM     14  C   UNL A   1      45.016  36.456  34.874  1.00  0.00     0.018 A 
ATOM     15  C   UNL A   1      44.074  38.502  35.596  1.00  0.00     0.056 A 
BRANCH  15  16
ATOM     16  N   UNL A   1      44.384  39.479  36.570  1.00  0.00    -0.324 N 
ATOM     17  C   UNL A   1      44.968  40.769  36.473  1.00  0.00     0.244 C 
ATOM     18  H   UNL A   1      44.153  39.214  37.490  1.00  0.00     0.170 HD
ATOM     19  O   UNL A   1      44.966  41.331  37.583  1.00  0.00    -0.273 OA
BRANCH  17  20
ATOM     20  C   UNL A   1      45.633  41.736  34.999  1.00  0.00     0.227 C 
BRANCH  20  21
ATOM     21  N   UNL A   1      45.102  42.643  33.277  1.00  0.00    -0.283 N 
ATOM     22  C   UNL A   1      45.674  42.669  32.002  1.00  0.00     0.266 C 
ATOM     23  C   UNL A   1      43.900  43.614  32.844  1.00  0.00     0.148 C 
ATOM     24  O   UNL A   1      46.715  43.280  31.749  1.00  0.00    -0.268 OA
ATOM     25  C   UNL A   1      44.664  42.523  30.756  1.00  0.00     0.081 C 
ATOM     26  S   UNL A   1      43.558  43.731  31.051  1.00  0.00    -0.054 SA
ATOM     27  S   UNL A   1      42.626  44.605  33.503  1.00  0.00    -0.052 S 
ATOM     28  C   UNL A   1      44.561  41.592  29.759  1.00  0.00     0.029 C 
BRANCH  28  29
ATOM     29  C   UNL A   1      43.647  41.079  28.710  1.00  0.00    -0.021 A 
ATOM     30  C   UNL A   1      44.070  41.165  27.386  1.00  0.00     0.008 A 
ATOM     31  C   UNL A   1      42.270  40.749  28.959  1.00  0.00    -0.044 A 
ATOM     32  C   UNL A   1      43.243  40.748  26.348  1.00  0.00     0.001 A 
ATOM     33  C   UNL A   1      41.505  40.210  27.919  1.00  0.00     0.004 A 
ATOM     34  C   UNL A   1      41.501  40.948  30.254  1.00  0.00     0.045 C 
ATOM     35  C   UNL A   1      41.993  40.203  26.622  1.00  0.00     0.000 A 
ENDBRANCH  28  29
ENDBRANCH  20  21
ENDBRANCH  17  20
ENDBRANCH  15  16
ENDBRANCH   7   9
ENDBRANCH   6   7
ENDBRANCH   5   6
ENDBRANCH   4   5
ENDBRANCH   3   4
ENDBRANCH   2   3
ENDBRANCH   1   2
BRANCH   1  36
ATOM     36  O   UNL A   1      37.420  34.054  35.083  1.00  0.00    -0.377 OA
BRANCH  36  37
ATOM     37  C   UNL A   1      36.954  32.984  33.942  1.00  0.00     0.188 C 
BRANCH  37  38
ATOM     38  C   UNL A   1      35.486  32.648  33.073  1.00  0.00     0.188 C 
BRANCH  38  39
ATOM     39  O   UNL A   1      34.614  33.634  32.455  1.00  0.00    -0.376 OA
BRANCH  39  40
ATOM     40  C   UNL A   1      34.718  33.920  31.052  1.00  0.00     0.202 C 
BRANCH  40  41
ATOM     41  C   UNL A   1      34.494  32.804  30.017  1.00  0.00     0.261 C 
BRANCH  41  42
ATOM     42  O   UNL A   1      35.669  32.533  29.214  1.00  0.00    -0.460 OA
BRANCH  42  43
ATOM     43  C   UNL A   1      36.024  31.223  29.155  1.00  0.00     0.338 C 
ATOM     44  O   UNL A   1      35.372  30.354  28.604  1.00  0.00    -0.246 OA
BRANCH  43  45
ATOM     45  C   UNL A   1      37.333  31.019  29.807  1.00  0.00     0.060 A 
ATOM     46  C   UNL A   1      38.501  31.473  29.185  1.00  0.00     0.016 A 
ATOM     47  C   UNL A   1      37.395  30.221  30.943  1.00  0.00     0.016 A 
ATOM     48  C   UNL A   1      39.739  31.001  29.624  1.00  0.00     0.010 A 
ATOM     49  C   UNL A   1      38.600  29.646  31.273  1.00  0.00     0.010 A 
ATOM     50  C   UNL A   1      39.784  30.013  30.613  1.00  0.00    -0.014 A 
BRANCH  50  51
ATOM     51  C   UNL A   1      40.931  29.113  30.834  1.00  0.00     0.031 A 
ATOM     52  C   UNL A   1      41.056  27.823  30.042  1.00  0.00     0.074 A 
ATOM     53  C   UNL A   1      41.981  29.716  31.435  1.00  0.00     0.049 A 
ATOM     54  N   UNL A   1      42.049  26.987  30.042  1.00  0.00    -0.248 NA
ATOM     55  C   UNL A   1      39.938  27.311  29.235  1.00  0.00     0.031 C 
ATOM     56  C   UNL A   1      43.346  29.677  30.996  1.00  0.00     0.029 A 
ATOM     57  N   UNL A   1      42.072  30.613  32.494  1.00  0.00    -0.354 N 
ATOM     58  C   UNL A   1      41.797  25.974  29.109  1.00  0.00     0.074 A 
ATOM     59  C   UNL A   1      40.443  26.203  28.689  1.00  0.00     0.031 C 
ATOM     60  C   UNL A   1      44.211  30.119  31.900  1.00  0.00     0.029 A 
ATOM     61  C   UNL A   1      43.396  30.501  32.995  1.00  0.00     0.049 A 
ATOM     62  H   UNL A   1      41.362  31.207  32.828  1.00  0.00     0.167 HD
ATOM     63  C   UNL A   1      42.781  25.095  28.725  1.00  0.00     0.034 A 
ATOM     64  C   UNL A   1      43.671  30.154  34.265  1.00  0.00     0.034 A 
ATOM     65  C   UNL A   1      43.940  25.164  29.635  1.00  0.00     0.049 A 
ATOM     66  C   UNL A   1      44.244  28.749  34.365  1.00  0.00     0.074 A 
ATOM     67  C   UNL A   1      45.313  25.226  29.465  1.00  0.00     0.029 A 
ATOM     68  N   UNL A   1      43.740  25.300  31.016  1.00  0.00    -0.354 N 
ATOM     69  N   UNL A   1      44.288  27.863  33.386  1.00  0.00    -0.248 NA
ATOM     70  C   UNL A   1      44.874  28.250  35.580  1.00  0.00     0.031 C 
ATOM     71  C   UNL A   1      45.903  25.570  30.710  1.00  0.00     0.029 A 
ATOM     72  C   UNL A   1      44.914  25.587  31.673  1.00  0.00     0.049 A 
ATOM     73  H   UNL A   1      42.866  25.203  31.459  1.00  0.00     0.167 HD
ATOM     74  C   UNL A   1      44.867  26.693  33.838  1.00  0.00     0.074 A 
ATOM     75  C   UNL A   1      45.254  27.017  35.203  1.00  0.00     0.031 C 
ATOM     76  C   UNL A   1      45.005  25.528  33.118  1.00  0.00     0.034 A 
BRANCH  63  77
ATOM     77  C   UNL A   1      42.857  24.352  27.344  1.00  0.00     0.023 A 
ATOM     78  C   UNL A   1      42.262  23.067  27.205  1.00  0.00     0.031 A 
ATOM     79  C   UNL A   1      43.670  24.709  26.242  1.00  0.00     0.131 A 
ATOM     80  C   UNL A   1      42.623  22.166  26.171  1.00  0.00     0.055 A 
ATOM     81  C   UNL A   1      43.967  23.842  25.170  1.00  0.00     0.041 A 
ATOM     82  F   UNL A   1      44.270  25.896  26.138  1.00  0.00    -0.206 F 
ATOM     83  C   UNL A   1      43.481  22.549  25.152  1.00  0.00     0.022 A 
BRANCH  80  84
ATOM     84  S   UNL A   1      42.031  20.443  26.199  1.00  0.00     0.124 S 
ATOM     85  O   UNL A   1      40.616  20.597  25.880  1.00  0.00    -0.237 OA
ATOM     86  O   UNL A   1      42.854  19.800  25.180  1.00  0.00    -0.237 OA
ATOM     87  O   UNL A   1      42.310  20.010  27.569  1.00  0.00    -0.744 OA
ENDBRANCH  80  84
ENDBRANCH  63  77
BRANCH  64  88
ATOM     88  C   UNL A   1      42.969  31.147  35.144  1.00  0.00     0.023 A 
ATOM     89  C   UNL A   1      43.064  32.474  34.616  1.00  0.00     0.031 A 
ATOM     90  C   UNL A   1      41.753  30.782  35.742  1.00  0.00     0.131 A 
ATOM     91  C   UNL A   1      41.892  33.218  34.376  1.00  0.00     0.055 A 
ATOM     92  C   UNL A   1      40.610  31.590  35.604  1.00  0.00     0.041 A 
ATOM     93  F   UNL A   1      41.592  29.549  36.249  1.00  0.00    -0.206 F 
ATOM     94  C   UNL A   1      40.661  32.775  34.861  1.00  0.00     0.022 A 
BRANCH  91  95
ATOM     95  S   UNL A   1      41.921  34.511  33.072  1.00  0.00     0.124 S 
ATOM     96  O   UNL A   1      43.223  34.294  32.453  1.00  0.00    -0.237 OA
ATOM     97  O   UNL A   1      40.763  34.180  32.247  1.00  0.00    -0.237 OA
ATOM     98  O   UNL A   1      41.782  35.756  33.828  1.00  0.00    -0.744 OA
ENDBRANCH  91  95
ENDBRANCH  64  88
BRANCH  76  99
ATOM     99  C   UNL A   1      45.337  24.147  33.690  1.00  0.00     0.023 A 
ATOM    100  C   UNL A   1      46.629  23.790  34.084  1.00  0.00     0.031 A 
ATOM    101  C   UNL A   1      44.331  23.183  34.001  1.00  0.00     0.131 A 
ATOM    102  C   UNL A   1      46.899  22.531  34.652  1.00  0.00     0.055 A 
ATOM    103  C   UNL A   1      44.592  21.961  34.625  1.00  0.00     0.041 A 
ATOM    104  F   UNL A   1      43.031  23.380  33.752  1.00  0.00    -0.206 F 
ATOM    105  C   UNL A   1      45.889  21.619  34.943  1.00  0.00     0.022 A 
BRANCH 102 106
ATOM    106  S   UNL A   1      48.625  22.104  34.969  1.00  0.00     0.124 S 
ATOM    107  O   UNL A   1      48.677  22.147  36.429  1.00  0.00    -0.237 OA
ATOM    108  O   UNL A   1      48.735  20.778  34.371  1.00  0.00    -0.237 OA
ATOM    109  O   UNL A   1      49.373  23.159  34.288  1.00  0.00    -0.744 OA
ENDBRANCH 102 106
ENDBRANCH  76  99
ENDBRANCH  50  51
ENDBRANCH  43  45
ENDBRANCH  42  43
ENDBRANCH  41  42
ENDBRANCH  40  41
ENDBRANCH  39  40
ENDBRANCH  38  39
ENDBRANCH  37  38
ENDBRANCH  36  37
ENDBRANCH   1  36
TORSDOF 27
ENDMDL
MODEL 2
REMARK VINA RESULT:     -10.0      4.999     13.300
REMARK SMILES Cc1ccc(C(=O)OCCOCCOCCOCCOC(=O)c2ccc(-c3c4nc(c(-c5cc(S(=O)(=O)[O-])ccc5F)c5ccc([nH]5)c(-c5cc(S(=O)(=O)[O-])ccc5F)c5nc(c(-c6cc(S(=O)(=O)[O-])ccc6F)c6ccc3[nH]6)C=C5)C=C4)cc2)c(NC(=O)CN2C(=O)/C(=C/c3ccccc3C)SC2=S)c1
REMARK SMILES IDX 13 1 12 2 11 3 10 4 9 5 8 6 6 7 7 8 5 9 1 10 2 11 3 12
REMARK SMILES IDX 106 13 4 14 86 15 87 16 88 17 89 19 90 20 91 21 92 22 104 23
REMARK SMILES IDX 93 24 94 25 103 26 105 27 95 28 96 29 97 30 101 31 98 32
REMARK SMILES IDX 100 33 102 34 99 35 14 36 15 37 16 38 17 39 18 40 19 41
REMARK SMILES IDX 20 42 21 43 22 44 23 45 24 46 85 47 25 48 84 49 26 50 27 51
REMARK SMILES IDX 28 52 78 53 29 54 83 55 77 56 79 57 30 58 82 59 76 60 75 61
REMARK SMILES IDX 31 63 63 64 43 65 62 66 44 67 47 68 61 69 80 70 45 71 46 72
REMARK SMILES IDX 60 74 81 75 48 76 32 77 33 78 41 79 34 80 40 81 42 82 39 83
REMARK SMILES IDX 35 84 36 85 37 86 38 87 64 88 65 89 73 90 66 91 72 92 74 93
REMARK SMILES IDX 71 94 67 95 68 96 69 97 70 98 49 99 50 100 58 101 51 102
REMARK SMILES IDX 57 103 59 104 56 105 52 106 53 107 54 108 55 109
REMARK H PARENT 87 18 79 62 47 73
REMARK Flexibility Score: inf
ROOT
ATOM      1  C   UNL A   1      45.263  28.710  29.825  1.00  0.00     0.188 C 
ENDROOT
BRANCH   1   2
ATOM      2  C   UNL A   1      46.203  30.346  29.673  1.00  0.00     0.188 C 
BRANCH   2   3
ATOM      3  O   UNL A   1      47.431  31.252  30.555  1.00  0.00    -0.376 OA
BRANCH   3   4
ATOM      4  C   UNL A   1      48.856  32.221  29.999  1.00  0.00     0.202 C 
BRANCH   4   5
ATOM      5  C   UNL A   1      50.446  31.501  29.394  1.00  0.00     0.261 C 
BRANCH   5   6
ATOM      6  O   UNL A   1      50.960  31.150  27.714  1.00  0.00    -0.460 OA
BRANCH   6   7
ATOM      7  C   UNL A   1      50.803  30.113  26.729  1.00  0.00     0.340 C 
ATOM      8  O   UNL A   1      49.732  29.775  26.237  1.00  0.00    -0.246 OA
BRANCH   7   9
ATOM      9  C   UNL A   1      51.499  28.877  26.455  1.00  0.00     0.083 A 
ATOM     10  C   UNL A   1      52.683  24.873  25.510  1.00  0.00     0.044 C 
ATOM     11  C   UNL A   1      52.134  26.216  25.890  1.00  0.00    -0.049 A 
ATOM     12  C   UNL A   1      51.728  27.020  24.842  1.00  0.00     0.004 A 
ATOM     13  C   UNL A   1      51.935  26.685  27.219  1.00  0.00     0.030 A 
ATOM     14  C   UNL A   1      51.529  28.357  25.113  1.00  0.00     0.018 A 
ATOM     15  C   UNL A   1      51.371  27.963  27.440  1.00  0.00     0.056 A 
BRANCH  15  16
ATOM     16  N   UNL A   1      50.427  28.236  28.457  1.00  0.00    -0.324 N 
ATOM     17  C   UNL A   1      49.218  27.593  28.832  1.00  0.00     0.244 C 
ATOM     18  H   UNL A   1      50.649  29.020  29.009  1.00  0.00     0.170 HD
ATOM     19  O   UNL A   1      48.749  28.113  29.859  1.00  0.00    -0.273 OA
BRANCH  17  20
ATOM     20  C   UNL A   1      48.309  26.111  28.105  1.00  0.00     0.227 C 
BRANCH  20  21
ATOM     21  N   UNL A   1      47.044  25.538  26.642  1.00  0.00    -0.283 N 
ATOM     22  C   UNL A   1      47.176  24.662  25.561  1.00  0.00     0.266 C 
ATOM     23  C   UNL A   1      45.533  25.915  26.254  1.00  0.00     0.148 C 
ATOM     24  O   UNL A   1      47.860  24.922  24.568  1.00  0.00    -0.268 OA
ATOM     25  C   UNL A   1      45.936  23.674  25.278  1.00  0.00     0.081 C 
ATOM     26  S   UNL A   1      44.657  24.732  25.168  1.00  0.00    -0.054 SA
ATOM     27  S   UNL A   1      44.275  27.075  26.587  1.00  0.00    -0.052 S 
ATOM     28  C   UNL A   1      45.828  22.310  25.271  1.00  0.00     0.029 C 
BRANCH  28  29
ATOM     29  C   UNL A   1      44.843  21.202  25.309  1.00  0.00    -0.021 A 
ATOM     30  C   UNL A   1      43.554  21.498  25.747  1.00  0.00     0.008 A 
ATOM     31  C   UNL A   1      45.209  19.819  25.172  1.00  0.00    -0.044 A 
ATOM     32  C   UNL A   1      42.594  20.497  25.853  1.00  0.00     0.001 A 
ATOM     33  C   UNL A   1      44.200  18.850  25.155  1.00  0.00     0.004 A 
ATOM     34  C   UNL A   1      46.614  19.249  25.071  1.00  0.00     0.045 C 
ATOM     35  C   UNL A   1      42.897  19.191  25.486  1.00  0.00     0.000 A 
ENDBRANCH  28  29
ENDBRANCH  20  21
ENDBRANCH  17  20
ENDBRANCH  15  16
ENDBRANCH   7   9
ENDBRANCH   6   7
ENDBRANCH   5   6
ENDBRANCH   4   5
ENDBRANCH   3   4
ENDBRANCH   2   3
ENDBRANCH   1   2
BRANCH   1  36
ATOM     36  O   UNL A   1      45.007  27.314  30.770  1.00  0.00    -0.377 OA
BRANCH  36  37
ATOM     37  C   UNL A   1      45.259  25.702  30.815  1.00  0.00     0.188 C 
BRANCH  37  38
ATOM     38  C   UNL A   1      44.305  24.283  30.503  1.00  0.00     0.188 C 
BRANCH  38  39
ATOM     39  O   UNL A   1      44.235  23.560  29.244  1.00  0.00    -0.376 OA
BRANCH  39  40
ATOM     40  C   UNL A   1      42.964  23.184  28.691  1.00  0.00     0.202 C 
BRANCH  40  41
ATOM     41  C   UNL A   1      42.160  24.191  27.849  1.00  0.00     0.261 C 
BRANCH  41  42
ATOM     42  O   UNL A   1      40.734  23.938  27.874  1.00  0.00    -0.460 OA
BRANCH  42  43
ATOM     43  C   UNL A   1      39.995  24.790  27.116  1.00  0.00     0.338 C 
ATOM     44  O   UNL A   1      39.335  24.460  26.147  1.00  0.00    -0.246 OA
BRANCH  43  45
ATOM     45  C   UNL A   1      40.068  26.158  27.669  1.00  0.00     0.060 A 
ATOM     46  C   UNL A   1      41.203  26.565  28.376  1.00  0.00     0.016 A 
ATOM     47  C   UNL A   1      38.930  26.955  27.627  1.00  0.00     0.016 A 
ATOM     48  C   UNL A   1      41.143  27.715  29.166  1.00  0.00     0.010 A 
ATOM     49  C   UNL A   1      38.829  27.997  28.520  1.00  0.00     0.010 A 
ATOM     50  C   UNL A   1      39.923  28.383  29.311  1.00  0.00    -0.014 A 
BRANCH  50  51
ATOM     51  C   UNL A   1      39.599  29.285  30.432  1.00  0.00     0.031 A 
ATOM     52  C   UNL A   1      38.834  30.573  30.181  1.00  0.00     0.074 A 
ATOM     53  C   UNL A   1      39.661  28.685  31.642  1.00  0.00     0.049 A 
ATOM     54  N   UNL A   1      38.382  31.410  31.064  1.00  0.00    -0.248 NA
ATOM     55  C   UNL A   1      38.620  31.081  28.817  1.00  0.00     0.031 C 
ATOM     56  C   UNL A   1      38.651  28.725  32.660  1.00  0.00     0.029 A 
ATOM     57  N   UNL A   1      40.565  27.792  32.205  1.00  0.00    -0.354 N 
ATOM     58  C   UNL A   1      37.663  32.421  30.415  1.00  0.00     0.074 A 
ATOM     59  C   UNL A   1      37.902  32.188  29.018  1.00  0.00     0.031 C 
ATOM     60  C   UNL A   1      39.067  28.287  33.841  1.00  0.00     0.029 A 
ATOM     61  C   UNL A   1      40.413  27.907  33.611  1.00  0.00     0.049 A 
ATOM     62  H   UNL A   1      41.185  27.198  31.724  1.00  0.00     0.167 HD
ATOM     63  C   UNL A   1      36.873  33.300  31.116  1.00  0.00     0.034 A 
ATOM     64  C   UNL A   1      41.420  28.258  34.430  1.00  0.00     0.034 A 
ATOM     65  C   UNL A   1      37.160  33.235  32.561  1.00  0.00     0.049 A 
ATOM     66  C   UNL A   1      41.246  29.664  34.983  1.00  0.00     0.074 A 
ATOM     67  C   UNL A   1      36.388  33.175  33.708  1.00  0.00     0.029 A 
ATOM     68  N   UNL A   1      38.482  33.103  33.008  1.00  0.00    -0.354 N 
ATOM     69  N   UNL A   1      40.352  30.547  34.576  1.00  0.00    -0.248 NA
ATOM     70  C   UNL A   1      42.044  30.168  36.093  1.00  0.00     0.031 C 
ATOM     71  C   UNL A   1      37.231  32.836  34.800  1.00  0.00     0.029 A 
ATOM     72  C   UNL A   1      38.538  32.820  34.353  1.00  0.00     0.049 A 
ATOM     73  H   UNL A   1      39.273  33.200  32.429  1.00  0.00     0.167 HD
ATOM     74  C   UNL A   1      40.491  31.720  35.294  1.00  0.00     0.074 A 
ATOM     75  C   UNL A   1      41.533  31.400  36.259  1.00  0.00     0.031 C 
ATOM     76  C   UNL A   1      39.784  32.883  35.089  1.00  0.00     0.034 A 
BRANCH  63  77
ATOM     77  C   UNL A   1      35.606  34.039  30.556  1.00  0.00     0.023 A 
ATOM     78  C   UNL A   1      35.043  35.119  31.291  1.00  0.00     0.031 A 
ATOM     79  C   UNL A   1      34.784  33.605  29.490  1.00  0.00     0.131 A 
ATOM     80  C   UNL A   1      33.709  35.562  31.098  1.00  0.00     0.055 A 
ATOM     81  C   UNL A   1      33.486  34.101  29.245  1.00  0.00     0.041 A 
ATOM     82  F   UNL A   1      35.150  32.648  28.635  1.00  0.00    -0.206 F 
ATOM     83  C   UNL A   1      32.923  35.049  30.076  1.00  0.00     0.022 A 
BRANCH  80  84
ATOM     84  S   UNL A   1      32.958  36.761  32.245  1.00  0.00     0.124 S 
ATOM     85  O   UNL A   1      31.616  36.218  32.426  1.00  0.00    -0.237 OA
ATOM     86  O   UNL A   1      33.841  36.698  33.404  1.00  0.00    -0.237 OA
ATOM     87  O   UNL A   1      33.017  38.023  31.504  1.00  0.00    -0.744 OA
ENDBRANCH  80  84
ENDBRANCH  63  77
BRANCH  64  88
ATOM     88  C   UNL A   1      42.523  27.267  34.206  1.00  0.00     0.023 A 
ATOM     89  C   UNL A   1      43.745  27.916  33.838  1.00  0.00     0.031 A 
ATOM     90  C   UNL A   1      42.621  26.157  35.059  1.00  0.00     0.131 A 
ATOM     91  C   UNL A   1      44.914  27.687  34.589  1.00  0.00     0.055 A 
ATOM     92  C   UNL A   1      43.828  25.855  35.716  1.00  0.00     0.041 A 
ATOM     93  F   UNL A   1      41.514  25.506  35.451  1.00  0.00    -0.206 F 
ATOM     94  C   UNL A   1      44.957  26.662  35.537  1.00  0.00     0.022 A 
BRANCH  91  95
ATOM     95  S   UNL A   1      46.203  28.994  34.635  1.00  0.00     0.124 S 
ATOM     96  O   UNL A   1      45.502  30.094  35.286  1.00  0.00    -0.237 OA
ATOM     97  O   UNL A   1      47.277  28.379  35.411  1.00  0.00    -0.237 OA
ATOM     98  O   UNL A   1      46.526  29.199  33.223  1.00  0.00    -0.744 OA
ENDBRANCH  91  95
ENDBRANCH  64  88
BRANCH  76  99
ATOM     99  C   UNL A   1      40.142  34.266  35.640  1.00  0.00     0.023 A 
ATOM    100  C   UNL A   1      39.902  34.628  36.967  1.00  0.00     0.031 A 
ATOM    101  C   UNL A   1      40.878  35.227  34.883  1.00  0.00     0.131 A 
ATOM    102  C   UNL A   1      40.283  35.889  37.463  1.00  0.00     0.055 A 
ATOM    103  C   UNL A   1      41.313  36.451  35.396  1.00  0.00     0.041 A 
ATOM    104  F   UNL A   1      41.250  35.026  33.614  1.00  0.00    -0.206 F 
ATOM    105  C   UNL A   1      41.003  36.798  36.693  1.00  0.00     0.022 A 
BRANCH 102 106
ATOM    106  S   UNL A   1      39.777  36.322  39.141  1.00  0.00     0.124 S 
ATOM    107  O   UNL A   1      39.048  35.123  39.549  1.00  0.00    -0.237 OA
ATOM    108  O   UNL A   1      41.057  36.542  39.807  1.00  0.00    -0.237 OA
ATOM    109  O   UNL A   1      38.957  37.517  38.957  1.00  0.00    -0.744 OA
ENDBRANCH 102 106
ENDBRANCH  76  99
ENDBRANCH  50  51
ENDBRANCH  43  45
ENDBRANCH  42  43
ENDBRANCH  41  42
ENDBRANCH  40  41
ENDBRANCH  39  40
ENDBRANCH  38  39
ENDBRANCH  37  38
ENDBRANCH  36  37
ENDBRANCH   1  36
TORSDOF 27
ENDMDL
MODEL 3
REMARK VINA RESULT:      -9.9      5.487     15.059
REMARK SMILES Cc1ccc(C(=O)OCCOCCOCCOCCOC(=O)c2ccc(-c3c4nc(c(-c5cc(S(=O)(=O)[O-])ccc5F)c5ccc([nH]5)c(-c5cc(S(=O)(=O)[O-])ccc5F)c5nc(c(-c6cc(S(=O)(=O)[O-])ccc6F)c6ccc3[nH]6)C=C5)C=C4)cc2)c(NC(=O)CN2C(=O)/C(=C/c3ccccc3C)SC2=S)c1
REMARK SMILES IDX 13 1 12 2 11 3 10 4 9 5 8 6 6 7 7 8 5 9 1 10 2 11 3 12
REMARK SMILES IDX 106 13 4 14 86 15 87 16 88 17 89 19 90 20 91 21 92 22 104 23
REMARK SMILES IDX 93 24 94 25 103 26 105 27 95 28 96 29 97 30 101 31 98 32
REMARK SMILES IDX 100 33 102 34 99 35 14 36 15 37 16 38 17 39 18 40 19 41
REMARK SMILES IDX 20 42 21 43 22 44 23 45 24 46 85 47 25 48 84 49 26 50 27 51
REMARK SMILES IDX 28 52 78 53 29 54 83 55 77 56 79 57 30 58 82 59 76 60 75 61
REMARK SMILES IDX 31 63 63 64 43 65 62 66 44 67 47 68 61 69 80 70 45 71 46 72
REMARK SMILES IDX 60 74 81 75 48 76 32 77 33 78 41 79 34 80 40 81 42 82 39 83
REMARK SMILES IDX 35 84 36 85 37 86 38 87 64 88 65 89 73 90 66 91 72 92 74 93
REMARK SMILES IDX 71 94 67 95 68 96 69 97 70 98 49 99 50 100 58 101 51 102
REMARK SMILES IDX 57 103 59 104 56 105 52 106 53 107 54 108 55 109
REMARK H PARENT 87 18 79 62 47 73
REMARK Flexibility Score: inf
ROOT
ATOM      1  C   UNL A   1      50.059  27.813  40.695  1.00  0.00     0.188 C 
ENDROOT
BRANCH   1   2
ATOM      2  C   UNL A   1      51.728  27.426  39.890  1.00  0.00     0.188 C 
BRANCH   2   3
ATOM      3  O   UNL A   1      52.603  26.029  39.267  1.00  0.00    -0.376 OA
BRANCH   3   4
ATOM      4  C   UNL A   1      53.649  25.805  37.806  1.00  0.00     0.202 C 
BRANCH   4   5
ATOM      5  C   UNL A   1      54.537  27.167  36.929  1.00  0.00     0.261 C 
BRANCH   5   6
ATOM      6  O   UNL A   1      54.850  27.368  35.177  1.00  0.00    -0.460 OA
BRANCH   6   7
ATOM      7  C   UNL A   1      54.994  26.548  34.003  1.00  0.00     0.340 C 
ATOM      8  O   UNL A   1      54.789  26.932  32.856  1.00  0.00    -0.246 OA
BRANCH   7   9
ATOM      9  C   UNL A   1      54.810  25.141  33.733  1.00  0.00     0.083 A 
ATOM     10  C   UNL A   1      53.830  21.286  32.151  1.00  0.00     0.044 C 
ATOM     11  C   UNL A   1      54.051  22.691  32.628  1.00  0.00    -0.049 A 
ATOM     12  C   UNL A   1      55.098  23.371  32.035  1.00  0.00     0.004 A 
ATOM     13  C   UNL A   1      53.239  23.386  33.567  1.00  0.00     0.030 A 
ATOM     14  C   UNL A   1      55.538  24.520  32.657  1.00  0.00     0.018 A 
ATOM     15  C   UNL A   1      53.537  24.727  33.903  1.00  0.00     0.056 A 
BRANCH  15  16
ATOM     16  N   UNL A   1      52.551  25.724  34.087  1.00  0.00    -0.324 N 
ATOM     17  C   UNL A   1      51.345  25.745  34.835  1.00  0.00     0.244 C 
ATOM     18  H   UNL A   1      52.736  26.563  33.605  1.00  0.00     0.170 HD
ATOM     19  O   UNL A   1      50.829  26.875  34.796  1.00  0.00    -0.273 OA
BRANCH  17  20
ATOM     20  C   UNL A   1      50.497  24.427  35.881  1.00  0.00     0.227 C 
BRANCH  20  21
ATOM     21  N   UNL A   1      50.471  22.454  36.302  1.00  0.00    -0.283 N 
ATOM     22  C   UNL A   1      50.408  21.739  37.502  1.00  0.00     0.266 C 
ATOM     23  C   UNL A   1      50.535  21.117  35.417  1.00  0.00     0.148 C 
ATOM     24  O   UNL A   1      51.354  21.674  38.291  1.00  0.00    -0.268 OA
ATOM     25  C   UNL A   1      49.422  20.466  37.533  1.00  0.00     0.081 C 
ATOM     26  S   UNL A   1      49.939  19.585  36.219  1.00  0.00    -0.054 SA
ATOM     27  S   UNL A   1      50.897  20.546  33.810  1.00  0.00    -0.052 S 
ATOM     28  C   UNL A   1      48.321  20.173  38.290  1.00  0.00     0.029 C 
BRANCH  28  29
ATOM     29  C   UNL A   1      47.141  19.278  38.363  1.00  0.00    -0.021 A 
ATOM     30  C   UNL A   1      47.044  18.425  39.460  1.00  0.00     0.008 A 
ATOM     31  C   UNL A   1      46.249  19.061  37.258  1.00  0.00    -0.044 A 
ATOM     32  C   UNL A   1      45.989  17.525  39.568  1.00  0.00     0.001 A 
ATOM     33  C   UNL A   1      45.125  18.249  37.445  1.00  0.00     0.004 A 
ATOM     34  C   UNL A   1      46.394  19.599  35.845  1.00  0.00     0.045 C 
ATOM     35  C   UNL A   1      44.993  17.492  38.599  1.00  0.00     0.000 A 
ENDBRANCH  28  29
ENDBRANCH  20  21
ENDBRANCH  17  20
ENDBRANCH  15  16
ENDBRANCH   7   9
ENDBRANCH   6   7
ENDBRANCH   5   6
ENDBRANCH   4   5
ENDBRANCH   3   4
ENDBRANCH   2   3
ENDBRANCH   1   2
BRANCH   1  36
ATOM     36  O   UNL A   1      48.370  27.884  40.472  1.00  0.00    -0.377 OA
BRANCH  36  37
ATOM     37  C   UNL A   1      47.209  28.326  39.413  1.00  0.00     0.188 C 
BRANCH  37  38
ATOM     38  C   UNL A   1      45.899  27.529  38.594  1.00  0.00     0.188 C 
BRANCH  38  39
ATOM     39  O   UNL A   1      45.322  26.244  38.954  1.00  0.00    -0.376 OA
BRANCH  39  40
ATOM     40  C   UNL A   1      44.689  25.426  37.959  1.00  0.00     0.202 C 
BRANCH  40  41
ATOM     41  C   UNL A   1      45.010  23.924  37.874  1.00  0.00     0.261 C 
BRANCH  41  42
ATOM     42  O   UNL A   1      44.887  23.393  36.532  1.00  0.00    -0.460 OA
BRANCH  42  43
ATOM     43  C   UNL A   1      45.995  23.546  35.760  1.00  0.00     0.338 C 
ATOM     44  O   UNL A   1      47.067  23.009  35.974  1.00  0.00    -0.246 OA
BRANCH  43  45
ATOM     45  C   UNL A   1      45.695  24.413  34.602  1.00  0.00     0.060 A 
ATOM     46  C   UNL A   1      46.274  25.682  34.511  1.00  0.00     0.016 A 
ATOM     47  C   UNL A   1      44.700  24.017  33.714  1.00  0.00     0.016 A 
ATOM     48  C   UNL A   1      45.748  26.613  33.613  1.00  0.00     0.010 A 
ATOM     49  C   UNL A   1      44.093  24.980  32.942  1.00  0.00     0.010 A 
ATOM     50  C   UNL A   1      44.595  26.291  32.890  1.00  0.00    -0.014 A 
BRANCH  50  51
ATOM     51  C   UNL A   1      43.687  27.287  32.290  1.00  0.00     0.031 A 
ATOM     52  C   UNL A   1      42.700  28.045  33.160  1.00  0.00     0.074 A 
ATOM     53  C   UNL A   1      44.097  27.728  31.079  1.00  0.00     0.049 A 
ATOM     54  N   UNL A   1      41.919  29.019  32.807  1.00  0.00    -0.248 NA
ATOM     55  C   UNL A   1      42.439  27.640  34.550  1.00  0.00     0.031 C 
ATOM     56  C   UNL A   1      44.213  29.099  30.672  1.00  0.00     0.029 A 
ATOM     57  N   UNL A   1      44.632  27.079  29.972  1.00  0.00    -0.354 N 
ATOM     58  C   UNL A   1      41.231  29.490  33.932  1.00  0.00     0.074 A 
ATOM     59  C   UNL A   1      41.556  28.550  34.968  1.00  0.00     0.031 C 
ATOM     60  C   UNL A   1      44.374  29.255  29.364  1.00  0.00     0.029 A 
ATOM     61  C   UNL A   1      44.394  27.929  28.861  1.00  0.00     0.049 A 
ATOM     62  H   UNL A   1      45.086  26.206  29.962  1.00  0.00     0.167 HD
ATOM     63  C   UNL A   1      40.525  30.668  33.898  1.00  0.00     0.034 A 
ATOM     64  C   UNL A   1      43.683  27.546  27.786  1.00  0.00     0.034 A 
ATOM     65  C   UNL A   1      40.333  31.132  32.511  1.00  0.00     0.049 A 
ATOM     66  C   UNL A   1      42.323  28.223  27.726  1.00  0.00     0.074 A 
ATOM     67  C   UNL A   1      40.464  32.347  31.861  1.00  0.00     0.029 A 
ATOM     68  N   UNL A   1      40.041  30.209  31.497  1.00  0.00    -0.354 N 
ATOM     69  N   UNL A   1      41.775  28.940  28.692  1.00  0.00    -0.248 NA
ATOM     70  C   UNL A   1      41.488  28.191  26.532  1.00  0.00     0.031 C 
ATOM     71  C   UNL A   1      40.424  32.113  30.461  1.00  0.00     0.029 A 
ATOM     72  C   UNL A   1      40.134  30.780  30.249  1.00  0.00     0.049 A 
ATOM     73  H   UNL A   1      39.801  29.267  31.660  1.00  0.00     0.167 HD
ATOM     74  C   UNL A   1      40.532  29.392  28.293  1.00  0.00     0.074 A 
ATOM     75  C   UNL A   1      40.434  28.930  26.916  1.00  0.00     0.031 C 
ATOM     76  C   UNL A   1      39.642  30.100  29.068  1.00  0.00     0.034 A 
BRANCH  63  77
ATOM     77  C   UNL A   1      40.236  31.598  35.130  1.00  0.00     0.023 A 
ATOM     78  C   UNL A   1      41.313  32.011  35.964  1.00  0.00     0.031 A 
ATOM     79  C   UNL A   1      38.965  31.904  35.671  1.00  0.00     0.131 A 
ATOM     80  C   UNL A   1      41.115  32.484  37.287  1.00  0.00     0.055 A 
ATOM     81  C   UNL A   1      38.768  32.450  36.956  1.00  0.00     0.041 A 
ATOM     82  F   UNL A   1      37.824  31.663  35.022  1.00  0.00    -0.206 F 
ATOM     83  C   UNL A   1      39.841  32.700  37.790  1.00  0.00     0.022 A 
BRANCH  80  84
ATOM     84  S   UNL A   1      42.536  32.741  38.398  1.00  0.00     0.124 S 
ATOM     85  O   UNL A   1      42.200  34.007  39.041  1.00  0.00    -0.237 OA
ATOM     86  O   UNL A   1      42.501  31.557  39.249  1.00  0.00    -0.237 OA
ATOM     87  O   UNL A   1      43.677  32.799  37.482  1.00  0.00    -0.744 OA
ENDBRANCH  80  84
ENDBRANCH  63  77
BRANCH  64  88
ATOM     88  C   UNL A   1      44.352  26.319  27.242  1.00  0.00     0.023 A 
ATOM     89  C   UNL A   1      43.772  25.124  27.777  1.00  0.00     0.031 A 
ATOM     90  C   UNL A   1      44.729  26.296  25.890  1.00  0.00     0.131 A 
ATOM     91  C   UNL A   1      43.271  24.138  26.907  1.00  0.00     0.055 A 
ATOM     92  C   UNL A   1      44.329  25.243  25.046  1.00  0.00     0.041 A 
ATOM     93  F   UNL A   1      45.270  27.384  25.321  1.00  0.00    -0.206 F 
ATOM     94  C   UNL A   1      43.539  24.198  25.538  1.00  0.00     0.022 A 
BRANCH  91  95
ATOM     95  S   UNL A   1      41.920  23.043  27.500  1.00  0.00     0.124 S 
ATOM     96  O   UNL A   1      40.900  24.005  27.901  1.00  0.00    -0.237 OA
ATOM     97  O   UNL A   1      41.604  22.235  26.326  1.00  0.00    -0.237 OA
ATOM     98  O   UNL A   1      42.546  22.296  28.591  1.00  0.00    -0.744 OA
ENDBRANCH  91  95
ENDBRANCH  64  88
BRANCH  76  99
ATOM     99  C   UNL A   1      38.157  30.322  28.764  1.00  0.00     0.023 A 
ATOM    100  C   UNL A   1      37.560  31.583  28.830  1.00  0.00     0.031 A 
ATOM    101  C   UNL A   1      37.317  29.290  28.248  1.00  0.00     0.131 A 
ATOM    102  C   UNL A   1      36.204  31.768  28.500  1.00  0.00     0.055 A 
ATOM    103  C   UNL A   1      35.991  29.490  27.858  1.00  0.00     0.041 A 
ATOM    104  F   UNL A   1      37.738  28.034  28.057  1.00  0.00    -0.206 F 
ATOM    105  C   UNL A   1      35.418  30.736  27.997  1.00  0.00     0.022 A 
BRANCH 102 106
ATOM    106  S   UNL A   1      35.485  33.400  28.781  1.00  0.00     0.124 S 
ATOM    107  O   UNL A   1      36.644  34.158  29.248  1.00  0.00    -0.237 OA
ATOM    108  O   UNL A   1      34.989  33.757  27.456  1.00  0.00    -0.237 OA
ATOM    109  O   UNL A   1      34.455  33.156  29.787  1.00  0.00    -0.744 OA
ENDBRANCH 102 106
ENDBRANCH  76  99
ENDBRANCH  50  51
ENDBRANCH  43  45
ENDBRANCH  42  43
ENDBRANCH  41  42
ENDBRANCH  40  41
ENDBRANCH  39  40
ENDBRANCH  38  39
ENDBRANCH  37  38
ENDBRANCH  36  37
ENDBRANCH   1  36
TORSDOF 27
ENDMDL
