MODEL 1
REMARK VINA RESULT:     -10.0      0.000      0.000
REMARK SMILES C[C@@H](C(=O)OCCOCCOCCOCCOC(=O)c1ccc(-c2c3nc(c(-c4cc(S(=O)(=O)[O-])ccc4F)c4ccc([nH]4)c(-c4cc(S(=O)(=O)[O-])ccc4F)c4nc(c(-c5cc(S(=O)(=O)[O-])ccc5F)c5ccc2[nH]5)C=C4)C=C3)cc1)c1ccc(-c2ccn(C(F)F)c(=O)c2)cc1
REMARK SMILES IDX 11 1 10 2 9 3 8 4 7 5 6 6 5 7 3 8 4 9 2 10 1 11 83 12 84 13
REMARK SMILES IDX 98 14 85 15 97 16 86 17 87 18 88 19 96 20 89 21 94 22 90 23
REMARK SMILES IDX 95 24 91 25 92 26 93 27 12 28 13 29 14 30 15 31 16 32 17 33
REMARK SMILES IDX 18 34 19 35 20 36 21 37 82 38 22 39 81 40 23 41 24 42 25 43
REMARK SMILES IDX 75 44 26 45 80 46 74 47 76 48 27 49 79 50 73 51 72 52 28 54
REMARK SMILES IDX 60 55 40 56 59 57 41 58 44 59 58 60 77 61 42 62 43 63 57 65
REMARK SMILES IDX 78 66 45 67 29 68 30 69 38 70 31 71 37 72 39 73 36 74 32 75
REMARK SMILES IDX 33 76 34 77 35 78 61 79 62 80 70 81 63 82 69 83 71 84 68 85
REMARK SMILES IDX 64 86 65 87 66 88 67 89 46 90 47 91 55 92 48 93 54 94 56 95
REMARK SMILES IDX 53 96 49 97 50 98 51 99 52 100
REMARK H PARENT 76 53 44 64
REMARK Flexibility Score: inf
ROOT
ATOM      1  O   UNL A   1      34.548  31.115  27.288  1.00  0.00    -0.377 OA
ENDROOT
BRANCH   1   2
ATOM      2  C   UNL A   1      33.327  30.433  27.462  1.00  0.00     0.188 C 
BRANCH   2   3
ATOM      3  C   UNL A   1      32.217  30.833  26.469  1.00  0.00     0.188 C 
BRANCH   3   4
ATOM      4  O   UNL A   1      31.359  29.840  25.937  1.00  0.00    -0.376 OA
BRANCH   4   5
ATOM      5  C   UNL A   1      31.537  29.412  24.595  1.00  0.00     0.202 C 
BRANCH   5   6
ATOM      6  C   UNL A   1      30.597  28.396  23.905  1.00  0.00     0.261 C 
BRANCH   6   7
ATOM      7  O   UNL A   1      31.008  27.013  23.856  1.00  0.00    -0.463 OA
BRANCH   7   8
ATOM      8  C   UNL A   1      32.338  26.757  23.961  1.00  0.00     0.313 C 
ATOM      9  O   UNL A   1      33.119  26.835  23.017  1.00  0.00    -0.252 OA
BRANCH   8  10
ATOM     10  C   UNL A   1      32.801  26.352  25.378  1.00  0.00     0.126 C 
ATOM     11  C   UNL A   1      33.884  27.181  26.077  1.00  0.00     0.025 C 
BRANCH  10  12
ATOM     12  C   UNL A   1      33.098  24.852  25.458  1.00  0.00    -0.034 A 
ATOM     13  C   UNL A   1      34.404  24.339  25.428  1.00  0.00     0.005 A 
ATOM     14  C   UNL A   1      32.045  23.935  25.504  1.00  0.00     0.005 A 
ATOM     15  C   UNL A   1      34.658  22.971  25.319  1.00  0.00     0.009 A 
ATOM     16  C   UNL A   1      32.295  22.561  25.442  1.00  0.00     0.009 A 
ATOM     17  C   UNL A   1      33.601  22.067  25.316  1.00  0.00    -0.018 A 
BRANCH  17  18
ATOM     18  C   UNL A   1      33.836  20.618  25.179  1.00  0.00    -0.011 A 
ATOM     19  C   UNL A   1      35.160  20.068  24.954  1.00  0.00     0.027 A 
ATOM     20  C   UNL A   1      32.782  19.783  25.225  1.00  0.00     0.080 A 
ATOM     21  C   UNL A   1      35.318  18.766  24.692  1.00  0.00     0.095 A 
ATOM     22  C   UNL A   1      32.948  18.326  24.970  1.00  0.00     0.255 A 
ATOM     23  N   UNL A   1      34.235  17.908  24.669  1.00  0.00    -0.258 N 
ATOM     24  O   UNL A   1      31.956  17.606  25.013  1.00  0.00    -0.269 OA
BRANCH  23  25
ATOM     25  C   UNL A   1      34.400  16.534  24.283  1.00  0.00     0.451 C 
ATOM     26  F   UNL A   1      33.950  15.689  25.240  1.00  0.00    -0.185 F 
ATOM     27  F   UNL A   1      33.722  16.272  23.138  1.00  0.00    -0.185 F 
ENDBRANCH  23  25
ENDBRANCH  17  18
ENDBRANCH  10  12
ENDBRANCH   8  10
ENDBRANCH   7   8
ENDBRANCH   6   7
ENDBRANCH   5   6
ENDBRANCH   4   5
ENDBRANCH   3   4
ENDBRANCH   2   3
ENDBRANCH   1   2
BRANCH   1  28
ATOM     28  C   UNL A   1      34.829  32.157  28.210  1.00  0.00     0.188 C 
BRANCH  28  29
ATOM     29  C   UNL A   1      34.105  33.508  28.037  1.00  0.00     0.188 C 
BRANCH  29  30
ATOM     30  O   UNL A   1      34.904  34.647  28.346  1.00  0.00    -0.376 OA
BRANCH  30  31
ATOM     31  C   UNL A   1      34.264  35.899  28.544  1.00  0.00     0.202 C 
BRANCH  31  32
ATOM     32  C   UNL A   1      32.899  35.897  29.250  1.00  0.00     0.261 C 
BRANCH  32  33
ATOM     33  O   UNL A   1      32.774  35.063  30.412  1.00  0.00    -0.460 OA
BRANCH  33  34
ATOM     34  C   UNL A   1      32.903  35.642  31.625  1.00  0.00     0.338 C 
ATOM     35  O   UNL A   1      32.126  36.424  32.146  1.00  0.00    -0.246 OA
BRANCH  34  36
ATOM     36  C   UNL A   1      34.039  34.990  32.312  1.00  0.00     0.060 A 
ATOM     37  C   UNL A   1      35.328  35.511  32.136  1.00  0.00     0.016 A 
ATOM     38  C   UNL A   1      33.831  33.890  33.148  1.00  0.00     0.016 A 
ATOM     39  C   UNL A   1      36.417  34.915  32.771  1.00  0.00     0.010 A 
ATOM     40  C   UNL A   1      34.927  33.275  33.761  1.00  0.00     0.010 A 
ATOM     41  C   UNL A   1      36.228  33.765  33.547  1.00  0.00    -0.014 A 
BRANCH  41  42
ATOM     42  C   UNL A   1      37.402  32.945  33.937  1.00  0.00     0.031 A 
ATOM     43  C   UNL A   1      38.105  33.292  35.222  1.00  0.00     0.074 A 
ATOM     44  C   UNL A   1      37.816  31.904  33.193  1.00  0.00     0.049 A 
ATOM     45  N   UNL A   1      39.182  32.772  35.750  1.00  0.00    -0.248 NA
ATOM     46  C   UNL A   1      37.509  34.380  36.014  1.00  0.00     0.031 C 
ATOM     47  C   UNL A   1      37.176  31.433  31.966  1.00  0.00     0.029 A 
ATOM     48  N   UNL A   1      38.882  31.056  33.364  1.00  0.00    -0.354 N 
ATOM     49  C   UNL A   1      39.400  33.475  36.930  1.00  0.00     0.074 A 
ATOM     50  C   UNL A   1      38.363  34.481  37.020  1.00  0.00     0.031 C 
ATOM     51  C   UNL A   1      37.869  30.383  31.490  1.00  0.00     0.029 A 
ATOM     52  C   UNL A   1      39.026  30.135  32.351  1.00  0.00     0.049 A 
ATOM     53  H   UNL A   1      39.487  31.101  34.139  1.00  0.00     0.167 HD
ATOM     54  C   UNL A   1      40.373  33.295  37.856  1.00  0.00     0.034 A 
ATOM     55  C   UNL A   1      39.995  29.223  32.134  1.00  0.00     0.034 A 
ATOM     56  C   UNL A   1      41.405  32.294  37.743  1.00  0.00     0.049 A 
ATOM     57  C   UNL A   1      41.132  29.110  33.127  1.00  0.00     0.074 A 
ATOM     58  C   UNL A   1      42.430  32.014  38.628  1.00  0.00     0.029 A 
ATOM     59  N   UNL A   1      41.553  31.420  36.673  1.00  0.00    -0.354 N 
ATOM     60  N   UNL A   1      41.327  29.778  34.242  1.00  0.00    -0.248 NA
ATOM     61  C   UNL A   1      42.175  28.119  32.833  1.00  0.00     0.031 C 
ATOM     62  C   UNL A   1      43.248  31.036  38.053  1.00  0.00     0.029 A 
ATOM     63  C   UNL A   1      42.679  30.633  36.856  1.00  0.00     0.049 A 
ATOM     64  H   UNL A   1      40.948  31.370  35.899  1.00  0.00     0.167 HD
ATOM     65  C   UNL A   1      42.493  29.255  34.800  1.00  0.00     0.074 A 
ATOM     66  C   UNL A   1      42.947  28.212  33.904  1.00  0.00     0.031 C 
ATOM     67  C   UNL A   1      43.126  29.599  35.951  1.00  0.00     0.034 A 
BRANCH  54  68
ATOM     68  C   UNL A   1      40.399  34.242  39.031  1.00  0.00     0.023 A 
ATOM     69  C   UNL A   1      39.617  34.028  40.179  1.00  0.00     0.031 A 
ATOM     70  C   UNL A   1      41.202  35.396  38.987  1.00  0.00     0.131 A 
ATOM     71  C   UNL A   1      39.603  34.987  41.204  1.00  0.00     0.055 A 
ATOM     72  C   UNL A   1      41.248  36.302  40.048  1.00  0.00     0.041 A 
ATOM     73  F   UNL A   1      41.947  35.670  37.905  1.00  0.00    -0.206 F 
ATOM     74  C   UNL A   1      40.434  36.108  41.159  1.00  0.00     0.022 A 
BRANCH  71  75
ATOM     75  S   UNL A   1      38.371  34.824  42.526  1.00  0.00     0.124 S 
ATOM     76  O   UNL A   1      38.519  36.098  43.225  1.00  0.00    -0.237 OA
ATOM     77  O   UNL A   1      37.131  34.643  41.782  1.00  0.00    -0.237 OA
ATOM     78  O   UNL A   1      38.827  33.655  43.276  1.00  0.00    -0.744 OA
ENDBRANCH  71  75
ENDBRANCH  54  68
BRANCH  55  79
ATOM     79  C   UNL A   1      39.976  28.366  30.910  1.00  0.00     0.023 A 
ATOM     80  C   UNL A   1      40.765  28.678  29.791  1.00  0.00     0.031 A 
ATOM     81  C   UNL A   1      39.111  27.260  30.814  1.00  0.00     0.131 A 
ATOM     82  C   UNL A   1      40.634  27.932  28.610  1.00  0.00     0.055 A 
ATOM     83  C   UNL A   1      39.030  26.483  29.658  1.00  0.00     0.041 A 
ATOM     84  F   UNL A   1      38.326  26.920  31.849  1.00  0.00    -0.206 F 
ATOM     85  C   UNL A   1      39.784  26.826  28.541  1.00  0.00     0.022 A 
BRANCH  82  86
ATOM     86  S   UNL A   1      41.513  28.492  27.125  1.00  0.00     0.124 S 
ATOM     87  O   UNL A   1      40.424  29.038  26.326  1.00  0.00    -0.237 OA
ATOM     88  O   UNL A   1      42.453  29.462  27.679  1.00  0.00    -0.237 OA
ATOM     89  O   UNL A   1      42.118  27.267  26.605  1.00  0.00    -0.744 OA
ENDBRANCH  82  86
ENDBRANCH  55  79
BRANCH  67  90
ATOM     90  C   UNL A   1      44.349  28.798  36.338  1.00  0.00     0.023 A 
ATOM     91  C   UNL A   1      44.282  27.722  37.238  1.00  0.00     0.031 A 
ATOM     92  C   UNL A   1      45.605  29.124  35.793  1.00  0.00     0.131 A 
ATOM     93  C   UNL A   1      45.456  27.049  37.613  1.00  0.00     0.055 A 
ATOM     94  C   UNL A   1      46.757  28.404  36.112  1.00  0.00     0.041 A 
ATOM     95  F   UNL A   1      45.732  30.145  34.929  1.00  0.00    -0.206 F 
ATOM     96  C   UNL A   1      46.689  27.369  37.039  1.00  0.00     0.022 A 
BRANCH  93  97
ATOM     97  S   UNL A   1      45.368  25.815  38.940  1.00  0.00     0.124 S 
ATOM     98  O   UNL A   1      44.715  24.695  38.269  1.00  0.00    -0.237 OA
ATOM     99  O   UNL A   1      46.775  25.621  39.279  1.00  0.00    -0.237 OA
ATOM    100  O   UNL A   1      44.568  26.474  39.970  1.00  0.00    -0.744 OA
ENDBRANCH  93  97
ENDBRANCH  67  90
ENDBRANCH  41  42
ENDBRANCH  34  36
ENDBRANCH  33  34
ENDBRANCH  32  33
ENDBRANCH  31  32
ENDBRANCH  30  31
ENDBRANCH  29  30
ENDBRANCH  28  29
ENDBRANCH   1  28
TORSDOF 26
ENDMDL
MODEL 2
REMARK VINA RESULT:      -9.4      2.993      3.531
REMARK SMILES C[C@@H](C(=O)OCCOCCOCCOCCOC(=O)c1ccc(-c2c3nc(c(-c4cc(S(=O)(=O)[O-])ccc4F)c4ccc([nH]4)c(-c4cc(S(=O)(=O)[O-])ccc4F)c4nc(c(-c5cc(S(=O)(=O)[O-])ccc5F)c5ccc2[nH]5)C=C4)C=C3)cc1)c1ccc(-c2ccn(C(F)F)c(=O)c2)cc1
REMARK SMILES IDX 11 1 10 2 9 3 8 4 7 5 6 6 5 7 3 8 4 9 2 10 1 11 83 12 84 13
REMARK SMILES IDX 98 14 85 15 97 16 86 17 87 18 88 19 96 20 89 21 94 22 90 23
REMARK SMILES IDX 95 24 91 25 92 26 93 27 12 28 13 29 14 30 15 31 16 32 17 33
REMARK SMILES IDX 18 34 19 35 20 36 21 37 82 38 22 39 81 40 23 41 24 42 25 43
REMARK SMILES IDX 75 44 26 45 80 46 74 47 76 48 27 49 79 50 73 51 72 52 28 54
REMARK SMILES IDX 60 55 40 56 59 57 41 58 44 59 58 60 77 61 42 62 43 63 57 65
REMARK SMILES IDX 78 66 45 67 29 68 30 69 38 70 31 71 37 72 39 73 36 74 32 75
REMARK SMILES IDX 33 76 34 77 35 78 61 79 62 80 70 81 63 82 69 83 71 84 68 85
REMARK SMILES IDX 64 86 65 87 66 88 67 89 46 90 47 91 55 92 48 93 54 94 56 95
REMARK SMILES IDX 53 96 49 97 50 98 51 99 52 100
REMARK H PARENT 76 53 44 64
REMARK Flexibility Score: inf
ROOT
ATOM      1  O   UNL A   1      34.691  31.112  27.427  1.00  0.00    -0.377 OA
ENDROOT
BRANCH   1   2
ATOM      2  C   UNL A   1      33.445  30.457  27.360  1.00  0.00     0.188 C 
BRANCH   2   3
ATOM      3  C   UNL A   1      32.959  30.139  25.931  1.00  0.00     0.188 C 
BRANCH   3   4
ATOM      4  O   UNL A   1      32.330  28.899  25.663  1.00  0.00    -0.376 OA
BRANCH   4   5
ATOM      5  C   UNL A   1      33.117  27.798  25.234  1.00  0.00     0.202 C 
BRANCH   5   6
ATOM      6  C   UNL A   1      32.503  26.454  24.777  1.00  0.00     0.261 C 
BRANCH   6   7
ATOM      7  O   UNL A   1      32.594  25.324  25.671  1.00  0.00    -0.463 OA
BRANCH   7   8
ATOM      8  C   UNL A   1      32.442  24.089  25.127  1.00  0.00     0.313 C 
ATOM      9  O   UNL A   1      31.677  23.240  25.577  1.00  0.00    -0.252 OA
BRANCH   8  10
ATOM     10  C   UNL A   1      33.317  23.828  23.882  1.00  0.00     0.126 C 
ATOM     11  C   UNL A   1      32.726  23.052  22.699  1.00  0.00     0.025 C 
BRANCH  10  12
ATOM     12  C   UNL A   1      34.697  23.291  24.274  1.00  0.00    -0.034 A 
ATOM     13  C   UNL A   1      34.982  21.918  24.340  1.00  0.00     0.005 A 
ATOM     14  C   UNL A   1      35.710  24.179  24.643  1.00  0.00     0.005 A 
ATOM     15  C   UNL A   1      36.179  21.437  24.871  1.00  0.00     0.009 A 
ATOM     16  C   UNL A   1      36.930  23.703  25.133  1.00  0.00     0.009 A 
ATOM     17  C   UNL A   1      37.164  22.329  25.283  1.00  0.00    -0.018 A 
BRANCH  17  18
ATOM     18  C   UNL A   1      38.430  21.851  25.869  1.00  0.00    -0.011 A 
ATOM     19  C   UNL A   1      39.262  22.696  26.705  1.00  0.00     0.027 A 
ATOM     20  C   UNL A   1      38.846  20.604  25.585  1.00  0.00     0.080 A 
ATOM     21  C   UNL A   1      40.470  22.281  27.102  1.00  0.00     0.095 A 
ATOM     22  C   UNL A   1      40.174  20.116  26.048  1.00  0.00     0.255 A 
ATOM     23  N   UNL A   1      40.938  21.027  26.759  1.00  0.00    -0.258 N 
ATOM     24  O   UNL A   1      40.514  18.974  25.755  1.00  0.00    -0.269 OA
BRANCH  23  25
ATOM     25  C   UNL A   1      42.277  20.630  27.098  1.00  0.00     0.451 C 
ATOM     26  F   UNL A   1      42.293  19.464  27.785  1.00  0.00    -0.185 F 
ATOM     27  F   UNL A   1      43.028  20.472  25.980  1.00  0.00    -0.185 F 
ENDBRANCH  23  25
ENDBRANCH  17  18
ENDBRANCH  10  12
ENDBRANCH   8  10
ENDBRANCH   7   8
ENDBRANCH   6   7
ENDBRANCH   5   6
ENDBRANCH   4   5
ENDBRANCH   3   4
ENDBRANCH   2   3
ENDBRANCH   1   2
BRANCH   1  28
ATOM     28  C   UNL A   1      34.789  32.197  28.336  1.00  0.00     0.188 C 
BRANCH  28  29
ATOM     29  C   UNL A   1      33.987  33.481  28.040  1.00  0.00     0.188 C 
BRANCH  29  30
ATOM     30  O   UNL A   1      34.786  34.653  27.900  1.00  0.00    -0.376 OA
BRANCH  30  31
ATOM     31  C   UNL A   1      34.248  35.902  28.312  1.00  0.00     0.202 C 
BRANCH  31  32
ATOM     32  C   UNL A   1      32.903  35.886  29.056  1.00  0.00     0.261 C 
BRANCH  32  33
ATOM     33  O   UNL A   1      32.791  34.987  30.170  1.00  0.00    -0.460 OA
BRANCH  33  34
ATOM     34  C   UNL A   1      32.913  35.499  31.413  1.00  0.00     0.338 C 
ATOM     35  O   UNL A   1      32.127  36.242  31.977  1.00  0.00    -0.246 OA
BRANCH  34  36
ATOM     36  C   UNL A   1      34.057  34.825  32.064  1.00  0.00     0.060 A 
ATOM     37  C   UNL A   1      35.335  35.388  31.943  1.00  0.00     0.016 A 
ATOM     38  C   UNL A   1      33.868  33.660  32.812  1.00  0.00     0.016 A 
ATOM     39  C   UNL A   1      36.432  34.773  32.546  1.00  0.00     0.010 A 
ATOM     40  C   UNL A   1      34.972  33.028  33.390  1.00  0.00     0.010 A 
ATOM     41  C   UNL A   1      36.263  33.563  33.231  1.00  0.00    -0.014 A 
BRANCH  41  42
ATOM     42  C   UNL A   1      37.452  32.745  33.572  1.00  0.00     0.031 A 
ATOM     43  C   UNL A   1      38.212  33.097  34.824  1.00  0.00     0.074 A 
ATOM     44  C   UNL A   1      37.832  31.699  32.817  1.00  0.00     0.049 A 
ATOM     45  N   UNL A   1      39.311  32.580  35.306  1.00  0.00    -0.248 NA
ATOM     46  C   UNL A   1      37.652  34.190  35.635  1.00  0.00     0.031 C 
ATOM     47  C   UNL A   1      37.139  31.222  31.622  1.00  0.00     0.029 A 
ATOM     48  N   UNL A   1      38.904  30.851  32.945  1.00  0.00    -0.354 N 
ATOM     49  C   UNL A   1      39.581  33.289  36.472  1.00  0.00     0.074 A 
ATOM     50  C   UNL A   1      38.550  34.296  36.602  1.00  0.00     0.031 C 
ATOM     51  C   UNL A   1      37.809  30.168  31.122  1.00  0.00     0.029 A 
ATOM     52  C   UNL A   1      39.002  29.924  31.932  1.00  0.00     0.049 A 
ATOM     53  H   UNL A   1      39.544  30.899  33.693  1.00  0.00     0.167 HD
ATOM     54  C   UNL A   1      40.594  33.113  37.354  1.00  0.00     0.034 A 
ATOM     55  C   UNL A   1      39.960  29.010  31.677  1.00  0.00     0.034 A 
ATOM     56  C   UNL A   1      41.620  32.111  37.201  1.00  0.00     0.049 A 
ATOM     57  C   UNL A   1      41.140  28.902  32.619  1.00  0.00     0.074 A 
ATOM     58  C   UNL A   1      42.683  31.835  38.041  1.00  0.00     0.029 A 
ATOM     59  N   UNL A   1      41.720  31.231  36.131  1.00  0.00    -0.354 N 
ATOM     60  N   UNL A   1      41.385  29.575  33.721  1.00  0.00    -0.248 NA
ATOM     61  C   UNL A   1      42.169  27.908  32.285  1.00  0.00     0.031 C 
ATOM     62  C   UNL A   1      43.474  30.853  37.436  1.00  0.00     0.029 A 
ATOM     63  C   UNL A   1      42.852  30.444  36.268  1.00  0.00     0.049 A 
ATOM     64  H   UNL A   1      41.081  31.177  35.384  1.00  0.00     0.167 HD
ATOM     65  C   UNL A   1      42.574  29.055  34.229  1.00  0.00     0.074 A 
ATOM     66  C   UNL A   1      42.988  28.006  33.320  1.00  0.00     0.031 C 
ATOM     67  C   UNL A   1      43.259  29.404  35.350  1.00  0.00     0.034 A 
BRANCH  54  68
ATOM     68  C   UNL A   1      40.673  34.067  38.521  1.00  0.00     0.023 A 
ATOM     69  C   UNL A   1      41.464  35.229  38.483  1.00  0.00     0.031 A 
ATOM     70  C   UNL A   1      39.965  33.792  39.705  1.00  0.00     0.131 A 
ATOM     71  C   UNL A   1      41.581  36.033  39.627  1.00  0.00     0.055 A 
ATOM     72  C   UNL A   1      40.019  34.643  40.811  1.00  0.00     0.041 A 
ATOM     73  F   UNL A   1      39.218  32.683  39.813  1.00  0.00    -0.206 F 
ATOM     74  C   UNL A   1      40.842  35.763  40.781  1.00  0.00     0.022 A 
BRANCH  71  75
ATOM     75  S   UNL A   1      42.828  37.350  39.636  1.00  0.00     0.124 S 
ATOM     76  O   UNL A   1      42.991  37.612  38.208  1.00  0.00    -0.237 OA
ATOM     77  O   UNL A   1      42.175  38.399  40.408  1.00  0.00    -0.237 OA
ATOM     78  O   UNL A   1      43.982  36.725  40.282  1.00  0.00    -0.744 OA
ENDBRANCH  71  75
ENDBRANCH  54  68
BRANCH  55  79
ATOM     79  C   UNL A   1      39.887  28.146  30.461  1.00  0.00     0.023 A 
ATOM     80  C   UNL A   1      40.596  28.472  29.293  1.00  0.00     0.031 A 
ATOM     81  C   UNL A   1      39.046  27.019  30.423  1.00  0.00     0.131 A 
ATOM     82  C   UNL A   1      40.411  27.716  28.125  1.00  0.00     0.055 A 
ATOM     83  C   UNL A   1      38.912  26.233  29.277  1.00  0.00     0.041 A 
ATOM     84  F   UNL A   1      38.335  26.664  31.506  1.00  0.00    -0.206 F 
ATOM     85  C   UNL A   1      39.586  26.589  28.114  1.00  0.00     0.022 A 
BRANCH  82  86
ATOM     86  S   UNL A   1      41.181  28.290  26.586  1.00  0.00     0.124 S 
ATOM     87  O   UNL A   1      40.250  29.328  26.159  1.00  0.00    -0.237 OA
ATOM     88  O   UNL A   1      42.485  28.750  27.054  1.00  0.00    -0.237 OA
ATOM     89  O   UNL A   1      41.208  27.091  25.751  1.00  0.00    -0.744 OA
ENDBRANCH  82  86
ENDBRANCH  55  79
BRANCH  67  90
ATOM     90  C   UNL A   1      44.497  28.605  35.686  1.00  0.00     0.023 A 
ATOM     91  C   UNL A   1      45.781  29.020  35.295  1.00  0.00     0.031 A 
ATOM     92  C   UNL A   1      44.385  27.405  36.412  1.00  0.00     0.131 A 
ATOM     93  C   UNL A   1      46.893  28.211  35.579  1.00  0.00     0.055 A 
ATOM     94  C   UNL A   1      45.502  26.642  36.755  1.00  0.00     0.041 A 
ATOM     95  F   UNL A   1      43.182  26.956  36.810  1.00  0.00    -0.206 F 
ATOM     96  C   UNL A   1      46.765  27.037  36.325  1.00  0.00     0.022 A 
BRANCH  93  97
ATOM     97  S   UNL A   1      48.502  28.661  34.870  1.00  0.00     0.124 S 
ATOM     98  O   UNL A   1      49.175  29.272  36.012  1.00  0.00    -0.237 OA
ATOM     99  O   UNL A   1      49.025  27.368  34.439  1.00  0.00    -0.237 OA
ATOM    100  O   UNL A   1      48.156  29.580  33.789  1.00  0.00    -0.744 OA
ENDBRANCH  93  97
ENDBRANCH  67  90
ENDBRANCH  41  42
ENDBRANCH  34  36
ENDBRANCH  33  34
ENDBRANCH  32  33
ENDBRANCH  31  32
ENDBRANCH  30  31
ENDBRANCH  29  30
ENDBRANCH  28  29
ENDBRANCH   1  28
TORSDOF 26
ENDMDL
MODEL 3
REMARK VINA RESULT:      -9.3      2.429      2.941
REMARK SMILES C[C@@H](C(=O)OCCOCCOCCOCCOC(=O)c1ccc(-c2c3nc(c(-c4cc(S(=O)(=O)[O-])ccc4F)c4ccc([nH]4)c(-c4cc(S(=O)(=O)[O-])ccc4F)c4nc(c(-c5cc(S(=O)(=O)[O-])ccc5F)c5ccc2[nH]5)C=C4)C=C3)cc1)c1ccc(-c2ccn(C(F)F)c(=O)c2)cc1
REMARK SMILES IDX 11 1 10 2 9 3 8 4 7 5 6 6 5 7 3 8 4 9 2 10 1 11 83 12 84 13
REMARK SMILES IDX 98 14 85 15 97 16 86 17 87 18 88 19 96 20 89 21 94 22 90 23
REMARK SMILES IDX 95 24 91 25 92 26 93 27 12 28 13 29 14 30 15 31 16 32 17 33
REMARK SMILES IDX 18 34 19 35 20 36 21 37 82 38 22 39 81 40 23 41 24 42 25 43
REMARK SMILES IDX 75 44 26 45 80 46 74 47 76 48 27 49 79 50 73 51 72 52 28 54
REMARK SMILES IDX 60 55 40 56 59 57 41 58 44 59 58 60 77 61 42 62 43 63 57 65
REMARK SMILES IDX 78 66 45 67 29 68 30 69 38 70 31 71 37 72 39 73 36 74 32 75
REMARK SMILES IDX 33 76 34 77 35 78 61 79 62 80 70 81 63 82 69 83 71 84 68 85
REMARK SMILES IDX 64 86 65 87 66 88 67 89 46 90 47 91 55 92 48 93 54 94 56 95
REMARK SMILES IDX 53 96 49 97 50 98 51 99 52 100
REMARK H PARENT 76 53 44 64
REMARK Flexibility Score: inf
ROOT
ATOM      1  O   UNL A   1      34.722  31.205  27.404  1.00  0.00    -0.377 OA
ENDROOT
BRANCH   1   2
ATOM      2  C   UNL A   1      33.453  30.619  27.580  1.00  0.00     0.188 C 
BRANCH   2   3
ATOM      3  C   UNL A   1      32.703  30.297  26.271  1.00  0.00     0.188 C 
BRANCH   3   4
ATOM      4  O   UNL A   1      32.045  29.052  26.126  1.00  0.00    -0.376 OA
BRANCH   4   5
ATOM      5  C   UNL A   1      32.748  27.955  25.562  1.00  0.00     0.202 C 
BRANCH   5   6
ATOM      6  C   UNL A   1      32.064  26.615  25.202  1.00  0.00     0.261 C 
BRANCH   6   7
ATOM      7  O   UNL A   1      32.278  25.485  26.074  1.00  0.00    -0.463 OA
BRANCH   7   8
ATOM      8  C   UNL A   1      32.089  24.248  25.545  1.00  0.00     0.313 C 
ATOM      9  O   UNL A   1      31.363  23.398  26.054  1.00  0.00    -0.252 OA
BRANCH   8  10
ATOM     10  C   UNL A   1      32.868  23.987  24.238  1.00  0.00     0.126 C 
ATOM     11  C   UNL A   1      32.193  23.202  23.108  1.00  0.00     0.025 C 
BRANCH  10  12
ATOM     12  C   UNL A   1      34.278  23.462  24.525  1.00  0.00    -0.034 A 
ATOM     13  C   UNL A   1      34.570  22.092  24.614  1.00  0.00     0.005 A 
ATOM     14  C   UNL A   1      35.318  24.361  24.773  1.00  0.00     0.005 A 
ATOM     15  C   UNL A   1      35.810  21.628  25.053  1.00  0.00     0.009 A 
ATOM     16  C   UNL A   1      36.578  23.901  25.169  1.00  0.00     0.009 A 
ATOM     17  C   UNL A   1      36.826  22.532  25.345  1.00  0.00    -0.018 A 
BRANCH  17  18
ATOM     18  C   UNL A   1      38.140  22.073  25.833  1.00  0.00    -0.011 A 
ATOM     19  C   UNL A   1      39.041  22.947  26.561  1.00  0.00     0.027 A 
ATOM     20  C   UNL A   1      38.530  20.816  25.558  1.00  0.00     0.080 A 
ATOM     21  C   UNL A   1      40.280  22.544  26.863  1.00  0.00     0.095 A 
ATOM     22  C   UNL A   1      39.894  20.342  25.920  1.00  0.00     0.255 A 
ATOM     23  N   UNL A   1      40.717  21.277  26.526  1.00  0.00    -0.258 N 
ATOM     24  O   UNL A   1      40.208  19.190  25.639  1.00  0.00    -0.269 OA
BRANCH  23  25
ATOM     25  C   UNL A   1      42.082  20.890  26.759  1.00  0.00     0.451 C 
ATOM     26  F   UNL A   1      42.182  19.998  27.773  1.00  0.00    -0.185 F 
ATOM     27  F   UNL A   1      42.617  20.326  25.648  1.00  0.00    -0.185 F 
ENDBRANCH  23  25
ENDBRANCH  17  18
ENDBRANCH  10  12
ENDBRANCH   8  10
ENDBRANCH   7   8
ENDBRANCH   6   7
ENDBRANCH   5   6
ENDBRANCH   4   5
ENDBRANCH   3   4
ENDBRANCH   2   3
ENDBRANCH   1   2
BRANCH   1  28
ATOM     28  C   UNL A   1      34.975  32.399  28.128  1.00  0.00     0.188 C 
BRANCH  28  29
ATOM     29  C   UNL A   1      34.058  33.616  27.886  1.00  0.00     0.188 C 
BRANCH  29  30
ATOM     30  O   UNL A   1      34.727  34.873  27.930  1.00  0.00    -0.376 OA
BRANCH  30  31
ATOM     31  C   UNL A   1      34.066  35.979  28.530  1.00  0.00     0.202 C 
BRANCH  31  32
ATOM     32  C   UNL A   1      32.854  35.682  29.427  1.00  0.00     0.261 C 
BRANCH  32  33
ATOM     33  O   UNL A   1      33.059  34.757  30.505  1.00  0.00    -0.460 OA
BRANCH  33  34
ATOM     34  C   UNL A   1      33.273  35.258  31.740  1.00  0.00     0.338 C 
ATOM     35  O   UNL A   1      32.539  36.009  32.360  1.00  0.00    -0.246 OA
BRANCH  34  36
ATOM     36  C   UNL A   1      34.448  34.561  32.308  1.00  0.00     0.060 A 
ATOM     37  C   UNL A   1      35.718  35.130  32.145  1.00  0.00     0.016 A 
ATOM     38  C   UNL A   1      34.294  33.370  33.021  1.00  0.00     0.016 A 
ATOM     39  C   UNL A   1      36.843  34.494  32.669  1.00  0.00     0.010 A 
ATOM     40  C   UNL A   1      35.426  32.718  33.520  1.00  0.00     0.010 A 
ATOM     41  C   UNL A   1      36.707  33.260  33.316  1.00  0.00    -0.014 A 
BRANCH  41  42
ATOM     42  C   UNL A   1      37.912  32.431  33.568  1.00  0.00     0.031 A 
ATOM     43  C   UNL A   1      38.712  32.713  34.812  1.00  0.00     0.074 A 
ATOM     44  C   UNL A   1      38.271  31.434  32.739  1.00  0.00     0.049 A 
ATOM     45  N   UNL A   1      39.829  32.176  35.225  1.00  0.00    -0.248 NA
ATOM     46  C   UNL A   1      38.175  33.752  35.705  1.00  0.00     0.031 C 
ATOM     47  C   UNL A   1      37.539  31.025  31.542  1.00  0.00     0.029 A 
ATOM     48  N   UNL A   1      39.351  30.587  32.780  1.00  0.00    -0.354 N 
ATOM     49  C   UNL A   1      40.136  32.816  36.421  1.00  0.00     0.074 A 
ATOM     50  C   UNL A   1      39.105  33.806  36.646  1.00  0.00     0.031 C 
ATOM     51  C   UNL A   1      38.197  30.008  30.957  1.00  0.00     0.029 A 
ATOM     52  C   UNL A   1      39.419  29.724  31.711  1.00  0.00     0.049 A 
ATOM     53  H   UNL A   1      40.015  30.596  33.507  1.00  0.00     0.167 HD
ATOM     54  C   UNL A   1      41.179  32.594  37.257  1.00  0.00     0.034 A 
ATOM     55  C   UNL A   1      40.372  28.833  31.369  1.00  0.00     0.034 A 
ATOM     56  C   UNL A   1      42.204  31.610  37.010  1.00  0.00     0.049 A 
ATOM     57  C   UNL A   1      41.584  28.677  32.262  1.00  0.00     0.074 A 
ATOM     58  C   UNL A   1      43.297  31.292  37.795  1.00  0.00     0.029 A 
ATOM     59  N   UNL A   1      42.272  30.797  35.886  1.00  0.00    -0.354 N 
ATOM     60  N   UNL A   1      41.863  29.285  33.394  1.00  0.00    -0.248 NA
ATOM     61  C   UNL A   1      42.605  27.712  31.835  1.00  0.00     0.031 C 
ATOM     62  C   UNL A   1      44.071  30.354  37.106  1.00  0.00     0.029 A 
ATOM     63  C   UNL A   1      43.412  30.010  35.937  1.00  0.00     0.049 A 
ATOM     64  H   UNL A   1      41.608  30.782  35.159  1.00  0.00     0.167 HD
ATOM     65  C   UNL A   1      43.071  28.744  33.829  1.00  0.00     0.074 A 
ATOM     66  C   UNL A   1      43.459  27.754  32.846  1.00  0.00     0.031 C 
ATOM     67  C   UNL A   1      43.792  29.030  34.945  1.00  0.00     0.034 A 
BRANCH  54  68
ATOM     68  C   UNL A   1      41.293  33.477  38.475  1.00  0.00     0.023 A 
ATOM     69  C   UNL A   1      40.628  33.179  39.678  1.00  0.00     0.031 A 
ATOM     70  C   UNL A   1      42.062  34.655  38.423  1.00  0.00     0.131 A 
ATOM     71  C   UNL A   1      40.687  34.081  40.752  1.00  0.00     0.055 A 
ATOM     72  C   UNL A   1      42.185  35.503  39.524  1.00  0.00     0.041 A 
ATOM     73  F   UNL A   1      42.695  35.007  37.294  1.00  0.00    -0.206 F 
ATOM     74  C   UNL A   1      41.484  35.226  40.693  1.00  0.00     0.022 A 
BRANCH  71  75
ATOM     75  S   UNL A   1      39.589  33.812  42.170  1.00  0.00     0.124 S 
ATOM     76  O   UNL A   1      40.140  34.743  43.151  1.00  0.00    -0.237 OA
ATOM     77  O   UNL A   1      38.280  34.155  41.627  1.00  0.00    -0.237 OA
ATOM     78  O   UNL A   1      39.782  32.398  42.489  1.00  0.00    -0.744 OA
ENDBRANCH  71  75
ENDBRANCH  54  68
BRANCH  55  79
ATOM     79  C   UNL A   1      40.261  28.043  30.106  1.00  0.00     0.023 A 
ATOM     80  C   UNL A   1      40.999  28.391  28.963  1.00  0.00     0.031 A 
ATOM     81  C   UNL A   1      39.358  26.970  30.000  1.00  0.00     0.131 A 
ATOM     82  C   UNL A   1      40.782  27.712  27.754  1.00  0.00     0.055 A 
ATOM     83  C   UNL A   1      39.190  26.257  28.812  1.00  0.00     0.041 A 
ATOM     84  F   UNL A   1      38.617  26.598  31.058  1.00  0.00    -0.206 F 
ATOM     85  C   UNL A   1      39.895  26.637  27.675  1.00  0.00     0.022 A 
BRANCH  82  86
ATOM     86  S   UNL A   1      41.600  28.325  26.254  1.00  0.00     0.124 S 
ATOM     87  O   UNL A   1      40.605  29.256  25.736  1.00  0.00    -0.237 OA
ATOM     88  O   UNL A   1      42.817  28.920  26.795  1.00  0.00    -0.237 OA
ATOM     89  O   UNL A   1      41.800  27.116  25.458  1.00  0.00    -0.744 OA
ENDBRANCH  82  86
ENDBRANCH  55  79
BRANCH  67  90
ATOM     90  C   UNL A   1      45.045  28.221  35.191  1.00  0.00     0.023 A 
ATOM     91  C   UNL A   1      45.013  26.978  35.847  1.00  0.00     0.031 A 
ATOM     92  C   UNL A   1      46.293  28.707  34.760  1.00  0.00     0.131 A 
ATOM     93  C   UNL A   1      46.211  26.294  36.105  1.00  0.00     0.055 A 
ATOM     94  C   UNL A   1      47.472  27.987  34.956  1.00  0.00     0.041 A 
ATOM     95  F   UNL A   1      46.386  29.890  34.131  1.00  0.00    -0.206 F 
ATOM     96  C   UNL A   1      47.438  26.780  35.645  1.00  0.00     0.022 A 
BRANCH  93  97
ATOM     97  S   UNL A   1      46.160  24.808  37.145  1.00  0.00     0.124 S 
ATOM     98  O   UNL A   1      47.518  24.293  37.005  1.00  0.00    -0.237 OA
ATOM     99  O   UNL A   1      45.817  25.354  38.454  1.00  0.00    -0.237 OA
ATOM    100  O   UNL A   1      45.119  23.990  36.524  1.00  0.00    -0.744 OA
ENDBRANCH  93  97
ENDBRANCH  67  90
ENDBRANCH  41  42
ENDBRANCH  34  36
ENDBRANCH  33  34
ENDBRANCH  32  33
ENDBRANCH  31  32
ENDBRANCH  30  31
ENDBRANCH  29  30
ENDBRANCH  28  29
ENDBRANCH   1  28
TORSDOF 26
ENDMDL
