MODEL 1
REMARK VINA RESULT:     -10.1      0.000      0.000
REMARK SMILES CC1(C)O[C@@H]2CC3[C@H]4CCC5=CC(=O)C=C[C@@]5(C)[C@]4(F)[C@H](O)C[C@]3(C)[C@]2(C(=O)OCCOCCOCCOCCOC(=O)c2ccc(-c3c4nc(c(-c5cc(S(=O)(=O)[O-])ccc5F)c5ccc([nH]5)c(-c5cc(S(=O)(=O)[O-])ccc5F)c5nc(c(-c6cc(S(=O)(=O)[O-])ccc6F)c6ccc3[nH]6)C=C5)C=C4)cc2)O1
REMARK SMILES IDX 36 1 35 2 34 3 33 4 32 5 31 6 30 7 29 8 27 9 28 10 26 11
REMARK SMILES IDX 1 12 2 13 4 14 107 15 3 16 5 17 6 18 24 19 7 20 23 21 25 22
REMARK SMILES IDX 8 23 21 24 9 25 19 26 10 27 17 28 20 29 11 30 16 31 18 32
REMARK SMILES IDX 12 33 15 34 13 35 14 36 22 37 37 39 38 40 39 41 40 42 41 43
REMARK SMILES IDX 42 44 43 45 44 46 45 47 106 48 46 49 105 50 47 51 48 52
REMARK SMILES IDX 49 53 99 54 50 55 104 56 98 57 100 58 51 59 103 60 97 61
REMARK SMILES IDX 96 62 52 64 84 65 64 66 83 67 65 68 68 69 82 70 101 71 66 72
REMARK SMILES IDX 67 73 81 75 102 76 69 77 53 78 54 79 62 80 55 81 61 82 63 83
REMARK SMILES IDX 60 84 56 85 57 86 58 87 59 88 85 89 86 90 94 91 87 92 93 93
REMARK SMILES IDX 95 94 92 95 88 96 89 97 90 98 91 99 70 100 71 101 79 102
REMARK SMILES IDX 72 103 78 104 80 105 77 106 73 107 74 108 75 109 76 110
REMARK H PARENT 22 38 100 63 68 74
REMARK Flexibility Score: inf
ROOT
ATOM      1  C   UNL A   1      41.793  23.356  27.374  1.00  0.00     0.188 C 
ENDROOT
BRANCH   1   2
ATOM      2  O   UNL A   1      41.105  24.380  28.073  1.00  0.00    -0.377 OA
BRANCH   2   3
ATOM      3  C   UNL A   1      39.698  24.348  28.043  1.00  0.00     0.188 C 
BRANCH   3   4
ATOM      4  C   UNL A   1      39.112  24.851  26.731  1.00  0.00     0.188 C 
BRANCH   4   5
ATOM      5  O   UNL A   1      38.185  23.974  26.129  1.00  0.00    -0.376 OA
BRANCH   5   6
ATOM      6  C   UNL A   1      38.487  22.592  25.970  1.00  0.00     0.202 C 
BRANCH   6   7
ATOM      7  C   UNL A   1      37.743  21.576  25.064  1.00  0.00     0.261 C 
BRANCH   7   8
ATOM      8  O   UNL A   1      36.421  21.906  24.615  1.00  0.00    -0.461 OA
BRANCH   8   9
ATOM      9  C   UNL A   1      35.436  21.019  24.886  1.00  0.00     0.341 C 
ATOM     10  O   UNL A   1      35.662  19.882  25.281  1.00  0.00    -0.249 OA
BRANCH   9  11
ATOM     11  C   UNL A   1      34.029  21.672  24.798  1.00  0.00     0.200 C 
ATOM     12  C   UNL A   1      32.517  19.488  22.594  1.00  0.00     0.075 C 
ATOM     13  C   UNL A   1      32.320  20.768  23.406  1.00  0.00     0.165 C 
ATOM     14  O   UNL A   1      31.972  20.386  24.736  1.00  0.00    -0.344 OA
ATOM     15  O   UNL A   1      33.492  21.606  23.450  1.00  0.00    -0.329 OA
ATOM     16  C   UNL A   1      31.153  21.495  22.690  1.00  0.00     0.075 C 
ATOM     17  C   UNL A   1      32.864  21.066  25.640  1.00  0.00     0.166 C 
ATOM     18  C   UNL A   1      32.036  22.290  26.220  1.00  0.00     0.040 C 
ATOM     19  C   UNL A   1      34.089  23.189  25.347  1.00  0.00     0.016 C 
ATOM     20  C   UNL A   1      32.569  23.431  25.340  1.00  0.00     0.008 C 
ATOM     21  C   UNL A   1      34.898  24.283  24.615  1.00  0.00     0.046 C 
ATOM     22  C   UNL A   1      34.659  23.195  26.810  1.00  0.00     0.015 C 
ATOM     23  C   UNL A   1      31.909  24.607  24.608  1.00  0.00     0.035 C 
ATOM     24  C   UNL A   1      34.170  25.142  23.590  1.00  0.00     0.154 C 
ATOM     25  C   UNL A   1      30.566  25.057  25.155  1.00  0.00     0.012 C 
ATOM     26  C   UNL A   1      32.831  25.734  24.137  1.00  0.00     0.152 C 
ATOM     27  C   UNL A   1      29.800  25.717  24.009  1.00  0.00     0.032 C 
ATOM     28  C   UNL A   1      32.062  26.662  23.080  1.00  0.00     0.044 C 
ATOM     29  F   UNL A   1      33.128  26.480  25.250  1.00  0.00    -0.239 F 
ATOM     30  C   UNL A   1      30.567  26.864  23.404  1.00  0.00    -0.053 C 
ATOM     31  C   UNL A   1      32.732  28.036  22.977  1.00  0.00    -0.009 C 
ATOM     32  C   UNL A   1      32.114  26.088  21.628  1.00  0.00     0.024 C 
ATOM     33  C   UNL A   1      29.915  27.985  23.043  1.00  0.00     0.052 C 
ATOM     34  C   UNL A   1      32.100  29.070  22.391  1.00  0.00     0.048 C 
ATOM     35  C   UNL A   1      30.620  29.062  22.314  1.00  0.00     0.178 C 
ATOM     36  O   UNL A   1      30.008  29.937  21.714  1.00  0.00    -0.290 OA
BRANCH  24  37
ATOM     37  O   UNL A   1      34.010  24.336  22.429  1.00  0.00    -0.390 OA
ATOM     38  H   UNL A   1      33.069  24.285  22.197  1.00  0.00     0.211 HD
ENDBRANCH  24  37
ENDBRANCH   9  11
ENDBRANCH   8   9
ENDBRANCH   7   8
ENDBRANCH   6   7
ENDBRANCH   5   6
ENDBRANCH   4   5
ENDBRANCH   3   4
ENDBRANCH   2   3
ENDBRANCH   1   2
BRANCH   1  39
ATOM     39  C   UNL A   1      41.740  21.886  27.853  1.00  0.00     0.188 C 
BRANCH  39  40
ATOM     40  O   UNL A   1      42.396  20.924  27.036  1.00  0.00    -0.376 OA
BRANCH  40  41
ATOM     41  C   UNL A   1      42.833  21.291  25.734  1.00  0.00     0.202 C 
BRANCH  41  42
ATOM     42  C   UNL A   1      44.301  21.037  25.330  1.00  0.00     0.261 C 
BRANCH  42  43
ATOM     43  O   UNL A   1      45.268  22.005  25.760  1.00  0.00    -0.460 OA
BRANCH  43  44
ATOM     44  C   UNL A   1      45.458  23.089  24.976  1.00  0.00     0.338 C 
ATOM     45  O   UNL A   1      45.724  23.085  23.784  1.00  0.00    -0.246 OA
BRANCH  44  46
ATOM     46  C   UNL A   1      45.056  24.286  25.748  1.00  0.00     0.060 A 
ATOM     47  C   UNL A   1      44.483  25.362  25.058  1.00  0.00     0.016 A 
ATOM     48  C   UNL A   1      45.190  24.332  27.138  1.00  0.00     0.016 A 
ATOM     49  C   UNL A   1      44.073  26.502  25.749  1.00  0.00     0.010 A 
ATOM     50  C   UNL A   1      44.813  25.491  27.826  1.00  0.00     0.010 A 
ATOM     51  C   UNL A   1      44.286  26.594  27.130  1.00  0.00    -0.014 A 
BRANCH  51  52
ATOM     52  C   UNL A   1      44.187  27.923  27.784  1.00  0.00     0.031 A 
ATOM     53  C   UNL A   1      45.451  28.728  27.926  1.00  0.00     0.074 A 
ATOM     54  C   UNL A   1      43.007  28.434  28.182  1.00  0.00     0.049 A 
ATOM     55  N   UNL A   1      45.638  29.894  28.486  1.00  0.00    -0.248 NA
ATOM     56  C   UNL A   1      46.669  28.130  27.356  1.00  0.00     0.031 C 
ATOM     57  C   UNL A   1      41.710  27.777  28.039  1.00  0.00     0.029 A 
ATOM     58  N   UNL A   1      42.715  29.629  28.792  1.00  0.00    -0.354 N 
ATOM     59  C   UNL A   1      46.992  30.174  28.328  1.00  0.00     0.074 A 
ATOM     60  C   UNL A   1      47.585  29.034  27.665  1.00  0.00     0.031 C 
ATOM     61  C   UNL A   1      40.760  28.571  28.566  1.00  0.00     0.029 A 
ATOM     62  C   UNL A   1      41.386  29.774  29.117  1.00  0.00     0.049 A 
ATOM     63  H   UNL A   1      43.393  30.317  28.980  1.00  0.00     0.167 HD
ATOM     64  C   UNL A   1      47.675  31.286  28.689  1.00  0.00     0.034 A 
ATOM     65  C   UNL A   1      40.757  30.747  29.808  1.00  0.00     0.034 A 
ATOM     66  C   UNL A   1      47.076  32.407  29.371  1.00  0.00     0.049 A 
ATOM     67  C   UNL A   1      41.562  31.930  30.303  1.00  0.00     0.074 A 
ATOM     68  C   UNL A   1      47.679  33.575  29.803  1.00  0.00     0.029 A 
ATOM     69  N   UNL A   1      45.738  32.495  29.731  1.00  0.00    -0.354 N 
ATOM     70  N   UNL A   1      42.844  32.181  30.156  1.00  0.00    -0.248 NA
ATOM     71  C   UNL A   1      40.833  32.966  31.047  1.00  0.00     0.031 C 
ATOM     72  C   UNL A   1      46.725  34.333  30.487  1.00  0.00     0.029 A 
ATOM     73  C   UNL A   1      45.504  33.683  30.404  1.00  0.00     0.049 A 
ATOM     74  H   UNL A   1      45.055  31.813  29.535  1.00  0.00     0.167 HD
ATOM     75  C   UNL A   1      43.063  33.418  30.761  1.00  0.00     0.074 A 
ATOM     76  C   UNL A   1      41.779  33.869  31.254  1.00  0.00     0.031 C 
ATOM     77  C   UNL A   1      44.218  34.120  30.896  1.00  0.00     0.034 A 
BRANCH  64  78
ATOM     78  C   UNL A   1      49.154  31.317  28.394  1.00  0.00     0.023 A 
ATOM     79  C   UNL A   1      49.662  31.929  27.234  1.00  0.00     0.031 A 
ATOM     80  C   UNL A   1      50.068  30.707  29.271  1.00  0.00     0.131 A 
ATOM     81  C   UNL A   1      51.036  31.865  26.953  1.00  0.00     0.055 A 
ATOM     82  C   UNL A   1      51.442  30.717  29.025  1.00  0.00     0.041 A 
ATOM     83  F   UNL A   1      49.639  30.081  30.378  1.00  0.00    -0.206 F 
ATOM     84  C   UNL A   1      51.932  31.287  27.854  1.00  0.00     0.022 A 
BRANCH  81  85
ATOM     85  S   UNL A   1      51.614  32.425  25.328  1.00  0.00     0.124 S 
ATOM     86  O   UNL A   1      51.655  31.170  24.581  1.00  0.00    -0.237 OA
ATOM     87  O   UNL A   1      50.578  33.371  24.932  1.00  0.00    -0.237 OA
ATOM     88  O   UNL A   1      52.921  33.014  25.614  1.00  0.00    -0.744 OA
ENDBRANCH  81  85
ENDBRANCH  64  78
BRANCH  65  89
ATOM     89  C   UNL A   1      39.304  30.634  30.136  1.00  0.00     0.023 A 
ATOM     90  C   UNL A   1      38.313  31.145  29.282  1.00  0.00     0.031 A 
ATOM     91  C   UNL A   1      38.888  30.086  31.365  1.00  0.00     0.131 A 
ATOM     92  C   UNL A   1      36.970  31.155  29.692  1.00  0.00     0.055 A 
ATOM     93  C   UNL A   1      37.544  30.037  31.738  1.00  0.00     0.041 A 
ATOM     94  F   UNL A   1      39.790  29.590  32.227  1.00  0.00    -0.206 F 
ATOM     95  C   UNL A   1      36.577  30.589  30.907  1.00  0.00     0.022 A 
BRANCH  92  96
ATOM     96  S   UNL A   1      35.753  32.026  28.665  1.00  0.00     0.124 S 
ATOM     97  O   UNL A   1      35.485  31.040  27.624  1.00  0.00    -0.237 OA
ATOM     98  O   UNL A   1      34.672  32.266  29.615  1.00  0.00    -0.237 OA
ATOM     99  O   UNL A   1      36.471  33.220  28.225  1.00  0.00    -0.744 OA
ENDBRANCH  92  96
ENDBRANCH  65  89
BRANCH  77 100
ATOM    100  C   UNL A   1      44.132  35.475  31.558  1.00  0.00     0.023 A 
ATOM    101  C   UNL A   1      44.292  35.637  32.946  1.00  0.00     0.031 A 
ATOM    102  C   UNL A   1      43.878  36.624  30.787  1.00  0.00     0.131 A 
ATOM    103  C   UNL A   1      44.132  36.904  33.526  1.00  0.00     0.055 A 
ATOM    104  C   UNL A   1      43.791  37.893  31.360  1.00  0.00     0.041 A 
ATOM    105  F   UNL A   1      43.716  36.532  29.456  1.00  0.00    -0.206 F 
ATOM    106  C   UNL A   1      43.903  38.037  32.740  1.00  0.00     0.022 A 
BRANCH 103 107
ATOM    107  S   UNL A   1      44.118  37.039  35.334  1.00  0.00     0.124 S 
ATOM    108  O   UNL A   1      44.410  35.670  35.742  1.00  0.00    -0.237 OA
ATOM    109  O   UNL A   1      45.172  38.018  35.582  1.00  0.00    -0.237 OA
ATOM    110  O   UNL A   1      42.763  37.500  35.634  1.00  0.00    -0.744 OA
ENDBRANCH 103 107
ENDBRANCH  77 100
ENDBRANCH  51  52
ENDBRANCH  44  46
ENDBRANCH  43  44
ENDBRANCH  42  43
ENDBRANCH  41  42
ENDBRANCH  40  41
ENDBRANCH  39  40
ENDBRANCH   1  39
TORSDOF 24
ENDMDL
MODEL 2
REMARK VINA RESULT:      -9.9      2.831      9.480
REMARK SMILES CC1(C)O[C@@H]2CC3[C@H]4CCC5=CC(=O)C=C[C@@]5(C)[C@]4(F)[C@H](O)C[C@]3(C)[C@]2(C(=O)OCCOCCOCCOCCOC(=O)c2ccc(-c3c4nc(c(-c5cc(S(=O)(=O)[O-])ccc5F)c5ccc([nH]5)c(-c5cc(S(=O)(=O)[O-])ccc5F)c5nc(c(-c6cc(S(=O)(=O)[O-])ccc6F)c6ccc3[nH]6)C=C5)C=C4)cc2)O1
REMARK SMILES IDX 36 1 35 2 34 3 33 4 32 5 31 6 30 7 29 8 27 9 28 10 26 11
REMARK SMILES IDX 1 12 2 13 4 14 107 15 3 16 5 17 6 18 24 19 7 20 23 21 25 22
REMARK SMILES IDX 8 23 21 24 9 25 19 26 10 27 17 28 20 29 11 30 16 31 18 32
REMARK SMILES IDX 12 33 15 34 13 35 14 36 22 37 37 39 38 40 39 41 40 42 41 43
REMARK SMILES IDX 42 44 43 45 44 46 45 47 106 48 46 49 105 50 47 51 48 52
REMARK SMILES IDX 49 53 99 54 50 55 104 56 98 57 100 58 51 59 103 60 97 61
REMARK SMILES IDX 96 62 52 64 84 65 64 66 83 67 65 68 68 69 82 70 101 71 66 72
REMARK SMILES IDX 67 73 81 75 102 76 69 77 53 78 54 79 62 80 55 81 61 82 63 83
REMARK SMILES IDX 60 84 56 85 57 86 58 87 59 88 85 89 86 90 94 91 87 92 93 93
REMARK SMILES IDX 95 94 92 95 88 96 89 97 90 98 91 99 70 100 71 101 79 102
REMARK SMILES IDX 72 103 78 104 80 105 77 106 73 107 74 108 75 109 76 110
REMARK H PARENT 22 38 100 63 68 74
REMARK Flexibility Score: inf
ROOT
ATOM      1  C   UNL A   1      32.983  36.686  31.695  1.00  0.00     0.188 C 
ENDROOT
BRANCH   1   2
ATOM      2  O   UNL A   1      33.226  36.505  30.310  1.00  0.00    -0.377 OA
BRANCH   2   3
ATOM      3  C   UNL A   1      32.953  35.234  29.768  1.00  0.00     0.188 C 
BRANCH   3   4
ATOM      4  C   UNL A   1      33.880  34.858  28.620  1.00  0.00     0.188 C 
BRANCH   4   5
ATOM      5  O   UNL A   1      34.463  33.578  28.733  1.00  0.00    -0.376 OA
BRANCH   5   6
ATOM      6  C   UNL A   1      34.345  32.629  27.678  1.00  0.00     0.202 C 
BRANCH   6   7
ATOM      7  C   UNL A   1      33.104  31.758  27.347  1.00  0.00     0.261 C 
BRANCH   7   8
ATOM      8  O   UNL A   1      33.272  30.645  26.458  1.00  0.00    -0.461 OA
BRANCH   8   9
ATOM      9  C   UNL A   1      32.295  29.709  26.447  1.00  0.00     0.341 C 
ATOM     10  O   UNL A   1      31.344  29.739  27.218  1.00  0.00    -0.249 OA
BRANCH   9  11
ATOM     11  C   UNL A   1      32.447  28.727  25.252  1.00  0.00     0.200 C 
ATOM     12  C   UNL A   1      29.728  29.695  23.360  1.00  0.00     0.075 C 
ATOM     13  C   UNL A   1      30.895  28.711  23.447  1.00  0.00     0.165 C 
ATOM     14  O   UNL A   1      32.055  29.373  22.947  1.00  0.00    -0.344 OA
ATOM     15  O   UNL A   1      31.158  28.249  24.786  1.00  0.00    -0.329 OA
ATOM     16  C   UNL A   1      30.465  27.533  22.534  1.00  0.00     0.075 C 
ATOM     17  C   UNL A   1      33.098  29.243  23.932  1.00  0.00     0.166 C 
ATOM     18  C   UNL A   1      34.044  28.083  23.406  1.00  0.00     0.040 C 
ATOM     19  C   UNL A   1      33.428  27.511  25.659  1.00  0.00     0.016 C 
ATOM     20  C   UNL A   1      33.537  26.903  24.250  1.00  0.00     0.008 C 
ATOM     21  C   UNL A   1      33.040  26.489  26.751  1.00  0.00     0.046 C 
ATOM     22  C   UNL A   1      34.808  28.088  26.137  1.00  0.00     0.015 C 
ATOM     23  C   UNL A   1      33.214  25.435  23.941  1.00  0.00     0.035 C 
ATOM     24  C   UNL A   1      32.343  25.208  26.312  1.00  0.00     0.154 C 
ATOM     25  C   UNL A   1      33.908  24.847  22.726  1.00  0.00     0.012 C 
ATOM     26  C   UNL A   1      33.081  24.489  25.137  1.00  0.00     0.152 C 
ATOM     27  C   UNL A   1      33.037  23.703  22.207  1.00  0.00     0.032 C 
ATOM     28  C   UNL A   1      32.377  23.125  24.677  1.00  0.00     0.044 C 
ATOM     29  F   UNL A   1      34.359  24.211  25.552  1.00  0.00    -0.239 F 
ATOM     30  C   UNL A   1      32.787  22.660  23.264  1.00  0.00    -0.053 C 
ATOM     31  C   UNL A   1      32.676  21.999  25.672  1.00  0.00    -0.009 C 
ATOM     32  C   UNL A   1      30.818  23.231  24.659  1.00  0.00     0.024 C 
ATOM     33  C   UNL A   1      32.801  21.356  22.931  1.00  0.00     0.052 C 
ATOM     34  C   UNL A   1      32.448  20.713  25.347  1.00  0.00     0.048 C 
ATOM     35  C   UNL A   1      32.413  20.323  23.918  1.00  0.00     0.178 C 
ATOM     36  O   UNL A   1      32.123  19.185  23.573  1.00  0.00    -0.290 OA
BRANCH  24  37
ATOM     37  O   UNL A   1      30.998  25.561  26.017  1.00  0.00    -0.390 OA
ATOM     38  H   UNL A   1      30.627  24.924  25.387  1.00  0.00     0.211 HD
ENDBRANCH  24  37
ENDBRANCH   9  11
ENDBRANCH   8   9
ENDBRANCH   7   8
ENDBRANCH   6   7
ENDBRANCH   5   6
ENDBRANCH   4   5
ENDBRANCH   3   4
ENDBRANCH   2   3
ENDBRANCH   1   2
BRANCH   1  39
ATOM     39  C   UNL A   1      34.122  36.548  32.733  1.00  0.00     0.188 C 
BRANCH  39  40
ATOM     40  O   UNL A   1      34.358  35.246  33.253  1.00  0.00    -0.376 OA
BRANCH  40  41
ATOM     41  C   UNL A   1      35.493  35.014  34.078  1.00  0.00     0.202 C 
BRANCH  41  42
ATOM     42  C   UNL A   1      36.238  33.667  33.977  1.00  0.00     0.261 C 
BRANCH  42  43
ATOM     43  O   UNL A   1      35.450  32.514  33.650  1.00  0.00    -0.460 OA
BRANCH  43  44
ATOM     44  C   UNL A   1      35.275  32.227  32.341  1.00  0.00     0.338 C 
ATOM     45  O   UNL A   1      34.240  32.347  31.704  1.00  0.00    -0.246 OA
BRANCH  44  46
ATOM     46  C   UNL A   1      36.607  31.971  31.748  1.00  0.00     0.060 A 
ATOM     47  C   UNL A   1      37.506  31.160  32.454  1.00  0.00     0.016 A 
ATOM     48  C   UNL A   1      36.951  32.476  30.491  1.00  0.00     0.016 A 
ATOM     49  C   UNL A   1      38.764  30.879  31.922  1.00  0.00     0.010 A 
ATOM     50  C   UNL A   1      38.228  32.224  29.976  1.00  0.00     0.010 A 
ATOM     51  C   UNL A   1      39.152  31.454  30.705  1.00  0.00    -0.014 A 
BRANCH  51  52
ATOM     52  C   UNL A   1      40.590  31.447  30.335  1.00  0.00     0.031 A 
ATOM     53  C   UNL A   1      41.426  32.625  30.760  1.00  0.00     0.074 A 
ATOM     54  C   UNL A   1      41.156  30.405  29.701  1.00  0.00     0.049 A 
ATOM     55  N   UNL A   1      42.689  32.875  30.534  1.00  0.00    -0.248 NA
ATOM     56  C   UNL A   1      40.737  33.659  31.549  1.00  0.00     0.031 C 
ATOM     57  C   UNL A   1      40.464  29.183  29.296  1.00  0.00     0.029 A 
ATOM     58  N   UNL A   1      42.450  30.213  29.283  1.00  0.00    -0.354 N 
ATOM     59  C   UNL A   1      42.949  34.091  31.159  1.00  0.00     0.074 A 
ATOM     60  C   UNL A   1      41.701  34.548  31.731  1.00  0.00     0.031 C 
ATOM     61  C   UNL A   1      41.339  28.375  28.671  1.00  0.00     0.029 A 
ATOM     62  C   UNL A   1      42.642  29.036  28.597  1.00  0.00     0.049 A 
ATOM     63  H   UNL A   1      43.174  30.857  29.459  1.00  0.00     0.167 HD
ATOM     64  C   UNL A   1      44.123  34.757  31.261  1.00  0.00     0.034 A 
ATOM     65  C   UNL A   1      43.732  28.567  27.955  1.00  0.00     0.034 A 
ATOM     66  C   UNL A   1      45.355  34.302  30.667  1.00  0.00     0.049 A 
ATOM     67  C   UNL A   1      45.007  29.383  27.985  1.00  0.00     0.074 A 
ATOM     68  C   UNL A   1      46.599  34.909  30.690  1.00  0.00     0.029 A 
ATOM     69  N   UNL A   1      45.499  33.132  29.933  1.00  0.00    -0.354 N 
ATOM     70  N   UNL A   1      45.239  30.536  28.572  1.00  0.00    -0.248 NA
ATOM     71  C   UNL A   1      46.168  28.830  27.275  1.00  0.00     0.031 C 
ATOM     72  C   UNL A   1      47.472  34.146  29.910  1.00  0.00     0.029 A 
ATOM     73  C   UNL A   1      46.801  33.014  29.474  1.00  0.00     0.049 A 
ATOM     74  H   UNL A   1      44.780  32.480  29.764  1.00  0.00     0.167 HD
ATOM     75  C   UNL A   1      46.581  30.825  28.328  1.00  0.00     0.074 A 
ATOM     76  C   UNL A   1      47.109  29.718  27.560  1.00  0.00     0.031 C 
ATOM     77  C   UNL A   1      47.314  31.905  28.705  1.00  0.00     0.034 A 
BRANCH  64  78
ATOM     78  C   UNL A   1      44.113  36.071  32.003  1.00  0.00     0.023 A 
ATOM     79  C   UNL A   1      43.941  37.295  31.334  1.00  0.00     0.031 A 
ATOM     80  C   UNL A   1      44.298  36.102  33.397  1.00  0.00     0.131 A 
ATOM     81  C   UNL A   1      44.020  38.501  32.048  1.00  0.00     0.055 A 
ATOM     82  C   UNL A   1      44.295  37.301  34.113  1.00  0.00     0.041 A 
ATOM     83  F   UNL A   1      44.497  34.967  34.086  1.00  0.00    -0.206 F 
ATOM     84  C   UNL A   1      44.169  38.510  33.437  1.00  0.00     0.022 A 
BRANCH  81  85
ATOM     85  S   UNL A   1      44.064  40.057  31.119  1.00  0.00     0.124 S 
ATOM     86  O   UNL A   1      45.092  40.803  31.841  1.00  0.00    -0.237 OA
ATOM     87  O   UNL A   1      44.422  39.614  29.776  1.00  0.00    -0.237 OA
ATOM     88  O   UNL A   1      42.707  40.581  31.263  1.00  0.00    -0.744 OA
ENDBRANCH  81  85
ENDBRANCH  64  78
BRANCH  65  89
ATOM     89  C   UNL A   1      43.670  27.295  27.174  1.00  0.00     0.023 A 
ATOM     90  C   UNL A   1      44.118  26.078  27.711  1.00  0.00     0.031 A 
ATOM     91  C   UNL A   1      43.239  27.299  25.833  1.00  0.00     0.131 A 
ATOM     92  C   UNL A   1      44.184  24.934  26.899  1.00  0.00     0.055 A 
ATOM     93  C   UNL A   1      43.243  26.143  25.050  1.00  0.00     0.041 A 
ATOM     94  F   UNL A   1      42.809  28.434  25.261  1.00  0.00    -0.206 F 
ATOM     95  C   UNL A   1      43.735  24.955  25.577  1.00  0.00     0.022 A 
BRANCH  92  96
ATOM     96  S   UNL A   1      44.978  23.441  27.560  1.00  0.00     0.124 S 
ATOM     97  O   UNL A   1      45.659  23.967  28.738  1.00  0.00    -0.237 OA
ATOM     98  O   UNL A   1      43.832  22.575  27.813  1.00  0.00    -0.237 OA
ATOM     99  O   UNL A   1      45.854  23.012  26.471  1.00  0.00    -0.744 OA
ENDBRANCH  92  96
ENDBRANCH  65  89
BRANCH  77 100
ATOM    100  C   UNL A   1      48.779  31.912  28.336  1.00  0.00     0.023 A 
ATOM    101  C   UNL A   1      49.272  32.668  27.257  1.00  0.00     0.031 A 
ATOM    102  C   UNL A   1      49.697  31.142  29.074  1.00  0.00     0.131 A 
ATOM    103  C   UNL A   1      50.628  32.586  26.907  1.00  0.00     0.055 A 
ATOM    104  C   UNL A   1      51.058  31.121  28.765  1.00  0.00     0.041 A 
ATOM    105  F   UNL A   1      49.285  30.399  30.114  1.00  0.00    -0.206 F 
ATOM    106  C   UNL A   1      51.528  31.833  27.667  1.00  0.00     0.022 A 
BRANCH 103 107
ATOM    107  S   UNL A   1      51.183  33.389  25.379  1.00  0.00     0.124 S 
ATOM    108  O   UNL A   1      51.485  32.245  24.527  1.00  0.00    -0.237 OA
ATOM    109  O   UNL A   1      50.014  34.177  24.999  1.00  0.00    -0.237 OA
ATOM    110  O   UNL A   1      52.343  34.171  25.803  1.00  0.00    -0.744 OA
ENDBRANCH 103 107
ENDBRANCH  77 100
ENDBRANCH  51  52
ENDBRANCH  44  46
ENDBRANCH  43  44
ENDBRANCH  42  43
ENDBRANCH  41  42
ENDBRANCH  40  41
ENDBRANCH  39  40
ENDBRANCH   1  39
TORSDOF 24
ENDMDL
MODEL 3
REMARK VINA RESULT:      -9.8      5.659     15.699
REMARK SMILES CC1(C)O[C@@H]2CC3[C@H]4CCC5=CC(=O)C=C[C@@]5(C)[C@]4(F)[C@H](O)C[C@]3(C)[C@]2(C(=O)OCCOCCOCCOCCOC(=O)c2ccc(-c3c4nc(c(-c5cc(S(=O)(=O)[O-])ccc5F)c5ccc([nH]5)c(-c5cc(S(=O)(=O)[O-])ccc5F)c5nc(c(-c6cc(S(=O)(=O)[O-])ccc6F)c6ccc3[nH]6)C=C5)C=C4)cc2)O1
REMARK SMILES IDX 36 1 35 2 34 3 33 4 32 5 31 6 30 7 29 8 27 9 28 10 26 11
REMARK SMILES IDX 1 12 2 13 4 14 107 15 3 16 5 17 6 18 24 19 7 20 23 21 25 22
REMARK SMILES IDX 8 23 21 24 9 25 19 26 10 27 17 28 20 29 11 30 16 31 18 32
REMARK SMILES IDX 12 33 15 34 13 35 14 36 22 37 37 39 38 40 39 41 40 42 41 43
REMARK SMILES IDX 42 44 43 45 44 46 45 47 106 48 46 49 105 50 47 51 48 52
REMARK SMILES IDX 49 53 99 54 50 55 104 56 98 57 100 58 51 59 103 60 97 61
REMARK SMILES IDX 96 62 52 64 84 65 64 66 83 67 65 68 68 69 82 70 101 71 66 72
REMARK SMILES IDX 67 73 81 75 102 76 69 77 53 78 54 79 62 80 55 81 61 82 63 83
REMARK SMILES IDX 60 84 56 85 57 86 58 87 59 88 85 89 86 90 94 91 87 92 93 93
REMARK SMILES IDX 95 94 92 95 88 96 89 97 90 98 91 99 70 100 71 101 79 102
REMARK SMILES IDX 72 103 78 104 80 105 77 106 73 107 74 108 75 109 76 110
REMARK H PARENT 22 38 100 63 68 74
REMARK Flexibility Score: inf
ROOT
ATOM      1  C   UNL A   1      44.616  40.413  34.750  1.00  0.00     0.188 C 
ENDROOT
BRANCH   1   2
ATOM      2  O   UNL A   1      44.351  41.456  33.826  1.00  0.00    -0.377 OA
BRANCH   2   3
ATOM      3  C   UNL A   1      43.590  42.547  34.287  1.00  0.00     0.188 C 
BRANCH   3   4
ATOM      4  C   UNL A   1      42.273  42.720  33.543  1.00  0.00     0.188 C 
BRANCH   4   5
ATOM      5  O   UNL A   1      41.867  41.590  32.800  1.00  0.00    -0.376 OA
BRANCH   5   6
ATOM      6  C   UNL A   1      42.034  41.551  31.386  1.00  0.00     0.202 C 
BRANCH   6   7
ATOM      7  C   UNL A   1      43.178  40.852  30.606  1.00  0.00     0.261 C 
BRANCH   7   8
ATOM      8  O   UNL A   1      43.445  41.280  29.263  1.00  0.00    -0.461 OA
BRANCH   8   9
ATOM      9  C   UNL A   1      44.543  40.770  28.657  1.00  0.00     0.341 C 
ATOM     10  O   UNL A   1      44.740  39.565  28.554  1.00  0.00    -0.249 OA
BRANCH   9  11
ATOM     11  C   UNL A   1      45.399  41.877  27.982  1.00  0.00     0.200 C 
ATOM     12  C   UNL A   1      44.610  44.542  30.027  1.00  0.00     0.075 C 
ATOM     13  C   UNL A   1      45.399  44.117  28.790  1.00  0.00     0.165 C 
ATOM     14  O   UNL A   1      46.630  43.550  29.236  1.00  0.00    -0.344 OA
ATOM     15  O   UNL A   1      44.708  43.154  27.971  1.00  0.00    -0.329 OA
ATOM     16  C   UNL A   1      45.623  45.439  28.010  1.00  0.00     0.075 C 
ATOM     17  C   UNL A   1      46.773  42.257  28.616  1.00  0.00     0.166 C 
ATOM     18  C   UNL A   1      47.787  42.467  27.414  1.00  0.00     0.040 C 
ATOM     19  C   UNL A   1      45.830  41.413  26.497  1.00  0.00     0.016 C 
ATOM     20  C   UNL A   1      46.808  42.572  26.235  1.00  0.00     0.008 C 
ATOM     21  C   UNL A   1      44.785  41.213  25.377  1.00  0.00     0.046 C 
ATOM     22  C   UNL A   1      46.586  40.039  26.575  1.00  0.00     0.015 C 
ATOM     23  C   UNL A   1      46.707  43.496  25.014  1.00  0.00     0.035 C 
ATOM     24  C   UNL A   1      44.494  42.390  24.456  1.00  0.00     0.154 C 
ATOM     25  C   UNL A   1      48.003  44.155  24.576  1.00  0.00     0.012 C 
ATOM     26  C   UNL A   1      45.791  43.040  23.875  1.00  0.00     0.152 C 
ATOM     27  C   UNL A   1      47.637  45.448  23.847  1.00  0.00     0.032 C 
ATOM     28  C   UNL A   1      45.505  44.267  22.884  1.00  0.00     0.044 C 
ATOM     29  F   UNL A   1      46.477  42.068  23.193  1.00  0.00    -0.239 F 
ATOM     30  C   UNL A   1      46.718  45.197  22.680  1.00  0.00    -0.053 C 
ATOM     31  C   UNL A   1      45.039  43.759  21.515  1.00  0.00    -0.009 C 
ATOM     32  C   UNL A   1      44.340  45.181  23.381  1.00  0.00     0.024 C 
ATOM     33  C   UNL A   1      46.895  45.879  21.533  1.00  0.00     0.052 C 
ATOM     34  C   UNL A   1      45.029  44.573  20.444  1.00  0.00     0.048 C 
ATOM     35  C   UNL A   1      45.919  45.758  20.428  1.00  0.00     0.178 C 
ATOM     36  O   UNL A   1      45.880  46.574  19.515  1.00  0.00    -0.290 OA
BRANCH  24  37
ATOM     37  O   UNL A   1      43.681  43.291  25.198  1.00  0.00    -0.390 OA
ATOM     38  H   UNL A   1      42.784  43.296  24.829  1.00  0.00     0.211 HD
ENDBRANCH  24  37
ENDBRANCH   9  11
ENDBRANCH   8   9
ENDBRANCH   7   8
ENDBRANCH   6   7
ENDBRANCH   5   6
ENDBRANCH   4   5
ENDBRANCH   3   4
ENDBRANCH   2   3
ENDBRANCH   1   2
BRANCH   1  39
ATOM     39  C   UNL A   1      43.787  39.107  34.742  1.00  0.00     0.188 C 
BRANCH  39  40
ATOM     40  O   UNL A   1      43.310  38.661  33.479  1.00  0.00    -0.376 OA
BRANCH  40  41
ATOM     41  C   UNL A   1      43.907  37.526  32.864  1.00  0.00     0.202 C 
BRANCH  41  42
ATOM     42  C   UNL A   1      44.671  37.703  31.535  1.00  0.00     0.261 C 
BRANCH  42  43
ATOM     43  O   UNL A   1      45.841  36.896  31.348  1.00  0.00    -0.460 OA
BRANCH  43  44
ATOM     44  C   UNL A   1      46.255  36.678  30.080  1.00  0.00     0.338 C 
ATOM     45  O   UNL A   1      47.001  37.393  29.427  1.00  0.00    -0.246 OA
BRANCH  44  46
ATOM     46  C   UNL A   1      45.845  35.309  29.695  1.00  0.00     0.060 A 
ATOM     47  C   UNL A   1      45.077  35.145  28.534  1.00  0.00     0.016 A 
ATOM     48  C   UNL A   1      46.254  34.195  30.432  1.00  0.00     0.016 A 
ATOM     49  C   UNL A   1      44.686  33.870  28.126  1.00  0.00     0.010 A 
ATOM     50  C   UNL A   1      45.829  32.919  30.042  1.00  0.00     0.010 A 
ATOM     51  C   UNL A   1      45.014  32.756  28.908  1.00  0.00    -0.014 A 
BRANCH  51  52
ATOM     52  C   UNL A   1      44.299  31.477  28.669  1.00  0.00     0.031 A 
ATOM     53  C   UNL A   1      44.971  30.454  27.793  1.00  0.00     0.074 A 
ATOM     54  C   UNL A   1      43.123  31.198  29.260  1.00  0.00     0.049 A 
ATOM     55  N   UNL A   1      44.546  29.280  27.404  1.00  0.00    -0.248 NA
ATOM     56  C   UNL A   1      46.308  30.808  27.288  1.00  0.00     0.031 C 
ATOM     57  C   UNL A   1      42.407  32.082  30.178  1.00  0.00     0.029 A 
ATOM     58  N   UNL A   1      42.322  30.087  29.170  1.00  0.00    -0.354 N 
ATOM     59  C   UNL A   1      45.564  28.753  26.617  1.00  0.00     0.074 A 
ATOM     60  C   UNL A   1      46.605  29.754  26.544  1.00  0.00     0.031 C 
ATOM     61  C   UNL A   1      41.262  31.484  30.552  1.00  0.00     0.029 A 
ATOM     62  C   UNL A   1      41.144  30.194  29.872  1.00  0.00     0.049 A 
ATOM     63  H   UNL A   1      42.568  29.287  28.650  1.00  0.00     0.167 HD
ATOM     64  C   UNL A   1      45.632  27.538  26.021  1.00  0.00     0.034 A 
ATOM     65  C   UNL A   1      40.082  29.363  29.929  1.00  0.00     0.034 A 
ATOM     66  C   UNL A   1      44.578  26.557  26.082  1.00  0.00     0.049 A 
ATOM     67  C   UNL A   1      40.132  28.058  29.162  1.00  0.00     0.074 A 
ATOM     68  C   UNL A   1      44.532  25.304  25.498  1.00  0.00     0.029 A 
ATOM     69  N   UNL A   1      43.376  26.723  26.758  1.00  0.00    -0.354 N 
ATOM     70  N   UNL A   1      41.097  27.573  28.413  1.00  0.00    -0.248 NA
ATOM     71  C   UNL A   1      38.954  27.186  29.258  1.00  0.00     0.031 C 
ATOM     72  C   UNL A   1      43.278  24.744  25.759  1.00  0.00     0.029 A 
ATOM     73  C   UNL A   1      42.573  25.608  26.582  1.00  0.00     0.049 A 
ATOM     74  H   UNL A   1      43.132  27.517  27.287  1.00  0.00     0.167 HD
ATOM     75  C   UNL A   1      40.652  26.325  27.979  1.00  0.00     0.074 A 
ATOM     76  C   UNL A   1      39.344  26.126  28.566  1.00  0.00     0.031 C 
ATOM     77  C   UNL A   1      41.267  25.423  27.170  1.00  0.00     0.034 A 
BRANCH  64  78
ATOM     78  C   UNL A   1      46.870  27.230  25.216  1.00  0.00     0.023 A 
ATOM     79  C   UNL A   1      47.062  27.757  23.926  1.00  0.00     0.031 A 
ATOM     80  C   UNL A   1      47.863  26.380  25.734  1.00  0.00     0.131 A 
ATOM     81  C   UNL A   1      48.186  27.380  23.176  1.00  0.00     0.055 A 
ATOM     82  C   UNL A   1      49.019  26.074  25.014  1.00  0.00     0.041 A 
ATOM     83  F   UNL A   1      47.721  25.823  26.948  1.00  0.00    -0.206 F 
ATOM     84  C   UNL A   1      49.180  26.564  23.722  1.00  0.00     0.022 A 
BRANCH  81  85
ATOM     85  S   UNL A   1      48.263  27.861  21.430  1.00  0.00     0.124 S 
ATOM     86  O   UNL A   1      48.662  26.607  20.795  1.00  0.00    -0.237 OA
ATOM     87  O   UNL A   1      46.901  28.306  21.164  1.00  0.00    -0.237 OA
ATOM     88  O   UNL A   1      49.279  28.912  21.408  1.00  0.00    -0.744 OA
ENDBRANCH  81  85
ENDBRANCH  64  78
BRANCH  65  89
ATOM     89  C   UNL A   1      38.851  29.748  30.683  1.00  0.00     0.023 A 
ATOM     90  C   UNL A   1      37.920  30.658  30.157  1.00  0.00     0.031 A 
ATOM     91  C   UNL A   1      38.634  29.272  31.990  1.00  0.00     0.131 A 
ATOM     92  C   UNL A   1      36.854  31.110  30.953  1.00  0.00     0.055 A 
ATOM     93  C   UNL A   1      37.535  29.673  32.752  1.00  0.00     0.041 A 
ATOM     94  F   UNL A   1      39.495  28.407  32.550  1.00  0.00    -0.206 F 
ATOM     95  C   UNL A   1      36.647  30.612  32.240  1.00  0.00     0.022 A 
BRANCH  92  96
ATOM     96  S   UNL A   1      35.807  32.452  30.324  1.00  0.00     0.124 S 
ATOM     97  O   UNL A   1      36.556  33.632  30.741  1.00  0.00    -0.237 OA
ATOM     98  O   UNL A   1      35.790  32.176  28.891  1.00  0.00    -0.237 OA
ATOM     99  O   UNL A   1      34.535  32.243  31.013  1.00  0.00    -0.744 OA
ENDBRANCH  92  96
ENDBRANCH  65  89
BRANCH  77 100
ATOM    100  C   UNL A   1      40.552  24.116  26.920  1.00  0.00     0.023 A 
ATOM    101  C   UNL A   1      39.366  24.049  26.166  1.00  0.00     0.031 A 
ATOM    102  C   UNL A   1      41.062  22.917  27.451  1.00  0.00     0.131 A 
ATOM    103  C   UNL A   1      38.698  22.825  26.021  1.00  0.00     0.055 A 
ATOM    104  C   UNL A   1      40.431  21.691  27.243  1.00  0.00     0.041 A 
ATOM    105  F   UNL A   1      42.190  22.919  28.181  1.00  0.00    -0.206 F 
ATOM    106  C   UNL A   1      39.233  21.641  26.537  1.00  0.00     0.022 A 
BRANCH 103 107
ATOM    107  S   UNL A   1      37.061  22.813  25.240  1.00  0.00     0.124 S 
ATOM    108  O   UNL A   1      36.784  21.385  25.137  1.00  0.00    -0.237 OA
ATOM    109  O   UNL A   1      36.250  23.552  26.205  1.00  0.00    -0.237 OA
ATOM    110  O   UNL A   1      37.281  23.497  23.967  1.00  0.00    -0.744 OA
ENDBRANCH 103 107
ENDBRANCH  77 100
ENDBRANCH  51  52
ENDBRANCH  44  46
ENDBRANCH  43  44
ENDBRANCH  42  43
ENDBRANCH  41  42
ENDBRANCH  40  41
ENDBRANCH  39  40
ENDBRANCH   1  39
TORSDOF 24
ENDMDL
