MODEL 1
REMARK VINA RESULT:      -7.9      0.000      0.000
REMARK SMILES O=C(OCCOCCOCCOCCOC(=O)[C@]1(CCc2cccnc2)CCC[NH2+]C1)c1ccc(-c2c3nc(c(-c4cc(S(=O)(=O)[O-])ccc4F)c4ccc([nH]4)c(-c4cc(S(=O)(=O)[O-])ccc4F)c4nc(c(-c5cc(S(=O)(=O)[O-])ccc5F)c5ccc2[nH]5)C=C4)C=C3)cc1
REMARK SMILES IDX 9 1 8 2 7 3 6 4 5 5 4 6 3 7 2 8 1 9 32 10 33 11 94 12 34 13
REMARK SMILES IDX 93 14 35 15 36 16 37 17 87 18 38 19 92 20 86 21 88 22 39 23
REMARK SMILES IDX 91 24 85 25 84 26 40 28 72 29 52 30 71 31 53 32 56 33 70 34
REMARK SMILES IDX 89 35 54 36 55 37 69 39 90 40 57 41 41 42 42 43 50 44 43 45
REMARK SMILES IDX 49 46 51 47 48 48 44 49 45 50 46 51 47 52 73 53 74 54 82 55
REMARK SMILES IDX 75 56 81 57 83 58 80 59 76 60 77 61 78 62 79 63 58 64 59 65
REMARK SMILES IDX 67 66 60 67 66 68 68 69 65 70 61 71 62 72 63 73 64 74 10 75
REMARK SMILES IDX 11 76 12 77 13 78 14 79 15 80 16 81 17 82 18 83 27 84 31 85
REMARK SMILES IDX 28 86 30 87 29 88 19 91 20 92 21 93 22 94 26 95 23 96 25 97
REMARK SMILES IDX 24 98
REMARK H PARENT 88 27 56 38 30 89 30 90
REMARK Flexibility Score: inf
ROOT
ATOM      1  O   UNL A   1      41.865  25.136  27.411  1.00  0.00    -0.377 OA
ENDROOT
BRANCH   1   2
ATOM      2  C   UNL A   1      42.231  24.294  28.495  1.00  0.00     0.188 C 
BRANCH   2   3
ATOM      3  C   UNL A   1      42.739  22.919  28.071  1.00  0.00     0.188 C 
BRANCH   3   4
ATOM      4  O   UNL A   1      41.971  22.371  26.996  1.00  0.00    -0.376 OA
BRANCH   4   5
ATOM      5  C   UNL A   1      42.385  22.730  25.676  1.00  0.00     0.202 C 
BRANCH   5   6
ATOM      6  C   UNL A   1      43.809  22.309  25.326  1.00  0.00     0.261 C 
BRANCH   6   7
ATOM      7  O   UNL A   1      44.452  23.240  24.453  1.00  0.00    -0.460 OA
BRANCH   7   8
ATOM      8  C   UNL A   1      45.295  24.246  24.792  1.00  0.00     0.338 C 
ATOM      9  O   UNL A   1      46.477  24.119  24.464  1.00  0.00    -0.246 OA
BRANCH   8  10
ATOM     10  C   UNL A   1      44.916  25.484  25.561  1.00  0.00     0.060 A 
ATOM     11  C   UNL A   1      44.151  26.566  25.102  1.00  0.00     0.016 A 
ATOM     12  C   UNL A   1      45.352  25.526  26.897  1.00  0.00     0.016 A 
ATOM     13  C   UNL A   1      43.834  27.646  25.913  1.00  0.00     0.010 A 
ATOM     14  C   UNL A   1      45.094  26.630  27.708  1.00  0.00     0.010 A 
ATOM     15  C   UNL A   1      44.367  27.708  27.191  1.00  0.00    -0.014 A 
BRANCH  15  16
ATOM     16  C   UNL A   1      44.469  29.034  27.814  1.00  0.00     0.031 A 
ATOM     17  C   UNL A   1      43.252  29.508  28.548  1.00  0.00     0.074 A 
ATOM     18  C   UNL A   1      45.620  29.719  27.800  1.00  0.00     0.049 A 
ATOM     19  N   UNL A   1      42.968  30.686  29.023  1.00  0.00    -0.248 NA
ATOM     20  C   UNL A   1      42.205  28.496  28.773  1.00  0.00     0.031 C 
ATOM     21  C   UNL A   1      46.887  29.227  27.262  1.00  0.00     0.029 A 
ATOM     22  N   UNL A   1      45.903  30.978  28.249  1.00  0.00    -0.354 N 
ATOM     23  C   UNL A   1      41.689  30.569  29.560  1.00  0.00     0.074 A 
ATOM     24  C   UNL A   1      41.256  29.208  29.353  1.00  0.00     0.031 C 
ATOM     25  C   UNL A   1      47.810  30.196  27.378  1.00  0.00     0.029 A 
ATOM     26  C   UNL A   1      47.171  31.391  27.923  1.00  0.00     0.049 A 
ATOM     27  H   UNL A   1      45.264  31.531  28.754  1.00  0.00     0.167 HD
ATOM     28  C   UNL A   1      40.946  31.535  30.148  1.00  0.00     0.034 A 
ATOM     29  C   UNL A   1      47.708  32.625  27.991  1.00  0.00     0.034 A 
ATOM     30  C   UNL A   1      41.433  32.882  30.281  1.00  0.00     0.049 A 
ATOM     31  C   UNL A   1      46.829  33.730  28.524  1.00  0.00     0.074 A 
ATOM     32  C   UNL A   1      40.787  34.002  30.765  1.00  0.00     0.029 A 
ATOM     33  N   UNL A   1      42.711  33.289  29.897  1.00  0.00    -0.354 N 
ATOM     34  N   UNL A   1      45.580  33.662  28.939  1.00  0.00    -0.248 NA
ATOM     35  C   UNL A   1      47.413  35.073  28.592  1.00  0.00     0.031 C 
ATOM     36  C   UNL A   1      41.649  35.095  30.604  1.00  0.00     0.029 A 
ATOM     37  C   UNL A   1      42.866  34.645  30.108  1.00  0.00     0.049 A 
ATOM     38  H   UNL A   1      43.404  32.694  29.530  1.00  0.00     0.167 HD
ATOM     39  C   UNL A   1      45.239  34.946  29.346  1.00  0.00     0.074 A 
ATOM     40  C   UNL A   1      46.414  35.769  29.121  1.00  0.00     0.031 C 
ATOM     41  C   UNL A   1      44.071  35.409  29.867  1.00  0.00     0.034 A 
BRANCH  28  42
ATOM     42  C   UNL A   1      39.528  31.165  30.523  1.00  0.00     0.023 A 
ATOM     43  C   UNL A   1      38.422  31.558  29.746  1.00  0.00     0.031 A 
ATOM     44  C   UNL A   1      39.271  30.555  31.764  1.00  0.00     0.131 A 
ATOM     45  C   UNL A   1      37.123  31.453  30.271  1.00  0.00     0.055 A 
ATOM     46  C   UNL A   1      37.970  30.358  32.235  1.00  0.00     0.041 A 
ATOM     47  F   UNL A   1      40.279  30.189  32.570  1.00  0.00    -0.206 F 
ATOM     48  C   UNL A   1      36.887  30.833  31.500  1.00  0.00     0.022 A 
BRANCH  45  49
ATOM     49  S   UNL A   1      35.774  32.340  29.436  1.00  0.00     0.124 S 
ATOM     50  O   UNL A   1      34.660  32.117  30.354  1.00  0.00    -0.237 OA
ATOM     51  O   UNL A   1      36.284  33.705  29.373  1.00  0.00    -0.237 OA
ATOM     52  O   UNL A   1      35.657  31.657  28.150  1.00  0.00    -0.744 OA
ENDBRANCH  45  49
ENDBRANCH  28  42
BRANCH  29  53
ATOM     53  C   UNL A   1      49.078  32.872  27.456  1.00  0.00     0.023 A 
ATOM     54  C   UNL A   1      50.225  32.434  28.133  1.00  0.00     0.031 A 
ATOM     55  C   UNL A   1      49.256  33.542  26.229  1.00  0.00     0.131 A 
ATOM     56  C   UNL A   1      51.498  32.677  27.585  1.00  0.00     0.055 A 
ATOM     57  C   UNL A   1      50.518  33.740  25.667  1.00  0.00     0.041 A 
ATOM     58  F   UNL A   1      48.194  33.986  25.538  1.00  0.00    -0.206 F 
ATOM     59  C   UNL A   1      51.650  33.311  26.350  1.00  0.00     0.022 A 
BRANCH  56  60
ATOM     60  S   UNL A   1      52.967  32.189  28.531  1.00  0.00     0.124 S 
ATOM     61  O   UNL A   1      53.713  31.417  27.544  1.00  0.00    -0.237 OA
ATOM     62  O   UNL A   1      53.534  33.482  28.898  1.00  0.00    -0.237 OA
ATOM     63  O   UNL A   1      52.416  31.416  29.642  1.00  0.00    -0.744 OA
ENDBRANCH  56  60
ENDBRANCH  29  53
BRANCH  41  64
ATOM     64  C   UNL A   1      44.042  36.852  30.297  1.00  0.00     0.023 A 
ATOM     65  C   UNL A   1      43.684  37.882  29.415  1.00  0.00     0.031 A 
ATOM     66  C   UNL A   1      44.315  37.177  31.638  1.00  0.00     0.131 A 
ATOM     67  C   UNL A   1      43.635  39.203  29.882  1.00  0.00     0.055 A 
ATOM     68  C   UNL A   1      44.207  38.483  32.108  1.00  0.00     0.041 A 
ATOM     69  F   UNL A   1      44.660  36.221  32.515  1.00  0.00    -0.206 F 
ATOM     70  C   UNL A   1      43.871  39.506  31.227  1.00  0.00     0.022 A 
BRANCH  67  71
ATOM     71  S   UNL A   1      43.307  40.533  28.697  1.00  0.00     0.124 S 
ATOM     72  O   UNL A   1      44.141  40.140  27.565  1.00  0.00    -0.237 OA
ATOM     73  O   UNL A   1      41.866  40.427  28.495  1.00  0.00    -0.237 OA
ATOM     74  O   UNL A   1      43.746  41.736  29.402  1.00  0.00    -0.744 OA
ENDBRANCH  67  71
ENDBRANCH  41  64
ENDBRANCH  15  16
ENDBRANCH   8  10
ENDBRANCH   7   8
ENDBRANCH   6   7
ENDBRANCH   5   6
ENDBRANCH   4   5
ENDBRANCH   3   4
ENDBRANCH   2   3
ENDBRANCH   1   2
BRANCH   1  75
ATOM     75  C   UNL A   1      40.567  25.701  27.498  1.00  0.00     0.188 C 
BRANCH  75  76
ATOM     76  C   UNL A   1      39.316  24.814  27.432  1.00  0.00     0.188 C 
BRANCH  76  77
ATOM     77  O   UNL A   1      38.999  24.332  26.137  1.00  0.00    -0.376 OA
BRANCH  77  78
ATOM     78  C   UNL A   1      38.079  23.244  26.131  1.00  0.00     0.202 C 
BRANCH  78  79
ATOM     79  C   UNL A   1      37.065  23.254  24.979  1.00  0.00     0.261 C 
BRANCH  79  80
ATOM     80  O   UNL A   1      35.722  23.595  25.389  1.00  0.00    -0.463 OA
BRANCH  80  81
ATOM     81  C   UNL A   1      34.683  23.388  24.554  1.00  0.00     0.317 C 
ATOM     82  O   UNL A   1      34.818  23.229  23.342  1.00  0.00    -0.251 OA
BRANCH  81  83
ATOM     83  C   UNL A   1      33.306  23.371  25.273  1.00  0.00     0.117 C 
ATOM     84  C   UNL A   1      33.482  22.568  26.588  1.00  0.00     0.030 C 
ATOM     85  C   UNL A   1      32.207  22.583  24.478  1.00  0.00     0.279 C 
ATOM     86  C   UNL A   1      33.788  21.087  26.313  1.00  0.00     0.063 C 
ATOM     87  N   UNL A   1      32.571  21.198  24.181  1.00  0.00    -0.345 N 
ATOM     88  C   UNL A   1      32.754  20.431  25.400  1.00  0.00     0.260 C 
ATOM     89  H   UNL A   1      31.829  20.770  23.628  1.00  0.00     0.346 HD
ATOM     90  H   UNL A   1      33.451  21.199  23.665  1.00  0.00     0.346 HD
BRANCH  83  91
ATOM     91  C   UNL A   1      32.762  24.817  25.588  1.00  0.00     0.029 C 
BRANCH  91  92
ATOM     92  C   UNL A   1      33.638  26.066  25.335  1.00  0.00     0.038 C 
BRANCH  92  93
ATOM     93  C   UNL A   1      33.179  27.355  25.966  1.00  0.00    -0.030 A 
ATOM     94  C   UNL A   1      32.028  27.411  26.753  1.00  0.00     0.007 A 
ATOM     95  C   UNL A   1      33.881  28.550  25.806  1.00  0.00     0.114 A 
ATOM     96  C   UNL A   1      31.676  28.590  27.405  1.00  0.00     0.020 A 
ATOM     97  N   UNL A   1      33.566  29.712  26.428  1.00  0.00    -0.264 NA
ATOM     98  C   UNL A   1      32.477  29.704  27.227  1.00  0.00     0.111 A 
ENDBRANCH  92  93
ENDBRANCH  91  92
ENDBRANCH  83  91
ENDBRANCH  81  83
ENDBRANCH  80  81
ENDBRANCH  79  80
ENDBRANCH  78  79
ENDBRANCH  77  78
ENDBRANCH  76  77
ENDBRANCH  75  76
ENDBRANCH   1  75
TORSDOF 26
ENDMDL
MODEL 2
REMARK VINA RESULT:      -7.5      4.271      9.512
REMARK SMILES O=C(OCCOCCOCCOCCOC(=O)[C@]1(CCc2cccnc2)CCC[NH2+]C1)c1ccc(-c2c3nc(c(-c4cc(S(=O)(=O)[O-])ccc4F)c4ccc([nH]4)c(-c4cc(S(=O)(=O)[O-])ccc4F)c4nc(c(-c5cc(S(=O)(=O)[O-])ccc5F)c5ccc2[nH]5)C=C4)C=C3)cc1
REMARK SMILES IDX 9 1 8 2 7 3 6 4 5 5 4 6 3 7 2 8 1 9 32 10 33 11 94 12 34 13
REMARK SMILES IDX 93 14 35 15 36 16 37 17 87 18 38 19 92 20 86 21 88 22 39 23
REMARK SMILES IDX 91 24 85 25 84 26 40 28 72 29 52 30 71 31 53 32 56 33 70 34
REMARK SMILES IDX 89 35 54 36 55 37 69 39 90 40 57 41 41 42 42 43 50 44 43 45
REMARK SMILES IDX 49 46 51 47 48 48 44 49 45 50 46 51 47 52 73 53 74 54 82 55
REMARK SMILES IDX 75 56 81 57 83 58 80 59 76 60 77 61 78 62 79 63 58 64 59 65
REMARK SMILES IDX 67 66 60 67 66 68 68 69 65 70 61 71 62 72 63 73 64 74 10 75
REMARK SMILES IDX 11 76 12 77 13 78 14 79 15 80 16 81 17 82 18 83 27 84 31 85
REMARK SMILES IDX 28 86 30 87 29 88 19 91 20 92 21 93 22 94 26 95 23 96 25 97
REMARK SMILES IDX 24 98
REMARK H PARENT 88 27 56 38 30 89 30 90
REMARK Flexibility Score: inf
ROOT
ATOM      1  O   UNL A   1      42.645  21.792  25.026  1.00  0.00    -0.377 OA
ENDROOT
BRANCH   1   2
ATOM      2  C   UNL A   1      43.314  23.014  25.307  1.00  0.00     0.188 C 
BRANCH   2   3
ATOM      3  C   UNL A   1      44.810  22.987  25.011  1.00  0.00     0.188 C 
BRANCH   3   4
ATOM      4  O   UNL A   1      45.247  24.173  24.344  1.00  0.00    -0.376 OA
BRANCH   4   5
ATOM      5  C   UNL A   1      45.332  25.354  25.145  1.00  0.00     0.202 C 
BRANCH   5   6
ATOM      6  C   UNL A   1      46.603  26.170  24.932  1.00  0.00     0.261 C 
BRANCH   6   7
ATOM      7  O   UNL A   1      46.551  27.440  25.587  1.00  0.00    -0.460 OA
BRANCH   7   8
ATOM      8  C   UNL A   1      46.534  27.683  26.920  1.00  0.00     0.338 C 
ATOM      9  O   UNL A   1      47.130  26.880  27.642  1.00  0.00    -0.246 OA
BRANCH   8  10
ATOM     10  C   UNL A   1      45.824  28.829  27.592  1.00  0.00     0.060 A 
ATOM     11  C   UNL A   1      45.080  29.844  26.974  1.00  0.00     0.016 A 
ATOM     12  C   UNL A   1      45.892  28.845  28.997  1.00  0.00     0.016 A 
ATOM     13  C   UNL A   1      44.437  30.837  27.699  1.00  0.00     0.010 A 
ATOM     14  C   UNL A   1      45.303  29.869  29.737  1.00  0.00     0.010 A 
ATOM     15  C   UNL A   1      44.611  30.887  29.073  1.00  0.00    -0.014 A 
BRANCH  15  16
ATOM     16  C   UNL A   1      44.389  32.181  29.732  1.00  0.00     0.031 A 
ATOM     17  C   UNL A   1      45.357  33.269  29.383  1.00  0.00     0.074 A 
ATOM     18  C   UNL A   1      43.322  32.384  30.516  1.00  0.00     0.049 A 
ATOM     19  N   UNL A   1      45.540  34.434  29.933  1.00  0.00    -0.248 NA
ATOM     20  C   UNL A   1      46.250  32.991  28.244  1.00  0.00     0.031 C 
ATOM     21  C   UNL A   1      42.247  31.419  30.744  1.00  0.00     0.029 A 
ATOM     22  N   UNL A   1      42.974  33.470  31.269  1.00  0.00    -0.354 N 
ATOM     23  C   UNL A   1      46.601  35.008  29.238  1.00  0.00     0.074 A 
ATOM     24  C   UNL A   1      47.017  34.065  28.229  1.00  0.00     0.031 C 
ATOM     25  C   UNL A   1      41.373  31.947  31.616  1.00  0.00     0.029 A 
ATOM     26  C   UNL A   1      41.875  33.245  32.060  1.00  0.00     0.049 A 
ATOM     27  H   UNL A   1      43.461  34.326  31.245  1.00  0.00     0.167 HD
ATOM     28  C   UNL A   1      47.181  36.211  29.457  1.00  0.00     0.034 A 
ATOM     29  C   UNL A   1      41.395  33.983  33.080  1.00  0.00     0.034 A 
ATOM     30  C   UNL A   1      46.734  37.080  30.514  1.00  0.00     0.049 A 
ATOM     31  C   UNL A   1      42.127  35.261  33.409  1.00  0.00     0.074 A 
ATOM     32  C   UNL A   1      47.257  38.285  30.934  1.00  0.00     0.029 A 
ATOM     33  N   UNL A   1      45.642  36.805  31.337  1.00  0.00    -0.354 N 
ATOM     34  N   UNL A   1      43.195  35.771  32.832  1.00  0.00    -0.248 NA
ATOM     35  C   UNL A   1      41.606  36.060  34.522  1.00  0.00     0.031 C 
ATOM     36  C   UNL A   1      46.528  38.699  32.057  1.00  0.00     0.029 A 
ATOM     37  C   UNL A   1      45.490  37.803  32.280  1.00  0.00     0.049 A 
ATOM     38  H   UNL A   1      45.061  36.014  31.257  1.00  0.00     0.167 HD
ATOM     39  C   UNL A   1      43.457  36.965  33.492  1.00  0.00     0.074 A 
ATOM     40  C   UNL A   1      42.435  37.096  34.515  1.00  0.00     0.031 C 
ATOM     41  C   UNL A   1      44.441  37.879  33.274  1.00  0.00     0.034 A 
BRANCH  28  42
ATOM     42  C   UNL A   1      48.411  36.530  28.637  1.00  0.00     0.023 A 
ATOM     43  C   UNL A   1      49.712  36.263  29.104  1.00  0.00     0.031 A 
ATOM     44  C   UNL A   1      48.283  37.264  27.444  1.00  0.00     0.131 A 
ATOM     45  C   UNL A   1      50.820  36.833  28.455  1.00  0.00     0.055 A 
ATOM     46  C   UNL A   1      49.396  37.739  26.745  1.00  0.00     0.041 A 
ATOM     47  F   UNL A   1      47.072  37.584  26.962  1.00  0.00    -0.206 F 
ATOM     48  C   UNL A   1      50.674  37.548  27.265  1.00  0.00     0.022 A 
BRANCH  45  49
ATOM     49  S   UNL A   1      52.425  36.822  29.307  1.00  0.00     0.124 S 
ATOM     50  O   UNL A   1      52.227  35.767  30.299  1.00  0.00    -0.237 OA
ATOM     51  O   UNL A   1      53.356  36.514  28.227  1.00  0.00    -0.237 OA
ATOM     52  O   UNL A   1      52.532  38.171  29.859  1.00  0.00    -0.744 OA
ENDBRANCH  45  49
ENDBRANCH  28  42
BRANCH  29  53
ATOM     53  C   UNL A   1      40.252  33.476  33.893  1.00  0.00     0.023 A 
ATOM     54  C   UNL A   1      38.922  33.791  33.575  1.00  0.00     0.031 A 
ATOM     55  C   UNL A   1      40.481  32.638  35.002  1.00  0.00     0.131 A 
ATOM     56  C   UNL A   1      37.875  33.279  34.362  1.00  0.00     0.055 A 
ATOM     57  C   UNL A   1      39.436  32.096  35.752  1.00  0.00     0.041 A 
ATOM     58  F   UNL A   1      41.733  32.305  35.356  1.00  0.00    -0.206 F 
ATOM     59  C   UNL A   1      38.122  32.422  35.437  1.00  0.00     0.022 A 
BRANCH  56  60
ATOM     60  S   UNL A   1      36.173  33.784  33.989  1.00  0.00     0.124 S 
ATOM     61  O   UNL A   1      35.811  32.850  32.929  1.00  0.00    -0.237 OA
ATOM     62  O   UNL A   1      35.509  33.587  35.274  1.00  0.00    -0.237 OA
ATOM     63  O   UNL A   1      36.313  35.177  33.572  1.00  0.00    -0.744 OA
ENDBRANCH  56  60
ENDBRANCH  29  53
BRANCH  41  64
ATOM     64  C   UNL A   1      44.405  39.130  34.110  1.00  0.00     0.023 A 
ATOM     65  C   UNL A   1      43.714  40.279  33.698  1.00  0.00     0.031 A 
ATOM     66  C   UNL A   1      45.023  39.133  35.374  1.00  0.00     0.131 A 
ATOM     67  C   UNL A   1      43.681  41.401  34.537  1.00  0.00     0.055 A 
ATOM     68  C   UNL A   1      44.936  40.230  36.226  1.00  0.00     0.041 A 
ATOM     69  F   UNL A   1      45.694  38.054  35.808  1.00  0.00    -0.206 F 
ATOM     70  C   UNL A   1      44.267  41.375  35.807  1.00  0.00     0.022 A 
BRANCH  67  71
ATOM     71  S   UNL A   1      42.903  42.920  33.928  1.00  0.00     0.124 S 
ATOM     72  O   UNL A   1      42.086  42.420  32.827  1.00  0.00    -0.237 OA
ATOM     73  O   UNL A   1      42.175  43.393  35.101  1.00  0.00    -0.237 OA
ATOM     74  O   UNL A   1      44.039  43.750  33.529  1.00  0.00    -0.744 OA
ENDBRANCH  67  71
ENDBRANCH  41  64
ENDBRANCH  15  16
ENDBRANCH   8  10
ENDBRANCH   7   8
ENDBRANCH   6   7
ENDBRANCH   5   6
ENDBRANCH   4   5
ENDBRANCH   3   4
ENDBRANCH   2   3
ENDBRANCH   1   2
BRANCH   1  75
ATOM     75  C   UNL A   1      42.538  20.897  26.122  1.00  0.00     0.188 C 
BRANCH  75  76
ATOM     76  C   UNL A   1      41.187  20.652  26.808  1.00  0.00     0.188 C 
BRANCH  76  77
ATOM     77  O   UNL A   1      40.863  21.581  27.828  1.00  0.00    -0.376 OA
BRANCH  77  78
ATOM     78  C   UNL A   1      40.328  22.810  27.347  1.00  0.00     0.202 C 
BRANCH  78  79
ATOM     79  C   UNL A   1      40.859  24.070  28.043  1.00  0.00     0.261 C 
BRANCH  79  80
ATOM     80  O   UNL A   1      40.711  25.275  27.259  1.00  0.00    -0.463 OA
BRANCH  80  81
ATOM     81  C   UNL A   1      40.255  26.407  27.832  1.00  0.00     0.317 C 
ATOM     82  O   UNL A   1      39.063  26.617  28.050  1.00  0.00    -0.251 OA
BRANCH  81  83
ATOM     83  C   UNL A   1      41.382  27.417  28.189  1.00  0.00     0.117 C 
ATOM     84  C   UNL A   1      40.916  28.816  27.708  1.00  0.00     0.030 C 
ATOM     85  C   UNL A   1      42.713  27.156  27.402  1.00  0.00     0.279 C 
ATOM     86  C   UNL A   1      40.812  28.885  26.176  1.00  0.00     0.063 C 
ATOM     87  N   UNL A   1      42.552  27.165  25.949  1.00  0.00    -0.345 N 
ATOM     88  C   UNL A   1      42.103  28.463  25.478  1.00  0.00     0.260 C 
ATOM     89  H   UNL A   1      43.448  26.946  25.514  1.00  0.00     0.346 HD
ATOM     90  H   UNL A   1      41.849  26.470  25.697  1.00  0.00     0.346 HD
BRANCH  83  91
ATOM     91  C   UNL A   1      41.706  27.453  29.732  1.00  0.00     0.029 C 
BRANCH  91  92
ATOM     92  C   UNL A   1      40.751  28.154  30.726  1.00  0.00     0.038 C 
BRANCH  92  93
ATOM     93  C   UNL A   1      41.238  28.304  32.144  1.00  0.00    -0.030 A 
ATOM     94  C   UNL A   1      42.582  28.127  32.473  1.00  0.00     0.007 A 
ATOM     95  C   UNL A   1      40.380  28.635  33.192  1.00  0.00     0.114 A 
ATOM     96  C   UNL A   1      43.027  28.365  33.772  1.00  0.00     0.020 A 
ATOM     97  N   UNL A   1      40.781  28.875  34.464  1.00  0.00    -0.264 NA
ATOM     98  C   UNL A   1      42.101  28.749  34.724  1.00  0.00     0.111 A 
ENDBRANCH  92  93
ENDBRANCH  91  92
ENDBRANCH  83  91
ENDBRANCH  81  83
ENDBRANCH  80  81
ENDBRANCH  79  80
ENDBRANCH  78  79
ENDBRANCH  77  78
ENDBRANCH  76  77
ENDBRANCH  75  76
ENDBRANCH   1  75
TORSDOF 26
ENDMDL
MODEL 3
REMARK VINA RESULT:      -7.5      8.230     16.313
REMARK SMILES O=C(OCCOCCOCCOCCOC(=O)[C@]1(CCc2cccnc2)CCC[NH2+]C1)c1ccc(-c2c3nc(c(-c4cc(S(=O)(=O)[O-])ccc4F)c4ccc([nH]4)c(-c4cc(S(=O)(=O)[O-])ccc4F)c4nc(c(-c5cc(S(=O)(=O)[O-])ccc5F)c5ccc2[nH]5)C=C4)C=C3)cc1
REMARK SMILES IDX 9 1 8 2 7 3 6 4 5 5 4 6 3 7 2 8 1 9 32 10 33 11 94 12 34 13
REMARK SMILES IDX 93 14 35 15 36 16 37 17 87 18 38 19 92 20 86 21 88 22 39 23
REMARK SMILES IDX 91 24 85 25 84 26 40 28 72 29 52 30 71 31 53 32 56 33 70 34
REMARK SMILES IDX 89 35 54 36 55 37 69 39 90 40 57 41 41 42 42 43 50 44 43 45
REMARK SMILES IDX 49 46 51 47 48 48 44 49 45 50 46 51 47 52 73 53 74 54 82 55
REMARK SMILES IDX 75 56 81 57 83 58 80 59 76 60 77 61 78 62 79 63 58 64 59 65
REMARK SMILES IDX 67 66 60 67 66 68 68 69 65 70 61 71 62 72 63 73 64 74 10 75
REMARK SMILES IDX 11 76 12 77 13 78 14 79 15 80 16 81 17 82 18 83 27 84 31 85
REMARK SMILES IDX 28 86 30 87 29 88 19 91 20 92 21 93 22 94 26 95 23 96 25 97
REMARK SMILES IDX 24 98
REMARK H PARENT 88 27 56 38 30 89 30 90
REMARK Flexibility Score: inf
ROOT
ATOM      1  O   UNL A   1      43.188  43.308  22.250  1.00  0.00    -0.377 OA
ENDROOT
BRANCH   1   2
ATOM      2  C   UNL A   1      42.942  43.494  23.637  1.00  0.00     0.188 C 
BRANCH   2   3
ATOM      3  C   UNL A   1      43.542  42.409  24.526  1.00  0.00     0.188 C 
BRANCH   3   4
ATOM      4  O   UNL A   1      42.723  41.238  24.569  1.00  0.00    -0.376 OA
BRANCH   4   5
ATOM      5  C   UNL A   1      41.606  41.279  25.460  1.00  0.00     0.202 C 
BRANCH   5   6
ATOM      6  C   UNL A   1      41.223  39.927  26.053  1.00  0.00     0.261 C 
BRANCH   6   7
ATOM      7  O   UNL A   1      41.666  39.780  27.405  1.00  0.00    -0.460 OA
BRANCH   7   8
ATOM      8  C   UNL A   1      42.837  39.252  27.839  1.00  0.00     0.338 C 
ATOM      9  O   UNL A   1      43.840  39.962  27.738  1.00  0.00    -0.246 OA
BRANCH   8  10
ATOM     10  C   UNL A   1      43.018  37.866  28.399  1.00  0.00     0.060 A 
ATOM     11  C   UNL A   1      42.093  36.813  28.369  1.00  0.00     0.016 A 
ATOM     12  C   UNL A   1      44.273  37.606  28.979  1.00  0.00     0.016 A 
ATOM     13  C   UNL A   1      42.381  35.560  28.891  1.00  0.00     0.010 A 
ATOM     14  C   UNL A   1      44.557  36.371  29.562  1.00  0.00     0.010 A 
ATOM     15  C   UNL A   1      43.585  35.365  29.550  1.00  0.00    -0.014 A 
BRANCH  15  16
ATOM     16  C   UNL A   1      43.651  34.263  30.519  1.00  0.00     0.031 A 
ATOM     17  C   UNL A   1      44.306  33.005  30.037  1.00  0.00     0.074 A 
ATOM     18  C   UNL A   1      43.236  34.426  31.782  1.00  0.00     0.049 A 
ATOM     19  N   UNL A   1      44.340  31.821  30.576  1.00  0.00    -0.248 NA
ATOM     20  C   UNL A   1      45.023  33.107  28.754  1.00  0.00     0.031 C 
ATOM     21  C   UNL A   1      42.761  35.684  32.358  1.00  0.00     0.029 A 
ATOM     22  N   UNL A   1      43.143  33.524  32.803  1.00  0.00    -0.354 N 
ATOM     23  C   UNL A   1      45.041  31.025  29.674  1.00  0.00     0.074 A 
ATOM     24  C   UNL A   1      45.413  31.861  28.558  1.00  0.00     0.031 C 
ATOM     25  C   UNL A   1      42.389  35.462  33.629  1.00  0.00     0.029 A 
ATOM     26  C   UNL A   1      42.527  34.037  33.918  1.00  0.00     0.049 A 
ATOM     27  H   UNL A   1      43.483  32.602  32.747  1.00  0.00     0.167 HD
ATOM     28  C   UNL A   1      45.318  29.704  29.775  1.00  0.00     0.034 A 
ATOM     29  C   UNL A   1      42.061  33.393  35.006  1.00  0.00     0.034 A 
ATOM     30  C   UNL A   1      44.875  28.928  30.903  1.00  0.00     0.049 A 
ATOM     31  C   UNL A   1      42.252  31.896  35.054  1.00  0.00     0.074 A 
ATOM     32  C   UNL A   1      44.987  27.571  31.129  1.00  0.00     0.029 A 
ATOM     33  N   UNL A   1      44.208  29.466  32.004  1.00  0.00    -0.354 N 
ATOM     34  N   UNL A   1      42.820  31.109  34.163  1.00  0.00    -0.248 NA
ATOM     35  C   UNL A   1      41.740  31.196  36.235  1.00  0.00     0.031 C 
ATOM     36  C   UNL A   1      44.321  27.281  32.327  1.00  0.00     0.029 A 
ATOM     37  C   UNL A   1      43.877  28.467  32.898  1.00  0.00     0.049 A 
ATOM     38  H   UNL A   1      44.002  30.421  32.126  1.00  0.00     0.167 HD
ATOM     39  C   UNL A   1      42.760  29.825  34.690  1.00  0.00     0.074 A 
ATOM     40  C   UNL A   1      42.095  29.944  35.976  1.00  0.00     0.031 C 
ATOM     41  C   UNL A   1      43.216  28.652  34.173  1.00  0.00     0.034 A 
BRANCH  28  42
ATOM     42  C   UNL A   1      45.982  29.058  28.581  1.00  0.00     0.023 A 
ATOM     43  C   UNL A   1      45.239  28.469  27.540  1.00  0.00     0.031 A 
ATOM     44  C   UNL A   1      47.377  28.881  28.568  1.00  0.00     0.131 A 
ATOM     45  C   UNL A   1      45.878  27.631  26.610  1.00  0.00     0.055 A 
ATOM     46  C   UNL A   1      48.019  28.133  27.578  1.00  0.00     0.041 A 
ATOM     47  F   UNL A   1      48.141  29.386  29.549  1.00  0.00    -0.206 F 
ATOM     48  C   UNL A   1      47.266  27.479  26.606  1.00  0.00     0.022 A 
BRANCH  45  49
ATOM     49  S   UNL A   1      44.853  26.566  25.552  1.00  0.00     0.124 S 
ATOM     50  O   UNL A   1      44.248  25.668  26.534  1.00  0.00    -0.237 OA
ATOM     51  O   UNL A   1      43.949  27.522  24.922  1.00  0.00    -0.237 OA
ATOM     52  O   UNL A   1      45.819  25.936  24.657  1.00  0.00    -0.744 OA
ENDBRANCH  45  49
ENDBRANCH  28  42
BRANCH  29  53
ATOM     53  C   UNL A   1      41.302  34.142  36.048  1.00  0.00     0.023 A 
ATOM     54  C   UNL A   1      41.949  34.803  37.102  1.00  0.00     0.031 A 
ATOM     55  C   UNL A   1      39.896  34.225  35.986  1.00  0.00     0.131 A 
ATOM     56  C   UNL A   1      41.194  35.510  38.055  1.00  0.00     0.055 A 
ATOM     57  C   UNL A   1      39.155  34.966  36.908  1.00  0.00     0.041 A 
ATOM     58  F   UNL A   1      39.222  33.610  35.002  1.00  0.00    -0.206 F 
ATOM     59  C   UNL A   1      39.804  35.609  37.955  1.00  0.00     0.022 A 
BRANCH  56  60
ATOM     60  S   UNL A   1      42.050  36.269  39.462  1.00  0.00     0.124 S 
ATOM     61  O   UNL A   1      41.623  35.417  40.566  1.00  0.00    -0.237 OA
ATOM     62  O   UNL A   1      43.449  36.153  39.065  1.00  0.00    -0.237 OA
ATOM     63  O   UNL A   1      41.524  37.633  39.487  1.00  0.00    -0.744 OA
ENDBRANCH  56  60
ENDBRANCH  29  53
BRANCH  41  64
ATOM     64  C   UNL A   1      43.078  27.428  35.036  1.00  0.00     0.023 A 
ATOM     65  C   UNL A   1      44.056  27.065  35.974  1.00  0.00     0.031 A 
ATOM     66  C   UNL A   1      41.904  26.656  34.954  1.00  0.00     0.131 A 
ATOM     67  C   UNL A   1      43.854  25.936  36.779  1.00  0.00     0.055 A 
ATOM     68  C   UNL A   1      41.685  25.571  35.798  1.00  0.00     0.041 A 
ATOM     69  F   UNL A   1      40.942  26.968  34.072  1.00  0.00    -0.206 F 
ATOM     70  C   UNL A   1      42.665  25.202  36.714  1.00  0.00     0.022 A 
BRANCH  67  71
ATOM     71  S   UNL A   1      45.189  25.405  37.883  1.00  0.00     0.124 S 
ATOM     72  O   UNL A   1      45.488  24.070  37.375  1.00  0.00    -0.237 OA
ATOM     73  O   UNL A   1      46.211  26.420  37.652  1.00  0.00    -0.237 OA
ATOM     74  O   UNL A   1      44.572  25.440  39.208  1.00  0.00    -0.744 OA
ENDBRANCH  67  71
ENDBRANCH  41  64
ENDBRANCH  15  16
ENDBRANCH   8  10
ENDBRANCH   7   8
ENDBRANCH   6   7
ENDBRANCH   5   6
ENDBRANCH   4   5
ENDBRANCH   3   4
ENDBRANCH   2   3
ENDBRANCH   1   2
BRANCH   1  75
ATOM     75  C   UNL A   1      42.055  42.938  21.481  1.00  0.00     0.188 C 
BRANCH  75  76
ATOM     76  C   UNL A   1      41.909  43.398  20.024  1.00  0.00     0.188 C 
BRANCH  76  77
ATOM     77  O   UNL A   1      40.578  43.671  19.618  1.00  0.00    -0.376 OA
BRANCH  77  78
ATOM     78  C   UNL A   1      40.456  44.780  18.734  1.00  0.00     0.202 C 
BRANCH  78  79
ATOM     79  C   UNL A   1      41.669  45.029  17.828  1.00  0.00     0.261 C 
BRANCH  79  80
ATOM     80  O   UNL A   1      42.450  46.186  18.206  1.00  0.00    -0.463 OA
BRANCH  80  81
ATOM     81  C   UNL A   1      43.100  46.903  17.267  1.00  0.00     0.317 C 
ATOM     82  O   UNL A   1      42.554  47.328  16.250  1.00  0.00    -0.251 OA
BRANCH  81  83
ATOM     83  C   UNL A   1      44.600  47.138  17.596  1.00  0.00     0.117 C 
ATOM     84  C   UNL A   1      44.670  47.745  19.022  1.00  0.00     0.030 C 
ATOM     85  C   UNL A   1      45.270  48.218  16.678  1.00  0.00     0.279 C 
ATOM     86  C   UNL A   1      44.043  49.148  19.072  1.00  0.00     0.063 C 
ATOM     87  N   UNL A   1      44.600  49.517  16.708  1.00  0.00    -0.345 N 
ATOM     88  C   UNL A   1      44.642  50.098  18.038  1.00  0.00     0.260 C 
ATOM     89  H   UNL A   1      45.067  50.147  16.055  1.00  0.00     0.346 HD
ATOM     90  H   UNL A   1      43.624  49.383  16.445  1.00  0.00     0.346 HD
BRANCH  83  91
ATOM     91  C   UNL A   1      45.456  45.815  17.528  1.00  0.00     0.029 C 
BRANCH  91  92
ATOM     92  C   UNL A   1      45.443  44.801  18.696  1.00  0.00     0.038 C 
BRANCH  92  93
ATOM     93  C   UNL A   1      46.780  44.412  19.272  1.00  0.00    -0.030 A 
ATOM     94  C   UNL A   1      47.973  44.735  18.624  1.00  0.00     0.007 A 
ATOM     95  C   UNL A   1      46.896  43.722  20.479  1.00  0.00     0.114 A 
ATOM     96  C   UNL A   1      49.199  44.451  19.221  1.00  0.00     0.020 A 
ATOM     97  N   UNL A   1      48.072  43.434  21.086  1.00  0.00    -0.264 NA
ATOM     98  C   UNL A   1      49.200  43.819  20.450  1.00  0.00     0.111 A 
ENDBRANCH  92  93
ENDBRANCH  91  92
ENDBRANCH  83  91
ENDBRANCH  81  83
ENDBRANCH  80  81
ENDBRANCH  79  80
ENDBRANCH  78  79
ENDBRANCH  77  78
ENDBRANCH  76  77
ENDBRANCH  75  76
ENDBRANCH   1  75
TORSDOF 26
ENDMDL
