MODEL 1
REMARK VINA RESULT:     -12.5      0.000      0.000
REMARK SMILES Cc1ccccc1[C@@H]1[NH2+][C@H](C(=O)OCCOCCOCCOCCOC(=O)c2ccc(-c3c4nc(c(-c5cc(S(=O)(=O)[O-])ccc5F)c5ccc([nH]5)c(-c5cc(S(=O)(=O)[O-])ccc5F)c5nc(c(-c6cc(S(=O)(=O)[O-])ccc6F)c6ccc3[nH]6)C=C5)C=C4)cc2)CC2=c3ccccc3=N[C@@H]21
REMARK SMILES IDX 20 1 19 2 18 3 17 4 16 5 15 6 14 7 13 8 11 9 12 10 10 11
REMARK SMILES IDX 8 12 9 13 100 14 92 17 99 18 91 19 93 20 98 21 94 22 97 23
REMARK SMILES IDX 95 24 96 25 7 26 1 27 2 28 3 29 4 30 6 31 5 32 21 33 22 34
REMARK SMILES IDX 23 35 24 36 25 37 26 38 27 39 28 40 29 41 90 42 30 43 89 44
REMARK SMILES IDX 31 45 32 46 33 47 83 48 34 49 88 50 82 51 84 52 35 53 87 54
REMARK SMILES IDX 81 55 80 56 36 58 68 59 48 60 67 61 49 62 52 63 66 64 85 65
REMARK SMILES IDX 50 66 51 67 65 69 86 70 53 71 37 72 38 73 46 74 39 75 45 76
REMARK SMILES IDX 47 77 44 78 40 79 41 80 42 81 43 82 69 83 70 84 78 85 71 86
REMARK SMILES IDX 77 87 79 88 76 89 72 90 73 91 74 92 75 93 54 94 55 95 63 96
REMARK SMILES IDX 56 97 62 98 64 99 61 100 57 101 58 102 59 103 60 104
REMARK H PARENT 9 15 9 16 84 57 52 68
REMARK Flexibility Score: inf
ROOT
ATOM      1  C   UNL A   1      35.861  33.065  29.559  1.00  0.00     0.188 C 
ENDROOT
BRANCH   1   2
ATOM      2  O   UNL A   1      34.460  32.792  29.350  1.00  0.00    -0.377 OA
BRANCH   2   3
ATOM      3  C   UNL A   1      33.926  32.332  28.005  1.00  0.00     0.188 C 
BRANCH   3   4
ATOM      4  C   UNL A   1      33.691  30.664  27.107  1.00  0.00     0.188 C 
BRANCH   4   5
ATOM      5  O   UNL A   1      32.743  29.070  27.555  1.00  0.00    -0.376 OA
BRANCH   5   6
ATOM      6  C   UNL A   1      32.401  27.379  26.635  1.00  0.00     0.202 C 
BRANCH   6   7
ATOM      7  C   UNL A   1      30.742  26.586  27.084  1.00  0.00     0.261 C 
BRANCH   7   8
ATOM      8  O   UNL A   1      30.698  24.729  27.351  1.00  0.00    -0.459 OA
BRANCH   8   9
ATOM      9  C   UNL A   1      30.608  23.307  26.681  1.00  0.00     0.365 C 
ATOM     10  O   UNL A   1      29.990  22.437  27.317  1.00  0.00    -0.245 OA
BRANCH   9  11
ATOM     11  C   UNL A   1      31.308  22.742  25.021  1.00  0.00     0.298 C 
ATOM     12  C   UNL A   1      32.255  24.582  22.803  1.00  0.00     0.243 C 
ATOM     13  N   UNL A   1      31.597  23.709  23.865  1.00  0.00    -0.326 N 
ATOM     14  C   UNL A   1      33.326  23.089  22.605  1.00  0.00     0.196 C 
ATOM     15  H   UNL A   1      31.014  23.204  23.196  1.00  0.00     0.347 HD
ATOM     16  H   UNL A   1      31.976  24.352  24.560  1.00  0.00     0.347 HD
ATOM     17  C   UNL A   1      33.354  21.916  23.760  1.00  0.00    -0.024 C 
ATOM     18  N   UNL A   1      34.766  23.289  22.465  1.00  0.00    -0.270 NA
ATOM     19  C   UNL A   1      32.133  21.522  24.592  1.00  0.00     0.111 C 
ATOM     20  C   UNL A   1      34.603  21.562  24.067  1.00  0.00     0.002 A 
ATOM     21  C   UNL A   1      35.388  22.496  23.271  1.00  0.00     0.066 A 
ATOM     22  C   UNL A   1      35.184  20.814  25.142  1.00  0.00     0.010 A 
ATOM     23  C   UNL A   1      36.836  22.588  23.600  1.00  0.00     0.028 A 
ATOM     24  C   UNL A   1      36.465  21.057  25.477  1.00  0.00     0.001 A 
ATOM     25  C   UNL A   1      37.290  21.963  24.699  1.00  0.00     0.002 A 
BRANCH  12  26
ATOM     26  C   UNL A   1      31.577  26.456  22.550  1.00  0.00     0.015 A 
ATOM     27  C   UNL A   1      28.750  26.391  23.638  1.00  0.00     0.045 C 
ATOM     28  C   UNL A   1      29.988  27.311  23.227  1.00  0.00    -0.042 A 
ATOM     29  C   UNL A   1      30.068  29.282  23.816  1.00  0.00     0.004 A 
ATOM     30  C   UNL A   1      31.660  30.104  23.965  1.00  0.00     0.000 A 
ATOM     31  C   UNL A   1      33.037  27.587  22.697  1.00  0.00     0.010 A 
ATOM     32  C   UNL A   1      33.082  29.257  23.420  1.00  0.00     0.001 A 
ENDBRANCH  12  26
ENDBRANCH   9  11
ENDBRANCH   8   9
ENDBRANCH   7   8
ENDBRANCH   6   7
ENDBRANCH   5   6
ENDBRANCH   4   5
ENDBRANCH   3   4
ENDBRANCH   2   3
ENDBRANCH   1   2
BRANCH   1  33
ATOM     33  C   UNL A   1      36.987  32.043  29.506  1.00  0.00     0.188 C 
BRANCH  33  34
ATOM     34  O   UNL A   1      37.422  31.764  30.796  1.00  0.00    -0.376 OA
BRANCH  34  35
ATOM     35  C   UNL A   1      36.543  31.048  31.624  1.00  0.00     0.202 C 
BRANCH  35  36
ATOM     36  C   UNL A   1      36.301  29.972  30.631  1.00  0.00     0.261 C 
BRANCH  36  37
ATOM     37  O   UNL A   1      37.053  28.745  31.176  1.00  0.00    -0.460 OA
BRANCH  37  38
ATOM     38  C   UNL A   1      37.981  28.691  32.216  1.00  0.00     0.338 C 
ATOM     39  O   UNL A   1      37.630  28.227  33.306  1.00  0.00    -0.246 OA
BRANCH  38  40
ATOM     40  C   UNL A   1      39.517  29.057  32.121  1.00  0.00     0.060 A 
ATOM     41  C   UNL A   1      40.012  29.442  33.689  1.00  0.00     0.016 A 
ATOM     42  C   UNL A   1      40.553  29.417  30.719  1.00  0.00     0.016 A 
ATOM     43  C   UNL A   1      41.474  30.439  33.949  1.00  0.00     0.010 A 
ATOM     44  C   UNL A   1      42.050  30.456  30.804  1.00  0.00     0.010 A 
ATOM     45  C   UNL A   1      42.645  31.149  32.423  1.00  0.00    -0.014 A 
BRANCH  45  46
ATOM     46  C   UNL A   1      43.753  32.710  31.839  1.00  0.00     0.031 A 
ATOM     47  C   UNL A   1      43.162  33.920  32.695  1.00  0.00     0.074 A 
ATOM     48  C   UNL A   1      44.898  32.691  30.414  1.00  0.00     0.049 A 
ATOM     49  N   UNL A   1      43.540  35.104  32.424  1.00  0.00    -0.248 NA
ATOM     50  C   UNL A   1      42.057  34.040  33.653  1.00  0.00     0.031 C 
ATOM     51  C   UNL A   1      45.926  33.552  29.316  1.00  0.00     0.029 A 
ATOM     52  N   UNL A   1      45.035  31.570  29.286  1.00  0.00    -0.354 N 
ATOM     53  C   UNL A   1      43.067  36.053  33.203  1.00  0.00     0.074 A 
ATOM     54  C   UNL A   1      42.101  35.345  33.994  1.00  0.00     0.031 C 
ATOM     55  C   UNL A   1      46.206  32.946  28.143  1.00  0.00     0.029 A 
ATOM     56  C   UNL A   1      45.428  31.753  28.002  1.00  0.00     0.049 A 
ATOM     57  H   UNL A   1      44.811  30.649  29.551  1.00  0.00     0.167 HD
ATOM     58  C   UNL A   1      43.803  37.177  33.067  1.00  0.00     0.034 A 
ATOM     59  C   UNL A   1      44.670  31.331  26.943  1.00  0.00     0.034 A 
ATOM     60  C   UNL A   1      44.577  37.251  31.727  1.00  0.00     0.049 A 
ATOM     61  C   UNL A   1      44.082  32.872  26.634  1.00  0.00     0.074 A 
ATOM     62  C   UNL A   1      45.918  37.331  31.368  1.00  0.00     0.029 A 
ATOM     63  N   UNL A   1      43.936  36.951  30.487  1.00  0.00    -0.354 N 
ATOM     64  N   UNL A   1      43.902  33.807  27.577  1.00  0.00    -0.248 NA
ATOM     65  C   UNL A   1      44.220  33.564  25.352  1.00  0.00     0.031 C 
ATOM     66  C   UNL A   1      46.064  36.980  29.955  1.00  0.00     0.029 A 
ATOM     67  C   UNL A   1      44.816  36.635  29.396  1.00  0.00     0.049 A 
ATOM     68  H   UNL A   1      42.956  36.961  30.386  1.00  0.00     0.167 HD
ATOM     69  C   UNL A   1      44.183  35.143  27.165  1.00  0.00     0.074 A 
ATOM     70  C   UNL A   1      44.293  34.875  25.706  1.00  0.00     0.031 C 
ATOM     71  C   UNL A   1      44.299  36.373  27.941  1.00  0.00     0.034 A 
BRANCH  58  72
ATOM     72  C   UNL A   1      44.035  38.016  34.289  1.00  0.00     0.023 A 
ATOM     73  C   UNL A   1      43.870  39.389  34.137  1.00  0.00     0.031 A 
ATOM     74  C   UNL A   1      44.494  37.591  35.567  1.00  0.00     0.131 A 
ATOM     75  C   UNL A   1      44.081  40.269  35.203  1.00  0.00     0.055 A 
ATOM     76  C   UNL A   1      44.659  38.464  36.648  1.00  0.00     0.041 A 
ATOM     77  F   UNL A   1      44.846  36.327  35.835  1.00  0.00    -0.206 F 
ATOM     78  C   UNL A   1      44.439  39.819  36.472  1.00  0.00     0.022 A 
BRANCH  75  79
ATOM     79  S   UNL A   1      43.858  42.023  34.864  1.00  0.00     0.124 S 
ATOM     80  O   UNL A   1      43.768  42.583  36.209  1.00  0.00    -0.237 OA
ATOM     81  O   UNL A   1      45.069  42.341  34.111  1.00  0.00    -0.237 OA
ATOM     82  O   UNL A   1      42.621  42.061  34.089  1.00  0.00    -0.744 OA
ENDBRANCH  75  79
ENDBRANCH  58  72
BRANCH  59  83
ATOM     83  C   UNL A   1      44.073  29.747  27.048  1.00  0.00     0.023 A 
ATOM     84  C   UNL A   1      44.940  28.556  26.968  1.00  0.00     0.031 A 
ATOM     85  C   UNL A   1      42.808  29.331  27.494  1.00  0.00     0.131 A 
ATOM     86  C   UNL A   1      44.778  27.289  27.658  1.00  0.00     0.055 A 
ATOM     87  C   UNL A   1      42.575  28.023  28.109  1.00  0.00     0.041 A 
ATOM     88  F   UNL A   1      41.799  30.206  27.566  1.00  0.00    -0.206 F 
ATOM     89  C   UNL A   1      43.586  27.063  28.300  1.00  0.00     0.022 A 
BRANCH  86  90
ATOM     90  S   UNL A   1      46.070  25.909  27.816  1.00  0.00     0.124 S 
ATOM     91  O   UNL A   1      47.213  26.473  27.105  1.00  0.00    -0.237 OA
ATOM     92  O   UNL A   1      46.275  25.670  29.234  1.00  0.00    -0.237 OA
ATOM     93  O   UNL A   1      45.437  24.771  27.145  1.00  0.00    -0.744 OA
ENDBRANCH  86  90
ENDBRANCH  59  83
BRANCH  71  94
ATOM     94  C   UNL A   1      43.666  37.655  27.403  1.00  0.00     0.023 A 
ATOM     95  C   UNL A   1      44.465  38.627  26.844  1.00  0.00     0.031 A 
ATOM     96  C   UNL A   1      42.264  37.893  27.268  1.00  0.00     0.131 A 
ATOM     97  C   UNL A   1      43.944  39.816  26.349  1.00  0.00     0.055 A 
ATOM     98  C   UNL A   1      41.733  39.006  26.614  1.00  0.00     0.041 A 
ATOM     99  F   UNL A   1      41.320  37.061  27.726  1.00  0.00    -0.206 F 
ATOM    100  C   UNL A   1      42.580  40.010  26.189  1.00  0.00     0.022 A 
BRANCH  97 101
ATOM    101  S   UNL A   1      45.168  41.095  26.067  1.00  0.00     0.124 S 
ATOM    102  O   UNL A   1      46.004  40.962  27.259  1.00  0.00    -0.237 OA
ATOM    103  O   UNL A   1      45.786  40.651  24.820  1.00  0.00    -0.237 OA
ATOM    104  O   UNL A   1      44.374  42.313  25.985  1.00  0.00    -0.744 OA
ENDBRANCH  97 101
ENDBRANCH  71  94
ENDBRANCH  45  46
ENDBRANCH  38  40
ENDBRANCH  37  38
ENDBRANCH  36  37
ENDBRANCH  35  36
ENDBRANCH  34  35
ENDBRANCH  33  34
ENDBRANCH   1  33
TORSDOF 24
ENDMDL
MODEL 2
REMARK VINA RESULT:     -11.3      4.543     11.674
REMARK SMILES Cc1ccccc1[C@@H]1[NH2+][C@H](C(=O)OCCOCCOCCOCCOC(=O)c2ccc(-c3c4nc(c(-c5cc(S(=O)(=O)[O-])ccc5F)c5ccc([nH]5)c(-c5cc(S(=O)(=O)[O-])ccc5F)c5nc(c(-c6cc(S(=O)(=O)[O-])ccc6F)c6ccc3[nH]6)C=C5)C=C4)cc2)CC2=c3ccccc3=N[C@@H]21
REMARK SMILES IDX 20 1 19 2 18 3 17 4 16 5 15 6 14 7 13 8 11 9 12 10 10 11
REMARK SMILES IDX 8 12 9 13 100 14 92 17 99 18 91 19 93 20 98 21 94 22 97 23
REMARK SMILES IDX 95 24 96 25 7 26 1 27 2 28 3 29 4 30 6 31 5 32 21 33 22 34
REMARK SMILES IDX 23 35 24 36 25 37 26 38 27 39 28 40 29 41 90 42 30 43 89 44
REMARK SMILES IDX 31 45 32 46 33 47 83 48 34 49 88 50 82 51 84 52 35 53 87 54
REMARK SMILES IDX 81 55 80 56 36 58 68 59 48 60 67 61 49 62 52 63 66 64 85 65
REMARK SMILES IDX 50 66 51 67 65 69 86 70 53 71 37 72 38 73 46 74 39 75 45 76
REMARK SMILES IDX 47 77 44 78 40 79 41 80 42 81 43 82 69 83 70 84 78 85 71 86
REMARK SMILES IDX 77 87 79 88 76 89 72 90 73 91 74 92 75 93 54 94 55 95 63 96
REMARK SMILES IDX 56 97 62 98 64 99 61 100 57 101 58 102 59 103 60 104
REMARK H PARENT 9 15 9 16 84 57 52 68
REMARK Flexibility Score: inf
ROOT
ATOM      1  C   UNL A   1      34.273  33.934  32.356  1.00  0.00     0.188 C 
ENDROOT
BRANCH   1   2
ATOM      2  O   UNL A   1      33.611  34.710  31.336  1.00  0.00    -0.377 OA
BRANCH   2   3
ATOM      3  C   UNL A   1      33.760  34.383  29.860  1.00  0.00     0.188 C 
BRANCH   3   4
ATOM      4  C   UNL A   1      35.203  34.139  28.635  1.00  0.00     0.188 C 
BRANCH   4   5
ATOM      5  O   UNL A   1      36.921  33.324  28.797  1.00  0.00    -0.376 OA
BRANCH   5   6
ATOM      6  C   UNL A   1      37.544  31.494  29.085  1.00  0.00     0.202 C 
BRANCH   6   7
ATOM      7  C   UNL A   1      36.897  30.256  27.806  1.00  0.00     0.261 C 
BRANCH   7   8
ATOM      8  O   UNL A   1      35.071  29.826  27.845  1.00  0.00    -0.459 OA
BRANCH   8   9
ATOM      9  C   UNL A   1      33.900  29.008  27.184  1.00  0.00     0.365 C 
ATOM     10  O   UNL A   1      33.005  28.611  27.950  1.00  0.00    -0.245 OA
BRANCH   9  11
ATOM     11  C   UNL A   1      33.661  28.553  25.368  1.00  0.00     0.298 C 
ATOM     12  C   UNL A   1      32.984  25.782  24.332  1.00  0.00     0.243 C 
ATOM     13  N   UNL A   1      33.505  27.104  24.884  1.00  0.00    -0.326 N 
ATOM     14  C   UNL A   1      32.191  26.904  23.097  1.00  0.00     0.196 C 
ATOM     15  H   UNL A   1      34.282  27.160  24.224  1.00  0.00     0.347 HD
ATOM     16  H   UNL A   1      32.902  26.949  25.692  1.00  0.00     0.347 HD
ATOM     17  C   UNL A   1      32.067  28.520  23.389  1.00  0.00    -0.024 C 
ATOM     18  N   UNL A   1      30.802  26.645  22.725  1.00  0.00    -0.270 NA
ATOM     19  C   UNL A   1      33.118  29.322  24.157  1.00  0.00     0.111 C 
ATOM     20  C   UNL A   1      30.839  28.972  23.126  1.00  0.00     0.002 A 
ATOM     21  C   UNL A   1      30.130  27.745  22.788  1.00  0.00     0.066 A 
ATOM     22  C   UNL A   1      30.142  30.184  23.440  1.00  0.00     0.010 A 
ATOM     23  C   UNL A   1      28.646  27.835  22.732  1.00  0.00     0.028 A 
ATOM     24  C   UNL A   1      28.798  30.153  23.513  1.00  0.00     0.001 A 
ATOM     25  C   UNL A   1      28.050  28.959  23.164  1.00  0.00     0.002 A 
BRANCH  12  26
ATOM     26  C   UNL A   1      33.447  24.089  25.308  1.00  0.00     0.015 A 
ATOM     27  C   UNL A   1      30.782  22.717  25.751  1.00  0.00     0.045 C 
ATOM     28  C   UNL A   1      32.368  22.543  25.708  1.00  0.00    -0.042 A 
ATOM     29  C   UNL A   1      33.213  20.667  25.629  1.00  0.00     0.004 A 
ATOM     30  C   UNL A   1      34.851  20.456  24.918  1.00  0.00     0.000 A 
ATOM     31  C   UNL A   1      35.133  23.575  24.736  1.00  0.00     0.010 A 
ATOM     32  C   UNL A   1      35.756  21.882  24.490  1.00  0.00     0.001 A 
ENDBRANCH  12  26
ENDBRANCH   9  11
ENDBRANCH   8   9
ENDBRANCH   7   8
ENDBRANCH   6   7
ENDBRANCH   5   6
ENDBRANCH   4   5
ENDBRANCH   3   4
ENDBRANCH   2   3
ENDBRANCH   1   2
BRANCH   1  33
ATOM     33  C   UNL A   1      34.887  34.481  33.636  1.00  0.00     0.188 C 
BRANCH  33  34
ATOM     34  O   UNL A   1      36.104  35.085  33.345  1.00  0.00    -0.376 OA
BRANCH  34  35
ATOM     35  C   UNL A   1      36.796  34.615  32.218  1.00  0.00     0.202 C 
BRANCH  35  36
ATOM     36  C   UNL A   1      37.778  33.830  33.006  1.00  0.00     0.261 C 
BRANCH  36  37
ATOM     37  O   UNL A   1      38.702  33.179  31.961  1.00  0.00    -0.460 OA
BRANCH  37  38
ATOM     38  C   UNL A   1      39.743  33.765  31.241  1.00  0.00     0.338 C 
ATOM     39  O   UNL A   1      39.477  34.646  30.416  1.00  0.00    -0.246 OA
BRANCH  38  40
ATOM     40  C   UNL A   1      41.289  33.508  31.453  1.00  0.00     0.060 A 
ATOM     41  C   UNL A   1      42.006  33.635  29.929  1.00  0.00     0.016 A 
ATOM     42  C   UNL A   1      42.188  32.837  32.835  1.00  0.00     0.016 A 
ATOM     43  C   UNL A   1      43.594  32.874  29.618  1.00  0.00     0.010 A 
ATOM     44  C   UNL A   1      43.796  31.987  32.683  1.00  0.00     0.010 A 
ATOM     45  C   UNL A   1      44.653  31.844  31.040  1.00  0.00    -0.014 A 
BRANCH  45  46
ATOM     46  C   UNL A   1      45.858  30.272  31.322  1.00  0.00     0.031 A 
ATOM     47  C   UNL A   1      45.472  29.294  30.122  1.00  0.00     0.074 A 
ATOM     48  C   UNL A   1      46.866  29.996  32.823  1.00  0.00     0.049 A 
ATOM     49  N   UNL A   1      45.943  28.112  30.119  1.00  0.00    -0.248 NA
ATOM     50  C   UNL A   1      44.474  29.351  29.048  1.00  0.00     0.031 C 
ATOM     51  C   UNL A   1      47.875  28.952  33.770  1.00  0.00     0.029 A 
ATOM     52  N   UNL A   1      46.787  30.782  34.210  1.00  0.00    -0.354 N 
ATOM     53  C   UNL A   1      45.641  27.372  29.074  1.00  0.00     0.074 A 
ATOM     54  C   UNL A   1      44.681  28.192  28.389  1.00  0.00     0.031 C 
ATOM     55  C   UNL A   1      47.987  29.243  35.084  1.00  0.00     0.029 A 
ATOM     56  C   UNL A   1      47.082  30.293  35.440  1.00  0.00     0.049 A 
ATOM     57  H   UNL A   1      46.495  31.721  34.168  1.00  0.00     0.167 HD
ATOM     58  C   UNL A   1      46.473  26.311  28.997  1.00  0.00     0.034 A 
ATOM     59  C   UNL A   1      46.194  30.358  36.479  1.00  0.00     0.034 A 
ATOM     60  C   UNL A   1      47.129  25.941  30.351  1.00  0.00     0.049 A 
ATOM     61  C   UNL A   1      45.742  28.751  36.313  1.00  0.00     0.074 A 
ATOM     62  C   UNL A   1      48.434  25.870  30.825  1.00  0.00     0.029 A 
ATOM     63  N   UNL A   1      46.354  25.850  31.546  1.00  0.00    -0.354 N 
ATOM     64  N   UNL A   1      45.743  28.091  35.146  1.00  0.00    -0.248 NA
ATOM     65  C   UNL A   1      45.836  27.755  37.379  1.00  0.00     0.031 C 
ATOM     66  C   UNL A   1      48.418  25.840  32.287  1.00  0.00     0.029 A 
ATOM     67  C   UNL A   1      47.098  25.929  32.773  1.00  0.00     0.049 A 
ATOM     68  H   UNL A   1      45.375  25.740  31.531  1.00  0.00     0.167 HD
ATOM     69  C   UNL A   1      46.121  26.719  35.228  1.00  0.00     0.074 A 
ATOM     70  C   UNL A   1      46.074  26.595  36.710  1.00  0.00     0.031 C 
ATOM     71  C   UNL A   1      46.430  25.753  34.180  1.00  0.00     0.034 A 
BRANCH  58  72
ATOM     72  C   UNL A   1      46.896  25.850  27.634  1.00  0.00     0.023 A 
ATOM     73  C   UNL A   1      46.153  24.816  27.073  1.00  0.00     0.031 A 
ATOM     74  C   UNL A   1      48.024  26.275  26.878  1.00  0.00     0.131 A 
ATOM     75  C   UNL A   1      46.471  24.291  25.816  1.00  0.00     0.055 A 
ATOM     76  C   UNL A   1      48.314  25.785  25.599  1.00  0.00     0.041 A 
ATOM     77  F   UNL A   1      48.927  27.151  27.339  1.00  0.00    -0.206 F 
ATOM     78  C   UNL A   1      47.523  24.790  25.052  1.00  0.00     0.022 A 
BRANCH  75  79
ATOM     79  S   UNL A   1      45.444  22.938  25.219  1.00  0.00     0.124 S 
ATOM     80  O   UNL A   1      45.326  23.252  23.799  1.00  0.00    -0.237 OA
ATOM     81  O   UNL A   1      46.254  21.772  25.558  1.00  0.00    -0.237 OA
ATOM     82  O   UNL A   1      44.214  23.082  25.993  1.00  0.00    -0.744 OA
ENDBRANCH  75  79
ENDBRANCH  58  72
BRANCH  59  83
ATOM     83  C   UNL A   1      45.451  31.864  36.720  1.00  0.00     0.023 A 
ATOM     84  C   UNL A   1      46.203  33.085  37.061  1.00  0.00     0.031 A 
ATOM     85  C   UNL A   1      44.144  32.244  36.371  1.00  0.00     0.131 A 
ATOM     86  C   UNL A   1      45.912  34.451  36.664  1.00  0.00     0.055 A 
ATOM     87  C   UNL A   1      43.780  33.627  36.056  1.00  0.00     0.041 A 
ATOM     88  F   UNL A   1      43.220  31.314  36.106  1.00  0.00    -0.206 F 
ATOM     89  C   UNL A   1      44.693  34.697  36.082  1.00  0.00     0.022 A 
BRANCH  86  90
ATOM     90  S   UNL A   1      47.067  35.948  36.815  1.00  0.00     0.124 S 
ATOM     91  O   UNL A   1      48.155  35.592  35.911  1.00  0.00    -0.237 OA
ATOM     92  O   UNL A   1      46.302  37.123  36.437  1.00  0.00    -0.237 OA
ATOM     93  O   UNL A   1      47.432  35.955  38.234  1.00  0.00    -0.744 OA
ENDBRANCH  86  90
ENDBRANCH  59  83
BRANCH  71  94
ATOM     94  C   UNL A   1      45.886  24.330  34.294  1.00  0.00     0.023 A 
ATOM     95  C   UNL A   1      46.696  23.328  34.780  1.00  0.00     0.031 A 
ATOM     96  C   UNL A   1      44.525  23.945  34.093  1.00  0.00     0.131 A 
ATOM     97  C   UNL A   1      46.257  22.015  34.896  1.00  0.00     0.055 A 
ATOM     98  C   UNL A   1      44.039  22.668  34.375  1.00  0.00     0.041 A 
ATOM     99  F   UNL A   1      43.575  24.774  33.645  1.00  0.00    -0.206 F 
ATOM    100  C   UNL A   1      44.923  21.670  34.736  1.00  0.00     0.022 A 
BRANCH  97 101
ATOM    101  S   UNL A   1      47.569  20.819  35.137  1.00  0.00     0.124 S 
ATOM    102  O   UNL A   1      46.876  19.566  34.839  1.00  0.00    -0.237 OA
ATOM    103  O   UNL A   1      48.549  21.240  34.139  1.00  0.00    -0.237 OA
ATOM    104  O   UNL A   1      47.954  21.012  36.528  1.00  0.00    -0.744 OA
ENDBRANCH  97 101
ENDBRANCH  71  94
ENDBRANCH  45  46
ENDBRANCH  38  40
ENDBRANCH  37  38
ENDBRANCH  36  37
ENDBRANCH  35  36
ENDBRANCH  34  35
ENDBRANCH  33  34
ENDBRANCH   1  33
TORSDOF 24
ENDMDL
MODEL 3
REMARK VINA RESULT:     -11.1      3.897      6.704
REMARK SMILES Cc1ccccc1[C@@H]1[NH2+][C@H](C(=O)OCCOCCOCCOCCOC(=O)c2ccc(-c3c4nc(c(-c5cc(S(=O)(=O)[O-])ccc5F)c5ccc([nH]5)c(-c5cc(S(=O)(=O)[O-])ccc5F)c5nc(c(-c6cc(S(=O)(=O)[O-])ccc6F)c6ccc3[nH]6)C=C5)C=C4)cc2)CC2=c3ccccc3=N[C@@H]21
REMARK SMILES IDX 20 1 19 2 18 3 17 4 16 5 15 6 14 7 13 8 11 9 12 10 10 11
REMARK SMILES IDX 8 12 9 13 100 14 92 17 99 18 91 19 93 20 98 21 94 22 97 23
REMARK SMILES IDX 95 24 96 25 7 26 1 27 2 28 3 29 4 30 6 31 5 32 21 33 22 34
REMARK SMILES IDX 23 35 24 36 25 37 26 38 27 39 28 40 29 41 90 42 30 43 89 44
REMARK SMILES IDX 31 45 32 46 33 47 83 48 34 49 88 50 82 51 84 52 35 53 87 54
REMARK SMILES IDX 81 55 80 56 36 58 68 59 48 60 67 61 49 62 52 63 66 64 85 65
REMARK SMILES IDX 50 66 51 67 65 69 86 70 53 71 37 72 38 73 46 74 39 75 45 76
REMARK SMILES IDX 47 77 44 78 40 79 41 80 42 81 43 82 69 83 70 84 78 85 71 86
REMARK SMILES IDX 77 87 79 88 76 89 72 90 73 91 74 92 75 93 54 94 55 95 63 96
REMARK SMILES IDX 56 97 62 98 64 99 61 100 57 101 58 102 59 103 60 104
REMARK H PARENT 9 15 9 16 84 57 52 68
REMARK Flexibility Score: inf
ROOT
ATOM      1  C   UNL A   1      37.030  31.182  29.444  1.00  0.00     0.188 C 
ENDROOT
BRANCH   1   2
ATOM      2  O   UNL A   1      38.328  31.044  28.829  1.00  0.00    -0.377 OA
BRANCH   2   3
ATOM      3  C   UNL A   1      38.799  29.725  28.243  1.00  0.00     0.188 C 
BRANCH   3   4
ATOM      4  C   UNL A   1      40.390  28.672  28.304  1.00  0.00     0.188 C 
BRANCH   4   5
ATOM      5  O   UNL A   1      40.822  26.933  27.650  1.00  0.00    -0.376 OA
BRANCH   5   6
ATOM      6  C   UNL A   1      40.308  25.115  28.154  1.00  0.00     0.202 C 
BRANCH   6   7
ATOM      7  C   UNL A   1      39.895  24.001  26.680  1.00  0.00     0.261 C 
BRANCH   7   8
ATOM      8  O   UNL A   1      38.122  23.415  26.491  1.00  0.00    -0.459 OA
BRANCH   8   9
ATOM      9  C   UNL A   1      36.858  23.335  25.557  1.00  0.00     0.365 C 
ATOM     10  O   UNL A   1      36.995  23.777  24.404  1.00  0.00    -0.245 OA
BRANCH   9  11
ATOM     11  C   UNL A   1      35.147  22.639  25.950  1.00  0.00     0.298 C 
ATOM     12  C   UNL A   1      32.580  23.396  24.521  1.00  0.00     0.243 C 
ATOM     13  N   UNL A   1      33.858  23.192  25.326  1.00  0.00    -0.326 N 
ATOM     14  C   UNL A   1      32.285  21.644  25.027  1.00  0.00     0.196 C 
ATOM     15  H   UNL A   1      33.412  23.377  26.225  1.00  0.00     0.347 HD
ATOM     16  H   UNL A   1      34.366  23.247  24.443  1.00  0.00     0.347 HD
ATOM     17  C   UNL A   1      33.516  20.720  25.610  1.00  0.00    -0.024 C 
ATOM     18  N   UNL A   1      31.774  20.715  24.022  1.00  0.00    -0.270 NA
ATOM     19  C   UNL A   1      34.661  21.276  26.458  1.00  0.00     0.111 C 
ATOM     20  C   UNL A   1      33.542  19.518  25.031  1.00  0.00     0.002 A 
ATOM     21  C   UNL A   1      32.482  19.636  24.039  1.00  0.00     0.066 A 
ATOM     22  C   UNL A   1      34.514  18.467  24.973  1.00  0.00     0.010 A 
ATOM     23  C   UNL A   1      32.432  18.575  22.997  1.00  0.00     0.028 A 
ATOM     24  C   UNL A   1      34.495  17.629  23.920  1.00  0.00     0.001 A 
ATOM     25  C   UNL A   1      33.445  17.697  22.920  1.00  0.00     0.002 A 
BRANCH  12  26
ATOM     26  C   UNL A   1      32.302  25.159  23.598  1.00  0.00     0.015 A 
ATOM     27  C   UNL A   1      29.335  25.702  23.876  1.00  0.00     0.045 C 
ATOM     28  C   UNL A   1      30.771  26.328  23.572  1.00  0.00    -0.042 A 
ATOM     29  C   UNL A   1      31.050  28.368  23.600  1.00  0.00     0.004 A 
ATOM     30  C   UNL A   1      32.684  29.040  23.935  1.00  0.00     0.000 A 
ATOM     31  C   UNL A   1      33.863  26.136  23.810  1.00  0.00     0.010 A 
ATOM     32  C   UNL A   1      34.027  27.934  24.037  1.00  0.00     0.001 A 
ENDBRANCH  12  26
ENDBRANCH   9  11
ENDBRANCH   8   9
ENDBRANCH   7   8
ENDBRANCH   6   7
ENDBRANCH   5   6
ENDBRANCH   4   5
ENDBRANCH   3   4
ENDBRANCH   2   3
ENDBRANCH   1   2
BRANCH   1  33
ATOM     33  C   UNL A   1      36.673  30.800  30.873  1.00  0.00     0.188 C 
BRANCH  33  34
ATOM     34  O   UNL A   1      36.548  29.419  30.967  1.00  0.00    -0.376 OA
BRANCH  34  35
ATOM     35  C   UNL A   1      37.680  28.704  31.390  1.00  0.00     0.202 C 
BRANCH  35  36
ATOM     36  C   UNL A   1      37.431  28.940  32.833  1.00  0.00     0.261 C 
BRANCH  36  37
ATOM     37  O   UNL A   1      38.815  29.235  33.437  1.00  0.00    -0.460 OA
BRANCH  37  38
ATOM     38  C   UNL A   1      39.380  30.472  33.745  1.00  0.00     0.338 C 
ATOM     39  O   UNL A   1      39.737  30.694  34.907  1.00  0.00    -0.246 OA
BRANCH  38  40
ATOM     40  C   UNL A   1      39.737  31.620  32.717  1.00  0.00     0.060 A 
ATOM     41  C   UNL A   1      40.637  30.894  31.486  1.00  0.00     0.016 A 
ATOM     42  C   UNL A   1      39.641  33.392  32.858  1.00  0.00     0.016 A 
ATOM     43  C   UNL A   1      41.705  31.886  30.450  1.00  0.00     0.010 A 
ATOM     44  C   UNL A   1      40.692  34.544  31.910  1.00  0.00     0.010 A 
ATOM     45  C   UNL A   1      41.901  33.918  30.645  1.00  0.00    -0.014 A 
BRANCH  45  46
ATOM     46  C   UNL A   1      43.211  35.426  30.521  1.00  0.00     0.031 A 
ATOM     47  C   UNL A   1      42.941  36.027  29.068  1.00  0.00     0.074 A 
ATOM     48  C   UNL A   1      44.565  35.721  31.714  1.00  0.00     0.049 A 
ATOM     49  N   UNL A   1      43.743  36.901  28.608  1.00  0.00    -0.248 NA
ATOM     50  C   UNL A   1      42.051  35.651  27.964  1.00  0.00     0.031 C 
ATOM     51  C   UNL A   1      46.013  36.572  32.144  1.00  0.00     0.029 A 
ATOM     52  N   UNL A   1      45.079  34.748  32.869  1.00  0.00    -0.354 N 
ATOM     53  C   UNL A   1      43.435  37.405  27.432  1.00  0.00     0.074 A 
ATOM     54  C   UNL A   1      42.335  36.578  27.025  1.00  0.00     0.031 C 
ATOM     55  C   UNL A   1      46.809  35.988  33.065  1.00  0.00     0.029 A 
ATOM     56  C   UNL A   1      46.337  34.672  33.369  1.00  0.00     0.049 A 
ATOM     57  H   UNL A   1      44.413  34.138  33.260  1.00  0.00     0.167 HD
ATOM     58  C   UNL A   1      44.120  38.550  27.222  1.00  0.00     0.034 A 
ATOM     59  C   UNL A   1      47.029  33.492  33.418  1.00  0.00     0.034 A 
ATOM     60  C   UNL A   1      45.410  38.663  28.074  1.00  0.00     0.049 A 
ATOM     61  C   UNL A   1      47.946  33.867  32.064  1.00  0.00     0.074 A 
ATOM     62  C   UNL A   1      45.875  39.545  29.042  1.00  0.00     0.029 A 
ATOM     63  N   UNL A   1      46.327  37.574  28.172  1.00  0.00    -0.354 N 
ATOM     64  N   UNL A   1      47.509  34.633  31.055  1.00  0.00    -0.248 NA
ATOM     65  C   UNL A   1      49.407  33.909  32.045  1.00  0.00     0.031 C 
ATOM     66  C   UNL A   1      46.989  38.930  29.764  1.00  0.00     0.029 A 
ATOM     67  C   UNL A   1      47.230  37.625  29.289  1.00  0.00     0.049 A 
ATOM     68  H   UNL A   1      46.341  36.838  27.518  1.00  0.00     0.167 HD
ATOM     69  C   UNL A   1      48.497  35.476  30.464  1.00  0.00     0.074 A 
ATOM     70  C   UNL A   1      49.685  34.866  31.119  1.00  0.00     0.031 C 
ATOM     71  C   UNL A   1      48.366  36.568  29.507  1.00  0.00     0.034 A 
BRANCH  58  72
ATOM     72  C   UNL A   1      43.426  39.657  26.485  1.00  0.00     0.023 A 
ATOM     73  C   UNL A   1      44.241  40.525  25.765  1.00  0.00     0.031 A 
ATOM     74  C   UNL A   1      42.043  39.986  26.504  1.00  0.00     0.131 A 
ATOM     75  C   UNL A   1      43.704  41.606  25.058  1.00  0.00     0.055 A 
ATOM     76  C   UNL A   1      41.498  41.038  25.758  1.00  0.00     0.041 A 
ATOM     77  F   UNL A   1      41.147  39.346  27.267  1.00  0.00    -0.206 F 
ATOM     78  C   UNL A   1      42.334  41.853  25.014  1.00  0.00     0.022 A 
BRANCH  75  79
ATOM     79  S   UNL A   1      44.871  42.668  24.190  1.00  0.00     0.124 S 
ATOM     80  O   UNL A   1      45.707  41.694  23.495  1.00  0.00    -0.237 OA
ATOM     81  O   UNL A   1      43.984  43.472  23.355  1.00  0.00    -0.237 OA
ATOM     82  O   UNL A   1      45.531  43.396  25.271  1.00  0.00    -0.744 OA
ENDBRANCH  75  79
ENDBRANCH  58  72
BRANCH  59  83
ATOM     83  C   UNL A   1      46.177  32.164  34.042  1.00  0.00     0.023 A 
ATOM     84  C   UNL A   1      46.032  31.910  35.487  1.00  0.00     0.031 A 
ATOM     85  C   UNL A   1      45.285  31.318  33.362  1.00  0.00     0.131 A 
ATOM     86  C   UNL A   1      44.899  31.323  36.179  1.00  0.00     0.055 A 
ATOM     87  C   UNL A   1      44.184  30.625  34.035  1.00  0.00     0.041 A 
ATOM     88  F   UNL A   1      45.280  31.279  32.026  1.00  0.00    -0.206 F 
ATOM     89  C   UNL A   1      43.923  30.732  35.413  1.00  0.00     0.022 A 
BRANCH  86  90
ATOM     90  S   UNL A   1      44.585  31.323  38.049  1.00  0.00     0.124 S 
ATOM     91  O   UNL A   1      43.195  30.884  38.129  1.00  0.00    -0.237 OA
ATOM     92  O   UNL A   1      45.557  30.428  38.651  1.00  0.00    -0.237 OA
ATOM     93  O   UNL A   1      44.804  32.721  38.432  1.00  0.00    -0.744 OA
ENDBRANCH  86  90
ENDBRANCH  59  83
BRANCH  71  94
ATOM     94  C   UNL A   1      49.367  36.675  28.357  1.00  0.00     0.023 A 
ATOM     95  C   UNL A   1      49.424  35.678  27.409  1.00  0.00     0.031 A 
ATOM     96  C   UNL A   1      50.168  37.819  28.060  1.00  0.00     0.131 A 
ATOM     97  C   UNL A   1      50.321  35.718  26.349  1.00  0.00     0.055 A 
ATOM     98  C   UNL A   1      50.939  37.938  26.904  1.00  0.00     0.041 A 
ATOM     99  F   UNL A   1      50.237  38.903  28.843  1.00  0.00    -0.206 F 
ATOM    100  C   UNL A   1      51.059  36.855  26.055  1.00  0.00     0.022 A 
BRANCH  97 101
ATOM    101  S   UNL A   1      50.523  34.155  25.496  1.00  0.00     0.124 S 
ATOM    102  O   UNL A   1      51.151  34.587  24.248  1.00  0.00    -0.237 OA
ATOM    103  O   UNL A   1      51.396  33.423  26.410  1.00  0.00    -0.237 OA
ATOM    104  O   UNL A   1      49.161  33.654  25.377  1.00  0.00    -0.744 OA
ENDBRANCH  97 101
ENDBRANCH  71  94
ENDBRANCH  45  46
ENDBRANCH  38  40
ENDBRANCH  37  38
ENDBRANCH  36  37
ENDBRANCH  35  36
ENDBRANCH  34  35
ENDBRANCH  33  34
ENDBRANCH   1  33
TORSDOF 24
ENDMDL
