MODEL 1
REMARK VINA RESULT:      -7.8      0.000      0.000
REMARK SMILES O=C(CS(=O)(=O)N1CCC1)OCCOCCOCCOCCOC(=O)c1ccc(-c2c3nc(c(-c4cc(S(=O)(=O)[O-])ccc4F)c4ccc([nH]4)c(-c4cc(S(=O)(=O)[O-])ccc4F)c4nc(c(-c5cc(S(=O)(=O)[O-])ccc5F)c5ccc2[nH]5)C=C4)C=C3)cc1
REMARK SMILES IDX 18 1 17 2 16 3 15 4 14 5 13 6 12 7 11 8 2 9 1 10 3 11 4 12
REMARK SMILES IDX 5 13 6 14 7 15 8 16 10 17 9 18 19 19 20 20 21 21 22 22 23 23
REMARK SMILES IDX 24 24 25 25 26 26 27 27 88 28 28 29 87 30 29 31 30 32 31 33
REMARK SMILES IDX 81 34 32 35 86 36 80 37 82 38 33 39 85 40 79 41 78 42 34 44
REMARK SMILES IDX 66 45 46 46 65 47 47 48 50 49 64 50 83 51 48 52 49 53 63 55
REMARK SMILES IDX 84 56 51 57 35 58 36 59 44 60 37 61 43 62 45 63 42 64 38 65
REMARK SMILES IDX 39 66 40 67 41 68 67 69 68 70 76 71 69 72 75 73 77 74 74 75
REMARK SMILES IDX 70 76 71 77 72 78 73 79 52 80 53 81 61 82 54 83 60 84 62 85
REMARK SMILES IDX 59 86 55 87 56 88 57 89 58 90
REMARK H PARENT 82 43 50 54
REMARK Flexibility Score: inf
ROOT
ATOM      1  C   UNL A   1      45.678  43.003  30.076  1.00  0.00     0.188 C 
ENDROOT
BRANCH   1   2
ATOM      2  O   UNL A   1      44.385  43.013  30.644  1.00  0.00    -0.377 OA
BRANCH   2   3
ATOM      3  C   UNL A   1      43.501  41.994  30.222  1.00  0.00     0.188 C 
BRANCH   3   4
ATOM      4  C   UNL A   1      42.174  41.753  30.959  1.00  0.00     0.188 C 
BRANCH   4   5
ATOM      5  O   UNL A   1      41.883  42.471  32.138  1.00  0.00    -0.376 OA
BRANCH   5   6
ATOM      6  C   UNL A   1      42.276  42.162  33.460  1.00  0.00     0.202 C 
BRANCH   6   7
ATOM      7  C   UNL A   1      42.358  43.233  34.534  1.00  0.00     0.261 C 
BRANCH   7   8
ATOM      8  O   UNL A   1      43.596  43.960  34.699  1.00  0.00    -0.462 OA
BRANCH   8   9
ATOM      9  C   UNL A   1      44.344  44.662  33.833  1.00  0.00     0.322 C 
ATOM     10  O   UNL A   1      43.799  45.569  33.201  1.00  0.00    -0.251 OA
BRANCH   9  11
ATOM     11  C   UNL A   1      45.764  44.338  33.570  1.00  0.00     0.276 C 
BRANCH  11  12
ATOM     12  S   UNL A   1      46.788  44.715  34.943  1.00  0.00     0.224 S 
ATOM     13  O   UNL A   1      48.155  44.881  34.500  1.00  0.00    -0.212 OA
ATOM     14  O   UNL A   1      46.132  45.767  35.692  1.00  0.00    -0.212 OA
BRANCH  12  15
ATOM     15  N   UNL A   1      46.715  43.317  35.864  1.00  0.00    -0.201 NA
ATOM     16  C   UNL A   1      47.870  42.604  36.506  1.00  0.00     0.103 C 
ATOM     17  C   UNL A   1      46.007  43.234  37.176  1.00  0.00     0.103 C 
ATOM     18  C   UNL A   1      46.887  42.023  37.531  1.00  0.00     0.033 C 
ENDBRANCH  12  15
ENDBRANCH  11  12
ENDBRANCH   9  11
ENDBRANCH   8   9
ENDBRANCH   7   8
ENDBRANCH   6   7
ENDBRANCH   5   6
ENDBRANCH   4   5
ENDBRANCH   3   4
ENDBRANCH   2   3
ENDBRANCH   1   2
BRANCH   1  19
ATOM     19  C   UNL A   1      46.258  41.585  29.904  1.00  0.00     0.188 C 
BRANCH  19  20
ATOM     20  O   UNL A   1      46.561  40.809  31.048  1.00  0.00    -0.376 OA
BRANCH  20  21
ATOM     21  C   UNL A   1      47.274  39.587  30.972  1.00  0.00     0.202 C 
BRANCH  21  22
ATOM     22  C   UNL A   1      46.972  38.389  30.044  1.00  0.00     0.261 C 
BRANCH  22  23
ATOM     23  O   UNL A   1      46.616  37.136  30.622  1.00  0.00    -0.460 OA
BRANCH  23  24
ATOM     24  C   UNL A   1      45.289  36.867  30.688  1.00  0.00     0.338 C 
ATOM     25  O   UNL A   1      44.395  37.657  30.882  1.00  0.00    -0.246 OA
BRANCH  24  26
ATOM     26  C   UNL A   1      45.105  35.468  30.232  1.00  0.00     0.060 A 
ATOM     27  C   UNL A   1      44.641  35.250  28.926  1.00  0.00     0.016 A 
ATOM     28  C   UNL A   1      45.433  34.388  31.056  1.00  0.00     0.016 A 
ATOM     29  C   UNL A   1      44.487  33.953  28.444  1.00  0.00     0.010 A 
ATOM     30  C   UNL A   1      45.231  33.087  30.588  1.00  0.00     0.010 A 
ATOM     31  C   UNL A   1      44.726  32.868  29.293  1.00  0.00    -0.014 A 
BRANCH  31  32
ATOM     32  C   UNL A   1      44.186  31.539  28.923  1.00  0.00     0.031 A 
ATOM     33  C   UNL A   1      42.788  31.213  29.376  1.00  0.00     0.074 A 
ATOM     34  C   UNL A   1      44.886  30.666  28.179  1.00  0.00     0.049 A 
ATOM     35  N   UNL A   1      42.104  30.109  29.241  1.00  0.00    -0.248 NA
ATOM     36  C   UNL A   1      42.070  32.285  30.086  1.00  0.00     0.031 C 
ATOM     37  C   UNL A   1      46.218  30.904  27.627  1.00  0.00     0.029 A 
ATOM     38  N   UNL A   1      44.569  29.397  27.763  1.00  0.00    -0.354 N 
ATOM     39  C   UNL A   1      40.880  30.349  29.855  1.00  0.00     0.074 A 
ATOM     40  C   UNL A   1      40.931  31.689  30.394  1.00  0.00     0.031 C 
ATOM     41  C   UNL A   1      46.612  29.805  26.957  1.00  0.00     0.029 A 
ATOM     42  C   UNL A   1      45.580  28.775  27.070  1.00  0.00     0.049 A 
ATOM     43  H   UNL A   1      43.699  28.972  27.945  1.00  0.00     0.167 HD
ATOM     44  C   UNL A   1      39.811  29.524  29.957  1.00  0.00     0.034 A 
ATOM     45  C   UNL A   1      45.670  27.509  26.612  1.00  0.00     0.034 A 
ATOM     46  C   UNL A   1      39.788  28.184  29.429  1.00  0.00     0.049 A 
ATOM     47  C   UNL A   1      44.503  26.570  26.829  1.00  0.00     0.074 A 
ATOM     48  C   UNL A   1      38.758  27.262  29.468  1.00  0.00     0.029 A 
ATOM     49  N   UNL A   1      40.850  27.566  28.782  1.00  0.00    -0.354 N 
ATOM     50  N   UNL A   1      43.348  26.803  27.411  1.00  0.00    -0.248 NA
ATOM     51  C   UNL A   1      44.651  25.199  26.321  1.00  0.00     0.031 C 
ATOM     52  C   UNL A   1      39.226  26.062  28.925  1.00  0.00     0.029 A 
ATOM     53  C   UNL A   1      40.514  26.262  28.454  1.00  0.00     0.049 A 
ATOM     54  H   UNL A   1      41.716  27.992  28.585  1.00  0.00     0.167 HD
ATOM     55  C   UNL A   1      42.620  25.618  27.306  1.00  0.00     0.074 A 
ATOM     56  C   UNL A   1      43.462  24.680  26.593  1.00  0.00     0.031 C 
ATOM     57  C   UNL A   1      41.368  25.333  27.750  1.00  0.00     0.034 A 
BRANCH  44  58
ATOM     58  C   UNL A   1      38.614  30.032  30.726  1.00  0.00     0.023 A 
ATOM     59  C   UNL A   1      37.573  30.741  30.101  1.00  0.00     0.031 A 
ATOM     60  C   UNL A   1      38.534  29.832  32.115  1.00  0.00     0.131 A 
ATOM     61  C   UNL A   1      36.536  31.284  30.874  1.00  0.00     0.055 A 
ATOM     62  C   UNL A   1      37.454  30.301  32.866  1.00  0.00     0.041 A 
ATOM     63  F   UNL A   1      39.513  29.189  32.772  1.00  0.00    -0.206 F 
ATOM     64  C   UNL A   1      36.454  31.044  32.248  1.00  0.00     0.022 A 
BRANCH  61  65
ATOM     65  S   UNL A   1      35.376  32.434  30.084  1.00  0.00     0.124 S 
ATOM     66  O   UNL A   1      34.898  31.641  28.954  1.00  0.00    -0.237 OA
ATOM     67  O   UNL A   1      34.408  32.684  31.145  1.00  0.00    -0.237 OA
ATOM     68  O   UNL A   1      36.217  33.574  29.724  1.00  0.00    -0.744 OA
ENDBRANCH  61  65
ENDBRANCH  44  58
BRANCH  45  69
ATOM     69  C   UNL A   1      46.918  27.026  25.951  1.00  0.00     0.023 A 
ATOM     70  C   UNL A   1      47.931  26.384  26.681  1.00  0.00     0.031 A 
ATOM     71  C   UNL A   1      47.144  27.261  24.581  1.00  0.00     0.131 A 
ATOM     72  C   UNL A   1      49.138  26.041  26.051  1.00  0.00     0.055 A 
ATOM     73  C   UNL A   1      48.322  26.864  23.947  1.00  0.00     0.041 A 
ATOM     74  F   UNL A   1      46.214  27.879  23.835  1.00  0.00    -0.206 F 
ATOM     75  C   UNL A   1      49.335  26.262  24.686  1.00  0.00     0.022 A 
BRANCH  72  76
ATOM     76  S   UNL A   1      50.492  25.385  27.065  1.00  0.00     0.124 S 
ATOM     77  O   UNL A   1      50.916  26.574  27.797  1.00  0.00    -0.237 OA
ATOM     78  O   UNL A   1      49.815  24.356  27.846  1.00  0.00    -0.237 OA
ATOM     79  O   UNL A   1      51.447  24.886  26.077  1.00  0.00    -0.744 OA
ENDBRANCH  72  76
ENDBRANCH  45  69
BRANCH  57  80
ATOM     80  C   UNL A   1      40.811  23.966  27.426  1.00  0.00     0.023 A 
ATOM     81  C   UNL A   1      39.721  23.790  26.557  1.00  0.00     0.031 A 
ATOM     82  C   UNL A   1      41.390  22.817  27.998  1.00  0.00     0.131 A 
ATOM     83  C   UNL A   1      39.206  22.504  26.332  1.00  0.00     0.055 A 
ATOM     84  C   UNL A   1      40.919  21.535  27.713  1.00  0.00     0.041 A 
ATOM     85  F   UNL A   1      42.431  22.922  28.840  1.00  0.00    -0.206 F 
ATOM     86  C   UNL A   1      39.811  21.374  26.888  1.00  0.00     0.022 A 
BRANCH  83  87
ATOM     87  S   UNL A   1      37.667  22.335  25.388  1.00  0.00     0.124 S 
ATOM     88  O   UNL A   1      36.666  22.272  26.448  1.00  0.00    -0.237 OA
ATOM     89  O   UNL A   1      37.662  23.548  24.577  1.00  0.00    -0.237 OA
ATOM     90  O   UNL A   1      37.857  21.092  24.641  1.00  0.00    -0.744 OA
ENDBRANCH  83  87
ENDBRANCH  57  80
ENDBRANCH  31  32
ENDBRANCH  24  26
ENDBRANCH  23  24
ENDBRANCH  22  23
ENDBRANCH  21  22
ENDBRANCH  20  21
ENDBRANCH  19  20
ENDBRANCH   1  19
TORSDOF 25
ENDMDL
MODEL 2
REMARK VINA RESULT:      -7.3      3.985      9.876
REMARK SMILES O=C(CS(=O)(=O)N1CCC1)OCCOCCOCCOCCOC(=O)c1ccc(-c2c3nc(c(-c4cc(S(=O)(=O)[O-])ccc4F)c4ccc([nH]4)c(-c4cc(S(=O)(=O)[O-])ccc4F)c4nc(c(-c5cc(S(=O)(=O)[O-])ccc5F)c5ccc2[nH]5)C=C4)C=C3)cc1
REMARK SMILES IDX 18 1 17 2 16 3 15 4 14 5 13 6 12 7 11 8 2 9 1 10 3 11 4 12
REMARK SMILES IDX 5 13 6 14 7 15 8 16 10 17 9 18 19 19 20 20 21 21 22 22 23 23
REMARK SMILES IDX 24 24 25 25 26 26 27 27 88 28 28 29 87 30 29 31 30 32 31 33
REMARK SMILES IDX 81 34 32 35 86 36 80 37 82 38 33 39 85 40 79 41 78 42 34 44
REMARK SMILES IDX 66 45 46 46 65 47 47 48 50 49 64 50 83 51 48 52 49 53 63 55
REMARK SMILES IDX 84 56 51 57 35 58 36 59 44 60 37 61 43 62 45 63 42 64 38 65
REMARK SMILES IDX 39 66 40 67 41 68 67 69 68 70 76 71 69 72 75 73 77 74 74 75
REMARK SMILES IDX 70 76 71 77 72 78 73 79 52 80 53 81 61 82 54 83 60 84 62 85
REMARK SMILES IDX 59 86 55 87 56 88 57 89 58 90
REMARK H PARENT 82 43 50 54
REMARK Flexibility Score: inf
ROOT
ATOM      1  C   UNL A   1      44.346  40.429  26.991  1.00  0.00     0.188 C 
ENDROOT
BRANCH   1   2
ATOM      2  O   UNL A   1      44.376  40.674  25.600  1.00  0.00    -0.377 OA
BRANCH   2   3
ATOM      3  C   UNL A   1      45.490  41.391  25.108  1.00  0.00     0.188 C 
BRANCH   3   4
ATOM      4  C   UNL A   1      46.659  40.658  24.433  1.00  0.00     0.188 C 
BRANCH   4   5
ATOM      5  O   UNL A   1      46.754  39.253  24.522  1.00  0.00    -0.376 OA
BRANCH   5   6
ATOM      6  C   UNL A   1      47.686  38.493  25.266  1.00  0.00     0.202 C 
BRANCH   6   7
ATOM      7  C   UNL A   1      47.236  37.423  26.246  1.00  0.00     0.261 C 
BRANCH   7   8
ATOM      8  O   UNL A   1      46.618  36.223  25.731  1.00  0.00    -0.462 OA
BRANCH   8   9
ATOM      9  C   UNL A   1      47.065  34.962  25.620  1.00  0.00     0.322 C 
ATOM     10  O   UNL A   1      48.098  34.770  24.975  1.00  0.00    -0.251 OA
BRANCH   9  11
ATOM     11  C   UNL A   1      46.330  33.807  26.183  1.00  0.00     0.276 C 
BRANCH  11  12
ATOM     12  S   UNL A   1      44.700  33.695  25.544  1.00  0.00     0.224 S 
ATOM     13  O   UNL A   1      44.682  34.154  24.172  1.00  0.00    -0.212 OA
ATOM     14  O   UNL A   1      44.196  32.379  25.879  1.00  0.00    -0.212 OA
BRANCH  12  15
ATOM     15  N   UNL A   1      43.856  34.810  26.468  1.00  0.00    -0.201 NA
ATOM     16  C   UNL A   1      42.506  35.393  26.159  1.00  0.00     0.103 C 
ATOM     17  C   UNL A   1      43.354  34.524  27.845  1.00  0.00     0.103 C 
ATOM     18  C   UNL A   1      42.319  35.648  27.660  1.00  0.00     0.033 C 
ENDBRANCH  12  15
ENDBRANCH  11  12
ENDBRANCH   9  11
ENDBRANCH   8   9
ENDBRANCH   7   8
ENDBRANCH   6   7
ENDBRANCH   5   6
ENDBRANCH   4   5
ENDBRANCH   3   4
ENDBRANCH   2   3
ENDBRANCH   1   2
BRANCH   1  19
ATOM     19  C   UNL A   1      45.067  41.513  27.817  1.00  0.00     0.188 C 
BRANCH  19  20
ATOM     20  O   UNL A   1      45.248  41.328  29.209  1.00  0.00    -0.376 OA
BRANCH  20  21
ATOM     21  C   UNL A   1      44.979  42.349  30.154  1.00  0.00     0.202 C 
BRANCH  21  22
ATOM     22  C   UNL A   1      44.491  42.166  31.608  1.00  0.00     0.261 C 
BRANCH  22  23
ATOM     23  O   UNL A   1      44.584  40.880  32.215  1.00  0.00    -0.460 OA
BRANCH  23  24
ATOM     24  C   UNL A   1      43.411  40.238  32.432  1.00  0.00     0.338 C 
ATOM     25  O   UNL A   1      42.323  40.742  32.582  1.00  0.00    -0.246 OA
BRANCH  24  26
ATOM     26  C   UNL A   1      43.655  38.793  32.205  1.00  0.00     0.060 A 
ATOM     27  C   UNL A   1      43.773  38.339  30.882  1.00  0.00     0.016 A 
ATOM     28  C   UNL A   1      43.820  37.909  33.274  1.00  0.00     0.016 A 
ATOM     29  C   UNL A   1      44.039  36.997  30.623  1.00  0.00     0.010 A 
ATOM     30  C   UNL A   1      44.037  36.553  33.012  1.00  0.00     0.010 A 
ATOM     31  C   UNL A   1      44.113  36.090  31.685  1.00  0.00    -0.014 A 
BRANCH  31  32
ATOM     32  C   UNL A   1      43.990  34.642  31.397  1.00  0.00     0.031 A 
ATOM     33  C   UNL A   1      45.247  33.906  31.016  1.00  0.00     0.074 A 
ATOM     34  C   UNL A   1      42.821  33.989  31.509  1.00  0.00     0.049 A 
ATOM     35  N   UNL A   1      45.407  32.660  30.659  1.00  0.00    -0.248 NA
ATOM     36  C   UNL A   1      46.491  34.694  31.037  1.00  0.00     0.031 C 
ATOM     37  C   UNL A   1      41.558  34.585  31.939  1.00  0.00     0.029 A 
ATOM     38  N   UNL A   1      42.509  32.675  31.264  1.00  0.00    -0.354 N 
ATOM     39  C   UNL A   1      46.766  32.516  30.403  1.00  0.00     0.074 A 
ATOM     40  C   UNL A   1      47.377  33.809  30.612  1.00  0.00     0.031 C 
ATOM     41  C   UNL A   1      40.600  33.640  31.910  1.00  0.00     0.029 A 
ATOM     42  C   UNL A   1      41.174  32.387  31.421  1.00  0.00     0.049 A 
ATOM     43  H   UNL A   1      43.178  32.003  31.001  1.00  0.00     0.167 HD
ATOM     44  C   UNL A   1      47.442  31.403  30.031  1.00  0.00     0.034 A 
ATOM     45  C   UNL A   1      40.494  31.250  31.164  1.00  0.00     0.034 A 
ATOM     46  C   UNL A   1      46.810  30.127  29.810  1.00  0.00     0.049 A 
ATOM     47  C   UNL A   1      41.251  30.046  30.648  1.00  0.00     0.074 A 
ATOM     48  C   UNL A   1      47.396  28.931  29.439  1.00  0.00     0.029 A 
ATOM     49  N   UNL A   1      45.447  29.884  29.923  1.00  0.00    -0.354 N 
ATOM     50  N   UNL A   1      42.538  29.917  30.407  1.00  0.00    -0.248 NA
ATOM     51  C   UNL A   1      40.467  28.834  30.374  1.00  0.00     0.031 C 
ATOM     52  C   UNL A   1      46.380  27.991  29.242  1.00  0.00     0.029 A 
ATOM     53  C   UNL A   1      45.169  28.569  29.588  1.00  0.00     0.049 A 
ATOM     54  H   UNL A   1      44.776  30.550  30.201  1.00  0.00     0.167 HD
ATOM     55  C   UNL A   1      42.718  28.599  29.989  1.00  0.00     0.074 A 
ATOM     56  C   UNL A   1      41.412  27.974  30.024  1.00  0.00     0.031 C 
ATOM     57  C   UNL A   1      43.859  27.960  29.619  1.00  0.00     0.034 A 
BRANCH  44  58
ATOM     58  C   UNL A   1      48.923  31.544  29.775  1.00  0.00     0.023 A 
ATOM     59  C   UNL A   1      49.439  31.772  28.488  1.00  0.00     0.031 A 
ATOM     60  C   UNL A   1      49.836  31.411  30.837  1.00  0.00     0.131 A 
ATOM     61  C   UNL A   1      50.827  31.790  28.284  1.00  0.00     0.055 A 
ATOM     62  C   UNL A   1      51.214  31.516  30.640  1.00  0.00     0.041 A 
ATOM     63  F   UNL A   1      49.404  31.161  32.083  1.00  0.00    -0.206 F 
ATOM     64  C   UNL A   1      51.718  31.693  29.356  1.00  0.00     0.022 A 
BRANCH  61  65
ATOM     65  S   UNL A   1      51.454  31.791  26.582  1.00  0.00     0.124 S 
ATOM     66  O   UNL A   1      51.742  30.374  26.372  1.00  0.00    -0.237 OA
ATOM     67  O   UNL A   1      50.327  32.332  25.831  1.00  0.00    -0.237 OA
ATOM     68  O   UNL A   1      52.631  32.654  26.651  1.00  0.00    -0.744 OA
ENDBRANCH  61  65
ENDBRANCH  44  58
BRANCH  45  69
ATOM     69  C   UNL A   1      39.011  31.196  31.335  1.00  0.00     0.023 A 
ATOM     70  C   UNL A   1      38.142  31.516  30.280  1.00  0.00     0.031 A 
ATOM     71  C   UNL A   1      38.442  30.883  32.583  1.00  0.00     0.131 A 
ATOM     72  C   UNL A   1      36.756  31.562  30.503  1.00  0.00     0.055 A 
ATOM     73  C   UNL A   1      37.060  30.872  32.784  1.00  0.00     0.041 A 
ATOM     74  F   UNL A   1      39.225  30.578  33.630  1.00  0.00    -0.206 F 
ATOM     75  C   UNL A   1      36.209  31.226  31.744  1.00  0.00     0.022 A 
BRANCH  72  76
ATOM     76  S   UNL A   1      35.680  32.161  29.171  1.00  0.00     0.124 S 
ATOM     77  O   UNL A   1      34.659  32.887  29.919  1.00  0.00    -0.237 OA
ATOM     78  O   UNL A   1      36.599  32.973  28.382  1.00  0.00    -0.237 OA
ATOM     79  O   UNL A   1      35.225  30.932  28.524  1.00  0.00    -0.744 OA
ENDBRANCH  72  76
ENDBRANCH  45  69
BRANCH  57  80
ATOM     80  C   UNL A   1      43.752  26.493  29.275  1.00  0.00     0.023 A 
ATOM     81  C   UNL A   1      43.453  26.050  27.976  1.00  0.00     0.031 A 
ATOM     82  C   UNL A   1      43.960  25.519  30.271  1.00  0.00     0.131 A 
ATOM     83  C   UNL A   1      43.310  24.677  27.719  1.00  0.00     0.055 A 
ATOM     84  C   UNL A   1      43.888  24.154  29.994  1.00  0.00     0.041 A 
ATOM     85  F   UNL A   1      44.245  25.881  31.532  1.00  0.00    -0.206 F 
ATOM     86  C   UNL A   1      43.547  23.726  28.715  1.00  0.00     0.022 A 
BRANCH  83  87
ATOM     87  S   UNL A   1      42.706  24.153  26.092  1.00  0.00     0.124 S 
ATOM     88  O   UNL A   1      41.274  24.415  26.201  1.00  0.00    -0.237 OA
ATOM     89  O   UNL A   1      43.446  25.025  25.187  1.00  0.00    -0.237 OA
ATOM     90  O   UNL A   1      43.073  22.739  26.028  1.00  0.00    -0.744 OA
ENDBRANCH  83  87
ENDBRANCH  57  80
ENDBRANCH  31  32
ENDBRANCH  24  26
ENDBRANCH  23  24
ENDBRANCH  22  23
ENDBRANCH  21  22
ENDBRANCH  20  21
ENDBRANCH  19  20
ENDBRANCH   1  19
TORSDOF 25
ENDMDL
MODEL 3
REMARK VINA RESULT:      -7.2      5.882     10.530
REMARK SMILES O=C(CS(=O)(=O)N1CCC1)OCCOCCOCCOCCOC(=O)c1ccc(-c2c3nc(c(-c4cc(S(=O)(=O)[O-])ccc4F)c4ccc([nH]4)c(-c4cc(S(=O)(=O)[O-])ccc4F)c4nc(c(-c5cc(S(=O)(=O)[O-])ccc5F)c5ccc2[nH]5)C=C4)C=C3)cc1
REMARK SMILES IDX 18 1 17 2 16 3 15 4 14 5 13 6 12 7 11 8 2 9 1 10 3 11 4 12
REMARK SMILES IDX 5 13 6 14 7 15 8 16 10 17 9 18 19 19 20 20 21 21 22 22 23 23
REMARK SMILES IDX 24 24 25 25 26 26 27 27 88 28 28 29 87 30 29 31 30 32 31 33
REMARK SMILES IDX 81 34 32 35 86 36 80 37 82 38 33 39 85 40 79 41 78 42 34 44
REMARK SMILES IDX 66 45 46 46 65 47 47 48 50 49 64 50 83 51 48 52 49 53 63 55
REMARK SMILES IDX 84 56 51 57 35 58 36 59 44 60 37 61 43 62 45 63 42 64 38 65
REMARK SMILES IDX 39 66 40 67 41 68 67 69 68 70 76 71 69 72 75 73 77 74 74 75
REMARK SMILES IDX 70 76 71 77 72 78 73 79 52 80 53 81 61 82 54 83 60 84 62 85
REMARK SMILES IDX 59 86 55 87 56 88 57 89 58 90
REMARK H PARENT 82 43 50 54
REMARK Flexibility Score: inf
ROOT
ATOM      1  C   UNL A   1      42.880  32.292  41.466  1.00  0.00     0.188 C 
ENDROOT
BRANCH   1   2
ATOM      2  O   UNL A   1      41.983  31.962  40.426  1.00  0.00    -0.377 OA
BRANCH   2   3
ATOM      3  C   UNL A   1      42.061  32.746  39.251  1.00  0.00     0.188 C 
BRANCH   3   4
ATOM      4  C   UNL A   1      41.036  32.566  38.121  1.00  0.00     0.188 C 
BRANCH   4   5
ATOM      5  O   UNL A   1      39.716  33.038  38.286  1.00  0.00    -0.376 OA
BRANCH   5   6
ATOM      6  C   UNL A   1      38.928  33.751  37.353  1.00  0.00     0.202 C 
BRANCH   6   7
ATOM      7  C   UNL A   1      37.693  33.134  36.721  1.00  0.00     0.261 C 
BRANCH   7   8
ATOM      8  O   UNL A   1      37.850  32.318  35.538  1.00  0.00    -0.462 OA
BRANCH   8   9
ATOM      9  C   UNL A   1      38.159  31.021  35.380  1.00  0.00     0.322 C 
ATOM     10  O   UNL A   1      38.478  30.376  36.381  1.00  0.00    -0.251 OA
BRANCH   9  11
ATOM     11  C   UNL A   1      38.193  30.371  34.051  1.00  0.00     0.276 C 
BRANCH  11  12
ATOM     12  S   UNL A   1      39.834  30.072  33.511  1.00  0.00     0.224 S 
ATOM     13  O   UNL A   1      40.734  31.015  34.140  1.00  0.00    -0.212 OA
ATOM     14  O   UNL A   1      40.074  28.648  33.627  1.00  0.00    -0.212 OA
BRANCH  12  15
ATOM     15  N   UNL A   1      39.767  30.442  31.877  1.00  0.00    -0.201 NA
ATOM     16  C   UNL A   1      38.714  31.258  31.184  1.00  0.00     0.103 C 
ATOM     17  C   UNL A   1      40.792  31.276  31.182  1.00  0.00     0.103 C 
ATOM     18  C   UNL A   1      39.745  31.589  30.097  1.00  0.00     0.033 C 
ENDBRANCH  12  15
ENDBRANCH  11  12
ENDBRANCH   9  11
ENDBRANCH   8   9
ENDBRANCH   7   8
ENDBRANCH   6   7
ENDBRANCH   5   6
ENDBRANCH   4   5
ENDBRANCH   3   4
ENDBRANCH   2   3
ENDBRANCH   1   2
BRANCH   1  19
ATOM     19  C   UNL A   1      42.794  33.770  41.900  1.00  0.00     0.188 C 
BRANCH  19  20
ATOM     20  O   UNL A   1      41.532  34.338  42.198  1.00  0.00    -0.376 OA
BRANCH  20  21
ATOM     21  C   UNL A   1      41.059  35.514  41.564  1.00  0.00     0.202 C 
BRANCH  21  22
ATOM     22  C   UNL A   1      41.897  36.559  40.795  1.00  0.00     0.261 C 
BRANCH  22  23
ATOM     23  O   UNL A   1      41.939  36.504  39.371  1.00  0.00    -0.460 OA
BRANCH  23  24
ATOM     24  C   UNL A   1      43.012  37.085  38.784  1.00  0.00     0.338 C 
ATOM     25  O   UNL A   1      43.794  37.852  39.294  1.00  0.00    -0.246 OA
BRANCH  24  26
ATOM     26  C   UNL A   1      43.205  36.420  37.472  1.00  0.00     0.060 A 
ATOM     27  C   UNL A   1      42.071  35.957  36.789  1.00  0.00     0.016 A 
ATOM     28  C   UNL A   1      44.474  36.303  36.898  1.00  0.00     0.016 A 
ATOM     29  C   UNL A   1      42.201  35.360  35.538  1.00  0.00     0.010 A 
ATOM     30  C   UNL A   1      44.609  35.659  35.666  1.00  0.00     0.010 A 
ATOM     31  C   UNL A   1      43.476  35.156  34.999  1.00  0.00    -0.014 A 
BRANCH  31  32
ATOM     32  C   UNL A   1      43.637  34.183  33.894  1.00  0.00     0.031 A 
ATOM     33  C   UNL A   1      43.640  34.728  32.491  1.00  0.00     0.074 A 
ATOM     34  C   UNL A   1      43.817  32.871  34.120  1.00  0.00     0.049 A 
ATOM     35  N   UNL A   1      43.704  34.095  31.351  1.00  0.00    -0.248 NA
ATOM     36  C   UNL A   1      43.551  36.193  32.365  1.00  0.00     0.031 C 
ATOM     37  C   UNL A   1      43.903  32.243  35.436  1.00  0.00     0.029 A 
ATOM     38  N   UNL A   1      43.957  31.828  33.238  1.00  0.00    -0.354 N 
ATOM     39  C   UNL A   1      43.654  35.081  30.372  1.00  0.00     0.074 A 
ATOM     40  C   UNL A   1      43.519  36.349  31.053  1.00  0.00     0.031 C 
ATOM     41  C   UNL A   1      44.063  30.916  35.275  1.00  0.00     0.029 A 
ATOM     42  C   UNL A   1      44.049  30.599  33.847  1.00  0.00     0.049 A 
ATOM     43  H   UNL A   1      43.988  31.949  32.261  1.00  0.00     0.167 HD
ATOM     44  C   UNL A   1      43.718  34.939  29.027  1.00  0.00     0.034 A 
ATOM     45  C   UNL A   1      44.083  29.362  33.309  1.00  0.00     0.034 A 
ATOM     46  C   UNL A   1      43.834  33.663  28.367  1.00  0.00     0.049 A 
ATOM     47  C   UNL A   1      44.048  29.219  31.803  1.00  0.00     0.074 A 
ATOM     48  C   UNL A   1      43.915  33.400  27.012  1.00  0.00     0.029 A 
ATOM     49  N   UNL A   1      43.868  32.434  29.014  1.00  0.00    -0.354 N 
ATOM     50  N   UNL A   1      44.000  30.156  30.882  1.00  0.00    -0.248 NA
ATOM     51  C   UNL A   1      44.077  27.852  31.264  1.00  0.00     0.031 C 
ATOM     52  C   UNL A   1      43.908  32.014  26.836  1.00  0.00     0.029 A 
ATOM     53  C   UNL A   1      43.927  31.409  28.083  1.00  0.00     0.049 A 
ATOM     54  H   UNL A   1      43.853  32.310  29.990  1.00  0.00     0.167 HD
ATOM     55  C   UNL A   1      44.030  29.491  29.658  1.00  0.00     0.074 A 
ATOM     56  C   UNL A   1      44.114  28.077  29.959  1.00  0.00     0.031 C 
ATOM     57  C   UNL A   1      44.001  30.001  28.398  1.00  0.00     0.034 A 
BRANCH  44  58
ATOM     58  C   UNL A   1      43.594  36.190  28.190  1.00  0.00     0.023 A 
ATOM     59  C   UNL A   1      44.720  36.887  27.720  1.00  0.00     0.031 A 
ATOM     60  C   UNL A   1      42.323  36.711  27.890  1.00  0.00     0.131 A 
ATOM     61  C   UNL A   1      44.555  38.102  27.037  1.00  0.00     0.055 A 
ATOM     62  C   UNL A   1      42.164  37.875  27.135  1.00  0.00     0.041 A 
ATOM     63  F   UNL A   1      41.212  36.107  28.339  1.00  0.00    -0.206 F 
ATOM     64  C   UNL A   1      43.284  38.585  26.716  1.00  0.00     0.022 A 
BRANCH  61  65
ATOM     65  S   UNL A   1      46.021  39.116  26.705  1.00  0.00     0.124 S 
ATOM     66  O   UNL A   1      47.051  38.096  26.523  1.00  0.00    -0.237 OA
ATOM     67  O   UNL A   1      45.632  39.853  25.509  1.00  0.00    -0.237 OA
ATOM     68  O   UNL A   1      46.162  39.922  27.917  1.00  0.00    -0.744 OA
ENDBRANCH  61  65
ENDBRANCH  44  58
BRANCH  45  69
ATOM     69  C   UNL A   1      44.100  28.153  34.185  1.00  0.00     0.023 A 
ATOM     70  C   UNL A   1      42.941  27.708  34.840  1.00  0.00     0.031 A 
ATOM     71  C   UNL A   1      45.300  27.459  34.430  1.00  0.00     0.131 A 
ATOM     72  C   UNL A   1      43.014  26.633  35.742  1.00  0.00     0.055 A 
ATOM     73  C   UNL A   1      45.354  26.354  35.282  1.00  0.00     0.041 A 
ATOM     74  F   UNL A   1      46.441  27.844  33.838  1.00  0.00    -0.206 F 
ATOM     75  C   UNL A   1      44.209  25.943  35.955  1.00  0.00     0.022 A 
BRANCH  72  76
ATOM     76  S   UNL A   1      41.539  26.208  36.709  1.00  0.00     0.124 S 
ATOM     77  O   UNL A   1      42.125  25.520  37.855  1.00  0.00    -0.237 OA
ATOM     78  O   UNL A   1      40.962  27.522  36.975  1.00  0.00    -0.237 OA
ATOM     79  O   UNL A   1      40.768  25.364  35.800  1.00  0.00    -0.744 OA
ENDBRANCH  72  76
ENDBRANCH  45  69
BRANCH  57  80
ATOM     80  C   UNL A   1      44.117  29.024  27.251  1.00  0.00     0.023 A 
ATOM     81  C   UNL A   1      45.351  28.716  26.654  1.00  0.00     0.031 A 
ATOM     82  C   UNL A   1      42.966  28.386  26.751  1.00  0.00     0.131 A 
ATOM     83  C   UNL A   1      45.398  27.844  25.555  1.00  0.00     0.055 A 
ATOM     84  C   UNL A   1      43.029  27.465  25.705  1.00  0.00     0.041 A 
ATOM     85  F   UNL A   1      41.758  28.643  27.278  1.00  0.00    -0.206 F 
ATOM     86  C   UNL A   1      44.248  27.201  25.091  1.00  0.00     0.022 A 
BRANCH  83  87
ATOM     87  S   UNL A   1      46.968  27.644  24.669  1.00  0.00     0.124 S 
ATOM     88  O   UNL A   1      46.861  28.661  23.628  1.00  0.00    -0.237 OA
ATOM     89  O   UNL A   1      47.952  27.902  25.714  1.00  0.00    -0.237 OA
ATOM     90  O   UNL A   1      46.919  26.263  24.192  1.00  0.00    -0.744 OA
ENDBRANCH  83  87
ENDBRANCH  57  80
ENDBRANCH  31  32
ENDBRANCH  24  26
ENDBRANCH  23  24
ENDBRANCH  22  23
ENDBRANCH  21  22
ENDBRANCH  20  21
ENDBRANCH  19  20
ENDBRANCH   1  19
TORSDOF 25
ENDMDL
