MODEL 1
REMARK VINA RESULT:      -6.2      0.000      0.000
REMARK SMILES Cc1ccc(S(=O)(=O)n2cc(C(=O)C(=O)N[C@H](Cc3c[nH]c4ccccc34)C(=O)NCC(=O)OCCOCCOCCOCCOC(=O)c3ccc(-c4c5nc(c(-c6cc(S(=O)(=O)[O-])ccc6F)c6ccc([nH]6)c(-c6cc(S(=O)(=O)[O-])ccc6F)c6nc(c(-c7cc(S(=O)(=O)[O-])ccc7F)c7ccc4[nH]7)C=C6)C=C5)cc3)c3ccccc32)cc1
REMARK SMILES IDX 38 1 37 2 36 3 35 4 34 5 32 6 33 7 31 8 30 9 28 10 29 11
REMARK SMILES IDX 17 13 16 14 14 15 15 16 12 18 13 19 11 20 9 21 10 22 117 23
REMARK SMILES IDX 112 24 116 25 113 26 115 27 114 28 6 29 7 30 8 31 5 32 1 33
REMARK SMILES IDX 2 34 3 35 119 36 4 37 118 38 18 39 19 40 20 41 27 42 21 43
REMARK SMILES IDX 22 44 26 45 23 47 25 48 24 49 39 50 40 51 41 52 42 53 43 54
REMARK SMILES IDX 44 55 45 56 46 57 47 58 48 59 49 60 50 61 111 62 51 63
REMARK SMILES IDX 110 64 52 65 53 66 54 67 104 68 55 69 109 70 103 71 105 72
REMARK SMILES IDX 56 73 108 74 102 75 101 76 57 78 89 79 69 80 88 81 70 82
REMARK SMILES IDX 73 83 87 84 106 85 71 86 72 87 86 89 107 90 74 91 58 92
REMARK SMILES IDX 59 93 67 94 60 95 66 96 68 97 65 98 61 99 62 100 63 101
REMARK SMILES IDX 64 102 90 103 91 104 99 105 92 106 98 107 100 108 97 109
REMARK SMILES IDX 93 110 94 111 95 112 96 113 75 114 76 115 84 116 77 117
REMARK SMILES IDX 83 118 85 119 82 120 78 121 79 122 80 123 81 124
REMARK H PARENT 30 12 16 17 21 46 105 77 73 88
REMARK Flexibility Score: inf
ROOT
ATOM      1  C   UNL A   1      38.149  28.973  30.063  1.00  0.00     0.188 C 
ENDROOT
BRANCH   1   2
ATOM      2  O   UNL A   1      37.653  28.340  31.214  1.00  0.00    -0.376 OA
BRANCH   2   3
ATOM      3  C   UNL A   1      38.680  27.860  32.027  1.00  0.00     0.202 C 
BRANCH   3   4
ATOM      4  C   UNL A   1      39.978  28.675  32.105  1.00  0.00     0.261 C 
BRANCH   4   5
ATOM      5  O   UNL A   1      39.909  29.835  32.936  1.00  0.00    -0.462 OA
BRANCH   5   6
ATOM      6  C   UNL A   1      40.254  29.711  34.235  1.00  0.00     0.325 C 
ATOM      7  O   UNL A   1      39.496  29.782  35.196  1.00  0.00    -0.250 OA
BRANCH   6   8
ATOM      8  C   UNL A   1      41.727  29.689  34.429  1.00  0.00     0.238 C 
BRANCH   8   9
ATOM      9  N   UNL A   1      42.138  30.219  35.700  1.00  0.00    -0.343 N 
ATOM     10  C   UNL A   1      42.977  29.688  36.623  1.00  0.00     0.243 C 
ATOM     11  O   UNL A   1      43.278  30.456  37.543  1.00  0.00    -0.273 OA
ATOM     12  H   UNL A   1      41.755  31.094  35.935  1.00  0.00     0.164 HD
BRANCH  10  13
ATOM     13  C   UNL A   1      43.521  28.210  36.598  1.00  0.00     0.176 C 
BRANCH  13  14
ATOM     14  N   UNL A   1      44.720  27.933  35.661  1.00  0.00    -0.337 N 
ATOM     15  C   UNL A   1      46.095  28.270  35.501  1.00  0.00     0.293 C 
ATOM     16  O   UNL A   1      46.676  27.756  34.545  1.00  0.00    -0.265 OA
ATOM     17  H   UNL A   1      44.442  27.326  34.937  1.00  0.00     0.164 HD
BRANCH  15  18
ATOM     18  C   UNL A   1      46.875  29.213  36.467  1.00  0.00     0.252 C 
ATOM     19  O   UNL A   1      47.296  28.593  37.428  1.00  0.00    -0.283 OA
BRANCH  18  20
ATOM     20  C   UNL A   1      47.155  30.699  36.422  1.00  0.00     0.054 A 
ATOM     21  N   UNL A   1      46.735  33.048  36.392  1.00  0.00    -0.240 N 
ATOM     22  C   UNL A   1      46.318  31.756  36.825  1.00  0.00     0.117 A 
ATOM     23  C   UNL A   1      48.087  33.099  36.071  1.00  0.00     0.065 A 
ATOM     24  C   UNL A   1      48.302  31.376  35.688  1.00  0.00     0.012 A 
ATOM     25  C   UNL A   1      48.965  34.368  35.130  1.00  0.00     0.028 A 
ATOM     26  C   UNL A   1      49.264  30.994  34.139  1.00  0.00     0.011 A 
ATOM     27  C   UNL A   1      50.121  33.946  33.729  1.00  0.00     0.002 A 
ATOM     28  C   UNL A   1      50.243  32.253  33.201  1.00  0.00     0.001 A 
BRANCH  21  29
ATOM     29  S   UNL A   1      45.595  34.342  36.203  1.00  0.00     0.268 S 
ATOM     30  O   UNL A   1      44.323  33.648  36.322  1.00  0.00    -0.201 OA
ATOM     31  O   UNL A   1      46.050  35.229  37.266  1.00  0.00    -0.201 OA
BRANCH  29  32
ATOM     32  C   UNL A   1      45.363  35.475  34.816  1.00  0.00     0.088 A 
ATOM     33  C   UNL A   1      43.988  38.427  31.910  1.00  0.00     0.044 C 
ATOM     34  C   UNL A   1      44.455  37.394  32.890  1.00  0.00    -0.051 A 
ATOM     35  C   UNL A   1      45.802  37.283  33.223  1.00  0.00     0.005 A 
ATOM     36  C   UNL A   1      43.568  36.484  33.454  1.00  0.00     0.005 A 
ATOM     37  C   UNL A   1      46.242  36.317  34.154  1.00  0.00     0.022 A 
ATOM     38  C   UNL A   1      44.019  35.539  34.388  1.00  0.00     0.022 A 
ENDBRANCH  29  32
ENDBRANCH  21  29
ENDBRANCH  18  20
ENDBRANCH  15  18
ENDBRANCH  13  14
BRANCH  13  39
ATOM     39  C   UNL A   1      42.419  27.143  36.602  1.00  0.00     0.072 C 
BRANCH  39  40
ATOM     40  C   UNL A   1      42.408  25.851  35.802  1.00  0.00    -0.020 A 
ATOM     41  C   UNL A   1      41.664  24.765  36.253  1.00  0.00     0.087 A 
ATOM     42  C   UNL A   1      43.088  25.371  34.629  1.00  0.00     0.003 A 
ATOM     43  N   UNL A   1      42.106  23.637  35.624  1.00  0.00    -0.361 N 
ATOM     44  C   UNL A   1      43.005  23.972  34.652  1.00  0.00     0.046 A 
ATOM     45  C   UNL A   1      43.834  25.940  33.581  1.00  0.00     0.010 A 
ATOM     46  H   UNL A   1      41.821  22.721  35.840  1.00  0.00     0.166 HD
ATOM     47  C   UNL A   1      43.763  23.133  33.827  1.00  0.00     0.026 A 
ATOM     48  C   UNL A   1      44.504  25.113  32.664  1.00  0.00     0.001 A 
ATOM     49  C   UNL A   1      44.509  23.731  32.818  1.00  0.00     0.002 A 
ENDBRANCH  39  40
ENDBRANCH  13  39
ENDBRANCH  10  13
ENDBRANCH   8   9
ENDBRANCH   6   8
ENDBRANCH   5   6
ENDBRANCH   4   5
ENDBRANCH   3   4
ENDBRANCH   2   3
ENDBRANCH   1   2
BRANCH   1  50
ATOM     50  C   UNL A   1      37.843  30.488  29.908  1.00  0.00     0.188 C 
BRANCH  50  51
ATOM     51  O   UNL A   1      36.593  31.069  30.238  1.00  0.00    -0.377 OA
BRANCH  51  52
ATOM     52  C   UNL A   1      36.053  32.346  29.879  1.00  0.00     0.188 C 
BRANCH  52  53
ATOM     53  C   UNL A   1      36.369  32.959  28.533  1.00  0.00     0.188 C 
BRANCH  53  54
ATOM     54  O   UNL A   1      37.721  33.430  28.521  1.00  0.00    -0.376 OA
BRANCH  54  55
ATOM     55  C   UNL A   1      38.044  34.211  29.659  1.00  0.00     0.202 C 
BRANCH  55  56
ATOM     56  C   UNL A   1      39.565  34.195  29.842  1.00  0.00     0.261 C 
BRANCH  56  57
ATOM     57  O   UNL A   1      39.858  33.099  30.784  1.00  0.00    -0.460 OA
BRANCH  57  58
ATOM     58  C   UNL A   1      41.078  33.005  31.412  1.00  0.00     0.338 C 
ATOM     59  O   UNL A   1      41.512  33.850  32.179  1.00  0.00    -0.246 OA
BRANCH  58  60
ATOM     60  C   UNL A   1      41.865  31.761  31.017  1.00  0.00     0.060 A 
ATOM     61  C   UNL A   1      42.932  31.250  31.793  1.00  0.00     0.016 A 
ATOM     62  C   UNL A   1      41.703  31.237  29.746  1.00  0.00     0.016 A 
ATOM     63  C   UNL A   1      43.904  30.365  31.242  1.00  0.00     0.010 A 
ATOM     64  C   UNL A   1      42.727  30.484  29.179  1.00  0.00     0.010 A 
ATOM     65  C   UNL A   1      43.869  30.049  29.886  1.00  0.00    -0.014 A 
BRANCH  65  66
ATOM     66  C   UNL A   1      44.981  29.477  29.013  1.00  0.00     0.031 A 
ATOM     67  C   UNL A   1      44.755  27.964  28.666  1.00  0.00     0.074 A 
ATOM     68  C   UNL A   1      45.727  30.446  28.381  1.00  0.00     0.049 A 
ATOM     69  N   UNL A   1      45.096  27.270  27.632  1.00  0.00    -0.248 NA
ATOM     70  C   UNL A   1      43.993  27.092  29.603  1.00  0.00     0.031 C 
ATOM     71  C   UNL A   1      46.259  30.632  27.028  1.00  0.00     0.029 A 
ATOM     72  N   UNL A   1      46.100  31.676  28.883  1.00  0.00    -0.354 N 
ATOM     73  C   UNL A   1      44.617  25.940  27.740  1.00  0.00     0.074 A 
ATOM     74  C   UNL A   1      43.851  25.929  28.949  1.00  0.00     0.031 C 
ATOM     75  C   UNL A   1      47.209  31.562  26.921  1.00  0.00     0.029 A 
ATOM     76  C   UNL A   1      47.244  32.120  28.193  1.00  0.00     0.049 A 
ATOM     77  H   UNL A   1      45.642  32.162  29.606  1.00  0.00     0.167 HD
ATOM     78  C   UNL A   1      44.920  24.998  26.784  1.00  0.00     0.034 A 
ATOM     79  C   UNL A   1      48.307  32.785  28.650  1.00  0.00     0.034 A 
ATOM     80  C   UNL A   1      45.932  25.569  25.959  1.00  0.00     0.049 A 
ATOM     81  C   UNL A   1      49.292  31.409  28.442  1.00  0.00     0.074 A 
ATOM     82  C   UNL A   1      45.798  26.296  24.842  1.00  0.00     0.029 A 
ATOM     83  N   UNL A   1      47.212  25.640  26.443  1.00  0.00    -0.354 N 
ATOM     84  N   UNL A   1      48.985  30.098  28.483  1.00  0.00    -0.248 NA
ATOM     85  C   UNL A   1      50.530  31.575  27.640  1.00  0.00     0.031 C 
ATOM     86  C   UNL A   1      46.887  27.157  24.956  1.00  0.00     0.029 A 
ATOM     87  C   UNL A   1      48.002  26.925  26.083  1.00  0.00     0.049 A 
ATOM     88  H   UNL A   1      47.607  24.919  26.986  1.00  0.00     0.167 HD
ATOM     89  C   UNL A   1      49.829  29.296  27.559  1.00  0.00     0.074 A 
ATOM     90  C   UNL A   1      50.725  30.372  27.056  1.00  0.00     0.031 C 
ATOM     91  C   UNL A   1      49.653  27.881  26.849  1.00  0.00     0.034 A 
BRANCH  78  92
ATOM     92  C   UNL A   1      44.427  23.613  26.361  1.00  0.00     0.023 A 
ATOM     93  C   UNL A   1      43.079  23.251  26.705  1.00  0.00     0.031 A 
ATOM     94  C   UNL A   1      45.166  22.602  25.744  1.00  0.00     0.131 A 
ATOM     95  C   UNL A   1      42.535  21.978  26.461  1.00  0.00     0.055 A 
ATOM     96  C   UNL A   1      44.614  21.328  25.476  1.00  0.00     0.041 A 
ATOM     97  F   UNL A   1      46.444  22.792  25.390  1.00  0.00    -0.206 F 
ATOM     98  C   UNL A   1      43.303  21.011  25.836  1.00  0.00     0.022 A 
BRANCH  95  99
ATOM     99  S   UNL A   1      40.878  21.505  27.066  1.00  0.00     0.124 S 
ATOM    100  O   UNL A   1      40.733  22.246  28.313  1.00  0.00    -0.237 OA
ATOM    101  O   UNL A   1      40.017  21.918  25.962  1.00  0.00    -0.237 OA
ATOM    102  O   UNL A   1      41.006  20.057  27.227  1.00  0.00    -0.744 OA
ENDBRANCH  95  99
ENDBRANCH  78  92
BRANCH  79 103
ATOM    103  C   UNL A   1      47.391  33.777  29.464  1.00  0.00     0.023 A 
ATOM    104  C   UNL A   1      46.506  34.682  28.665  1.00  0.00     0.031 A 
ATOM    105  C   UNL A   1      46.899  33.549  30.753  1.00  0.00     0.131 A 
ATOM    106  C   UNL A   1      45.261  35.213  29.117  1.00  0.00     0.055 A 
ATOM    107  C   UNL A   1      45.629  34.049  31.172  1.00  0.00     0.041 A 
ATOM    108  F   UNL A   1      47.489  32.643  31.543  1.00  0.00    -0.206 F 
ATOM    109  C   UNL A   1      44.802  34.844  30.365  1.00  0.00     0.022 A 
BRANCH 106 110
ATOM    110  S   UNL A   1      44.104  36.184  28.046  1.00  0.00     0.124 S 
ATOM    111  O   UNL A   1      44.460  35.707  26.714  1.00  0.00    -0.237 OA
ATOM    112  O   UNL A   1      42.792  35.818  28.555  1.00  0.00    -0.237 OA
ATOM    113  O   UNL A   1      44.473  37.576  28.322  1.00  0.00    -0.744 OA
ENDBRANCH 106 110
ENDBRANCH  79 103
BRANCH  91 114
ATOM    114  C   UNL A   1      51.257  27.192  27.479  1.00  0.00     0.023 A 
ATOM    115  C   UNL A   1      51.506  27.045  28.857  1.00  0.00     0.031 A 
ATOM    116  C   UNL A   1      52.419  26.650  26.743  1.00  0.00     0.131 A 
ATOM    117  C   UNL A   1      52.760  26.662  29.400  1.00  0.00     0.055 A 
ATOM    118  C   UNL A   1      53.670  26.321  27.272  1.00  0.00     0.041 A 
ATOM    119  F   UNL A   1      52.443  26.330  25.430  1.00  0.00    -0.206 F 
ATOM    120  C   UNL A   1      53.863  26.366  28.618  1.00  0.00     0.022 A 
BRANCH 117 121
ATOM    121  S   UNL A   1      52.898  26.508  31.193  1.00  0.00     0.124 S 
ATOM    122  O   UNL A   1      54.022  25.587  31.331  1.00  0.00    -0.237 OA
ATOM    123  O   UNL A   1      53.145  27.887  31.601  1.00  0.00    -0.237 OA
ATOM    124  O   UNL A   1      51.598  25.969  31.588  1.00  0.00    -0.744 OA
ENDBRANCH 117 121
ENDBRANCH  91 114
ENDBRANCH  65  66
ENDBRANCH  58  60
ENDBRANCH  57  58
ENDBRANCH  56  57
ENDBRANCH  55  56
ENDBRANCH  54  55
ENDBRANCH  53  54
ENDBRANCH  52  53
ENDBRANCH  51  52
ENDBRANCH  50  51
ENDBRANCH   1  50
TORSDOF 32
ENDMDL
MODEL 2
REMARK VINA RESULT:      -6.1      5.279     11.470
REMARK SMILES Cc1ccc(S(=O)(=O)n2cc(C(=O)C(=O)N[C@H](Cc3c[nH]c4ccccc34)C(=O)NCC(=O)OCCOCCOCCOCCOC(=O)c3ccc(-c4c5nc(c(-c6cc(S(=O)(=O)[O-])ccc6F)c6ccc([nH]6)c(-c6cc(S(=O)(=O)[O-])ccc6F)c6nc(c(-c7cc(S(=O)(=O)[O-])ccc7F)c7ccc4[nH]7)C=C6)C=C5)cc3)c3ccccc32)cc1
REMARK SMILES IDX 38 1 37 2 36 3 35 4 34 5 32 6 33 7 31 8 30 9 28 10 29 11
REMARK SMILES IDX 17 13 16 14 14 15 15 16 12 18 13 19 11 20 9 21 10 22 117 23
REMARK SMILES IDX 112 24 116 25 113 26 115 27 114 28 6 29 7 30 8 31 5 32 1 33
REMARK SMILES IDX 2 34 3 35 119 36 4 37 118 38 18 39 19 40 20 41 27 42 21 43
REMARK SMILES IDX 22 44 26 45 23 47 25 48 24 49 39 50 40 51 41 52 42 53 43 54
REMARK SMILES IDX 44 55 45 56 46 57 47 58 48 59 49 60 50 61 111 62 51 63
REMARK SMILES IDX 110 64 52 65 53 66 54 67 104 68 55 69 109 70 103 71 105 72
REMARK SMILES IDX 56 73 108 74 102 75 101 76 57 78 89 79 69 80 88 81 70 82
REMARK SMILES IDX 73 83 87 84 106 85 71 86 72 87 86 89 107 90 74 91 58 92
REMARK SMILES IDX 59 93 67 94 60 95 66 96 68 97 65 98 61 99 62 100 63 101
REMARK SMILES IDX 64 102 90 103 91 104 99 105 92 106 98 107 100 108 97 109
REMARK SMILES IDX 93 110 94 111 95 112 96 113 75 114 76 115 84 116 77 117
REMARK SMILES IDX 83 118 85 119 82 120 78 121 79 122 80 123 81 124
REMARK H PARENT 30 12 16 17 21 46 105 77 73 88
REMARK Flexibility Score: inf
ROOT
ATOM      1  C   UNL A   1      43.315  38.472  38.861  1.00  0.00     0.188 C 
ENDROOT
BRANCH   1   2
ATOM      2  O   UNL A   1      44.422  39.299  38.610  1.00  0.00    -0.376 OA
BRANCH   2   3
ATOM      3  C   UNL A   1      44.118  40.646  38.804  1.00  0.00     0.202 C 
BRANCH   3   4
ATOM      4  C   UNL A   1      44.876  41.686  37.967  1.00  0.00     0.261 C 
BRANCH   4   5
ATOM      5  O   UNL A   1      44.058  42.461  37.090  1.00  0.00    -0.462 OA
BRANCH   5   6
ATOM      6  C   UNL A   1      44.414  42.543  35.790  1.00  0.00     0.325 C 
ATOM      7  O   UNL A   1      44.747  43.560  35.192  1.00  0.00    -0.250 OA
BRANCH   6   8
ATOM      8  C   UNL A   1      44.155  41.278  35.054  1.00  0.00     0.238 C 
BRANCH   8   9
ATOM      9  N   UNL A   1      43.747  41.489  33.692  1.00  0.00    -0.343 N 
ATOM     10  C   UNL A   1      44.416  41.229  32.542  1.00  0.00     0.243 C 
ATOM     11  O   UNL A   1      43.739  41.353  31.516  1.00  0.00    -0.273 OA
ATOM     12  H   UNL A   1      42.851  41.880  33.577  1.00  0.00     0.164 HD
BRANCH  10  13
ATOM     13  C   UNL A   1      45.939  40.837  32.458  1.00  0.00     0.176 C 
BRANCH  13  14
ATOM     14  N   UNL A   1      46.795  41.617  31.431  1.00  0.00    -0.337 N 
ATOM     15  C   UNL A   1      47.127  41.614  30.045  1.00  0.00     0.293 C 
ATOM     16  O   UNL A   1      47.892  42.502  29.666  1.00  0.00    -0.265 OA
ATOM     17  H   UNL A   1      47.265  42.354  31.883  1.00  0.00     0.164 HD
BRANCH  15  18
ATOM     18  C   UNL A   1      46.565  40.584  29.020  1.00  0.00     0.252 C 
ATOM     19  O   UNL A   1      46.919  39.453  29.307  1.00  0.00    -0.283 OA
BRANCH  18  20
ATOM     20  C   UNL A   1      45.718  40.753  27.778  1.00  0.00     0.054 A 
ATOM     21  N   UNL A   1      44.948  41.663  25.710  1.00  0.00    -0.240 N 
ATOM     22  C   UNL A   1      46.048  41.419  26.583  1.00  0.00     0.117 A 
ATOM     23  C   UNL A   1      43.869  40.819  25.952  1.00  0.00     0.065 A 
ATOM     24  C   UNL A   1      44.231  40.461  27.657  1.00  0.00     0.012 A 
ATOM     25  C   UNL A   1      42.161  40.999  25.391  1.00  0.00     0.028 A 
ATOM     26  C   UNL A   1      42.788  40.534  28.833  1.00  0.00     0.011 A 
ATOM     27  C   UNL A   1      40.710  40.826  26.550  1.00  0.00     0.002 A 
ATOM     28  C   UNL A   1      41.022  40.632  28.289  1.00  0.00     0.001 A 
BRANCH  21  29
ATOM     29  S   UNL A   1      44.981  42.968  24.568  1.00  0.00     0.268 S 
ATOM     30  O   UNL A   1      44.729  44.123  25.415  1.00  0.00    -0.201 OA
ATOM     31  O   UNL A   1      46.302  42.756  23.990  1.00  0.00    -0.201 OA
BRANCH  29  32
ATOM     32  C   UNL A   1      43.953  43.245  23.110  1.00  0.00     0.088 A 
ATOM     33  C   UNL A   1      41.992  43.217  19.210  1.00  0.00     0.044 C 
ATOM     34  C   UNL A   1      42.677  43.250  20.543  1.00  0.00    -0.051 A 
ATOM     35  C   UNL A   1      41.952  43.462  21.712  1.00  0.00     0.005 A 
ATOM     36  C   UNL A   1      44.058  43.122  20.646  1.00  0.00     0.005 A 
ATOM     37  C   UNL A   1      42.595  43.484  22.969  1.00  0.00     0.022 A 
ATOM     38  C   UNL A   1      44.679  43.133  21.905  1.00  0.00     0.022 A 
ENDBRANCH  29  32
ENDBRANCH  21  29
ENDBRANCH  18  20
ENDBRANCH  15  18
ENDBRANCH  13  14
BRANCH  13  39
ATOM     39  C   UNL A   1      46.197  39.326  32.529  1.00  0.00     0.072 C 
BRANCH  39  40
ATOM     40  C   UNL A   1      45.146  38.232  32.591  1.00  0.00    -0.020 A 
ATOM     41  C   UNL A   1      44.833  37.642  33.811  1.00  0.00     0.087 A 
ATOM     42  C   UNL A   1      44.362  37.513  31.622  1.00  0.00     0.003 A 
ATOM     43  N   UNL A   1      44.189  36.461  33.577  1.00  0.00    -0.361 N 
ATOM     44  C   UNL A   1      43.921  36.337  32.244  1.00  0.00     0.046 A 
ATOM     45  C   UNL A   1      44.028  37.669  30.264  1.00  0.00     0.010 A 
ATOM     46  H   UNL A   1      43.954  35.799  34.266  1.00  0.00     0.166 HD
ATOM     47  C   UNL A   1      43.354  35.257  31.557  1.00  0.00     0.026 A 
ATOM     48  C   UNL A   1      43.347  36.646  29.584  1.00  0.00     0.001 A 
ATOM     49  C   UNL A   1      43.061  35.438  30.210  1.00  0.00     0.002 A 
ENDBRANCH  39  40
ENDBRANCH  13  39
ENDBRANCH  10  13
ENDBRANCH   8   9
ENDBRANCH   6   8
ENDBRANCH   5   6
ENDBRANCH   4   5
ENDBRANCH   3   4
ENDBRANCH   2   3
ENDBRANCH   1   2
BRANCH   1  50
ATOM     50  C   UNL A   1      42.307  38.958  39.940  1.00  0.00     0.188 C 
BRANCH  50  51
ATOM     51  O   UNL A   1      42.086  38.277  41.164  1.00  0.00    -0.377 OA
BRANCH  51  52
ATOM     52  C   UNL A   1      40.875  38.096  41.904  1.00  0.00     0.188 C 
BRANCH  52  53
ATOM     53  C   UNL A   1      39.987  36.900  41.638  1.00  0.00     0.188 C 
BRANCH  53  54
ATOM     54  O   UNL A   1      40.557  36.097  40.600  1.00  0.00    -0.376 OA
BRANCH  54  55
ATOM     55  C   UNL A   1      39.580  35.498  39.765  1.00  0.00     0.202 C 
BRANCH  55  56
ATOM     56  C   UNL A   1      39.631  36.179  38.393  1.00  0.00     0.261 C 
BRANCH  56  57
ATOM     57  O   UNL A   1      39.690  35.097  37.394  1.00  0.00    -0.460 OA
BRANCH  57  58
ATOM     58  C   UNL A   1      39.671  35.369  36.045  1.00  0.00     0.338 C 
ATOM     59  O   UNL A   1      39.656  36.498  35.582  1.00  0.00    -0.246 OA
BRANCH  58  60
ATOM     60  C   UNL A   1      39.620  34.116  35.180  1.00  0.00     0.060 A 
ATOM     61  C   UNL A   1      39.045  32.901  35.623  1.00  0.00     0.016 A 
ATOM     62  C   UNL A   1      40.362  34.072  34.012  1.00  0.00     0.016 A 
ATOM     63  C   UNL A   1      39.351  31.655  35.002  1.00  0.00     0.010 A 
ATOM     64  C   UNL A   1      40.760  32.841  33.498  1.00  0.00     0.010 A 
ATOM     65  C   UNL A   1      40.301  31.599  33.985  1.00  0.00    -0.014 A 
BRANCH  65  66
ATOM     66  C   UNL A   1      41.066  30.386  33.464  1.00  0.00     0.031 A 
ATOM     67  C   UNL A   1      42.389  30.121  34.264  1.00  0.00     0.074 A 
ATOM     68  C   UNL A   1      40.292  29.545  32.697  1.00  0.00     0.049 A 
ATOM     69  N   UNL A   1      43.020  29.024  34.522  1.00  0.00    -0.248 NA
ATOM     70  C   UNL A   1      43.103  31.254  34.917  1.00  0.00     0.031 C 
ATOM     71  C   UNL A   1      40.109  28.094  32.605  1.00  0.00     0.029 A 
ATOM     72  N   UNL A   1      39.300  29.901  31.806  1.00  0.00    -0.354 N 
ATOM     73  C   UNL A   1      44.151  29.277  35.339  1.00  0.00     0.074 A 
ATOM     74  C   UNL A   1      44.083  30.677  35.630  1.00  0.00     0.031 C 
ATOM     75  C   UNL A   1      39.497  27.674  31.497  1.00  0.00     0.029 A 
ATOM     76  C   UNL A   1      39.135  28.861  30.872  1.00  0.00     0.049 A 
ATOM     77  H   UNL A   1      38.792  30.744  31.821  1.00  0.00     0.167 HD
ATOM     78  C   UNL A   1      45.016  28.264  35.685  1.00  0.00     0.034 A 
ATOM     79  C   UNL A   1      38.877  28.927  29.564  1.00  0.00     0.034 A 
ATOM     80  C   UNL A   1      44.675  27.145  34.870  1.00  0.00     0.049 A 
ATOM     81  C   UNL A   1      40.446  28.372  29.198  1.00  0.00     0.074 A 
ATOM     82  C   UNL A   1      43.809  26.154  35.121  1.00  0.00     0.029 A 
ATOM     83  N   UNL A   1      45.047  27.153  33.552  1.00  0.00    -0.354 N 
ATOM     84  N   UNL A   1      41.602  28.502  29.878  1.00  0.00    -0.248 NA
ATOM     85  C   UNL A   1      40.559  27.191  28.306  1.00  0.00     0.031 C 
ATOM     86  C   UNL A   1      43.332  25.891  33.839  1.00  0.00     0.029 A 
ATOM     87  C   UNL A   1      44.020  26.556  32.554  1.00  0.00     0.049 A 
ATOM     88  H   UNL A   1      45.914  27.515  33.255  1.00  0.00     0.167 HD
ATOM     89  C   UNL A   1      42.499  27.332  29.687  1.00  0.00     0.074 A 
ATOM     90  C   UNL A   1      41.684  26.561  28.710  1.00  0.00     0.031 C 
ATOM     91  C   UNL A   1      43.699  26.711  30.529  1.00  0.00     0.034 A 
BRANCH  78  92
ATOM     92  C   UNL A   1      46.129  28.022  36.705  1.00  0.00     0.023 A 
ATOM     93  C   UNL A   1      45.821  28.241  38.092  1.00  0.00     0.031 A 
ATOM     94  C   UNL A   1      47.460  27.691  36.446  1.00  0.00     0.131 A 
ATOM     95  C   UNL A   1      46.776  28.148  39.119  1.00  0.00     0.055 A 
ATOM     96  C   UNL A   1      48.418  27.574  37.480  1.00  0.00     0.041 A 
ATOM     97  F   UNL A   1      47.894  27.483  35.195  1.00  0.00    -0.206 F 
ATOM     98  C   UNL A   1      48.082  27.805  38.815  1.00  0.00     0.022 A 
BRANCH  95  99
ATOM     99  S   UNL A   1      46.384  28.599  40.845  1.00  0.00     0.124 S 
ATOM    100  O   UNL A   1      46.939  27.505  41.631  1.00  0.00    -0.237 OA
ATOM    101  O   UNL A   1      47.041  29.896  40.982  1.00  0.00    -0.237 OA
ATOM    102  O   UNL A   1      44.922  28.659  40.828  1.00  0.00    -0.744 OA
ENDBRANCH  95  99
ENDBRANCH  78  92
BRANCH  79 103
ATOM    103  C   UNL A   1      37.765  30.021  29.795  1.00  0.00     0.023 A 
ATOM    104  C   UNL A   1      38.230  31.357  30.287  1.00  0.00     0.031 A 
ATOM    105  C   UNL A   1      36.551  30.098  29.106  1.00  0.00     0.131 A 
ATOM    106  C   UNL A   1      37.566  32.594  30.037  1.00  0.00     0.055 A 
ATOM    107  C   UNL A   1      35.925  31.350  28.823  1.00  0.00     0.041 A 
ATOM    108  F   UNL A   1      36.075  29.020  28.470  1.00  0.00    -0.206 F 
ATOM    109  C   UNL A   1      36.431  32.586  29.252  1.00  0.00     0.022 A 
BRANCH 106 110
ATOM    110  S   UNL A   1      38.254  34.248  30.505  1.00  0.00     0.124 S 
ATOM    111  O   UNL A   1      37.625  34.476  31.801  1.00  0.00    -0.237 OA
ATOM    112  O   UNL A   1      39.692  34.026  30.495  1.00  0.00    -0.237 OA
ATOM    113  O   UNL A   1      37.789  35.127  29.429  1.00  0.00    -0.744 OA
ENDBRANCH 106 110
ENDBRANCH  79 103
BRANCH  91 114
ATOM    114  C   UNL A   1      44.905  26.734  29.119  1.00  0.00     0.023 A 
ATOM    115  C   UNL A   1      45.153  27.906  28.380  1.00  0.00     0.031 A 
ATOM    116  C   UNL A   1      45.799  25.672  28.608  1.00  0.00     0.131 A 
ATOM    117  C   UNL A   1      45.951  27.950  27.206  1.00  0.00     0.055 A 
ATOM    118  C   UNL A   1      46.544  25.698  27.427  1.00  0.00     0.041 A 
ATOM    119  F   UNL A   1      46.084  24.510  29.236  1.00  0.00    -0.206 F 
ATOM    120  C   UNL A   1      46.591  26.839  26.687  1.00  0.00     0.022 A 
BRANCH 117 121
ATOM    121  S   UNL A   1      46.174  29.545  26.390  1.00  0.00     0.124 S 
ATOM    122  O   UNL A   1      47.208  30.162  27.215  1.00  0.00    -0.237 OA
ATOM    123  O   UNL A   1      46.577  29.147  25.046  1.00  0.00    -0.237 OA
ATOM    124  O   UNL A   1      44.851  30.160  26.483  1.00  0.00    -0.744 OA
ENDBRANCH 117 121
ENDBRANCH  91 114
ENDBRANCH  65  66
ENDBRANCH  58  60
ENDBRANCH  57  58
ENDBRANCH  56  57
ENDBRANCH  55  56
ENDBRANCH  54  55
ENDBRANCH  53  54
ENDBRANCH  52  53
ENDBRANCH  51  52
ENDBRANCH  50  51
ENDBRANCH   1  50
TORSDOF 32
ENDMDL
MODEL 3
REMARK VINA RESULT:      -5.8      3.414      4.702
REMARK SMILES Cc1ccc(S(=O)(=O)n2cc(C(=O)C(=O)N[C@H](Cc3c[nH]c4ccccc34)C(=O)NCC(=O)OCCOCCOCCOCCOC(=O)c3ccc(-c4c5nc(c(-c6cc(S(=O)(=O)[O-])ccc6F)c6ccc([nH]6)c(-c6cc(S(=O)(=O)[O-])ccc6F)c6nc(c(-c7cc(S(=O)(=O)[O-])ccc7F)c7ccc4[nH]7)C=C6)C=C5)cc3)c3ccccc32)cc1
REMARK SMILES IDX 38 1 37 2 36 3 35 4 34 5 32 6 33 7 31 8 30 9 28 10 29 11
REMARK SMILES IDX 17 13 16 14 14 15 15 16 12 18 13 19 11 20 9 21 10 22 117 23
REMARK SMILES IDX 112 24 116 25 113 26 115 27 114 28 6 29 7 30 8 31 5 32 1 33
REMARK SMILES IDX 2 34 3 35 119 36 4 37 118 38 18 39 19 40 20 41 27 42 21 43
REMARK SMILES IDX 22 44 26 45 23 47 25 48 24 49 39 50 40 51 41 52 42 53 43 54
REMARK SMILES IDX 44 55 45 56 46 57 47 58 48 59 49 60 50 61 111 62 51 63
REMARK SMILES IDX 110 64 52 65 53 66 54 67 104 68 55 69 109 70 103 71 105 72
REMARK SMILES IDX 56 73 108 74 102 75 101 76 57 78 89 79 69 80 88 81 70 82
REMARK SMILES IDX 73 83 87 84 106 85 71 86 72 87 86 89 107 90 74 91 58 92
REMARK SMILES IDX 59 93 67 94 60 95 66 96 68 97 65 98 61 99 62 100 63 101
REMARK SMILES IDX 64 102 90 103 91 104 99 105 92 106 98 107 100 108 97 109
REMARK SMILES IDX 93 110 94 111 95 112 96 113 75 114 76 115 84 116 77 117
REMARK SMILES IDX 83 118 85 119 82 120 78 121 79 122 80 123 81 124
REMARK H PARENT 30 12 16 17 21 46 105 77 73 88
REMARK Flexibility Score: inf
ROOT
ATOM      1  C   UNL A   1      38.320  29.569  30.068  1.00  0.00     0.188 C 
ENDROOT
BRANCH   1   2
ATOM      2  O   UNL A   1      37.990  28.827  31.214  1.00  0.00    -0.376 OA
BRANCH   2   3
ATOM      3  C   UNL A   1      39.081  28.106  31.697  1.00  0.00     0.202 C 
BRANCH   3   4
ATOM      4  C   UNL A   1      40.459  28.781  31.677  1.00  0.00     0.261 C 
BRANCH   4   5
ATOM      5  O   UNL A   1      40.711  29.662  32.773  1.00  0.00    -0.462 OA
BRANCH   5   6
ATOM      6  C   UNL A   1      41.242  29.143  33.900  1.00  0.00     0.325 C 
ATOM      7  O   UNL A   1      40.623  28.797  34.900  1.00  0.00    -0.250 OA
BRANCH   6   8
ATOM      8  C   UNL A   1      42.726  29.224  33.914  1.00  0.00     0.238 C 
BRANCH   8   9
ATOM      9  N   UNL A   1      43.235  30.105  34.929  1.00  0.00    -0.343 N 
ATOM     10  C   UNL A   1      43.963  29.814  36.035  1.00  0.00     0.243 C 
ATOM     11  O   UNL A   1      44.408  30.802  36.630  1.00  0.00    -0.273 OA
ATOM     12  H   UNL A   1      43.024  31.058  34.805  1.00  0.00     0.164 HD
BRANCH  10  13
ATOM     13  C   UNL A   1      44.220  28.360  36.585  1.00  0.00     0.176 C 
BRANCH  13  14
ATOM     14  N   UNL A   1      45.513  27.660  36.104  1.00  0.00    -0.337 N 
ATOM     15  C   UNL A   1      46.551  26.811  36.586  1.00  0.00     0.293 C 
ATOM     16  O   UNL A   1      47.415  26.488  35.769  1.00  0.00    -0.265 OA
ATOM     17  H   UNL A   1      45.672  27.872  35.156  1.00  0.00     0.164 HD
BRANCH  15  18
ATOM     18  C   UNL A   1      46.624  26.273  38.047  1.00  0.00     0.252 C 
ATOM     19  O   UNL A   1      46.953  25.100  38.059  1.00  0.00    -0.283 OA
BRANCH  18  20
ATOM     20  C   UNL A   1      46.340  26.930  39.380  1.00  0.00     0.054 A 
ATOM     21  N   UNL A   1      45.619  28.581  40.946  1.00  0.00    -0.240 N 
ATOM     22  C   UNL A   1      45.456  27.988  39.660  1.00  0.00     0.117 A 
ATOM     23  C   UNL A   1      46.268  27.745  41.847  1.00  0.00     0.065 A 
ATOM     24  C   UNL A   1      47.145  26.755  40.658  1.00  0.00     0.012 A 
ATOM     25  C   UNL A   1      47.032  28.180  43.426  1.00  0.00     0.028 A 
ATOM     26  C   UNL A   1      48.939  26.423  41.033  1.00  0.00     0.011 A 
ATOM     27  C   UNL A   1      48.753  27.628  43.884  1.00  0.00     0.002 A 
ATOM     28  C   UNL A   1      49.731  26.778  42.668  1.00  0.00     0.001 A 
BRANCH  21  29
ATOM     29  S   UNL A   1      45.137  30.221  41.245  1.00  0.00     0.268 S 
ATOM     30  O   UNL A   1      46.413  30.918  41.257  1.00  0.00    -0.201 OA
ATOM     31  O   UNL A   1      44.208  30.410  40.139  1.00  0.00    -0.201 OA
BRANCH  29  32
ATOM     32  C   UNL A   1      44.232  30.914  42.645  1.00  0.00     0.088 A 
ATOM     33  C   UNL A   1      41.662  31.720  46.080  1.00  0.00     0.044 C 
ATOM     34  C   UNL A   1      42.528  31.458  44.885  1.00  0.00    -0.051 A 
ATOM     35  C   UNL A   1      43.805  32.007  44.796  1.00  0.00     0.005 A 
ATOM     36  C   UNL A   1      42.066  30.706  43.811  1.00  0.00     0.005 A 
ATOM     37  C   UNL A   1      44.626  31.753  43.676  1.00  0.00     0.022 A 
ATOM     38  C   UNL A   1      42.900  30.453  42.711  1.00  0.00     0.022 A 
ENDBRANCH  29  32
ENDBRANCH  21  29
ENDBRANCH  18  20
ENDBRANCH  15  18
ENDBRANCH  13  14
BRANCH  13  39
ATOM     39  C   UNL A   1      42.963  27.481  36.626  1.00  0.00     0.072 C 
BRANCH  39  40
ATOM     40  C   UNL A   1      42.815  26.088  36.039  1.00  0.00    -0.020 A 
ATOM     41  C   UNL A   1      42.163  25.097  36.766  1.00  0.00     0.087 A 
ATOM     42  C   UNL A   1      43.280  25.428  34.849  1.00  0.00     0.003 A 
ATOM     43  N   UNL A   1      42.490  23.880  36.242  1.00  0.00    -0.361 N 
ATOM     44  C   UNL A   1      43.205  24.049  35.090  1.00  0.00     0.046 A 
ATOM     45  C   UNL A   1      43.830  25.820  33.615  1.00  0.00     0.010 A 
ATOM     46  H   UNL A   1      42.249  23.011  36.635  1.00  0.00     0.166 HD
ATOM     47  C   UNL A   1      43.808  23.081  34.278  1.00  0.00     0.026 A 
ATOM     48  C   UNL A   1      44.331  24.854  32.727  1.00  0.00     0.001 A 
ATOM     49  C   UNL A   1      44.365  23.509  33.078  1.00  0.00     0.002 A 
ENDBRANCH  39  40
ENDBRANCH  13  39
ENDBRANCH  10  13
ENDBRANCH   8   9
ENDBRANCH   6   8
ENDBRANCH   5   6
ENDBRANCH   4   5
ENDBRANCH   3   4
ENDBRANCH   2   3
ENDBRANCH   1   2
BRANCH   1  50
ATOM     50  C   UNL A   1      38.156  31.112  30.160  1.00  0.00     0.188 C 
BRANCH  50  51
ATOM     51  O   UNL A   1      37.022  31.743  30.730  1.00  0.00    -0.377 OA
BRANCH  51  52
ATOM     52  C   UNL A   1      36.539  33.081  30.563  1.00  0.00     0.188 C 
BRANCH  52  53
ATOM     53  C   UNL A   1      36.751  33.814  29.258  1.00  0.00     0.188 C 
BRANCH  53  54
ATOM     54  O   UNL A   1      38.144  34.096  29.083  1.00  0.00    -0.376 OA
BRANCH  54  55
ATOM     55  C   UNL A   1      38.666  34.948  30.088  1.00  0.00     0.202 C 
BRANCH  55  56
ATOM     56  C   UNL A   1      40.186  34.759  30.142  1.00  0.00     0.261 C 
BRANCH  56  57
ATOM     57  O   UNL A   1      40.461  33.951  31.344  1.00  0.00    -0.460 OA
BRANCH  57  58
ATOM     58  C   UNL A   1      41.728  33.866  31.872  1.00  0.00     0.338 C 
ATOM     59  O   UNL A   1      42.240  34.743  32.549  1.00  0.00    -0.246 OA
BRANCH  58  60
ATOM     60  C   UNL A   1      42.457  32.585  31.485  1.00  0.00     0.060 A 
ATOM     61  C   UNL A   1      43.684  32.194  32.072  1.00  0.00     0.016 A 
ATOM     62  C   UNL A   1      42.047  31.889  30.361  1.00  0.00     0.016 A 
ATOM     63  C   UNL A   1      44.547  31.248  31.447  1.00  0.00     0.010 A 
ATOM     64  C   UNL A   1      42.954  31.072  29.691  1.00  0.00     0.010 A 
ATOM     65  C   UNL A   1      44.235  30.747  30.185  1.00  0.00    -0.014 A 
BRANCH  65  66
ATOM     66  C   UNL A   1      45.156  30.069  29.176  1.00  0.00     0.031 A 
ATOM     67  C   UNL A   1      44.795  28.558  28.955  1.00  0.00     0.074 A 
ATOM     68  C   UNL A   1      45.838  30.960  28.379  1.00  0.00     0.049 A 
ATOM     69  N   UNL A   1      44.922  27.798  27.918  1.00  0.00    -0.248 NA
ATOM     70  C   UNL A   1      44.152  27.779  30.049  1.00  0.00     0.031 C 
ATOM     71  C   UNL A   1      46.149  31.050  26.949  1.00  0.00     0.029 A 
ATOM     72  N   UNL A   1      46.354  32.185  28.746  1.00  0.00    -0.354 N 
ATOM     73  C   UNL A   1      44.397  26.506  28.177  1.00  0.00     0.074 A 
ATOM     74  C   UNL A   1      43.842  26.598  29.492  1.00  0.00     0.031 C 
ATOM     75  C   UNL A   1      47.116  31.914  26.638  1.00  0.00     0.029 A 
ATOM     76  C   UNL A   1      47.391  32.526  27.855  1.00  0.00     0.049 A 
ATOM     77  H   UNL A   1      46.049  32.732  29.505  1.00  0.00     0.167 HD
ATOM     78  C   UNL A   1      44.487  25.505  27.237  1.00  0.00     0.034 A 
ATOM     79  C   UNL A   1      48.549  33.144  28.097  1.00  0.00     0.034 A 
ATOM     80  C   UNL A   1      45.378  25.973  26.229  1.00  0.00     0.049 A 
ATOM     81  C   UNL A   1      49.410  31.702  27.807  1.00  0.00     0.074 A 
ATOM     82  C   UNL A   1      45.100  26.656  25.110  1.00  0.00     0.029 A 
ATOM     83  N   UNL A   1      46.722  25.987  26.494  1.00  0.00    -0.354 N 
ATOM     84  N   UNL A   1      49.045  30.415  27.970  1.00  0.00    -0.248 NA
ATOM     85  C   UNL A   1      50.506  31.754  26.808  1.00  0.00     0.031 C 
ATOM     86  C   UNL A   1      46.238  27.452  24.998  1.00  0.00     0.029 A 
ATOM     87  C   UNL A   1      47.510  27.203  25.940  1.00  0.00     0.049 A 
ATOM     88  H   UNL A   1      47.162  25.268  27.004  1.00  0.00     0.167 HD
ATOM     89  C   UNL A   1      49.680  29.521  26.967  1.00  0.00     0.074 A 
ATOM     90  C   UNL A   1      50.537  30.515  26.267  1.00  0.00     0.031 C 
ATOM     91  C   UNL A   1      49.314  28.089  26.374  1.00  0.00     0.034 A 
BRANCH  78  92
ATOM     92  C   UNL A   1      43.857  24.136  26.977  1.00  0.00     0.023 A 
ATOM     93  C   UNL A   1      44.630  23.177  26.234  1.00  0.00     0.031 A 
ATOM     94  C   UNL A   1      42.565  23.720  27.303  1.00  0.00     0.131 A 
ATOM     95  C   UNL A   1      44.134  21.920  25.846  1.00  0.00     0.055 A 
ATOM     96  C   UNL A   1      42.072  22.447  26.933  1.00  0.00     0.041 A 
ATOM     97  F   UNL A   1      41.726  24.521  27.973  1.00  0.00    -0.206 F 
ATOM     98  C   UNL A   1      42.850  21.547  26.203  1.00  0.00     0.022 A 
BRANCH  95  99
ATOM     99  S   UNL A   1      45.086  20.802  24.760  1.00  0.00     0.124 S 
ATOM    100  O   UNL A   1      44.601  21.114  23.421  1.00  0.00    -0.237 OA
ATOM    101  O   UNL A   1      46.464  21.182  25.056  1.00  0.00    -0.237 OA
ATOM    102  O   UNL A   1      44.700  19.481  25.257  1.00  0.00    -0.744 OA
ENDBRANCH  95  99
ENDBRANCH  78  92
BRANCH  79 103
ATOM    103  C   UNL A   1      47.834  34.226  28.993  1.00  0.00     0.023 A 
ATOM    104  C   UNL A   1      48.239  34.279  30.433  1.00  0.00     0.031 A 
ATOM    105  C   UNL A   1      47.323  35.445  28.535  1.00  0.00     0.131 A 
ATOM    106  C   UNL A   1      48.187  35.446  31.253  1.00  0.00     0.055 A 
ATOM    107  C   UNL A   1      47.324  36.615  29.354  1.00  0.00     0.041 A 
ATOM    108  F   UNL A   1      47.059  35.612  27.233  1.00  0.00    -0.206 F 
ATOM    109  C   UNL A   1      47.773  36.632  30.683  1.00  0.00     0.022 A 
BRANCH 106 110
ATOM    110  S   UNL A   1      48.859  35.527  32.976  1.00  0.00     0.124 S 
ATOM    111  O   UNL A   1      47.769  36.185  33.689  1.00  0.00    -0.237 OA
ATOM    112  O   UNL A   1      49.118  34.133  33.299  1.00  0.00    -0.237 OA
ATOM    113  O   UNL A   1      50.075  36.331  32.829  1.00  0.00    -0.744 OA
ENDBRANCH 106 110
ENDBRANCH  79 103
BRANCH  91 114
ATOM    114  C   UNL A   1      50.960  27.331  26.772  1.00  0.00     0.023 A 
ATOM    115  C   UNL A   1      51.877  26.988  25.761  1.00  0.00     0.031 A 
ATOM    116  C   UNL A   1      51.592  27.049  28.080  1.00  0.00     0.131 A 
ATOM    117  C   UNL A   1      53.084  26.277  25.993  1.00  0.00     0.055 A 
ATOM    118  C   UNL A   1      52.753  26.306  28.308  1.00  0.00     0.041 A 
ATOM    119  F   UNL A   1      51.172  27.515  29.277  1.00  0.00    -0.206 F 
ATOM    120  C   UNL A   1      53.493  25.874  27.252  1.00  0.00     0.022 A 
BRANCH 117 121
ATOM    121  S   UNL A   1      54.152  25.932  24.579  1.00  0.00     0.124 S 
ATOM    122  O   UNL A   1      55.029  27.099  24.573  1.00  0.00    -0.237 OA
ATOM    123  O   UNL A   1      54.769  24.667  24.962  1.00  0.00    -0.237 OA
ATOM    124  O   UNL A   1      53.215  25.850  23.460  1.00  0.00    -0.744 OA
ENDBRANCH 117 121
ENDBRANCH  91 114
ENDBRANCH  65  66
ENDBRANCH  58  60
ENDBRANCH  57  58
ENDBRANCH  56  57
ENDBRANCH  55  56
ENDBRANCH  54  55
ENDBRANCH  53  54
ENDBRANCH  52  53
ENDBRANCH  51  52
ENDBRANCH  50  51
ENDBRANCH   1  50
TORSDOF 32
ENDMDL
