MODEL 1
REMARK VINA RESULT:      -9.4      0.000      0.000
REMARK SMILES COc1ccc([C@@H](CC(=O)OCCOCCOCCOCCOC(=O)c2ccc(-c3c4nc(c(-c5cc(S(=O)(=O)[O-])ccc5F)c5ccc([nH]5)c(-c5cc(S(=O)(=O)[O-])ccc5F)c5nc(c(-c6cc(S(=O)(=O)[O-])ccc6F)c6ccc3[nH]6)C=C5)C=C4)cc2)NC(=O)c2ccc(Cl)c([N+](=O)[O-])c2)cc1
REMARK SMILES IDX 16 1 15 2 14 3 13 4 12 5 11 6 9 7 10 8 8 9 7 10 6 11 3 12
REMARK SMILES IDX 4 13 103 14 5 15 102 16 2 17 1 18 89 19 90 20 91 22 92 23
REMARK SMILES IDX 93 24 101 25 94 26 97 27 95 28 96 29 98 30 99 31 100 32
REMARK SMILES IDX 17 33 18 34 19 35 20 36 21 37 22 38 23 39 24 40 25 41 26 42
REMARK SMILES IDX 27 43 88 44 28 45 87 46 29 47 30 48 31 49 81 50 32 51 86 52
REMARK SMILES IDX 80 53 82 54 33 55 85 56 79 57 78 58 34 60 66 61 46 62 65 63
REMARK SMILES IDX 47 64 50 65 64 66 83 67 48 68 49 69 63 71 84 72 51 73 35 74
REMARK SMILES IDX 36 75 44 76 37 77 43 78 45 79 42 80 38 81 39 82 40 83 41 84
REMARK SMILES IDX 67 85 68 86 76 87 69 88 75 89 77 90 74 91 70 92 71 93 72 94
REMARK SMILES IDX 73 95 52 96 53 97 61 98 54 99 60 100 62 101 59 102 55 103
REMARK SMILES IDX 56 104 57 105 58 106
REMARK H PARENT 89 21 82 59 50 70
REMARK Flexibility Score: inf
ROOT
ATOM      1  C   UNL A   1      32.600  30.371  27.265  1.00  0.00     0.188 C 
ENDROOT
BRANCH   1   2
ATOM      2  C   UNL A   1      31.894  29.522  26.207  1.00  0.00     0.188 C 
BRANCH   2   3
ATOM      3  O   UNL A   1      32.354  28.201  26.005  1.00  0.00    -0.376 OA
BRANCH   3   4
ATOM      4  C   UNL A   1      33.610  27.984  25.369  1.00  0.00     0.202 C 
BRANCH   4   5
ATOM      5  C   UNL A   1      33.915  26.687  24.603  1.00  0.00     0.261 C 
BRANCH   5   6
ATOM      6  O   UNL A   1      33.543  26.715  23.205  1.00  0.00    -0.463 OA
BRANCH   6   7
ATOM      7  C   UNL A   1      32.898  25.633  22.732  1.00  0.00     0.308 C 
ATOM      8  O   UNL A   1      33.056  25.204  21.589  1.00  0.00    -0.252 OA
BRANCH   7   9
ATOM      9  C   UNL A   1      31.997  24.871  23.689  1.00  0.00     0.152 C 
BRANCH   9  10
ATOM     10  C   UNL A   1      30.514  25.114  24.039  1.00  0.00     0.123 C 
BRANCH  10  11
ATOM     11  C   UNL A   1      29.857  26.417  23.629  1.00  0.00    -0.025 A 
ATOM     12  C   UNL A   1      28.662  28.799  22.707  1.00  0.00     0.118 A 
ATOM     13  C   UNL A   1      27.914  27.879  23.426  1.00  0.00     0.047 A 
ATOM     14  C   UNL A   1      30.008  28.555  22.451  1.00  0.00     0.047 A 
ATOM     15  C   UNL A   1      28.501  26.688  23.856  1.00  0.00     0.010 A 
ATOM     16  C   UNL A   1      30.598  27.372  22.907  1.00  0.00     0.010 A 
BRANCH  12  17
ATOM     17  O   UNL A   1      28.035  29.953  22.334  1.00  0.00    -0.497 OA
ATOM     18  C   UNL A   1      27.909  30.875  23.414  1.00  0.00     0.278 C 
ENDBRANCH  12  17
ENDBRANCH  10  11
BRANCH  10  19
ATOM     19  N   UNL A   1      30.155  24.756  25.410  1.00  0.00    -0.345 N 
ATOM     20  C   UNL A   1      30.665  23.844  26.298  1.00  0.00     0.252 C 
ATOM     21  H   UNL A   1      29.396  25.272  25.767  1.00  0.00     0.164 HD
ATOM     22  O   UNL A   1      30.197  23.731  27.428  1.00  0.00    -0.269 OA
BRANCH  20  23
ATOM     23  C   UNL A   1      31.771  22.928  25.941  1.00  0.00     0.046 A 
ATOM     24  C   UNL A   1      33.077  23.335  26.235  1.00  0.00     0.016 A 
ATOM     25  C   UNL A   1      31.564  21.739  25.244  1.00  0.00     0.101 A 
ATOM     26  C   UNL A   1      34.161  22.516  25.908  1.00  0.00     0.028 A 
ATOM     27  C   UNL A   1      32.656  20.901  24.932  1.00  0.00     0.288 A 
ATOM     28  C   UNL A   1      33.961  21.280  25.277  1.00  0.00     0.118 A 
ATOM     29  Cl  UNL A   1      35.385  20.334  25.028  1.00  0.00    -0.077 Cl
BRANCH  27  30
ATOM     30  N   UNL A   1      32.346  19.634  24.260  1.00  0.00     0.064 N 
ATOM     31  O   UNL A   1      32.280  18.595  24.926  1.00  0.00    -0.258 OA
ATOM     32  O   UNL A   1      32.196  19.677  23.030  1.00  0.00    -0.258 OA
ENDBRANCH  27  30
ENDBRANCH  20  23
ENDBRANCH  10  19
ENDBRANCH   9  10
ENDBRANCH   7   9
ENDBRANCH   6   7
ENDBRANCH   5   6
ENDBRANCH   4   5
ENDBRANCH   3   4
ENDBRANCH   2   3
ENDBRANCH   1   2
BRANCH   1  33
ATOM     33  O   UNL A   1      33.899  30.872  26.989  1.00  0.00    -0.377 OA
BRANCH  33  34
ATOM     34  C   UNL A   1      34.977  30.637  27.894  1.00  0.00     0.188 C 
BRANCH  34  35
ATOM     35  C   UNL A   1      35.480  31.775  28.787  1.00  0.00     0.188 C 
BRANCH  35  36
ATOM     36  O   UNL A   1      36.889  31.904  28.777  1.00  0.00    -0.376 OA
BRANCH  36  37
ATOM     37  C   UNL A   1      37.618  31.590  29.953  1.00  0.00     0.202 C 
BRANCH  37  38
ATOM     38  C   UNL A   1      37.506  30.182  30.561  1.00  0.00     0.261 C 
BRANCH  38  39
ATOM     39  O   UNL A   1      36.718  30.024  31.751  1.00  0.00    -0.460 OA
BRANCH  39  40
ATOM     40  C   UNL A   1      37.301  29.470  32.827  1.00  0.00     0.338 C 
ATOM     41  O   UNL A   1      37.370  28.277  33.094  1.00  0.00    -0.246 OA
BRANCH  40  42
ATOM     42  C   UNL A   1      38.000  30.535  33.568  1.00  0.00     0.060 A 
ATOM     43  C   UNL A   1      39.203  30.229  34.216  1.00  0.00     0.016 A 
ATOM     44  C   UNL A   1      37.437  31.810  33.678  1.00  0.00     0.016 A 
ATOM     45  C   UNL A   1      39.795  31.171  35.056  1.00  0.00     0.010 A 
ATOM     46  C   UNL A   1      38.028  32.750  34.525  1.00  0.00     0.010 A 
ATOM     47  C   UNL A   1      39.174  32.409  35.269  1.00  0.00    -0.014 A 
BRANCH  47  48
ATOM     48  C   UNL A   1      39.564  33.215  36.455  1.00  0.00     0.031 A 
ATOM     49  C   UNL A   1      40.653  34.245  36.286  1.00  0.00     0.074 A 
ATOM     50  C   UNL A   1      38.930  33.091  37.633  1.00  0.00     0.049 A 
ATOM     51  N   UNL A   1      41.154  35.085  37.155  1.00  0.00    -0.248 NA
ATOM     52  C   UNL A   1      41.262  34.324  34.951  1.00  0.00     0.031 C 
ATOM     53  C   UNL A   1      37.829  32.171  37.906  1.00  0.00     0.029 A 
ATOM     54  N   UNL A   1      39.119  33.757  38.817  1.00  0.00    -0.354 N 
ATOM     55  C   UNL A   1      42.140  35.791  36.470  1.00  0.00     0.074 A 
ATOM     56  C   UNL A   1      42.206  35.230  35.138  1.00  0.00     0.031 C 
ATOM     57  C   UNL A   1      37.425  32.346  39.177  1.00  0.00     0.029 A 
ATOM     58  C   UNL A   1      38.260  33.362  39.815  1.00  0.00     0.049 A 
ATOM     59  H   UNL A   1      39.804  34.454  38.941  1.00  0.00     0.167 HD
ATOM     60  C   UNL A   1      42.905  36.825  36.903  1.00  0.00     0.034 A 
ATOM     61  C   UNL A   1      38.167  33.772  41.097  1.00  0.00     0.034 A 
ATOM     62  C   UNL A   1      42.843  37.357  38.243  1.00  0.00     0.049 A 
ATOM     63  C   UNL A   1      39.101  34.850  41.595  1.00  0.00     0.074 A 
ATOM     64  C   UNL A   1      43.570  38.395  38.796  1.00  0.00     0.029 A 
ATOM     65  N   UNL A   1      42.012  36.877  39.250  1.00  0.00    -0.354 N 
ATOM     66  N   UNL A   1      40.030  35.512  40.943  1.00  0.00    -0.248 NA
ATOM     67  C   UNL A   1      38.960  35.241  43.002  1.00  0.00     0.031 C 
ATOM     68  C   UNL A   1      43.245  38.485  40.155  1.00  0.00     0.029 A 
ATOM     69  C   UNL A   1      42.237  37.573  40.429  1.00  0.00     0.049 A 
ATOM     70  H   UNL A   1      41.358  36.149  39.142  1.00  0.00     0.167 HD
ATOM     71  C   UNL A   1      40.550  36.434  41.852  1.00  0.00     0.074 A 
ATOM     72  C   UNL A   1      39.828  36.238  43.093  1.00  0.00     0.031 C 
ATOM     73  C   UNL A   1      41.522  37.367  41.670  1.00  0.00     0.034 A 
BRANCH  60  74
ATOM     74  C   UNL A   1      43.915  37.385  35.924  1.00  0.00     0.023 A 
ATOM     75  C   UNL A   1      43.591  38.433  35.042  1.00  0.00     0.031 A 
ATOM     76  C   UNL A   1      45.189  36.803  35.803  1.00  0.00     0.131 A 
ATOM     77  C   UNL A   1      44.473  38.777  34.007  1.00  0.00     0.055 A 
ATOM     78  C   UNL A   1      46.107  37.228  34.840  1.00  0.00     0.041 A 
ATOM     79  F   UNL A   1      45.555  35.783  36.596  1.00  0.00    -0.206 F 
ATOM     80  C   UNL A   1      45.742  38.202  33.916  1.00  0.00     0.022 A 
BRANCH  77  81
ATOM     81  S   UNL A   1      43.852  39.818  32.655  1.00  0.00     0.124 S 
ATOM     82  O   UNL A   1      44.898  40.836  32.565  1.00  0.00    -0.237 OA
ATOM     83  O   UNL A   1      43.777  38.878  31.543  1.00  0.00    -0.237 OA
ATOM     84  O   UNL A   1      42.567  40.301  33.156  1.00  0.00    -0.744 OA
ENDBRANCH  77  81
ENDBRANCH  60  74
BRANCH  61  85
ATOM     85  C   UNL A   1      37.152  33.168  42.004  1.00  0.00     0.023 A 
ATOM     86  C   UNL A   1      35.869  33.726  42.126  1.00  0.00     0.031 A 
ATOM     87  C   UNL A   1      37.458  32.041  42.788  1.00  0.00     0.131 A 
ATOM     88  C   UNL A   1      34.951  33.178  43.036  1.00  0.00     0.055 A 
ATOM     89  C   UNL A   1      36.524  31.469  43.654  1.00  0.00     0.041 A 
ATOM     90  F   UNL A   1      38.672  31.473  42.714  1.00  0.00    -0.206 F 
ATOM     91  C   UNL A   1      35.264  32.043  43.787  1.00  0.00     0.022 A 
BRANCH  88  92
ATOM     92  S   UNL A   1      33.356  34.009  43.267  1.00  0.00     0.124 S 
ATOM     93  O   UNL A   1      33.149  34.623  41.961  1.00  0.00    -0.237 OA
ATOM     94  O   UNL A   1      32.476  32.892  43.599  1.00  0.00    -0.237 OA
ATOM     95  O   UNL A   1      33.614  34.940  44.363  1.00  0.00    -0.744 OA
ENDBRANCH  88  92
ENDBRANCH  61  85
BRANCH  73  96
ATOM     96  C   UNL A   1      41.813  38.297  42.827  1.00  0.00     0.023 A 
ATOM     97  C   UNL A   1      41.140  39.521  42.995  1.00  0.00     0.031 A 
ATOM     98  C   UNL A   1      42.805  37.960  43.767  1.00  0.00     0.131 A 
ATOM     99  C   UNL A   1      41.518  40.392  44.030  1.00  0.00     0.055 A 
ATOM    100  C   UNL A   1      43.122  38.795  44.839  1.00  0.00     0.041 A 
ATOM    101  F   UNL A   1      43.485  36.807  43.659  1.00  0.00    -0.206 F 
ATOM    102  C   UNL A   1      42.490  40.028  44.965  1.00  0.00     0.022 A 
BRANCH  99 103
ATOM    103  S   UNL A   1      40.814  42.064  44.062  1.00  0.00     0.124 S 
ATOM    104  O   UNL A   1      41.885  42.855  43.464  1.00  0.00    -0.237 OA
ATOM    105  O   UNL A   1      39.608  41.910  43.255  1.00  0.00    -0.237 OA
ATOM    106  O   UNL A   1      40.582  42.311  45.484  1.00  0.00    -0.744 OA
ENDBRANCH  99 103
ENDBRANCH  73  96
ENDBRANCH  47  48
ENDBRANCH  40  42
ENDBRANCH  39  40
ENDBRANCH  38  39
ENDBRANCH  37  38
ENDBRANCH  36  37
ENDBRANCH  35  36
ENDBRANCH  34  35
ENDBRANCH  33  34
ENDBRANCH   1  33
TORSDOF 29
ENDMDL
MODEL 2
REMARK VINA RESULT:      -9.3      1.813      2.047
REMARK SMILES COc1ccc([C@@H](CC(=O)OCCOCCOCCOCCOC(=O)c2ccc(-c3c4nc(c(-c5cc(S(=O)(=O)[O-])ccc5F)c5ccc([nH]5)c(-c5cc(S(=O)(=O)[O-])ccc5F)c5nc(c(-c6cc(S(=O)(=O)[O-])ccc6F)c6ccc3[nH]6)C=C5)C=C4)cc2)NC(=O)c2ccc(Cl)c([N+](=O)[O-])c2)cc1
REMARK SMILES IDX 16 1 15 2 14 3 13 4 12 5 11 6 9 7 10 8 8 9 7 10 6 11 3 12
REMARK SMILES IDX 4 13 103 14 5 15 102 16 2 17 1 18 89 19 90 20 91 22 92 23
REMARK SMILES IDX 93 24 101 25 94 26 97 27 95 28 96 29 98 30 99 31 100 32
REMARK SMILES IDX 17 33 18 34 19 35 20 36 21 37 22 38 23 39 24 40 25 41 26 42
REMARK SMILES IDX 27 43 88 44 28 45 87 46 29 47 30 48 31 49 81 50 32 51 86 52
REMARK SMILES IDX 80 53 82 54 33 55 85 56 79 57 78 58 34 60 66 61 46 62 65 63
REMARK SMILES IDX 47 64 50 65 64 66 83 67 48 68 49 69 63 71 84 72 51 73 35 74
REMARK SMILES IDX 36 75 44 76 37 77 43 78 45 79 42 80 38 81 39 82 40 83 41 84
REMARK SMILES IDX 67 85 68 86 76 87 69 88 75 89 77 90 74 91 70 92 71 93 72 94
REMARK SMILES IDX 73 95 52 96 53 97 61 98 54 99 60 100 62 101 59 102 55 103
REMARK SMILES IDX 56 104 57 105 58 106
REMARK H PARENT 89 21 82 59 50 70
REMARK Flexibility Score: inf
ROOT
ATOM      1  C   UNL A   1      32.615  30.357  27.210  1.00  0.00     0.188 C 
ENDROOT
BRANCH   1   2
ATOM      2  C   UNL A   1      31.917  29.626  26.063  1.00  0.00     0.188 C 
BRANCH   2   3
ATOM      3  O   UNL A   1      32.301  28.292  25.799  1.00  0.00    -0.376 OA
BRANCH   3   4
ATOM      4  C   UNL A   1      33.539  28.033  25.143  1.00  0.00     0.202 C 
BRANCH   4   5
ATOM      5  C   UNL A   1      33.822  26.692  24.448  1.00  0.00     0.261 C 
BRANCH   5   6
ATOM      6  O   UNL A   1      33.491  26.665  23.040  1.00  0.00    -0.463 OA
BRANCH   6   7
ATOM      7  C   UNL A   1      32.711  25.650  22.624  1.00  0.00     0.308 C 
ATOM      8  O   UNL A   1      32.706  25.240  21.463  1.00  0.00    -0.252 OA
BRANCH   7   9
ATOM      9  C   UNL A   1      31.863  24.937  23.663  1.00  0.00     0.152 C 
BRANCH   9  10
ATOM     10  C   UNL A   1      30.387  25.169  24.047  1.00  0.00     0.123 C 
BRANCH  10  11
ATOM     11  C   UNL A   1      29.713  26.469  23.657  1.00  0.00    -0.025 A 
ATOM     12  C   UNL A   1      28.497  28.855  22.772  1.00  0.00     0.118 A 
ATOM     13  C   UNL A   1      27.737  27.877  23.396  1.00  0.00     0.047 A 
ATOM     14  C   UNL A   1      29.864  28.667  22.594  1.00  0.00     0.047 A 
ATOM     15  C   UNL A   1      28.337  26.685  23.807  1.00  0.00     0.010 A 
ATOM     16  C   UNL A   1      30.465  27.481  23.031  1.00  0.00     0.010 A 
BRANCH  12  17
ATOM     17  O   UNL A   1      27.855  30.005  22.413  1.00  0.00    -0.497 OA
ATOM     18  C   UNL A   1      27.762  30.932  23.492  1.00  0.00     0.278 C 
ENDBRANCH  12  17
ENDBRANCH  10  11
BRANCH  10  19
ATOM     19  N   UNL A   1      30.062  24.804  25.425  1.00  0.00    -0.345 N 
ATOM     20  C   UNL A   1      30.600  23.894  26.299  1.00  0.00     0.252 C 
ATOM     21  H   UNL A   1      29.306  25.311  25.800  1.00  0.00     0.164 HD
ATOM     22  O   UNL A   1      30.158  23.774  27.438  1.00  0.00    -0.269 OA
BRANCH  20  23
ATOM     23  C   UNL A   1      31.706  22.990  25.916  1.00  0.00     0.046 A 
ATOM     24  C   UNL A   1      33.009  23.374  26.249  1.00  0.00     0.016 A 
ATOM     25  C   UNL A   1      31.504  21.837  25.159  1.00  0.00     0.101 A 
ATOM     26  C   UNL A   1      34.094  22.565  25.899  1.00  0.00     0.028 A 
ATOM     27  C   UNL A   1      32.595  21.008  24.824  1.00  0.00     0.288 A 
ATOM     28  C   UNL A   1      33.898  21.362  25.207  1.00  0.00     0.118 A 
ATOM     29  Cl  UNL A   1      35.320  20.420  24.933  1.00  0.00    -0.077 Cl
BRANCH  27  30
ATOM     30  N   UNL A   1      32.289  19.777  24.087  1.00  0.00     0.064 N 
ATOM     31  O   UNL A   1      32.230  18.704  24.697  1.00  0.00    -0.258 OA
ATOM     32  O   UNL A   1      32.134  19.884  22.861  1.00  0.00    -0.258 OA
ENDBRANCH  27  30
ENDBRANCH  20  23
ENDBRANCH  10  19
ENDBRANCH   9  10
ENDBRANCH   7   9
ENDBRANCH   6   7
ENDBRANCH   5   6
ENDBRANCH   4   5
ENDBRANCH   3   4
ENDBRANCH   2   3
ENDBRANCH   1   2
BRANCH   1  33
ATOM     33  O   UNL A   1      33.948  30.807  27.029  1.00  0.00    -0.377 OA
BRANCH  33  34
ATOM     34  C   UNL A   1      34.996  30.334  27.874  1.00  0.00     0.188 C 
BRANCH  34  35
ATOM     35  C   UNL A   1      35.702  31.305  28.825  1.00  0.00     0.188 C 
BRANCH  35  36
ATOM     36  O   UNL A   1      37.109  31.304  28.674  1.00  0.00    -0.376 OA
BRANCH  36  37
ATOM     37  C   UNL A   1      37.917  30.887  29.762  1.00  0.00     0.202 C 
BRANCH  37  38
ATOM     38  C   UNL A   1      37.707  29.491  30.371  1.00  0.00     0.261 C 
BRANCH  38  39
ATOM     39  O   UNL A   1      36.959  29.396  31.593  1.00  0.00    -0.460 OA
BRANCH  39  40
ATOM     40  C   UNL A   1      37.577  28.899  32.677  1.00  0.00     0.338 C 
ATOM     41  O   UNL A   1      37.751  27.718  32.948  1.00  0.00    -0.246 OA
BRANCH  40  42
ATOM     42  C   UNL A   1      38.168  30.025  33.423  1.00  0.00     0.060 A 
ATOM     43  C   UNL A   1      39.385  29.832  34.085  1.00  0.00     0.016 A 
ATOM     44  C   UNL A   1      37.489  31.244  33.523  1.00  0.00     0.016 A 
ATOM     45  C   UNL A   1      39.880  30.825  34.929  1.00  0.00     0.010 A 
ATOM     46  C   UNL A   1      37.982  32.236  34.374  1.00  0.00     0.010 A 
ATOM     47  C   UNL A   1      39.146  32.001  35.131  1.00  0.00    -0.014 A 
BRANCH  47  48
ATOM     48  C   UNL A   1      39.447  32.842  36.319  1.00  0.00     0.031 A 
ATOM     49  C   UNL A   1      40.554  33.860  36.206  1.00  0.00     0.074 A 
ATOM     50  C   UNL A   1      38.721  32.759  37.447  1.00  0.00     0.049 A 
ATOM     51  N   UNL A   1      40.993  34.724  37.086  1.00  0.00    -0.248 NA
ATOM     52  C   UNL A   1      41.269  33.893  34.922  1.00  0.00     0.031 C 
ATOM     53  C   UNL A   1      37.594  31.854  37.659  1.00  0.00     0.029 A 
ATOM     54  N   UNL A   1      38.821  33.461  38.621  1.00  0.00    -0.354 N 
ATOM     55  C   UNL A   1      42.035  35.402  36.461  1.00  0.00     0.074 A 
ATOM     56  C   UNL A   1      42.202  34.800  35.156  1.00  0.00     0.031 C 
ATOM     57  C   UNL A   1      37.091  32.072  38.888  1.00  0.00     0.029 A 
ATOM     58  C   UNL A   1      37.882  33.102  39.559  1.00  0.00     0.049 A 
ATOM     59  H   UNL A   1      39.499  34.156  38.778  1.00  0.00     0.167 HD
ATOM     60  C   UNL A   1      42.773  36.445  36.921  1.00  0.00     0.034 A 
ATOM     61  C   UNL A   1      37.691  33.552  40.816  1.00  0.00     0.034 A 
ATOM     62  C   UNL A   1      42.608  37.018  38.236  1.00  0.00     0.049 A 
ATOM     63  C   UNL A   1      38.591  34.639  41.354  1.00  0.00     0.074 A 
ATOM     64  C   UNL A   1      43.298  38.069  38.813  1.00  0.00     0.029 A 
ATOM     65  N   UNL A   1      41.696  36.575  39.188  1.00  0.00    -0.354 N 
ATOM     66  N   UNL A   1      39.574  35.276  40.758  1.00  0.00    -0.248 NA
ATOM     67  C   UNL A   1      38.342  35.076  42.733  1.00  0.00     0.031 C 
ATOM     68  C   UNL A   1      42.867  38.203  40.138  1.00  0.00     0.029 A 
ATOM     69  C   UNL A   1      41.832  37.307  40.359  1.00  0.00     0.049 A 
ATOM     70  H   UNL A   1      41.047  35.848  39.050  1.00  0.00     0.167 HD
ATOM     71  C   UNL A   1      40.028  36.222  41.676  1.00  0.00     0.074 A 
ATOM     72  C   UNL A   1      39.208  36.070  42.861  1.00  0.00     0.031 C 
ATOM     73  C   UNL A   1      41.019  37.143  41.544  1.00  0.00     0.034 A 
BRANCH  60  74
ATOM     74  C   UNL A   1      43.862  36.967  36.009  1.00  0.00     0.023 A 
ATOM     75  C   UNL A   1      45.211  36.606  36.184  1.00  0.00     0.031 A 
ATOM     76  C   UNL A   1      43.564  37.912  35.012  1.00  0.00     0.131 A 
ATOM     77  C   UNL A   1      46.215  37.273  35.465  1.00  0.00     0.055 A 
ATOM     78  C   UNL A   1      44.561  38.491  34.222  1.00  0.00     0.041 A 
ATOM     79  F   UNL A   1      42.302  38.320  34.808  1.00  0.00    -0.206 F 
ATOM     80  C   UNL A   1      45.898  38.193  34.465  1.00  0.00     0.022 A 
BRANCH  77  81
ATOM     81  S   UNL A   1      47.936  37.088  36.014  1.00  0.00     0.124 S 
ATOM     82  O   UNL A   1      48.112  35.639  35.941  1.00  0.00    -0.237 OA
ATOM     83  O   UNL A   1      48.667  37.872  35.026  1.00  0.00    -0.237 OA
ATOM     84  O   UNL A   1      47.925  37.638  37.368  1.00  0.00    -0.744 OA
ENDBRANCH  77  81
ENDBRANCH  60  74
BRANCH  61  85
ATOM     85  C   UNL A   1      36.602  32.983  41.658  1.00  0.00     0.023 A 
ATOM     86  C   UNL A   1      35.295  33.493  41.591  1.00  0.00     0.031 A 
ATOM     87  C   UNL A   1      36.856  31.939  42.566  1.00  0.00     0.131 A 
ATOM     88  C   UNL A   1      34.301  32.984  42.441  1.00  0.00     0.055 A 
ATOM     89  C   UNL A   1      35.852  31.401  43.372  1.00  0.00     0.041 A 
ATOM     90  F   UNL A   1      38.089  31.419  42.673  1.00  0.00    -0.206 F 
ATOM     91  C   UNL A   1      34.566  31.930  43.318  1.00  0.00     0.022 A 
BRANCH  88  92
ATOM     92  S   UNL A   1      32.662  33.762  42.425  1.00  0.00     0.124 S 
ATOM     93  O   UNL A   1      32.989  35.148  42.738  1.00  0.00    -0.237 OA
ATOM     94  O   UNL A   1      32.214  33.500  41.061  1.00  0.00    -0.237 OA
ATOM     95  O   UNL A   1      31.933  33.040  43.465  1.00  0.00    -0.744 OA
ENDBRANCH  88  92
ENDBRANCH  61  85
BRANCH  73  96
ATOM     96  C   UNL A   1      41.226  38.108  42.691  1.00  0.00     0.023 A 
ATOM     97  C   UNL A   1      42.140  37.855  43.731  1.00  0.00     0.031 A 
ATOM     98  C   UNL A   1      40.472  39.295  42.755  1.00  0.00     0.131 A 
ATOM     99  C   UNL A   1      42.221  38.736  44.821  1.00  0.00     0.055 A 
ATOM    100  C   UNL A   1      40.614  40.204  43.803  1.00  0.00     0.041 A 
ATOM    101  F   UNL A   1      39.580  39.591  41.796  1.00  0.00    -0.206 F 
ATOM    102  C   UNL A   1      41.479  39.919  44.855  1.00  0.00     0.022 A 
BRANCH  99 103
ATOM    103  S   UNL A   1      43.214  38.250  46.260  1.00  0.00     0.124 S 
ATOM    104  O   UNL A   1      44.316  39.206  46.204  1.00  0.00    -0.237 OA
ATOM    105  O   UNL A   1      42.274  38.425  47.362  1.00  0.00    -0.237 OA
ATOM    106  O   UNL A   1      43.582  36.865  45.971  1.00  0.00    -0.744 OA
ENDBRANCH  99 103
ENDBRANCH  73  96
ENDBRANCH  47  48
ENDBRANCH  40  42
ENDBRANCH  39  40
ENDBRANCH  38  39
ENDBRANCH  37  38
ENDBRANCH  36  37
ENDBRANCH  35  36
ENDBRANCH  34  35
ENDBRANCH  33  34
ENDBRANCH   1  33
TORSDOF 29
ENDMDL
MODEL 3
REMARK VINA RESULT:      -8.5      6.259      8.663
REMARK SMILES COc1ccc([C@@H](CC(=O)OCCOCCOCCOCCOC(=O)c2ccc(-c3c4nc(c(-c5cc(S(=O)(=O)[O-])ccc5F)c5ccc([nH]5)c(-c5cc(S(=O)(=O)[O-])ccc5F)c5nc(c(-c6cc(S(=O)(=O)[O-])ccc6F)c6ccc3[nH]6)C=C5)C=C4)cc2)NC(=O)c2ccc(Cl)c([N+](=O)[O-])c2)cc1
REMARK SMILES IDX 16 1 15 2 14 3 13 4 12 5 11 6 9 7 10 8 8 9 7 10 6 11 3 12
REMARK SMILES IDX 4 13 103 14 5 15 102 16 2 17 1 18 89 19 90 20 91 22 92 23
REMARK SMILES IDX 93 24 101 25 94 26 97 27 95 28 96 29 98 30 99 31 100 32
REMARK SMILES IDX 17 33 18 34 19 35 20 36 21 37 22 38 23 39 24 40 25 41 26 42
REMARK SMILES IDX 27 43 88 44 28 45 87 46 29 47 30 48 31 49 81 50 32 51 86 52
REMARK SMILES IDX 80 53 82 54 33 55 85 56 79 57 78 58 34 60 66 61 46 62 65 63
REMARK SMILES IDX 47 64 50 65 64 66 83 67 48 68 49 69 63 71 84 72 51 73 35 74
REMARK SMILES IDX 36 75 44 76 37 77 43 78 45 79 42 80 38 81 39 82 40 83 41 84
REMARK SMILES IDX 67 85 68 86 76 87 69 88 75 89 77 90 74 91 70 92 71 93 72 94
REMARK SMILES IDX 73 95 52 96 53 97 61 98 54 99 60 100 62 101 59 102 55 103
REMARK SMILES IDX 56 104 57 105 58 106
REMARK H PARENT 89 21 82 59 50 70
REMARK Flexibility Score: inf
ROOT
ATOM      1  C   UNL A   1      31.909  30.976  27.044  1.00  0.00     0.188 C 
ENDROOT
BRANCH   1   2
ATOM      2  C   UNL A   1      31.865  29.477  26.743  1.00  0.00     0.188 C 
BRANCH   2   3
ATOM      3  O   UNL A   1      33.028  28.875  26.214  1.00  0.00    -0.376 OA
BRANCH   3   4
ATOM      4  C   UNL A   1      33.347  29.052  24.836  1.00  0.00     0.202 C 
BRANCH   4   5
ATOM      5  C   UNL A   1      33.918  27.908  23.984  1.00  0.00     0.261 C 
BRANCH   5   6
ATOM      6  O   UNL A   1      33.246  27.710  22.718  1.00  0.00    -0.463 OA
BRANCH   6   7
ATOM      7  C   UNL A   1      33.000  26.436  22.360  1.00  0.00     0.308 C 
ATOM      8  O   UNL A   1      33.832  25.727  21.793  1.00  0.00    -0.252 OA
BRANCH   7   9
ATOM      9  C   UNL A   1      31.660  25.836  22.750  1.00  0.00     0.152 C 
BRANCH   9  10
ATOM     10  C   UNL A   1      30.526  26.446  23.601  1.00  0.00     0.123 C 
BRANCH  10  11
ATOM     11  C   UNL A   1      29.807  27.684  23.104  1.00  0.00    -0.025 A 
ATOM     12  C   UNL A   1      28.505  29.940  22.023  1.00  0.00     0.118 A 
ATOM     13  C   UNL A   1      27.787  29.008  22.757  1.00  0.00     0.047 A 
ATOM     14  C   UNL A   1      29.873  29.771  21.830  1.00  0.00     0.047 A 
ATOM     15  C   UNL A   1      28.429  27.878  23.266  1.00  0.00     0.010 A 
ATOM     16  C   UNL A   1      30.516  28.650  22.365  1.00  0.00     0.010 A 
BRANCH  12  17
ATOM     17  O   UNL A   1      27.823  31.033  21.571  1.00  0.00    -0.497 OA
ATOM     18  C   UNL A   1      28.169  32.219  22.282  1.00  0.00     0.278 C 
ENDBRANCH  12  17
ENDBRANCH  10  11
BRANCH  10  19
ATOM     19  N   UNL A   1      30.840  26.559  25.024  1.00  0.00    -0.345 N 
ATOM     20  C   UNL A   1      31.491  25.731  25.903  1.00  0.00     0.252 C 
ATOM     21  H   UNL A   1      30.520  27.396  25.434  1.00  0.00     0.164 HD
ATOM     22  O   UNL A   1      31.651  26.056  27.077  1.00  0.00    -0.269 OA
BRANCH  20  23
ATOM     23  C   UNL A   1      31.999  24.400  25.505  1.00  0.00     0.046 A 
ATOM     24  C   UNL A   1      31.081  23.349  25.420  1.00  0.00     0.016 A 
ATOM     25  C   UNL A   1      33.355  24.143  25.313  1.00  0.00     0.101 A 
ATOM     26  C   UNL A   1      31.507  22.067  25.063  1.00  0.00     0.028 A 
ATOM     27  C   UNL A   1      33.786  22.854  24.931  1.00  0.00     0.288 A 
ATOM     28  C   UNL A   1      32.858  21.811  24.790  1.00  0.00     0.118 A 
ATOM     29  Cl  UNL A   1      33.220  20.206  24.262  1.00  0.00    -0.077 Cl
BRANCH  27  30
ATOM     30  N   UNL A   1      35.221  22.684  24.680  1.00  0.00     0.064 N 
ATOM     31  O   UNL A   1      35.609  22.424  23.536  1.00  0.00    -0.258 OA
ATOM     32  O   UNL A   1      35.975  22.783  25.660  1.00  0.00    -0.258 OA
ENDBRANCH  27  30
ENDBRANCH  20  23
ENDBRANCH  10  19
ENDBRANCH   9  10
ENDBRANCH   7   9
ENDBRANCH   6   7
ENDBRANCH   5   6
ENDBRANCH   4   5
ENDBRANCH   3   4
ENDBRANCH   2   3
ENDBRANCH   1   2
BRANCH   1  33
ATOM     33  O   UNL A   1      33.131  31.676  26.873  1.00  0.00    -0.377 OA
BRANCH  33  34
ATOM     34  C   UNL A   1      33.880  32.120  28.004  1.00  0.00     0.188 C 
BRANCH  34  35
ATOM     35  C   UNL A   1      35.409  32.144  27.940  1.00  0.00     0.188 C 
BRANCH  35  36
ATOM     36  O   UNL A   1      36.016  31.294  28.895  1.00  0.00    -0.376 OA
BRANCH  36  37
ATOM     37  C   UNL A   1      35.767  31.519  30.273  1.00  0.00     0.202 C 
BRANCH  37  38
ATOM     38  C   UNL A   1      36.871  32.128  31.154  1.00  0.00     0.261 C 
BRANCH  38  39
ATOM     39  O   UNL A   1      36.650  32.176  32.572  1.00  0.00    -0.460 OA
BRANCH  39  40
ATOM     40  C   UNL A   1      37.370  33.051  33.295  1.00  0.00     0.338 C 
ATOM     41  O   UNL A   1      37.082  34.214  33.543  1.00  0.00    -0.246 OA
BRANCH  40  42
ATOM     42  C   UNL A   1      38.506  32.325  33.891  1.00  0.00     0.060 A 
ATOM     43  C   UNL A   1      38.245  31.287  34.793  1.00  0.00     0.016 A 
ATOM     44  C   UNL A   1      39.820  32.712  33.612  1.00  0.00     0.016 A 
ATOM     45  C   UNL A   1      39.297  30.698  35.494  1.00  0.00     0.010 A 
ATOM     46  C   UNL A   1      40.873  32.125  34.320  1.00  0.00     0.010 A 
ATOM     47  C   UNL A   1      40.607  31.162  35.312  1.00  0.00    -0.014 A 
BRANCH  47  48
ATOM     48  C   UNL A   1      41.633  30.842  36.338  1.00  0.00     0.031 A 
ATOM     49  C   UNL A   1      41.707  31.716  37.564  1.00  0.00     0.074 A 
ATOM     50  C   UNL A   1      42.435  29.770  36.225  1.00  0.00     0.049 A 
ATOM     51  N   UNL A   1      42.493  31.633  38.608  1.00  0.00    -0.248 NA
ATOM     52  C   UNL A   1      40.768  32.846  37.608  1.00  0.00     0.031 C 
ATOM     53  C   UNL A   1      42.423  28.820  35.115  1.00  0.00     0.029 A 
ATOM     54  N   UNL A   1      43.407  29.296  37.068  1.00  0.00    -0.354 N 
ATOM     55  C   UNL A   1      42.143  32.701  39.430  1.00  0.00     0.074 A 
ATOM     56  C   UNL A   1      41.122  33.450  38.728  1.00  0.00     0.031 C 
ATOM     57  C   UNL A   1      43.334  27.862  35.357  1.00  0.00     0.029 A 
ATOM     58  C   UNL A   1      44.017  28.149  36.617  1.00  0.00     0.049 A 
ATOM     59  H   UNL A   1      43.646  29.733  37.917  1.00  0.00     0.167 HD
ATOM     60  C   UNL A   1      42.610  33.017  40.664  1.00  0.00     0.034 A 
ATOM     61  C   UNL A   1      45.015  27.422  37.160  1.00  0.00     0.034 A 
ATOM     62  C   UNL A   1      43.646  32.272  41.339  1.00  0.00     0.049 A 
ATOM     63  C   UNL A   1      45.601  27.850  38.485  1.00  0.00     0.074 A 
ATOM     64  C   UNL A   1      44.203  32.499  42.584  1.00  0.00     0.029 A 
ATOM     65  N   UNL A   1      44.295  31.159  40.814  1.00  0.00    -0.354 N 
ATOM     66  N   UNL A   1      45.265  28.860  39.256  1.00  0.00    -0.248 NA
ATOM     67  C   UNL A   1      46.694  27.027  39.015  1.00  0.00     0.031 C 
ATOM     68  C   UNL A   1      45.244  31.583  42.774  1.00  0.00     0.029 A 
ATOM     69  C   UNL A   1      45.270  30.714  41.694  1.00  0.00     0.049 A 
ATOM     70  H   UNL A   1      44.090  30.746  39.944  1.00  0.00     0.167 HD
ATOM     71  C   UNL A   1      46.076  28.761  40.387  1.00  0.00     0.074 A 
ATOM     72  C   UNL A   1      46.912  27.594  40.193  1.00  0.00     0.031 C 
ATOM     73  C   UNL A   1      46.111  29.554  41.491  1.00  0.00     0.034 A 
BRANCH  60  74
ATOM     74  C   UNL A   1      42.044  34.262  41.312  1.00  0.00     0.023 A 
ATOM     75  C   UNL A   1      40.939  34.208  42.182  1.00  0.00     0.031 A 
ATOM     76  C   UNL A   1      42.553  35.531  40.983  1.00  0.00     0.131 A 
ATOM     77  C   UNL A   1      40.307  35.393  42.590  1.00  0.00     0.055 A 
ATOM     78  C   UNL A   1      41.986  36.706  41.483  1.00  0.00     0.041 A 
ATOM     79  F   UNL A   1      43.589  35.657  40.140  1.00  0.00    -0.206 F 
ATOM     80  C   UNL A   1      40.840  36.643  42.270  1.00  0.00     0.022 A 
BRANCH  77  81
ATOM     81  S   UNL A   1      38.662  35.276  43.348  1.00  0.00     0.124 S 
ATOM     82  O   UNL A   1      38.703  33.937  43.932  1.00  0.00    -0.237 OA
ATOM     83  O   UNL A   1      38.670  36.386  44.292  1.00  0.00    -0.237 OA
ATOM     84  O   UNL A   1      37.751  35.424  42.214  1.00  0.00    -0.744 OA
ENDBRANCH  77  81
ENDBRANCH  60  74
BRANCH  61  85
ATOM     85  C   UNL A   1      45.526  26.212  36.459  1.00  0.00     0.023 A 
ATOM     86  C   UNL A   1      46.609  26.295  35.567  1.00  0.00     0.031 A 
ATOM     87  C   UNL A   1      44.921  24.955  36.645  1.00  0.00     0.131 A 
ATOM     88  C   UNL A   1      47.031  25.153  34.870  1.00  0.00     0.055 A 
ATOM     89  C   UNL A   1      45.378  23.812  35.987  1.00  0.00     0.041 A 
ATOM     90  F   UNL A   1      43.880  24.822  37.482  1.00  0.00    -0.206 F 
ATOM     91  C   UNL A   1      46.434  23.909  35.087  1.00  0.00     0.022 A 
BRANCH  88  92
ATOM     92  S   UNL A   1      48.338  25.329  33.625  1.00  0.00     0.124 S 
ATOM     93  O   UNL A   1      49.075  26.481  34.130  1.00  0.00    -0.237 OA
ATOM     94  O   UNL A   1      49.019  24.041  33.715  1.00  0.00    -0.237 OA
ATOM     95  O   UNL A   1      47.598  25.553  32.385  1.00  0.00    -0.744 OA
ENDBRANCH  88  92
ENDBRANCH  61  85
BRANCH  73  96
ATOM     96  C   UNL A   1      47.043  29.142  42.609  1.00  0.00     0.023 A 
ATOM     97  C   UNL A   1      46.608  28.375  43.706  1.00  0.00     0.031 A 
ATOM     98  C   UNL A   1      48.391  29.547  42.586  1.00  0.00     0.131 A 
ATOM     99  C   UNL A   1      47.490  28.104  44.764  1.00  0.00     0.055 A 
ATOM    100  C   UNL A   1      49.282  29.207  43.604  1.00  0.00     0.041 A 
ATOM    101  F   UNL A   1      48.866  30.283  41.568  1.00  0.00    -0.206 F 
ATOM    102  C   UNL A   1      48.829  28.497  44.712  1.00  0.00     0.022 A 
BRANCH  99 103
ATOM    103  S   UNL A   1      46.830  27.341  46.274  1.00  0.00     0.124 S 
ATOM    104  O   UNL A   1      47.444  26.018  46.237  1.00  0.00    -0.237 OA
ATOM    105  O   UNL A   1      47.315  28.241  47.315  1.00  0.00    -0.237 OA
ATOM    106  O   UNL A   1      45.384  27.359  46.062  1.00  0.00    -0.744 OA
ENDBRANCH  99 103
ENDBRANCH  73  96
ENDBRANCH  47  48
ENDBRANCH  40  42
ENDBRANCH  39  40
ENDBRANCH  38  39
ENDBRANCH  37  38
ENDBRANCH  36  37
ENDBRANCH  35  36
ENDBRANCH  34  35
ENDBRANCH  33  34
ENDBRANCH   1  33
TORSDOF 29
ENDMDL
