MODEL 1
REMARK VINA RESULT:      -9.8      0.000      0.000
REMARK SMILES Nc1cc(C(=O)OCCOCCOCCOCCOC(=O)c2ccc(-c3c4nc(c(-c5cc(S(=O)(=O)[O-])ccc5F)c5ccc([nH]5)c(-c5cc(S(=O)(=O)[O-])ccc5F)c5nc(c(-c6cc(S(=O)(=O)[O-])ccc6F)c6ccc3[nH]6)C=C5)C=C4)cc2)c(O)c([N+](=O)[O-])c1
REMARK SMILES IDX 14 1 13 2 12 3 11 4 10 5 9 6 8 7 7 8 5 9 6 10 4 11 2 12 3 13
REMARK SMILES IDX 91 14 87 15 85 16 1 17 88 20 89 21 90 22 86 23 15 25 16 26
REMARK SMILES IDX 17 27 18 28 19 29 20 30 21 31 22 32 23 33 84 34 24 35 83 36
REMARK SMILES IDX 25 37 26 38 27 39 77 40 28 41 82 42 76 43 78 44 29 45 81 46
REMARK SMILES IDX 75 47 74 48 30 50 62 51 42 52 61 53 43 54 46 55 60 56 79 57
REMARK SMILES IDX 44 58 45 59 59 61 80 62 47 63 31 64 32 65 40 66 33 67 39 68
REMARK SMILES IDX 41 69 38 70 34 71 35 72 36 73 37 74 63 75 64 76 72 77 65 78
REMARK SMILES IDX 71 79 73 80 70 81 66 82 67 83 68 84 69 85 48 86 49 87 57 88
REMARK SMILES IDX 50 89 56 90 58 91 55 92 51 93 52 94 53 95 54 96
REMARK H PARENT 1 18 1 19 86 24 78 49 46 60
REMARK Flexibility Score: inf
ROOT
ATOM      1  C   UNL A   1      32.255  29.157  24.832  1.00  0.00     0.188 C 
ENDROOT
BRANCH   1   2
ATOM      2  O   UNL A   1      31.237  29.326  23.848  1.00  0.00    -0.377 OA
BRANCH   2   3
ATOM      3  C   UNL A   1      30.240  28.330  23.670  1.00  0.00     0.188 C 
BRANCH   3   4
ATOM      4  C   UNL A   1      30.630  26.909  23.203  1.00  0.00     0.188 C 
BRANCH   4   5
ATOM      5  O   UNL A   1      31.839  26.840  22.476  1.00  0.00    -0.376 OA
BRANCH   5   6
ATOM      6  C   UNL A   1      31.971  25.933  21.398  1.00  0.00     0.202 C 
BRANCH   6   7
ATOM      7  C   UNL A   1      32.905  24.718  21.497  1.00  0.00     0.261 C 
BRANCH   7   8
ATOM      8  O   UNL A   1      34.017  24.852  22.385  1.00  0.00    -0.460 OA
BRANCH   8   9
ATOM      9  C   UNL A   1      34.508  23.725  22.943  1.00  0.00     0.342 C 
ATOM     10  O   UNL A   1      35.655  23.320  22.883  1.00  0.00    -0.246 OA
BRANCH   9  11
ATOM     11  C   UNL A   1      33.494  23.183  23.879  1.00  0.00     0.111 A 
ATOM     12  C   UNL A   1      32.362  21.170  24.674  1.00  0.00     0.039 A 
ATOM     13  C   UNL A   1      33.255  21.797  23.806  1.00  0.00     0.045 A 
ATOM     14  C   UNL A   1      31.706  21.945  25.629  1.00  0.00     0.115 A 
ATOM     15  C   UNL A   1      31.939  23.330  25.706  1.00  0.00     0.313 A 
ATOM     16  C   UNL A   1      32.847  23.962  24.845  1.00  0.00     0.209 A 
BRANCH  12  17
ATOM     17  N   UNL A   1      32.216  19.795  24.661  1.00  0.00    -0.398 N 
ATOM     18  H   UNL A   1      31.560  19.364  25.255  1.00  0.00     0.156 HD
ATOM     19  H   UNL A   1      32.768  19.248  24.056  1.00  0.00     0.156 HD
ENDBRANCH  12  17
BRANCH  15  20
ATOM     20  N   UNL A   1      31.192  24.094  26.702  1.00  0.00     0.066 N 
ATOM     21  O   UNL A   1      30.182  23.564  27.188  1.00  0.00    -0.258 OA
ATOM     22  O   UNL A   1      31.614  25.220  27.002  1.00  0.00    -0.258 OA
ENDBRANCH  15  20
BRANCH  16  23
ATOM     23  O   UNL A   1      33.112  25.302  24.886  1.00  0.00    -0.501 OA
ATOM     24  H   UNL A   1      32.563  25.904  24.423  1.00  0.00     0.293 HD
ENDBRANCH  16  23
ENDBRANCH   9  11
ENDBRANCH   8   9
ENDBRANCH   7   8
ENDBRANCH   6   7
ENDBRANCH   5   6
ENDBRANCH   4   5
ENDBRANCH   3   4
ENDBRANCH   2   3
ENDBRANCH   1   2
BRANCH   1  25
ATOM     25  C   UNL A   1      31.984  29.444  26.326  1.00  0.00     0.188 C 
BRANCH  25  26
ATOM     26  O   UNL A   1      32.379  30.736  26.758  1.00  0.00    -0.376 OA
BRANCH  26  27
ATOM     27  C   UNL A   1      31.495  31.810  26.491  1.00  0.00     0.202 C 
BRANCH  27  28
ATOM     28  C   UNL A   1      31.837  33.168  27.122  1.00  0.00     0.261 C 
BRANCH  28  29
ATOM     29  O   UNL A   1      33.212  33.571  27.063  1.00  0.00    -0.460 OA
BRANCH  29  30
ATOM     30  C   UNL A   1      33.755  34.081  28.195  1.00  0.00     0.338 C 
ATOM     31  O   UNL A   1      33.305  34.974  28.880  1.00  0.00    -0.246 OA
BRANCH  30  32
ATOM     32  C   UNL A   1      34.905  33.221  28.556  1.00  0.00     0.060 A 
ATOM     33  C   UNL A   1      34.672  31.900  28.963  1.00  0.00     0.016 A 
ATOM     34  C   UNL A   1      36.206  33.718  28.477  1.00  0.00     0.016 A 
ATOM     35  C   UNL A   1      35.745  31.081  29.320  1.00  0.00     0.010 A 
ATOM     36  C   UNL A   1      37.277  32.904  28.856  1.00  0.00     0.010 A 
ATOM     37  C   UNL A   1      37.050  31.592  29.309  1.00  0.00    -0.014 A 
BRANCH  37  38
ATOM     38  C   UNL A   1      38.149  30.831  29.956  1.00  0.00     0.031 A 
ATOM     39  C   UNL A   1      38.461  31.130  31.399  1.00  0.00     0.074 A 
ATOM     40  C   UNL A   1      38.845  29.892  29.291  1.00  0.00     0.049 A 
ATOM     41  N   UNL A   1      39.414  30.658  32.159  1.00  0.00    -0.248 NA
ATOM     42  C   UNL A   1      37.577  32.096  32.071  1.00  0.00     0.031 C 
ATOM     43  C   UNL A   1      38.599  29.477  27.911  1.00  0.00     0.029 A 
ATOM     44  N   UNL A   1      39.910  29.119  29.689  1.00  0.00    -0.354 N 
ATOM     45  C   UNL A   1      39.252  31.277  33.395  1.00  0.00     0.074 A 
ATOM     46  C   UNL A   1      38.129  32.180  33.271  1.00  0.00     0.031 C 
ATOM     47  C   UNL A   1      39.495  28.531  27.574  1.00  0.00     0.029 A 
ATOM     48  C   UNL A   1      40.407  28.307  28.694  1.00  0.00     0.049 A 
ATOM     49  H   UNL A   1      40.282  29.145  30.599  1.00  0.00     0.167 HD
ATOM     50  C   UNL A   1      39.972  31.103  34.530  1.00  0.00     0.034 A 
ATOM     51  C   UNL A   1      41.491  27.503  28.686  1.00  0.00     0.034 A 
ATOM     52  C   UNL A   1      41.094  30.203  34.634  1.00  0.00     0.049 A 
ATOM     53  C   UNL A   1      42.339  27.402  29.936  1.00  0.00     0.074 A 
ATOM     54  C   UNL A   1      41.881  29.937  35.741  1.00  0.00     0.029 A 
ATOM     55  N   UNL A   1      41.599  29.435  33.594  1.00  0.00    -0.354 N 
ATOM     56  N   UNL A   1      42.169  27.984  31.101  1.00  0.00    -0.248 NA
ATOM     57  C   UNL A   1      43.520  26.530  29.870  1.00  0.00     0.031 C 
ATOM     58  C   UNL A   1      42.912  29.079  35.349  1.00  0.00     0.029 A 
ATOM     59  C   UNL A   1      42.712  28.727  34.023  1.00  0.00     0.049 A 
ATOM     60  H   UNL A   1      41.223  29.397  32.686  1.00  0.00     0.167 HD
ATOM     61  C   UNL A   1      43.198  27.512  31.916  1.00  0.00     0.074 A 
ATOM     62  C   UNL A   1      43.973  26.590  31.113  1.00  0.00     0.031 C 
ATOM     63  C   UNL A   1      43.476  27.809  33.212  1.00  0.00     0.034 A 
BRANCH  50  64
ATOM     64  C   UNL A   1      39.606  31.943  35.728  1.00  0.00     0.023 A 
ATOM     65  C   UNL A   1      38.763  31.464  36.746  1.00  0.00     0.031 A 
ATOM     66  C   UNL A   1      40.109  33.251  35.851  1.00  0.00     0.131 A 
ATOM     67  C   UNL A   1      38.406  32.305  37.811  1.00  0.00     0.055 A 
ATOM     68  C   UNL A   1      39.814  34.054  36.953  1.00  0.00     0.041 A 
ATOM     69  F   UNL A   1      40.896  33.772  34.895  1.00  0.00    -0.206 F 
ATOM     70  C   UNL A   1      38.949  33.586  37.936  1.00  0.00     0.022 A 
BRANCH  67  71
ATOM     71  S   UNL A   1      37.123  31.748  38.966  1.00  0.00     0.124 S 
ATOM     72  O   UNL A   1      36.063  32.722  38.722  1.00  0.00    -0.237 OA
ATOM     73  O   UNL A   1      36.858  30.388  38.511  1.00  0.00    -0.237 OA
ATOM     74  O   UNL A   1      37.768  31.854  40.273  1.00  0.00    -0.744 OA
ENDBRANCH  67  71
ENDBRANCH  50  64
BRANCH  51  75
ATOM     75  C   UNL A   1      41.885  26.758  27.450  1.00  0.00     0.023 A 
ATOM     76  C   UNL A   1      41.654  25.378  27.328  1.00  0.00     0.031 A 
ATOM     77  C   UNL A   1      42.584  27.400  26.411  1.00  0.00     0.131 A 
ATOM     78  C   UNL A   1      42.175  24.674  26.231  1.00  0.00     0.055 A 
ATOM     79  C   UNL A   1      43.039  26.707  25.288  1.00  0.00     0.041 A 
ATOM     80  F   UNL A   1      42.844  28.715  26.476  1.00  0.00    -0.206 F 
ATOM     81  C   UNL A   1      42.851  25.331  25.201  1.00  0.00     0.022 A 
BRANCH  78  82
ATOM     82  S   UNL A   1      42.067  22.863  26.233  1.00  0.00     0.124 S 
ATOM     83  O   UNL A   1      42.862  22.520  27.406  1.00  0.00    -0.237 OA
ATOM     84  O   UNL A   1      40.629  22.646  26.347  1.00  0.00    -0.237 OA
ATOM     85  O   UNL A   1      42.653  22.486  24.949  1.00  0.00    -0.744 OA
ENDBRANCH  78  82
ENDBRANCH  51  75
BRANCH  63  86
ATOM     86  C   UNL A   1      44.629  27.078  33.862  1.00  0.00     0.023 A 
ATOM     87  C   UNL A   1      44.454  25.856  34.536  1.00  0.00     0.031 A 
ATOM     88  C   UNL A   1      45.926  27.619  33.806  1.00  0.00     0.131 A 
ATOM     89  C   UNL A   1      45.544  25.248  35.176  1.00  0.00     0.055 A 
ATOM     90  C   UNL A   1      47.021  26.972  34.382  1.00  0.00     0.041 A 
ATOM     91  F   UNL A   1      46.155  28.785  33.180  1.00  0.00    -0.206 F 
ATOM     92  C   UNL A   1      46.831  25.787  35.085  1.00  0.00     0.022 A 
BRANCH  89  93
ATOM     93  S   UNL A   1      45.245  23.793  36.217  1.00  0.00     0.124 S 
ATOM     94  O   UNL A   1      46.579  23.212  36.317  1.00  0.00    -0.237 OA
ATOM     95  O   UNL A   1      44.716  24.388  37.441  1.00  0.00    -0.237 OA
ATOM     96  O   UNL A   1      44.283  23.009  35.444  1.00  0.00    -0.744 OA
ENDBRANCH  89  93
ENDBRANCH  63  86
ENDBRANCH  37  38
ENDBRANCH  30  32
ENDBRANCH  29  30
ENDBRANCH  28  29
ENDBRANCH  27  28
ENDBRANCH  26  27
ENDBRANCH  25  26
ENDBRANCH   1  25
TORSDOF 26
ENDMDL
MODEL 2
REMARK VINA RESULT:      -9.5      1.897      2.536
REMARK SMILES Nc1cc(C(=O)OCCOCCOCCOCCOC(=O)c2ccc(-c3c4nc(c(-c5cc(S(=O)(=O)[O-])ccc5F)c5ccc([nH]5)c(-c5cc(S(=O)(=O)[O-])ccc5F)c5nc(c(-c6cc(S(=O)(=O)[O-])ccc6F)c6ccc3[nH]6)C=C5)C=C4)cc2)c(O)c([N+](=O)[O-])c1
REMARK SMILES IDX 14 1 13 2 12 3 11 4 10 5 9 6 8 7 7 8 5 9 6 10 4 11 2 12 3 13
REMARK SMILES IDX 91 14 87 15 85 16 1 17 88 20 89 21 90 22 86 23 15 25 16 26
REMARK SMILES IDX 17 27 18 28 19 29 20 30 21 31 22 32 23 33 84 34 24 35 83 36
REMARK SMILES IDX 25 37 26 38 27 39 77 40 28 41 82 42 76 43 78 44 29 45 81 46
REMARK SMILES IDX 75 47 74 48 30 50 62 51 42 52 61 53 43 54 46 55 60 56 79 57
REMARK SMILES IDX 44 58 45 59 59 61 80 62 47 63 31 64 32 65 40 66 33 67 39 68
REMARK SMILES IDX 41 69 38 70 34 71 35 72 36 73 37 74 63 75 64 76 72 77 65 78
REMARK SMILES IDX 71 79 73 80 70 81 66 82 67 83 68 84 69 85 48 86 49 87 57 88
REMARK SMILES IDX 50 89 56 90 58 91 55 92 51 93 52 94 53 95 54 96
REMARK H PARENT 1 18 1 19 86 24 78 49 46 60
REMARK Flexibility Score: inf
ROOT
ATOM      1  C   UNL A   1      32.485  28.953  25.000  1.00  0.00     0.188 C 
ENDROOT
BRANCH   1   2
ATOM      2  O   UNL A   1      31.547  29.078  23.933  1.00  0.00    -0.377 OA
BRANCH   2   3
ATOM      3  C   UNL A   1      31.690  28.295  22.758  1.00  0.00     0.188 C 
BRANCH   3   4
ATOM      4  C   UNL A   1      32.158  26.824  22.850  1.00  0.00     0.188 C 
BRANCH   4   5
ATOM      5  O   UNL A   1      31.224  25.948  23.447  1.00  0.00    -0.376 OA
BRANCH   5   6
ATOM      6  C   UNL A   1      31.570  25.226  24.613  1.00  0.00     0.202 C 
BRANCH   6   7
ATOM      7  C   UNL A   1      32.970  25.346  25.233  1.00  0.00     0.261 C 
BRANCH   7   8
ATOM      8  O   UNL A   1      33.142  24.742  26.517  1.00  0.00    -0.460 OA
BRANCH   8   9
ATOM      9  C   UNL A   1      32.587  23.528  26.713  1.00  0.00     0.342 C 
ATOM     10  O   UNL A   1      31.450  23.297  27.086  1.00  0.00    -0.246 OA
BRANCH   9  11
ATOM     11  C   UNL A   1      33.489  22.499  26.144  1.00  0.00     0.111 A 
ATOM     12  C   UNL A   1      35.811  21.817  25.816  1.00  0.00     0.039 A 
ATOM     13  C   UNL A   1      34.871  22.742  26.268  1.00  0.00     0.045 A 
ATOM     14  C   UNL A   1      35.357  20.633  25.237  1.00  0.00     0.115 A 
ATOM     15  C   UNL A   1      33.979  20.385  25.109  1.00  0.00     0.313 A 
ATOM     16  C   UNL A   1      33.030  21.305  25.575  1.00  0.00     0.209 A 
BRANCH  12  17
ATOM     17  N   UNL A   1      37.160  22.020  26.039  1.00  0.00    -0.398 N 
ATOM     18  H   UNL A   1      37.823  21.425  25.621  1.00  0.00     0.156 HD
ATOM     19  H   UNL A   1      37.458  22.762  26.615  1.00  0.00     0.156 HD
ENDBRANCH  12  17
BRANCH  15  20
ATOM     20  N   UNL A   1      33.565  19.144  24.460  1.00  0.00     0.066 N 
ATOM     21  O   UNL A   1      32.508  19.165  23.811  1.00  0.00    -0.258 OA
ATOM     22  O   UNL A   1      34.293  18.150  24.594  1.00  0.00    -0.258 OA
ENDBRANCH  15  20
BRANCH  16  23
ATOM     23  O   UNL A   1      31.680  21.106  25.480  1.00  0.00    -0.501 OA
ATOM     24  H   UNL A   1      31.344  20.253  25.287  1.00  0.00     0.293 HD
ENDBRANCH  16  23
ENDBRANCH   9  11
ENDBRANCH   8   9
ENDBRANCH   7   8
ENDBRANCH   6   7
ENDBRANCH   5   6
ENDBRANCH   4   5
ENDBRANCH   3   4
ENDBRANCH   2   3
ENDBRANCH   1   2
BRANCH   1  25
ATOM     25  C   UNL A   1      32.024  28.939  26.476  1.00  0.00     0.188 C 
BRANCH  25  26
ATOM     26  O   UNL A   1      31.978  30.217  27.090  1.00  0.00    -0.376 OA
BRANCH  26  27
ATOM     27  C   UNL A   1      31.431  31.282  26.333  1.00  0.00     0.202 C 
BRANCH  27  28
ATOM     28  C   UNL A   1      31.616  32.701  26.892  1.00  0.00     0.261 C 
BRANCH  28  29
ATOM     29  O   UNL A   1      32.945  33.238  26.845  1.00  0.00    -0.460 OA
BRANCH  29  30
ATOM     30  C   UNL A   1      33.431  33.786  27.985  1.00  0.00     0.338 C 
ATOM     31  O   UNL A   1      32.907  34.646  28.660  1.00  0.00    -0.246 OA
BRANCH  30  32
ATOM     32  C   UNL A   1      34.632  33.010  28.367  1.00  0.00     0.060 A 
ATOM     33  C   UNL A   1      34.514  31.633  28.601  1.00  0.00     0.016 A 
ATOM     34  C   UNL A   1      35.872  33.643  28.478  1.00  0.00     0.016 A 
ATOM     35  C   UNL A   1      35.635  30.890  28.976  1.00  0.00     0.010 A 
ATOM     36  C   UNL A   1      36.988  32.902  28.876  1.00  0.00     0.010 A 
ATOM     37  C   UNL A   1      36.870  31.529  29.157  1.00  0.00    -0.014 A 
BRANCH  37  38
ATOM     38  C   UNL A   1      37.984  30.812  29.828  1.00  0.00     0.031 A 
ATOM     39  C   UNL A   1      38.309  31.185  31.250  1.00  0.00     0.074 A 
ATOM     40  C   UNL A   1      38.681  29.847  29.202  1.00  0.00     0.049 A 
ATOM     41  N   UNL A   1      39.275  30.761  32.022  1.00  0.00    -0.248 NA
ATOM     42  C   UNL A   1      37.424  32.176  31.884  1.00  0.00     0.031 C 
ATOM     43  C   UNL A   1      38.423  29.360  27.848  1.00  0.00     0.029 A 
ATOM     44  N   UNL A   1      39.758  29.105  29.626  1.00  0.00    -0.354 N 
ATOM     45  C   UNL A   1      39.122  31.439  33.227  1.00  0.00     0.074 A 
ATOM     46  C   UNL A   1      37.989  32.325  33.071  1.00  0.00     0.031 C 
ATOM     47  C   UNL A   1      39.324  28.407  27.548  1.00  0.00     0.029 A 
ATOM     48  C   UNL A   1      40.251  28.248  28.667  1.00  0.00     0.049 A 
ATOM     49  H   UNL A   1      40.140  29.179  30.529  1.00  0.00     0.167 HD
ATOM     50  C   UNL A   1      39.856  31.329  34.360  1.00  0.00     0.034 A 
ATOM     51  C   UNL A   1      41.343  27.454  28.686  1.00  0.00     0.034 A 
ATOM     52  C   UNL A   1      40.988  30.446  34.496  1.00  0.00     0.049 A 
ATOM     53  C   UNL A   1      42.207  27.424  29.929  1.00  0.00     0.074 A 
ATOM     54  C   UNL A   1      41.791  30.243  35.605  1.00  0.00     0.029 A 
ATOM     55  N   UNL A   1      41.489  29.631  33.490  1.00  0.00    -0.354 N 
ATOM     56  N   UNL A   1      42.045  28.062  31.066  1.00  0.00    -0.248 NA
ATOM     57  C   UNL A   1      43.395  26.562  29.893  1.00  0.00     0.031 C 
ATOM     58  C   UNL A   1      42.826  29.376  35.244  1.00  0.00     0.029 A 
ATOM     59  C   UNL A   1      42.613  28.957  33.939  1.00  0.00     0.049 A 
ATOM     60  H   UNL A   1      41.103  29.545  32.589  1.00  0.00     0.167 HD
ATOM     61  C   UNL A   1      43.087  27.642  31.890  1.00  0.00     0.074 A 
ATOM     62  C   UNL A   1      43.862  26.688  31.126  1.00  0.00     0.031 C 
ATOM     63  C   UNL A   1      43.378  28.006  33.167  1.00  0.00     0.034 A 
BRANCH  50  64
ATOM     64  C   UNL A   1      39.496  32.226  35.519  1.00  0.00     0.023 A 
ATOM     65  C   UNL A   1      40.071  33.498  35.685  1.00  0.00     0.031 A 
ATOM     66  C   UNL A   1      38.563  31.794  36.478  1.00  0.00     0.131 A 
ATOM     67  C   UNL A   1      39.746  34.270  36.811  1.00  0.00     0.055 A 
ATOM     68  C   UNL A   1      38.185  32.599  37.554  1.00  0.00     0.041 A 
ATOM     69  F   UNL A   1      38.004  30.577  36.388  1.00  0.00    -0.206 F 
ATOM     70  C   UNL A   1      38.786  33.841  37.731  1.00  0.00     0.022 A 
BRANCH  67  71
ATOM     71  S   UNL A   1      40.690  35.786  37.126  1.00  0.00     0.124 S 
ATOM     72  O   UNL A   1      41.613  35.348  38.170  1.00  0.00    -0.237 OA
ATOM     73  O   UNL A   1      41.283  36.065  35.824  1.00  0.00    -0.237 OA
ATOM     74  O   UNL A   1      39.672  36.738  37.565  1.00  0.00    -0.744 OA
ENDBRANCH  67  71
ENDBRANCH  50  64
BRANCH  51  75
ATOM     75  C   UNL A   1      41.730  26.653  27.484  1.00  0.00     0.023 A 
ATOM     76  C   UNL A   1      41.451  25.279  27.407  1.00  0.00     0.031 A 
ATOM     77  C   UNL A   1      42.470  27.231  26.436  1.00  0.00     0.131 A 
ATOM     78  C   UNL A   1      41.963  24.517  26.344  1.00  0.00     0.055 A 
ATOM     79  C   UNL A   1      42.918  26.482  25.346  1.00  0.00     0.041 A 
ATOM     80  F   UNL A   1      42.777  28.538  26.460  1.00  0.00    -0.206 F 
ATOM     81  C   UNL A   1      42.680  25.112  25.304  1.00  0.00     0.022 A 
BRANCH  78  82
ATOM     82  S   UNL A   1      41.789  22.712  26.408  1.00  0.00     0.124 S 
ATOM     83  O   UNL A   1      42.202  22.423  27.775  1.00  0.00    -0.237 OA
ATOM     84  O   UNL A   1      40.371  22.535  26.115  1.00  0.00    -0.237 OA
ATOM     85  O   UNL A   1      42.702  22.246  25.367  1.00  0.00    -0.744 OA
ENDBRANCH  78  82
ENDBRANCH  51  75
BRANCH  63  86
ATOM     86  C   UNL A   1      44.544  27.319  33.839  1.00  0.00     0.023 A 
ATOM     87  C   UNL A   1      44.414  26.068  34.469  1.00  0.00     0.031 A 
ATOM     88  C   UNL A   1      45.811  27.933  33.849  1.00  0.00     0.131 A 
ATOM     89  C   UNL A   1      45.513  25.501  35.132  1.00  0.00     0.055 A 
ATOM     90  C   UNL A   1      46.918  27.329  34.447  1.00  0.00     0.041 A 
ATOM     91  F   UNL A   1      45.996  29.128  33.266  1.00  0.00    -0.206 F 
ATOM     92  C   UNL A   1      46.769  26.113  35.106  1.00  0.00     0.022 A 
BRANCH  89  93
ATOM     93  S   UNL A   1      45.257  24.000  36.117  1.00  0.00     0.124 S 
ATOM     94  O   UNL A   1      45.145  24.540  37.468  1.00  0.00    -0.237 OA
ATOM     95  O   UNL A   1      44.029  23.456  35.546  1.00  0.00    -0.237 OA
ATOM     96  O   UNL A   1      46.461  23.212  35.862  1.00  0.00    -0.744 OA
ENDBRANCH  89  93
ENDBRANCH  63  86
ENDBRANCH  37  38
ENDBRANCH  30  32
ENDBRANCH  29  30
ENDBRANCH  28  29
ENDBRANCH  27  28
ENDBRANCH  26  27
ENDBRANCH  25  26
ENDBRANCH   1  25
TORSDOF 26
ENDMDL
MODEL 3
REMARK VINA RESULT:      -9.1      2.383      9.185
REMARK SMILES Nc1cc(C(=O)OCCOCCOCCOCCOC(=O)c2ccc(-c3c4nc(c(-c5cc(S(=O)(=O)[O-])ccc5F)c5ccc([nH]5)c(-c5cc(S(=O)(=O)[O-])ccc5F)c5nc(c(-c6cc(S(=O)(=O)[O-])ccc6F)c6ccc3[nH]6)C=C5)C=C4)cc2)c(O)c([N+](=O)[O-])c1
REMARK SMILES IDX 14 1 13 2 12 3 11 4 10 5 9 6 8 7 7 8 5 9 6 10 4 11 2 12 3 13
REMARK SMILES IDX 91 14 87 15 85 16 1 17 88 20 89 21 90 22 86 23 15 25 16 26
REMARK SMILES IDX 17 27 18 28 19 29 20 30 21 31 22 32 23 33 84 34 24 35 83 36
REMARK SMILES IDX 25 37 26 38 27 39 77 40 28 41 82 42 76 43 78 44 29 45 81 46
REMARK SMILES IDX 75 47 74 48 30 50 62 51 42 52 61 53 43 54 46 55 60 56 79 57
REMARK SMILES IDX 44 58 45 59 59 61 80 62 47 63 31 64 32 65 40 66 33 67 39 68
REMARK SMILES IDX 41 69 38 70 34 71 35 72 36 73 37 74 63 75 64 76 72 77 65 78
REMARK SMILES IDX 71 79 73 80 70 81 66 82 67 83 68 84 69 85 48 86 49 87 57 88
REMARK SMILES IDX 50 89 56 90 58 91 55 92 51 93 52 94 53 95 54 96
REMARK H PARENT 1 18 1 19 86 24 78 49 46 60
REMARK Flexibility Score: inf
ROOT
ATOM      1  C   UNL A   1      40.674  21.509  26.149  1.00  0.00     0.188 C 
ENDROOT
BRANCH   1   2
ATOM      2  O   UNL A   1      39.522  22.154  26.685  1.00  0.00    -0.377 OA
BRANCH   2   3
ATOM      3  C   UNL A   1      38.301  22.161  25.960  1.00  0.00     0.188 C 
BRANCH   3   4
ATOM      4  C   UNL A   1      37.759  23.476  25.353  1.00  0.00     0.188 C 
BRANCH   4   5
ATOM      5  O   UNL A   1      36.706  24.069  26.084  1.00  0.00    -0.376 OA
BRANCH   5   6
ATOM      6  C   UNL A   1      35.361  23.769  25.764  1.00  0.00     0.202 C 
BRANCH   6   7
ATOM      7  C   UNL A   1      34.859  22.318  25.730  1.00  0.00     0.261 C 
BRANCH   7   8
ATOM      8  O   UNL A   1      34.678  21.748  24.432  1.00  0.00    -0.460 OA
BRANCH   8   9
ATOM      9  C   UNL A   1      33.416  21.468  24.045  1.00  0.00     0.342 C 
ATOM     10  O   UNL A   1      32.861  20.383  24.091  1.00  0.00    -0.246 OA
BRANCH   9  11
ATOM     11  C   UNL A   1      32.702  22.744  23.804  1.00  0.00     0.111 A 
ATOM     12  C   UNL A   1      30.969  24.265  24.609  1.00  0.00     0.039 A 
ATOM     13  C   UNL A   1      31.671  23.064  24.708  1.00  0.00     0.045 A 
ATOM     14  C   UNL A   1      31.310  25.155  23.593  1.00  0.00     0.115 A 
ATOM     15  C   UNL A   1      32.339  24.842  22.686  1.00  0.00     0.313 A 
ATOM     16  C   UNL A   1      33.057  23.643  22.791  1.00  0.00     0.209 A 
BRANCH  12  17
ATOM     17  N   UNL A   1      30.031  24.612  25.564  1.00  0.00    -0.398 N 
ATOM     18  H   UNL A   1      29.123  24.875  25.290  1.00  0.00     0.156 HD
ATOM     19  H   UNL A   1      30.272  24.594  26.519  1.00  0.00     0.156 HD
ENDBRANCH  12  17
BRANCH  15  20
ATOM     20  N   UNL A   1      32.625  25.798  21.620  1.00  0.00     0.066 N 
ATOM     21  O   UNL A   1      31.729  26.010  20.788  1.00  0.00    -0.258 OA
ATOM     22  O   UNL A   1      33.740  26.338  21.611  1.00  0.00    -0.258 OA
ENDBRANCH  15  20
BRANCH  16  23
ATOM     23  O   UNL A   1      34.069  23.297  21.939  1.00  0.00    -0.501 OA
ATOM     24  H   UNL A   1      34.337  22.402  21.868  1.00  0.00     0.293 HD
ENDBRANCH  16  23
ENDBRANCH   9  11
ENDBRANCH   8   9
ENDBRANCH   7   8
ENDBRANCH   6   7
ENDBRANCH   5   6
ENDBRANCH   4   5
ENDBRANCH   3   4
ENDBRANCH   2   3
ENDBRANCH   1   2
BRANCH   1  25
ATOM     25  C   UNL A   1      41.744  20.879  27.072  1.00  0.00     0.188 C 
BRANCH  25  26
ATOM     26  O   UNL A   1      42.957  20.540  26.420  1.00  0.00    -0.376 OA
BRANCH  26  27
ATOM     27  C   UNL A   1      43.400  21.398  25.384  1.00  0.00     0.202 C 
BRANCH  27  28
ATOM     28  C   UNL A   1      44.754  22.095  25.588  1.00  0.00     0.261 C 
BRANCH  28  29
ATOM     29  O   UNL A   1      44.732  23.337  26.305  1.00  0.00    -0.460 OA
BRANCH  29  30
ATOM     30  C   UNL A   1      44.268  24.425  25.642  1.00  0.00     0.338 C 
ATOM     31  O   UNL A   1      44.273  24.603  24.444  1.00  0.00    -0.246 OA
BRANCH  30  32
ATOM     32  C   UNL A   1      43.576  25.279  26.634  1.00  0.00     0.060 A 
ATOM     33  C   UNL A   1      43.985  26.610  26.798  1.00  0.00     0.016 A 
ATOM     34  C   UNL A   1      42.517  24.767  27.385  1.00  0.00     0.016 A 
ATOM     35  C   UNL A   1      43.351  27.423  27.739  1.00  0.00     0.010 A 
ATOM     36  C   UNL A   1      41.899  25.576  28.342  1.00  0.00     0.010 A 
ATOM     37  C   UNL A   1      42.333  26.899  28.546  1.00  0.00    -0.014 A 
BRANCH  37  38
ATOM     38  C   UNL A   1      41.860  27.658  29.731  1.00  0.00     0.031 A 
ATOM     39  C   UNL A   1      40.623  28.505  29.581  1.00  0.00     0.074 A 
ATOM     40  C   UNL A   1      42.498  27.592  30.913  1.00  0.00     0.049 A 
ATOM     41  N   UNL A   1      40.058  29.312  30.439  1.00  0.00    -0.248 NA
ATOM     42  C   UNL A   1      39.935  28.429  28.281  1.00  0.00     0.031 C 
ATOM     43  C   UNL A   1      43.671  26.766  31.196  1.00  0.00     0.029 A 
ATOM     44  N   UNL A   1      42.251  28.240  32.100  1.00  0.00    -0.354 N 
ATOM     45  C   UNL A   1      38.956  29.850  29.782  1.00  0.00     0.074 A 
ATOM     46  C   UNL A   1      38.952  29.300  28.444  1.00  0.00     0.031 C 
ATOM     47  C   UNL A   1      44.047  26.965  32.472  1.00  0.00     0.029 A 
ATOM     48  C   UNL A   1      43.175  27.965  33.083  1.00  0.00     0.049 A 
ATOM     49  H   UNL A   1      41.486  28.844  32.233  1.00  0.00     0.167 HD
ATOM     50  C   UNL A   1      38.030  30.719  30.254  1.00  0.00     0.034 A 
ATOM     51  C   UNL A   1      43.313  28.488  34.320  1.00  0.00     0.034 A 
ATOM     52  C   UNL A   1      38.053  31.264  31.589  1.00  0.00     0.049 A 
ATOM     53  C   UNL A   1      42.323  29.534  34.789  1.00  0.00     0.074 A 
ATOM     54  C   UNL A   1      37.154  32.138  32.175  1.00  0.00     0.029 A 
ATOM     55  N   UNL A   1      39.030  31.003  32.540  1.00  0.00    -0.354 N 
ATOM     56  N   UNL A   1      41.279  30.026  34.162  1.00  0.00    -0.248 NA
ATOM     57  C   UNL A   1      42.528  30.088  36.134  1.00  0.00     0.031 C 
ATOM     58  C   UNL A   1      37.633  32.473  33.445  1.00  0.00     0.029 A 
ATOM     59  C   UNL A   1      38.778  31.730  33.693  1.00  0.00     0.049 A 
ATOM     60  H   UNL A   1      39.790  30.391  32.415  1.00  0.00     0.167 HD
ATOM     61  C   UNL A   1      40.682  30.914  35.057  1.00  0.00     0.074 A 
ATOM     62  C   UNL A   1      41.474  30.879  36.267  1.00  0.00     0.031 C 
ATOM     63  C   UNL A   1      39.575  31.686  34.896  1.00  0.00     0.034 A 
BRANCH  50  64
ATOM     64  C   UNL A   1      36.951  31.180  29.305  1.00  0.00     0.023 A 
ATOM     65  C   UNL A   1      35.937  30.317  28.854  1.00  0.00     0.031 A 
ATOM     66  C   UNL A   1      36.942  32.507  28.840  1.00  0.00     0.131 A 
ATOM     67  C   UNL A   1      34.990  30.777  27.926  1.00  0.00     0.055 A 
ATOM     68  C   UNL A   1      35.951  32.980  27.979  1.00  0.00     0.041 A 
ATOM     69  F   UNL A   1      37.902  33.368  29.214  1.00  0.00    -0.206 F 
ATOM     70  C   UNL A   1      34.973  32.110  27.508  1.00  0.00     0.022 A 
BRANCH  67  71
ATOM     71  S   UNL A   1      33.857  29.577  27.174  1.00  0.00     0.124 S 
ATOM     72  O   UNL A   1      34.609  29.159  25.994  1.00  0.00    -0.237 OA
ATOM     73  O   UNL A   1      33.711  28.578  28.226  1.00  0.00    -0.237 OA
ATOM     74  O   UNL A   1      32.660  30.366  26.892  1.00  0.00    -0.744 OA
ENDBRANCH  67  71
ENDBRANCH  50  64
BRANCH  51  75
ATOM     75  C   UNL A   1      44.451  28.085  35.202  1.00  0.00     0.023 A 
ATOM     76  C   UNL A   1      44.292  27.099  36.189  1.00  0.00     0.031 A 
ATOM     77  C   UNL A   1      45.690  28.748  35.132  1.00  0.00     0.131 A 
ATOM     78  C   UNL A   1      45.326  26.851  37.107  1.00  0.00     0.055 A 
ATOM     79  C   UNL A   1      46.740  28.449  36.003  1.00  0.00     0.041 A 
ATOM     80  F   UNL A   1      45.899  29.708  34.216  1.00  0.00    -0.206 F 
ATOM     81  C   UNL A   1      46.554  27.507  37.010  1.00  0.00     0.022 A 
BRANCH  78  82
ATOM     82  S   UNL A   1      44.994  25.750  38.510  1.00  0.00     0.124 S 
ATOM     83  O   UNL A   1      44.610  26.700  39.547  1.00  0.00    -0.237 OA
ATOM     84  O   UNL A   1      43.925  24.906  37.986  1.00  0.00    -0.237 OA
ATOM     85  O   UNL A   1      46.272  25.075  38.722  1.00  0.00    -0.744 OA
ENDBRANCH  78  82
ENDBRANCH  51  75
BRANCH  63  86
ATOM     86  C   UNL A   1      39.118  32.504  36.081  1.00  0.00     0.023 A 
ATOM     87  C   UNL A   1      38.319  31.959  37.102  1.00  0.00     0.031 A 
ATOM     88  C   UNL A   1      39.491  33.857  36.187  1.00  0.00     0.131 A 
ATOM     89  C   UNL A   1      37.870  32.777  38.151  1.00  0.00     0.055 A 
ATOM     90  C   UNL A   1      39.101  34.646  37.271  1.00  0.00     0.041 A 
ATOM     91  F   UNL A   1      40.250  34.434  35.243  1.00  0.00    -0.206 F 
ATOM     92  C   UNL A   1      38.274  34.111  38.253  1.00  0.00     0.022 A 
BRANCH  89  93
ATOM     93  S   UNL A   1      36.667  32.103  39.328  1.00  0.00     0.124 S 
ATOM     94  O   UNL A   1      35.440  32.787  38.933  1.00  0.00    -0.237 OA
ATOM     95  O   UNL A   1      36.718  30.672  39.044  1.00  0.00    -0.237 OA
ATOM     96  O   UNL A   1      37.203  32.495  40.630  1.00  0.00    -0.744 OA
ENDBRANCH  89  93
ENDBRANCH  63  86
ENDBRANCH  37  38
ENDBRANCH  30  32
ENDBRANCH  29  30
ENDBRANCH  28  29
ENDBRANCH  27  28
ENDBRANCH  26  27
ENDBRANCH  25  26
ENDBRANCH   1  25
TORSDOF 26
ENDMDL
