MODEL 1
REMARK VINA RESULT:      -7.8      0.000      0.000
REMARK SMILES Cc1c(CC(=O)N[C@H](CO)C(=O)OCCOCCOCCOCCOC(=O)c2ccc(-c3c4nc(c(-c5cc(S(=O)(=O)[O-])ccc5F)c5ccc([nH]5)c(-c5cc(S(=O)(=O)[O-])ccc5F)c5nc(c(-c6cc(S(=O)(=O)[O-])ccc6F)c6ccc3[nH]6)C=C5)C=C4)cc2)cc(-c2ccc(S(C)(=O)=O)cc2)n1-c1cccc(F)c1
REMARK SMILES IDX 18 1 17 2 16 3 15 4 14 5 13 6 11 7 12 8 8 9 7 10 5 11 6 12
REMARK SMILES IDX 4 14 3 15 1 16 2 17 103 18 91 19 92 20 104 21 105 22 110 23
REMARK SMILES IDX 106 24 108 25 107 26 109 27 93 28 94 29 102 30 95 31 101 32
REMARK SMILES IDX 96 33 97 34 98 35 99 36 100 37 9 38 10 39 19 41 20 42 21 43
REMARK SMILES IDX 22 44 23 45 24 46 25 47 26 48 27 49 28 50 29 51 90 52 30 53
REMARK SMILES IDX 89 54 31 55 32 56 33 57 83 58 34 59 88 60 82 61 84 62 35 63
REMARK SMILES IDX 87 64 81 65 80 66 36 68 68 69 48 70 67 71 49 72 52 73 66 74
REMARK SMILES IDX 85 75 50 76 51 77 65 79 86 80 53 81 37 82 38 83 46 84 39 85
REMARK SMILES IDX 45 86 47 87 44 88 40 89 41 90 42 91 43 92 69 93 70 94 78 95
REMARK SMILES IDX 71 96 77 97 79 98 76 99 72 100 73 101 74 102 75 103 54 104
REMARK SMILES IDX 55 105 63 106 56 107 62 108 64 109 61 110 57 111 58 112
REMARK SMILES IDX 59 113 60 114
REMARK H PARENT 7 13 10 40 84 67 52 78
REMARK Flexibility Score: inf
ROOT
ATOM      1  C   UNL A   1      37.327  29.968  29.209  1.00  0.00     0.188 C 
ENDROOT
BRANCH   1   2
ATOM      2  C   UNL A   1      36.519  31.258  29.257  1.00  0.00     0.188 C 
BRANCH   2   3
ATOM      3  O   UNL A   1      35.787  31.631  28.099  1.00  0.00    -0.376 OA
BRANCH   3   4
ATOM      4  C   UNL A   1      35.366  32.969  27.915  1.00  0.00     0.202 C 
BRANCH   4   5
ATOM      5  C   UNL A   1      33.925  33.217  28.246  1.00  0.00     0.261 C 
BRANCH   5   6
ATOM      6  O   UNL A   1      33.757  33.622  29.591  1.00  0.00    -0.462 OA
BRANCH   6   7
ATOM      7  C   UNL A   1      33.256  34.877  29.735  1.00  0.00     0.331 C 
ATOM      8  O   UNL A   1      32.674  35.543  28.889  1.00  0.00    -0.250 OA
BRANCH   7   9
ATOM      9  C   UNL A   1      33.792  35.482  30.997  1.00  0.00     0.218 C 
BRANCH   9  10
ATOM     10  N   UNL A   1      33.803  34.398  32.008  1.00  0.00    -0.341 N 
ATOM     11  C   UNL A   1      34.591  34.109  33.093  1.00  0.00     0.225 C 
ATOM     12  O   UNL A   1      34.165  33.173  33.787  1.00  0.00    -0.275 OA
ATOM     13  H   UNL A   1      33.085  33.739  31.871  1.00  0.00     0.164 HD
BRANCH  11  14
ATOM     14  C   UNL A   1      35.900  34.833  33.507  1.00  0.00     0.137 C 
BRANCH  14  15
ATOM     15  C   UNL A   1      37.240  34.070  33.396  1.00  0.00    -0.017 A 
ATOM     16  C   UNL A   1      37.788  34.248  30.877  1.00  0.00     0.065 C 
ATOM     17  C   UNL A   1      38.069  33.864  32.296  1.00  0.00     0.024 A 
ATOM     18  N   UNL A   1      39.297  33.312  32.724  1.00  0.00    -0.313 N 
ATOM     19  C   UNL A   1      37.923  33.432  34.484  1.00  0.00     0.033 A 
ATOM     20  C   UNL A   1      39.216  33.037  34.111  1.00  0.00     0.053 A 
BRANCH  18  21
ATOM     21  C   UNL A   1      40.497  33.267  31.932  1.00  0.00     0.049 A 
ATOM     22  C   UNL A   1      41.262  34.421  31.712  1.00  0.00     0.027 A 
ATOM     23  C   UNL A   1      40.772  32.110  31.183  1.00  0.00     0.065 A 
ATOM     24  C   UNL A   1      42.219  34.443  30.686  1.00  0.00     0.005 A 
ATOM     25  C   UNL A   1      41.713  32.154  30.161  1.00  0.00     0.125 A 
ATOM     26  C   UNL A   1      42.425  33.314  29.892  1.00  0.00     0.039 A 
ATOM     27  F   UNL A   1      41.879  31.077  29.381  1.00  0.00    -0.207 F 
ENDBRANCH  18  21
BRANCH  20  28
ATOM     28  C   UNL A   1      40.351  32.749  35.080  1.00  0.00    -0.001 A 
ATOM     29  C   UNL A   1      41.028  33.760  35.799  1.00  0.00     0.011 A 
ATOM     30  C   UNL A   1      40.650  31.432  35.472  1.00  0.00     0.011 A 
ATOM     31  C   UNL A   1      41.937  33.503  36.840  1.00  0.00     0.021 A 
ATOM     32  C   UNL A   1      41.544  31.155  36.533  1.00  0.00     0.021 A 
ATOM     33  C   UNL A   1      42.172  32.195  37.226  1.00  0.00     0.067 A 
BRANCH  33  34
ATOM     34  S   UNL A   1      43.210  31.805  38.623  1.00  0.00     0.175 S 
ATOM     35  C   UNL A   1      44.284  33.189  38.907  1.00  0.00     0.163 C 
ATOM     36  O   UNL A   1      42.319  31.690  39.771  1.00  0.00    -0.224 OA
ATOM     37  O   UNL A   1      44.040  30.693  38.221  1.00  0.00    -0.224 OA
ENDBRANCH  33  34
ENDBRANCH  20  28
ENDBRANCH  14  15
ENDBRANCH  11  14
ENDBRANCH   9  10
BRANCH   9  38
ATOM     38  C   UNL A   1      32.864  36.678  31.353  1.00  0.00     0.193 C 
BRANCH  38  39
ATOM     39  O   UNL A   1      33.139  37.825  30.545  1.00  0.00    -0.394 OA
ATOM     40  H   UNL A   1      32.304  38.219  30.247  1.00  0.00     0.210 HD
ENDBRANCH  38  39
ENDBRANCH   9  38
ENDBRANCH   7   9
ENDBRANCH   6   7
ENDBRANCH   5   6
ENDBRANCH   4   5
ENDBRANCH   3   4
ENDBRANCH   2   3
ENDBRANCH   1   2
BRANCH   1  41
ATOM     41  O   UNL A   1      38.006  29.641  27.994  1.00  0.00    -0.377 OA
BRANCH  41  42
ATOM     42  C   UNL A   1      39.359  29.199  28.076  1.00  0.00     0.188 C 
BRANCH  42  43
ATOM     43  C   UNL A   1      39.572  27.842  28.719  1.00  0.00     0.188 C 
BRANCH  43  44
ATOM     44  O   UNL A   1      39.100  26.756  27.956  1.00  0.00    -0.376 OA
BRANCH  44  45
ATOM     45  C   UNL A   1      39.263  25.442  28.491  1.00  0.00     0.202 C 
BRANCH  45  46
ATOM     46  C   UNL A   1      40.086  24.304  27.812  1.00  0.00     0.261 C 
BRANCH  46  47
ATOM     47  O   UNL A   1      41.499  24.421  27.421  1.00  0.00    -0.460 OA
BRANCH  47  48
ATOM     48  C   UNL A   1      42.313  23.360  27.763  1.00  0.00     0.338 C 
ATOM     49  O   UNL A   1      41.859  22.272  28.095  1.00  0.00    -0.246 OA
BRANCH  48  50
ATOM     50  C   UNL A   1      43.837  23.608  27.739  1.00  0.00     0.060 A 
ATOM     51  C   UNL A   1      44.394  24.703  28.401  1.00  0.00     0.016 A 
ATOM     52  C   UNL A   1      44.714  22.978  26.828  1.00  0.00     0.016 A 
ATOM     53  C   UNL A   1      45.774  25.099  28.195  1.00  0.00     0.010 A 
ATOM     54  C   UNL A   1      46.099  23.418  26.584  1.00  0.00     0.010 A 
ATOM     55  C   UNL A   1      46.698  24.498  27.264  1.00  0.00    -0.014 A 
BRANCH  55  56
ATOM     56  C   UNL A   1      47.983  25.384  26.772  1.00  0.00     0.031 A 
ATOM     57  C   UNL A   1      48.760  25.565  28.038  1.00  0.00     0.074 A 
ATOM     58  C   UNL A   1      48.512  26.055  25.654  1.00  0.00     0.049 A 
ATOM     59  N   UNL A   1      48.195  26.054  29.110  1.00  0.00    -0.248 NA
ATOM     60  C   UNL A   1      50.036  24.888  28.281  1.00  0.00     0.031 C 
ATOM     61  C   UNL A   1      47.894  26.194  24.324  1.00  0.00     0.029 A 
ATOM     62  N   UNL A   1      49.738  26.788  25.409  1.00  0.00    -0.354 N 
ATOM     63  C   UNL A   1      49.169  26.063  30.080  1.00  0.00     0.074 A 
ATOM     64  C   UNL A   1      50.171  25.123  29.591  1.00  0.00     0.031 C 
ATOM     65  C   UNL A   1      48.729  26.795  23.422  1.00  0.00     0.029 A 
ATOM     66  C   UNL A   1      49.997  27.198  24.035  1.00  0.00     0.049 A 
ATOM     67  H   UNL A   1      50.366  26.999  26.138  1.00  0.00     0.167 HD
ATOM     68  C   UNL A   1      49.399  27.262  30.691  1.00  0.00     0.034 A 
ATOM     69  C   UNL A   1      51.074  27.862  23.421  1.00  0.00     0.034 A 
ATOM     70  C   UNL A   1      50.554  27.929  30.146  1.00  0.00     0.049 A 
ATOM     71  C   UNL A   1      51.767  28.630  24.456  1.00  0.00     0.074 A 
ATOM     72  C   UNL A   1      51.849  27.519  29.906  1.00  0.00     0.029 A 
ATOM     73  N   UNL A   1      50.329  29.035  29.350  1.00  0.00    -0.354 N 
ATOM     74  N   UNL A   1      51.293  29.744  24.915  1.00  0.00    -0.248 NA
ATOM     75  C   UNL A   1      53.050  28.220  25.011  1.00  0.00     0.031 C 
ATOM     76  C   UNL A   1      52.194  28.099  28.665  1.00  0.00     0.029 A 
ATOM     77  C   UNL A   1      51.278  29.097  28.350  1.00  0.00     0.049 A 
ATOM     78  H   UNL A   1      49.600  29.685  29.479  1.00  0.00     0.167 HD
ATOM     79  C   UNL A   1      51.869  29.825  26.145  1.00  0.00     0.074 A 
ATOM     80  C   UNL A   1      53.108  29.077  26.032  1.00  0.00     0.031 C 
ATOM     81  C   UNL A   1      51.031  29.956  27.205  1.00  0.00     0.034 A 
BRANCH  68  82
ATOM     82  C   UNL A   1      48.161  27.968  31.160  1.00  0.00     0.023 A 
ATOM     83  C   UNL A   1      48.110  29.366  31.095  1.00  0.00     0.031 A 
ATOM     84  C   UNL A   1      47.086  27.296  31.779  1.00  0.00     0.131 A 
ATOM     85  C   UNL A   1      47.040  30.053  31.693  1.00  0.00     0.055 A 
ATOM     86  C   UNL A   1      46.051  27.981  32.410  1.00  0.00     0.041 A 
ATOM     87  F   UNL A   1      47.026  25.954  31.776  1.00  0.00    -0.206 F 
ATOM     88  C   UNL A   1      46.029  29.372  32.378  1.00  0.00     0.022 A 
BRANCH  85  89
ATOM     89  S   UNL A   1      46.986  31.860  31.556  1.00  0.00     0.124 S 
ATOM     90  O   UNL A   1      45.553  32.138  31.602  1.00  0.00    -0.237 OA
ATOM     91  O   UNL A   1      47.745  32.283  32.731  1.00  0.00    -0.237 OA
ATOM     92  O   UNL A   1      47.630  32.133  30.273  1.00  0.00    -0.744 OA
ENDBRANCH  85  89
ENDBRANCH  68  82
BRANCH  69  93
ATOM     93  C   UNL A   1      51.707  28.196  22.024  1.00  0.00     0.023 A 
ATOM     94  C   UNL A   1      53.015  27.702  21.606  1.00  0.00     0.031 A 
ATOM     95  C   UNL A   1      50.924  28.686  20.974  1.00  0.00     0.131 A 
ATOM     96  C   UNL A   1      53.438  27.678  20.240  1.00  0.00     0.055 A 
ATOM     97  C   UNL A   1      51.352  28.667  19.622  1.00  0.00     0.041 A 
ATOM     98  F   UNL A   1      49.674  29.109  21.206  1.00  0.00    -0.206 F 
ATOM     99  C   UNL A   1      52.593  28.152  19.247  1.00  0.00     0.022 A 
BRANCH  96 100
ATOM    100  S   UNL A   1      55.006  26.861  19.684  1.00  0.00     0.124 S 
ATOM    101  O   UNL A   1      55.650  26.494  20.940  1.00  0.00    -0.237 OA
ATOM    102  O   UNL A   1      54.527  25.763  18.850  1.00  0.00    -0.237 OA
ATOM    103  O   UNL A   1      55.697  27.916  18.937  1.00  0.00    -0.744 OA
ENDBRANCH  96 100
ENDBRANCH  69  93
BRANCH  81 104
ATOM    104  C   UNL A   1      49.810  30.864  27.017  1.00  0.00     0.023 A 
ATOM    105  C   UNL A   1      49.820  32.282  26.916  1.00  0.00     0.031 A 
ATOM    106  C   UNL A   1      48.544  30.257  27.035  1.00  0.00     0.131 A 
ATOM    107  C   UNL A   1      48.620  33.024  26.894  1.00  0.00     0.055 A 
ATOM    108  C   UNL A   1      47.355  30.986  26.962  1.00  0.00     0.041 A 
ATOM    109  F   UNL A   1      48.437  28.922  27.138  1.00  0.00    -0.206 F 
ATOM    110  C   UNL A   1      47.388  32.375  26.911  1.00  0.00     0.022 A 
BRANCH 107 111
ATOM    111  S   UNL A   1      48.655  34.850  26.934  1.00  0.00     0.124 S 
ATOM    112  O   UNL A   1      50.077  35.160  27.013  1.00  0.00    -0.237 OA
ATOM    113  O   UNL A   1      47.992  35.210  25.684  1.00  0.00    -0.237 OA
ATOM    114  O   UNL A   1      47.895  35.178  28.143  1.00  0.00    -0.744 OA
ENDBRANCH 107 111
ENDBRANCH  81 104
ENDBRANCH  55  56
ENDBRANCH  48  50
ENDBRANCH  47  48
ENDBRANCH  46  47
ENDBRANCH  45  46
ENDBRANCH  44  45
ENDBRANCH  43  44
ENDBRANCH  42  43
ENDBRANCH  41  42
ENDBRANCH   1  41
TORSDOF 31
ENDMDL
MODEL 2
REMARK VINA RESULT:      -7.7      2.307      2.891
REMARK SMILES Cc1c(CC(=O)N[C@H](CO)C(=O)OCCOCCOCCOCCOC(=O)c2ccc(-c3c4nc(c(-c5cc(S(=O)(=O)[O-])ccc5F)c5ccc([nH]5)c(-c5cc(S(=O)(=O)[O-])ccc5F)c5nc(c(-c6cc(S(=O)(=O)[O-])ccc6F)c6ccc3[nH]6)C=C5)C=C4)cc2)cc(-c2ccc(S(C)(=O)=O)cc2)n1-c1cccc(F)c1
REMARK SMILES IDX 18 1 17 2 16 3 15 4 14 5 13 6 11 7 12 8 8 9 7 10 5 11 6 12
REMARK SMILES IDX 4 14 3 15 1 16 2 17 103 18 91 19 92 20 104 21 105 22 110 23
REMARK SMILES IDX 106 24 108 25 107 26 109 27 93 28 94 29 102 30 95 31 101 32
REMARK SMILES IDX 96 33 97 34 98 35 99 36 100 37 9 38 10 39 19 41 20 42 21 43
REMARK SMILES IDX 22 44 23 45 24 46 25 47 26 48 27 49 28 50 29 51 90 52 30 53
REMARK SMILES IDX 89 54 31 55 32 56 33 57 83 58 34 59 88 60 82 61 84 62 35 63
REMARK SMILES IDX 87 64 81 65 80 66 36 68 68 69 48 70 67 71 49 72 52 73 66 74
REMARK SMILES IDX 85 75 50 76 51 77 65 79 86 80 53 81 37 82 38 83 46 84 39 85
REMARK SMILES IDX 45 86 47 87 44 88 40 89 41 90 42 91 43 92 69 93 70 94 78 95
REMARK SMILES IDX 71 96 77 97 79 98 76 99 72 100 73 101 74 102 75 103 54 104
REMARK SMILES IDX 55 105 63 106 56 107 62 108 64 109 61 110 57 111 58 112
REMARK SMILES IDX 59 113 60 114
REMARK H PARENT 7 13 10 40 84 67 52 78
REMARK Flexibility Score: inf
ROOT
ATOM      1  C   UNL A   1      38.237  30.016  29.111  1.00  0.00     0.188 C 
ENDROOT
BRANCH   1   2
ATOM      2  C   UNL A   1      37.319  31.227  29.205  1.00  0.00     0.188 C 
BRANCH   2   3
ATOM      3  O   UNL A   1      36.363  31.422  28.174  1.00  0.00    -0.376 OA
BRANCH   3   4
ATOM      4  C   UNL A   1      35.793  32.698  27.955  1.00  0.00     0.202 C 
BRANCH   4   5
ATOM      5  C   UNL A   1      34.299  32.739  28.083  1.00  0.00     0.261 C 
BRANCH   5   6
ATOM      6  O   UNL A   1      33.894  33.288  29.322  1.00  0.00    -0.462 OA
BRANCH   6   7
ATOM      7  C   UNL A   1      33.359  34.535  29.230  1.00  0.00     0.331 C 
ATOM      8  O   UNL A   1      32.926  35.081  28.225  1.00  0.00    -0.250 OA
BRANCH   7   9
ATOM      9  C   UNL A   1      33.657  35.296  30.487  1.00  0.00     0.218 C 
BRANCH   9  10
ATOM     10  N   UNL A   1      33.464  34.345  31.607  1.00  0.00    -0.341 N 
ATOM     11  C   UNL A   1      34.139  34.089  32.774  1.00  0.00     0.225 C 
ATOM     12  O   UNL A   1      33.552  33.301  33.530  1.00  0.00    -0.275 OA
ATOM     13  H   UNL A   1      32.674  33.769  31.488  1.00  0.00     0.164 HD
BRANCH  11  14
ATOM     14  C   UNL A   1      35.504  34.688  33.204  1.00  0.00     0.137 C 
BRANCH  14  15
ATOM     15  C   UNL A   1      36.403  33.878  34.166  1.00  0.00    -0.017 A 
ATOM     16  C   UNL A   1      38.003  32.649  32.551  1.00  0.00     0.065 C 
ATOM     17  C   UNL A   1      37.494  33.055  33.899  1.00  0.00     0.024 A 
ATOM     18  N   UNL A   1      38.142  32.717  35.108  1.00  0.00    -0.313 N 
ATOM     19  C   UNL A   1      36.283  33.861  35.595  1.00  0.00     0.033 A 
ATOM     20  C   UNL A   1      37.383  33.227  36.190  1.00  0.00     0.053 A 
BRANCH  18  21
ATOM     21  C   UNL A   1      39.466  32.164  35.204  1.00  0.00     0.049 A 
ATOM     22  C   UNL A   1      40.600  32.970  35.032  1.00  0.00     0.027 A 
ATOM     23  C   UNL A   1      39.616  30.767  35.234  1.00  0.00     0.065 A 
ATOM     24  C   UNL A   1      41.850  32.379  34.794  1.00  0.00     0.005 A 
ATOM     25  C   UNL A   1      40.859  30.198  34.981  1.00  0.00     0.125 A 
ATOM     26  C   UNL A   1      41.973  30.989  34.742  1.00  0.00     0.039 A 
ATOM     27  F   UNL A   1      40.961  28.865  34.898  1.00  0.00    -0.207 F 
ENDBRANCH  18  21
BRANCH  20  28
ATOM     28  C   UNL A   1      37.814  33.407  37.637  1.00  0.00    -0.001 A 
ATOM     29  C   UNL A   1      37.533  32.463  38.649  1.00  0.00     0.011 A 
ATOM     30  C   UNL A   1      38.703  34.433  38.004  1.00  0.00     0.011 A 
ATOM     31  C   UNL A   1      38.089  32.510  39.940  1.00  0.00     0.021 A 
ATOM     32  C   UNL A   1      39.291  34.485  39.290  1.00  0.00     0.021 A 
ATOM     33  C   UNL A   1      38.994  33.511  40.250  1.00  0.00     0.067 A 
BRANCH  33  34
ATOM     34  S   UNL A   1      39.835  33.555  41.821  1.00  0.00     0.175 S 
ATOM     35  C   UNL A   1      40.321  31.897  42.225  1.00  0.00     0.163 C 
ATOM     36  O   UNL A   1      41.048  34.335  41.611  1.00  0.00    -0.224 OA
ATOM     37  O   UNL A   1      38.856  33.966  42.801  1.00  0.00    -0.224 OA
ENDBRANCH  33  34
ENDBRANCH  20  28
ENDBRANCH  14  15
ENDBRANCH  11  14
ENDBRANCH   9  10
BRANCH   9  38
ATOM     38  C   UNL A   1      32.696  36.517  30.512  1.00  0.00     0.193 C 
BRANCH  38  39
ATOM     39  O   UNL A   1      33.405  37.750  30.664  1.00  0.00    -0.394 OA
ATOM     40  H   UNL A   1      33.381  38.026  31.593  1.00  0.00     0.210 HD
ENDBRANCH  38  39
ENDBRANCH   9  38
ENDBRANCH   7   9
ENDBRANCH   6   7
ENDBRANCH   5   6
ENDBRANCH   4   5
ENDBRANCH   3   4
ENDBRANCH   2   3
ENDBRANCH   1   2
BRANCH   1  41
ATOM     41  O   UNL A   1      38.852  29.731  27.852  1.00  0.00    -0.377 OA
BRANCH  41  42
ATOM     42  C   UNL A   1      40.109  29.057  27.852  1.00  0.00     0.188 C 
BRANCH  42  43
ATOM     43  C   UNL A   1      40.104  27.652  28.425  1.00  0.00     0.188 C 
BRANCH  43  44
ATOM     44  O   UNL A   1      39.281  26.744  27.731  1.00  0.00    -0.376 OA
BRANCH  44  45
ATOM     45  C   UNL A   1      39.252  25.389  28.181  1.00  0.00     0.202 C 
BRANCH  45  46
ATOM     46  C   UNL A   1      40.148  24.247  27.609  1.00  0.00     0.261 C 
BRANCH  46  47
ATOM     47  O   UNL A   1      41.590  24.374  27.345  1.00  0.00    -0.460 OA
BRANCH  47  48
ATOM     48  C   UNL A   1      42.405  23.452  27.968  1.00  0.00     0.338 C 
ATOM     49  O   UNL A   1      41.958  22.448  28.509  1.00  0.00    -0.246 OA
BRANCH  48  50
ATOM     50  C   UNL A   1      43.920  23.751  27.984  1.00  0.00     0.060 A 
ATOM     51  C   UNL A   1      44.410  24.929  28.550  1.00  0.00     0.016 A 
ATOM     52  C   UNL A   1      44.857  23.062  27.184  1.00  0.00     0.016 A 
ATOM     53  C   UNL A   1      45.784  25.352  28.363  1.00  0.00     0.010 A 
ATOM     54  C   UNL A   1      46.239  23.526  26.954  1.00  0.00     0.010 A 
ATOM     55  C   UNL A   1      46.770  24.691  27.542  1.00  0.00    -0.014 A 
BRANCH  55  56
ATOM     56  C   UNL A   1      48.048  25.568  27.015  1.00  0.00     0.031 A 
ATOM     57  C   UNL A   1      48.904  25.666  28.239  1.00  0.00     0.074 A 
ATOM     58  C   UNL A   1      48.528  26.279  25.900  1.00  0.00     0.049 A 
ATOM     59  N   UNL A   1      48.419  26.116  29.365  1.00  0.00    -0.248 NA
ATOM     60  C   UNL A   1      50.173  24.946  28.371  1.00  0.00     0.031 C 
ATOM     61  C   UNL A   1      47.836  26.499  24.618  1.00  0.00     0.029 A 
ATOM     62  N   UNL A   1      49.757  26.992  25.616  1.00  0.00    -0.354 N 
ATOM     63  C   UNL A   1      49.449  26.052  30.273  1.00  0.00     0.074 A 
ATOM     64  C   UNL A   1      50.392  25.112  29.680  1.00  0.00     0.031 C 
ATOM     65  C   UNL A   1      48.632  27.122  23.696  1.00  0.00     0.029 A 
ATOM     66  C   UNL A   1      49.945  27.462  24.250  1.00  0.00     0.049 A 
ATOM     67  H   UNL A   1      50.433  27.151  26.314  1.00  0.00     0.167 HD
ATOM     68  C   UNL A   1      49.749  27.214  30.925  1.00  0.00     0.034 A 
ATOM     69  C   UNL A   1      51.002  28.128  23.603  1.00  0.00     0.034 A 
ATOM     70  C   UNL A   1      50.887  27.876  30.343  1.00  0.00     0.049 A 
ATOM     71  C   UNL A   1      51.777  28.826  24.629  1.00  0.00     0.074 A 
ATOM     72  C   UNL A   1      52.154  27.446  30.005  1.00  0.00     0.029 A 
ATOM     73  N   UNL A   1      50.647  29.026  29.616  1.00  0.00    -0.354 N 
ATOM     74  N   UNL A   1      51.363  29.927  25.169  1.00  0.00    -0.248 NA
ATOM     75  C   UNL A   1      53.079  28.356  25.085  1.00  0.00     0.031 C 
ATOM     76  C   UNL A   1      52.440  28.078  28.774  1.00  0.00     0.029 A 
ATOM     77  C   UNL A   1      51.535  29.113  28.563  1.00  0.00     0.049 A 
ATOM     78  H   UNL A   1      49.946  29.687  29.820  1.00  0.00     0.167 HD
ATOM     79  C   UNL A   1      52.014  29.934  26.363  1.00  0.00     0.074 A 
ATOM     80  C   UNL A   1      53.222  29.161  26.139  1.00  0.00     0.031 C 
ATOM     81  C   UNL A   1      51.245  30.033  27.478  1.00  0.00     0.034 A 
BRANCH  68  82
ATOM     82  C   UNL A   1      48.561  27.926  31.502  1.00  0.00     0.023 A 
ATOM     83  C   UNL A   1      48.317  27.834  32.879  1.00  0.00     0.031 A 
ATOM     84  C   UNL A   1      47.606  28.589  30.705  1.00  0.00     0.131 A 
ATOM     85  C   UNL A   1      47.118  28.339  33.410  1.00  0.00     0.055 A 
ATOM     86  C   UNL A   1      46.398  29.048  31.227  1.00  0.00     0.041 A 
ATOM     87  F   UNL A   1      47.835  28.804  29.399  1.00  0.00    -0.206 F 
ATOM     88  C   UNL A   1      46.144  28.915  32.588  1.00  0.00     0.022 A 
BRANCH  85  89
ATOM     89  S   UNL A   1      46.853  28.237  35.200  1.00  0.00     0.124 S 
ATOM     90  O   UNL A   1      45.825  27.204  35.308  1.00  0.00    -0.237 OA
ATOM     91  O   UNL A   1      48.176  27.860  35.690  1.00  0.00    -0.237 OA
ATOM     92  O   UNL A   1      46.418  29.584  35.566  1.00  0.00    -0.744 OA
ENDBRANCH  85  89
ENDBRANCH  68  82
BRANCH  69  93
ATOM     93  C   UNL A   1      51.560  28.514  22.188  1.00  0.00     0.023 A 
ATOM     94  C   UNL A   1      52.265  29.764  21.926  1.00  0.00     0.031 A 
ATOM     95  C   UNL A   1      51.725  27.549  21.188  1.00  0.00     0.131 A 
ATOM     96  C   UNL A   1      53.089  29.967  20.774  1.00  0.00     0.055 A 
ATOM     97  C   UNL A   1      52.536  27.760  20.043  1.00  0.00     0.041 A 
ATOM     98  F   UNL A   1      51.187  26.331  21.332  1.00  0.00    -0.206 F 
ATOM     99  C   UNL A   1      53.231  28.952  19.839  1.00  0.00     0.022 A 
BRANCH  96 100
ATOM    100  S   UNL A   1      54.149  31.470  20.545  1.00  0.00     0.124 S 
ATOM    101  O   UNL A   1      53.895  31.844  19.159  1.00  0.00    -0.237 OA
ATOM    102  O   UNL A   1      53.652  32.383  21.569  1.00  0.00    -0.237 OA
ATOM    103  O   UNL A   1      55.505  30.974  20.798  1.00  0.00    -0.744 OA
ENDBRANCH  96 100
ENDBRANCH  69  93
BRANCH  81 104
ATOM    104  C   UNL A   1      50.041  30.980  27.409  1.00  0.00     0.023 A 
ATOM    105  C   UNL A   1      48.692  30.614  27.148  1.00  0.00     0.031 A 
ATOM    106  C   UNL A   1      50.294  32.356  27.525  1.00  0.00     0.131 A 
ATOM    107  C   UNL A   1      47.691  31.590  26.961  1.00  0.00     0.055 A 
ATOM    108  C   UNL A   1      49.294  33.322  27.391  1.00  0.00     0.041 A 
ATOM    109  F   UNL A   1      51.541  32.796  27.761  1.00  0.00    -0.206 F 
ATOM    110  C   UNL A   1      47.991  32.944  27.089  1.00  0.00     0.022 A 
BRANCH 107 111
ATOM    111  S   UNL A   1      46.002  31.105  26.460  1.00  0.00     0.124 S 
ATOM    112  O   UNL A   1      45.408  32.360  26.015  1.00  0.00    -0.237 OA
ATOM    113  O   UNL A   1      46.250  30.113  25.418  1.00  0.00    -0.237 OA
ATOM    114  O   UNL A   1      45.425  30.564  27.693  1.00  0.00    -0.744 OA
ENDBRANCH 107 111
ENDBRANCH  81 104
ENDBRANCH  55  56
ENDBRANCH  48  50
ENDBRANCH  47  48
ENDBRANCH  46  47
ENDBRANCH  45  46
ENDBRANCH  44  45
ENDBRANCH  43  44
ENDBRANCH  42  43
ENDBRANCH  41  42
ENDBRANCH   1  41
TORSDOF 31
ENDMDL
MODEL 3
REMARK VINA RESULT:      -7.7      1.696      2.150
REMARK SMILES Cc1c(CC(=O)N[C@H](CO)C(=O)OCCOCCOCCOCCOC(=O)c2ccc(-c3c4nc(c(-c5cc(S(=O)(=O)[O-])ccc5F)c5ccc([nH]5)c(-c5cc(S(=O)(=O)[O-])ccc5F)c5nc(c(-c6cc(S(=O)(=O)[O-])ccc6F)c6ccc3[nH]6)C=C5)C=C4)cc2)cc(-c2ccc(S(C)(=O)=O)cc2)n1-c1cccc(F)c1
REMARK SMILES IDX 18 1 17 2 16 3 15 4 14 5 13 6 11 7 12 8 8 9 7 10 5 11 6 12
REMARK SMILES IDX 4 14 3 15 1 16 2 17 103 18 91 19 92 20 104 21 105 22 110 23
REMARK SMILES IDX 106 24 108 25 107 26 109 27 93 28 94 29 102 30 95 31 101 32
REMARK SMILES IDX 96 33 97 34 98 35 99 36 100 37 9 38 10 39 19 41 20 42 21 43
REMARK SMILES IDX 22 44 23 45 24 46 25 47 26 48 27 49 28 50 29 51 90 52 30 53
REMARK SMILES IDX 89 54 31 55 32 56 33 57 83 58 34 59 88 60 82 61 84 62 35 63
REMARK SMILES IDX 87 64 81 65 80 66 36 68 68 69 48 70 67 71 49 72 52 73 66 74
REMARK SMILES IDX 85 75 50 76 51 77 65 79 86 80 53 81 37 82 38 83 46 84 39 85
REMARK SMILES IDX 45 86 47 87 44 88 40 89 41 90 42 91 43 92 69 93 70 94 78 95
REMARK SMILES IDX 71 96 77 97 79 98 76 99 72 100 73 101 74 102 75 103 54 104
REMARK SMILES IDX 55 105 63 106 56 107 62 108 64 109 61 110 57 111 58 112
REMARK SMILES IDX 59 113 60 114
REMARK H PARENT 7 13 10 40 84 67 52 78
REMARK Flexibility Score: inf
ROOT
ATOM      1  C   UNL A   1      37.300  30.269  29.272  1.00  0.00     0.188 C 
ENDROOT
BRANCH   1   2
ATOM      2  C   UNL A   1      36.491  31.558  29.332  1.00  0.00     0.188 C 
BRANCH   2   3
ATOM      3  O   UNL A   1      35.709  31.909  28.201  1.00  0.00    -0.376 OA
BRANCH   3   4
ATOM      4  C   UNL A   1      35.301  33.247  27.996  1.00  0.00     0.202 C 
BRANCH   4   5
ATOM      5  C   UNL A   1      33.886  33.533  28.402  1.00  0.00     0.261 C 
BRANCH   5   6
ATOM      6  O   UNL A   1      33.794  33.896  29.766  1.00  0.00    -0.462 OA
BRANCH   6   7
ATOM      7  C   UNL A   1      33.367  35.170  29.975  1.00  0.00     0.331 C 
ATOM      8  O   UNL A   1      32.943  35.954  29.137  1.00  0.00    -0.250 OA
BRANCH   7   9
ATOM      9  C   UNL A   1      33.781  35.613  31.346  1.00  0.00     0.218 C 
BRANCH   9  10
ATOM     10  N   UNL A   1      33.703  34.413  32.213  1.00  0.00    -0.341 N 
ATOM     11  C   UNL A   1      34.416  33.967  33.298  1.00  0.00     0.225 C 
ATOM     12  O   UNL A   1      33.925  32.968  33.844  1.00  0.00    -0.275 OA
ATOM     13  H   UNL A   1      32.978  33.800  31.954  1.00  0.00     0.164 HD
BRANCH  11  14
ATOM     14  C   UNL A   1      35.714  34.593  33.872  1.00  0.00     0.137 C 
BRANCH  14  15
ATOM     15  C   UNL A   1      37.049  33.835  33.690  1.00  0.00    -0.017 A 
ATOM     16  C   UNL A   1      37.662  34.347  31.232  1.00  0.00     0.065 C 
ATOM     17  C   UNL A   1      37.904  33.770  32.592  1.00  0.00     0.024 A 
ATOM     18  N   UNL A   1      39.115  33.149  32.969  1.00  0.00    -0.313 N 
ATOM     19  C   UNL A   1      37.699  33.046  34.696  1.00  0.00     0.033 A 
ATOM     20  C   UNL A   1      38.997  32.689  34.303  1.00  0.00     0.053 A 
BRANCH  18  21
ATOM     21  C   UNL A   1      40.335  33.197  32.207  1.00  0.00     0.049 A 
ATOM     22  C   UNL A   1      41.049  34.394  32.060  1.00  0.00     0.027 A 
ATOM     23  C   UNL A   1      40.681  32.091  31.413  1.00  0.00     0.065 A 
ATOM     24  C   UNL A   1      42.027  34.508  31.061  1.00  0.00     0.005 A 
ATOM     25  C   UNL A   1      41.642  32.226  30.418  1.00  0.00     0.125 A 
ATOM     26  C   UNL A   1      42.305  33.429  30.221  1.00  0.00     0.039 A 
ATOM     27  F   UNL A   1      41.877  31.196  29.594  1.00  0.00    -0.207 F 
ENDBRANCH  18  21
BRANCH  20  28
ATOM     28  C   UNL A   1      40.105  32.257  35.250  1.00  0.00    -0.001 A 
ATOM     29  C   UNL A   1      40.433  30.904  35.489  1.00  0.00     0.011 A 
ATOM     30  C   UNL A   1      41.006  33.196  35.783  1.00  0.00     0.011 A 
ATOM     31  C   UNL A   1      41.574  30.490  36.199  1.00  0.00     0.021 A 
ATOM     32  C   UNL A   1      42.172  32.798  36.480  1.00  0.00     0.021 A 
ATOM     33  C   UNL A   1      42.461  31.442  36.671  1.00  0.00     0.067 A 
BRANCH  33  34
ATOM     34  S   UNL A   1      43.990  30.984  37.462  1.00  0.00     0.175 S 
ATOM     35  C   UNL A   1      44.310  29.280  37.084  1.00  0.00     0.163 C 
ATOM     36  O   UNL A   1      45.032  31.783  36.829  1.00  0.00    -0.224 OA
ATOM     37  O   UNL A   1      43.759  31.071  38.886  1.00  0.00    -0.224 OA
ENDBRANCH  33  34
ENDBRANCH  20  28
ENDBRANCH  14  15
ENDBRANCH  11  14
ENDBRANCH   9  10
BRANCH   9  38
ATOM     38  C   UNL A   1      32.818  36.762  31.758  1.00  0.00     0.193 C 
BRANCH  38  39
ATOM     39  O   UNL A   1      33.353  38.048  31.431  1.00  0.00    -0.394 OA
ATOM     40  H   UNL A   1      33.773  38.011  30.557  1.00  0.00     0.210 HD
ENDBRANCH  38  39
ENDBRANCH   9  38
ENDBRANCH   7   9
ENDBRANCH   6   7
ENDBRANCH   5   6
ENDBRANCH   4   5
ENDBRANCH   3   4
ENDBRANCH   2   3
ENDBRANCH   1   2
BRANCH   1  41
ATOM     41  O   UNL A   1      37.994  29.963  28.060  1.00  0.00    -0.377 OA
BRANCH  41  42
ATOM     42  C   UNL A   1      39.343  29.509  28.151  1.00  0.00     0.188 C 
BRANCH  42  43
ATOM     43  C   UNL A   1      39.543  28.162  28.819  1.00  0.00     0.188 C 
BRANCH  43  44
ATOM     44  O   UNL A   1      39.058  27.068  28.077  1.00  0.00    -0.376 OA
BRANCH  44  45
ATOM     45  C   UNL A   1      39.174  25.766  28.653  1.00  0.00     0.202 C 
BRANCH  45  46
ATOM     46  C   UNL A   1      40.120  24.644  28.125  1.00  0.00     0.261 C 
BRANCH  46  47
ATOM     47  O   UNL A   1      41.569  24.802  27.929  1.00  0.00    -0.460 OA
BRANCH  47  48
ATOM     48  C   UNL A   1      42.363  23.787  28.420  1.00  0.00     0.338 C 
ATOM     49  O   UNL A   1      41.889  22.762  28.897  1.00  0.00    -0.246 OA
BRANCH  48  50
ATOM     50  C   UNL A   1      43.891  24.004  28.374  1.00  0.00     0.060 A 
ATOM     51  C   UNL A   1      44.462  25.178  28.867  1.00  0.00     0.016 A 
ATOM     52  C   UNL A   1      44.763  23.229  27.577  1.00  0.00     0.016 A 
ATOM     53  C   UNL A   1      45.849  25.517  28.617  1.00  0.00     0.010 A 
ATOM     54  C   UNL A   1      46.158  23.606  27.282  1.00  0.00     0.010 A 
ATOM     55  C   UNL A   1      46.770  24.767  27.797  1.00  0.00    -0.014 A 
BRANCH  55  56
ATOM     56  C   UNL A   1      48.073  25.548  27.188  1.00  0.00     0.031 A 
ATOM     57  C   UNL A   1      48.955  25.697  28.387  1.00  0.00     0.074 A 
ATOM     58  C   UNL A   1      48.561  26.157  26.017  1.00  0.00     0.049 A 
ATOM     59  N   UNL A   1      48.510  26.246  29.486  1.00  0.00    -0.248 NA
ATOM     60  C   UNL A   1      50.195  24.934  28.551  1.00  0.00     0.031 C 
ATOM     61  C   UNL A   1      47.855  26.315  24.734  1.00  0.00     0.029 A 
ATOM     62  N   UNL A   1      49.814  26.795  25.663  1.00  0.00    -0.354 N 
ATOM     63  C   UNL A   1      49.554  26.202  30.380  1.00  0.00     0.074 A 
ATOM     64  C   UNL A   1      50.446  25.184  29.841  1.00  0.00     0.031 C 
ATOM     65  C   UNL A   1      48.659  26.836  23.757  1.00  0.00     0.029 A 
ATOM     66  C   UNL A   1      49.995  27.158  24.264  1.00  0.00     0.049 A 
ATOM     67  H   UNL A   1      50.509  26.974  26.337  1.00  0.00     0.167 HD
ATOM     68  C   UNL A   1      49.914  27.394  30.942  1.00  0.00     0.034 A 
ATOM     69  C   UNL A   1      51.066  27.730  23.554  1.00  0.00     0.034 A 
ATOM     70  C   UNL A   1      51.068  27.964  30.296  1.00  0.00     0.049 A 
ATOM     71  C   UNL A   1      51.889  28.466  24.516  1.00  0.00     0.074 A 
ATOM     72  C   UNL A   1      52.309  27.457  29.970  1.00  0.00     0.029 A 
ATOM     73  N   UNL A   1      50.862  29.069  29.492  1.00  0.00    -0.354 N 
ATOM     74  N   UNL A   1      51.531  29.619  24.981  1.00  0.00    -0.248 NA
ATOM     75  C   UNL A   1      53.178  27.974  24.983  1.00  0.00     0.031 C 
ATOM     76  C   UNL A   1      52.598  27.987  28.692  1.00  0.00     0.029 A 
ATOM     77  C   UNL A   1      51.733  29.042  28.422  1.00  0.00     0.049 A 
ATOM     78  H   UNL A   1      50.193  29.771  29.659  1.00  0.00     0.167 HD
ATOM     79  C   UNL A   1      52.204  29.683  26.161  1.00  0.00     0.074 A 
ATOM     80  C   UNL A   1      53.375  28.845  25.974  1.00  0.00     0.031 C 
ATOM     81  C   UNL A   1      51.461  29.894  27.278  1.00  0.00     0.034 A 
BRANCH  68  82
ATOM     82  C   UNL A   1      48.768  28.196  31.485  1.00  0.00     0.023 A 
ATOM     83  C   UNL A   1      47.550  27.553  31.739  1.00  0.00     0.031 A 
ATOM     84  C   UNL A   1      48.822  29.596  31.642  1.00  0.00     0.131 A 
ATOM     85  C   UNL A   1      46.417  28.314  32.074  1.00  0.00     0.055 A 
ATOM     86  C   UNL A   1      47.687  30.352  31.929  1.00  0.00     0.041 A 
ATOM     87  F   UNL A   1      49.986  30.254  31.518  1.00  0.00    -0.206 F 
ATOM     88  C   UNL A   1      46.470  29.710  32.137  1.00  0.00     0.022 A 
BRANCH  85  89
ATOM     89  S   UNL A   1      44.866  27.447  32.432  1.00  0.00     0.124 S 
ATOM     90  O   UNL A   1      43.911  28.137  31.567  1.00  0.00    -0.237 OA
ATOM     91  O   UNL A   1      45.181  26.073  32.047  1.00  0.00    -0.237 OA
ATOM     92  O   UNL A   1      44.670  27.658  33.865  1.00  0.00    -0.744 OA
ENDBRANCH  85  89
ENDBRANCH  68  82
BRANCH  69  93
ATOM     93  C   UNL A   1      51.613  27.990  22.106  1.00  0.00     0.023 A 
ATOM     94  C   UNL A   1      51.888  26.918  21.156  1.00  0.00     0.031 A 
ATOM     95  C   UNL A   1      51.538  29.260  21.523  1.00  0.00     0.131 A 
ATOM     96  C   UNL A   1      52.022  27.139  19.749  1.00  0.00     0.055 A 
ATOM     97  C   UNL A   1      51.680  29.474  20.128  1.00  0.00     0.041 A 
ATOM     98  F   UNL A   1      51.224  30.327  22.270  1.00  0.00    -0.206 F 
ATOM     99  C   UNL A   1      51.903  28.423  19.238  1.00  0.00     0.022 A 
BRANCH  96 100
ATOM    100  S   UNL A   1      52.161  25.759  18.520  1.00  0.00     0.124 S 
ATOM    101  O   UNL A   1      51.293  26.197  17.434  1.00  0.00    -0.237 OA
ATOM    102  O   UNL A   1      53.592  25.716  18.235  1.00  0.00    -0.237 OA
ATOM    103  O   UNL A   1      51.667  24.592  19.256  1.00  0.00    -0.744 OA
ENDBRANCH  96 100
ENDBRANCH  69  93
BRANCH  81 104
ATOM    104  C   UNL A   1      50.297  30.884  27.160  1.00  0.00     0.023 A 
ATOM    105  C   UNL A   1      48.911  30.565  27.175  1.00  0.00     0.031 A 
ATOM    106  C   UNL A   1      50.616  32.232  26.926  1.00  0.00     0.131 A 
ATOM    107  C   UNL A   1      47.931  31.544  26.909  1.00  0.00     0.055 A 
ATOM    108  C   UNL A   1      49.644  33.212  26.714  1.00  0.00     0.041 A 
ATOM    109  F   UNL A   1      51.900  32.625  26.885  1.00  0.00    -0.206 F 
ATOM    110  C   UNL A   1      48.297  32.869  26.684  1.00  0.00     0.022 A 
BRANCH 107 111
ATOM    111  S   UNL A   1      46.169  31.080  26.765  1.00  0.00     0.124 S 
ATOM    112  O   UNL A   1      46.033  29.971  27.700  1.00  0.00    -0.237 OA
ATOM    113  O   UNL A   1      45.482  32.315  27.135  1.00  0.00    -0.237 OA
ATOM    114  O   UNL A   1      46.031  30.706  25.355  1.00  0.00    -0.744 OA
ENDBRANCH 107 111
ENDBRANCH  81 104
ENDBRANCH  55  56
ENDBRANCH  48  50
ENDBRANCH  47  48
ENDBRANCH  46  47
ENDBRANCH  45  46
ENDBRANCH  44  45
ENDBRANCH  43  44
ENDBRANCH  42  43
ENDBRANCH  41  42
ENDBRANCH   1  41
TORSDOF 31
ENDMDL
