MODEL 1
REMARK VINA RESULT:      -8.9      0.000      0.000
REMARK SMILES O=C(OCCOCCOCCOCCOC(=O)c1ccc(COc2cccc(C(F)(F)F)c2)nc1)c1ccc(-c2c3nc(c(-c4cc(S(=O)(=O)[O-])ccc4F)c4ccc([nH]4)c(-c4cc(S(=O)(=O)[O-])ccc4F)c4nc(c(-c5cc(S(=O)(=O)[O-])ccc5F)c5ccc2[nH]5)C=C4)C=C3)cc1
REMARK SMILES IDX 10 1 9 2 8 3 7 4 6 5 5 6 4 7 3 8 2 9 1 10 36 11 37 12 98 13
REMARK SMILES IDX 38 14 97 15 39 16 40 17 41 18 91 19 42 20 96 21 90 22 92 23
REMARK SMILES IDX 43 24 95 25 89 26 88 27 44 29 76 30 56 31 75 32 57 33 60 34
REMARK SMILES IDX 74 35 93 36 58 37 59 38 73 40 94 41 61 42 45 43 46 44 54 45
REMARK SMILES IDX 47 46 53 47 55 48 52 49 48 50 49 51 50 52 51 53 77 54 78 55
REMARK SMILES IDX 86 56 79 57 85 58 87 59 84 60 80 61 81 62 82 63 83 64 62 65
REMARK SMILES IDX 63 66 71 67 64 68 70 69 72 70 69 71 65 72 66 73 67 74 68 75
REMARK SMILES IDX 11 76 12 77 13 78 14 79 15 80 16 81 17 82 18 83 19 84 35 85
REMARK SMILES IDX 20 86 34 87 21 88 22 89 23 90 24 91 25 92 33 93 26 94 28 95
REMARK SMILES IDX 27 96 29 97 30 98 31 99 32 100
REMARK H PARENT 92 28 60 39
REMARK Flexibility Score: inf
ROOT
ATOM      1  C   UNL A   1      34.443  34.352  29.163  1.00  0.00     0.188 C 
ENDROOT
BRANCH   1   2
ATOM      2  O   UNL A   1      33.427  35.135  28.546  1.00  0.00    -0.377 OA
BRANCH   2   3
ATOM      3  C   UNL A   1      33.189  36.416  29.126  1.00  0.00     0.188 C 
BRANCH   3   4
ATOM      4  C   UNL A   1      32.527  36.383  30.503  1.00  0.00     0.188 C 
BRANCH   4   5
ATOM      5  O   UNL A   1      33.139  37.329  31.383  1.00  0.00    -0.376 OA
BRANCH   5   6
ATOM      6  C   UNL A   1      33.683  36.791  32.590  1.00  0.00     0.202 C 
BRANCH   6   7
ATOM      7  C   UNL A   1      33.492  35.283  32.743  1.00  0.00     0.261 C 
BRANCH   7   8
ATOM      8  O   UNL A   1      34.740  34.597  32.912  1.00  0.00    -0.460 OA
BRANCH   8   9
ATOM      9  C   UNL A   1      35.043  33.333  32.522  1.00  0.00     0.338 C 
ATOM     10  O   UNL A   1      34.124  32.618  32.121  1.00  0.00    -0.246 OA
BRANCH   9  11
ATOM     11  C   UNL A   1      36.424  32.749  32.538  1.00  0.00     0.060 A 
ATOM     12  C   UNL A   1      37.546  33.283  31.899  1.00  0.00     0.016 A 
ATOM     13  C   UNL A   1      36.610  31.596  33.320  1.00  0.00     0.016 A 
ATOM     14  C   UNL A   1      38.790  32.676  31.971  1.00  0.00     0.010 A 
ATOM     15  C   UNL A   1      37.865  30.984  33.416  1.00  0.00     0.010 A 
ATOM     16  C   UNL A   1      38.951  31.515  32.713  1.00  0.00    -0.014 A 
BRANCH  16  17
ATOM     17  C   UNL A   1      40.222  30.786  32.562  1.00  0.00     0.031 A 
ATOM     18  C   UNL A   1      41.270  31.010  33.610  1.00  0.00     0.074 A 
ATOM     19  C   UNL A   1      40.348  29.840  31.614  1.00  0.00     0.049 A 
ATOM     20  N   UNL A   1      42.488  30.550  33.677  1.00  0.00    -0.248 NA
ATOM     21  C   UNL A   1      40.883  31.862  34.749  1.00  0.00     0.031 C 
ATOM     22  C   UNL A   1      39.298  29.449  30.670  1.00  0.00     0.029 A 
ATOM     23  N   UNL A   1      41.395  29.014  31.308  1.00  0.00    -0.354 N 
ATOM     24  C   UNL A   1      43.022  31.082  34.846  1.00  0.00     0.074 A 
ATOM     25  C   UNL A   1      42.000  31.900  35.455  1.00  0.00     0.031 C 
ATOM     26  C   UNL A   1      39.756  28.452  29.895  1.00  0.00     0.029 A 
ATOM     27  C   UNL A   1      41.151  28.193  30.231  1.00  0.00     0.049 A 
ATOM     28  H   UNL A   1      42.242  29.008  31.809  1.00  0.00     0.167 HD
ATOM     29  C   UNL A   1      44.269  30.908  35.343  1.00  0.00     0.034 A 
ATOM     30  C   UNL A   1      41.989  27.370  29.570  1.00  0.00     0.034 A 
ATOM     31  C   UNL A   1      45.253  30.087  34.687  1.00  0.00     0.049 A 
ATOM     32  C   UNL A   1      43.412  27.291  30.073  1.00  0.00     0.074 A 
ATOM     33  C   UNL A   1      46.577  29.883  35.023  1.00  0.00     0.029 A 
ATOM     34  N   UNL A   1      45.007  29.333  33.543  1.00  0.00    -0.354 N 
ATOM     35  N   UNL A   1      43.950  27.873  31.123  1.00  0.00    -0.248 NA
ATOM     36  C   UNL A   1      44.344  26.462  29.302  1.00  0.00     0.031 C 
ATOM     37  C   UNL A   1      47.147  29.059  34.045  1.00  0.00     0.029 A 
ATOM     38  C   UNL A   1      46.160  28.684  33.143  1.00  0.00     0.049 A 
ATOM     39  H   UNL A   1      44.138  29.270  33.085  1.00  0.00     0.167 HD
ATOM     40  C   UNL A   1      45.278  27.461  31.151  1.00  0.00     0.074 A 
ATOM     41  C   UNL A   1      45.449  26.560  30.025  1.00  0.00     0.031 C 
ATOM     42  C   UNL A   1      46.274  27.794  32.012  1.00  0.00     0.034 A 
BRANCH  29  43
ATOM     43  C   UNL A   1      44.638  31.706  36.567  1.00  0.00     0.023 A 
ATOM     44  C   UNL A   1      44.372  31.252  37.870  1.00  0.00     0.031 A 
ATOM     45  C   UNL A   1      45.195  32.989  36.417  1.00  0.00     0.131 A 
ATOM     46  C   UNL A   1      44.600  32.100  38.966  1.00  0.00     0.055 A 
ATOM     47  C   UNL A   1      45.488  33.800  37.515  1.00  0.00     0.041 A 
ATOM     48  F   UNL A   1      45.435  33.491  35.195  1.00  0.00    -0.206 F 
ATOM     49  C   UNL A   1      45.178  33.361  38.798  1.00  0.00     0.022 A 
BRANCH  46  50
ATOM     50  S   UNL A   1      44.005  31.593  40.604  1.00  0.00     0.124 S 
ATOM     51  O   UNL A   1      44.595  30.262  40.732  1.00  0.00    -0.237 OA
ATOM     52  O   UNL A   1      44.558  32.622  41.476  1.00  0.00    -0.237 OA
ATOM     53  O   UNL A   1      42.550  31.612  40.463  1.00  0.00    -0.744 OA
ENDBRANCH  46  50
ENDBRANCH  29  43
BRANCH  30  54
ATOM     54  C   UNL A   1      41.558  26.649  28.332  1.00  0.00     0.023 A 
ATOM     55  C   UNL A   1      41.316  25.266  28.334  1.00  0.00     0.031 A 
ATOM     56  C   UNL A   1      41.465  27.322  27.098  1.00  0.00     0.131 A 
ATOM     57  C   UNL A   1      41.053  24.595  27.126  1.00  0.00     0.055 A 
ATOM     58  C   UNL A   1      41.135  26.663  25.912  1.00  0.00     0.041 A 
ATOM     59  F   UNL A   1      41.700  28.642  27.022  1.00  0.00    -0.206 F 
ATOM     60  C   UNL A   1      40.946  25.288  25.918  1.00  0.00     0.022 A 
BRANCH  57  61
ATOM     61  S   UNL A   1      40.986  22.781  27.133  1.00  0.00     0.124 S 
ATOM     62  O   UNL A   1      41.551  22.467  28.440  1.00  0.00    -0.237 OA
ATOM     63  O   UNL A   1      39.557  22.532  26.974  1.00  0.00    -0.237 OA
ATOM     64  O   UNL A   1      41.814  22.406  25.989  1.00  0.00    -0.744 OA
ENDBRANCH  57  61
ENDBRANCH  30  54
BRANCH  42  65
ATOM     65  C   UNL A   1      47.608  27.136  31.782  1.00  0.00     0.023 A 
ATOM     66  C   UNL A   1      48.559  27.691  30.909  1.00  0.00     0.031 A 
ATOM     67  C   UNL A   1      47.928  25.940  32.447  1.00  0.00     0.131 A 
ATOM     68  C   UNL A   1      49.765  27.017  30.680  1.00  0.00     0.055 A 
ATOM     69  C   UNL A   1      49.158  25.309  32.265  1.00  0.00     0.041 A 
ATOM     70  F   UNL A   1      47.051  25.372  33.291  1.00  0.00    -0.206 F 
ATOM     71  C   UNL A   1      50.079  25.841  31.367  1.00  0.00     0.022 A 
BRANCH  68  72
ATOM     72  S   UNL A   1      50.880  27.650  29.400  1.00  0.00     0.124 S 
ATOM     73  O   UNL A   1      51.313  28.919  29.976  1.00  0.00    -0.237 OA
ATOM     74  O   UNL A   1      51.896  26.605  29.325  1.00  0.00    -0.237 OA
ATOM     75  O   UNL A   1      50.021  27.763  28.222  1.00  0.00    -0.744 OA
ENDBRANCH  68  72
ENDBRANCH  42  65
ENDBRANCH  16  17
ENDBRANCH   9  11
ENDBRANCH   8   9
ENDBRANCH   7   8
ENDBRANCH   6   7
ENDBRANCH   5   6
ENDBRANCH   4   5
ENDBRANCH   3   4
ENDBRANCH   2   3
ENDBRANCH   1   2
BRANCH   1  76
ATOM     76  C   UNL A   1      35.149  33.250  28.339  1.00  0.00     0.188 C 
BRANCH  76  77
ATOM     77  O   UNL A   1      34.601  31.947  28.484  1.00  0.00    -0.376 OA
BRANCH  77  78
ATOM     78  C   UNL A   1      35.138  30.957  27.609  1.00  0.00     0.202 C 
BRANCH  78  79
ATOM     79  C   UNL A   1      34.334  29.648  27.589  1.00  0.00     0.261 C 
BRANCH  79  80
ATOM     80  O   UNL A   1      33.421  29.513  26.484  1.00  0.00    -0.460 OA
BRANCH  80  81
ATOM     81  C   UNL A   1      32.467  28.567  26.590  1.00  0.00     0.339 C 
ATOM     82  O   UNL A   1      31.595  28.484  27.437  1.00  0.00    -0.246 OA
BRANCH  81  83
ATOM     83  C   UNL A   1      32.494  27.767  25.358  1.00  0.00     0.078 A 
ATOM     84  C   UNL A   1      33.674  27.285  24.795  1.00  0.00     0.019 A 
ATOM     85  C   UNL A   1      31.300  27.567  24.673  1.00  0.00     0.127 A 
ATOM     86  C   UNL A   1      33.599  26.520  23.631  1.00  0.00     0.028 A 
ATOM     87  N   UNL A   1      31.212  26.881  23.509  1.00  0.00    -0.257 NA
ATOM     88  C   UNL A   1      32.344  26.279  23.059  1.00  0.00     0.078 A 
BRANCH  88  89
ATOM     89  C   UNL A   1      32.186  25.122  22.089  1.00  0.00     0.285 C 
BRANCH  89  90
ATOM     90  O   UNL A   1      33.320  24.274  21.816  1.00  0.00    -0.487 OA
BRANCH  90  91
ATOM     91  C   UNL A   1      33.750  23.273  22.638  1.00  0.00     0.120 A 
ATOM     92  C   UNL A   1      32.766  22.359  23.015  1.00  0.00     0.046 A 
ATOM     93  C   UNL A   1      35.007  23.130  23.215  1.00  0.00     0.059 A 
ATOM     94  C   UNL A   1      33.028  21.365  23.966  1.00  0.00     0.004 A 
ATOM     95  C   UNL A   1      35.265  22.219  24.251  1.00  0.00     0.059 A 
ATOM     96  C   UNL A   1      34.266  21.315  24.608  1.00  0.00     0.013 A 
BRANCH  95  97
ATOM     97  C   UNL A   1      36.568  22.294  25.015  1.00  0.00     0.416 C 
ATOM     98  F   UNL A   1      36.583  21.463  26.092  1.00  0.00    -0.166 F 
ATOM     99  F   UNL A   1      37.643  21.953  24.255  1.00  0.00    -0.166 F 
ATOM    100  F   UNL A   1      36.840  23.541  25.497  1.00  0.00    -0.166 F 
ENDBRANCH  95  97
ENDBRANCH  90  91
ENDBRANCH  89  90
ENDBRANCH  88  89
ENDBRANCH  81  83
ENDBRANCH  80  81
ENDBRANCH  79  80
ENDBRANCH  78  79
ENDBRANCH  77  78
ENDBRANCH  76  77
ENDBRANCH   1  76
TORSDOF 27
ENDMDL
MODEL 2
REMARK VINA RESULT:      -8.5      2.616      2.919
REMARK SMILES O=C(OCCOCCOCCOCCOC(=O)c1ccc(COc2cccc(C(F)(F)F)c2)nc1)c1ccc(-c2c3nc(c(-c4cc(S(=O)(=O)[O-])ccc4F)c4ccc([nH]4)c(-c4cc(S(=O)(=O)[O-])ccc4F)c4nc(c(-c5cc(S(=O)(=O)[O-])ccc5F)c5ccc2[nH]5)C=C4)C=C3)cc1
REMARK SMILES IDX 10 1 9 2 8 3 7 4 6 5 5 6 4 7 3 8 2 9 1 10 36 11 37 12 98 13
REMARK SMILES IDX 38 14 97 15 39 16 40 17 41 18 91 19 42 20 96 21 90 22 92 23
REMARK SMILES IDX 43 24 95 25 89 26 88 27 44 29 76 30 56 31 75 32 57 33 60 34
REMARK SMILES IDX 74 35 93 36 58 37 59 38 73 40 94 41 61 42 45 43 46 44 54 45
REMARK SMILES IDX 47 46 53 47 55 48 52 49 48 50 49 51 50 52 51 53 77 54 78 55
REMARK SMILES IDX 86 56 79 57 85 58 87 59 84 60 80 61 81 62 82 63 83 64 62 65
REMARK SMILES IDX 63 66 71 67 64 68 70 69 72 70 69 71 65 72 66 73 67 74 68 75
REMARK SMILES IDX 11 76 12 77 13 78 14 79 15 80 16 81 17 82 18 83 19 84 35 85
REMARK SMILES IDX 20 86 34 87 21 88 22 89 23 90 24 91 25 92 33 93 26 94 28 95
REMARK SMILES IDX 27 96 29 97 30 98 31 99 32 100
REMARK H PARENT 92 28 60 39
REMARK Flexibility Score: inf
ROOT
ATOM      1  C   UNL A   1      34.144  33.865  29.260  1.00  0.00     0.188 C 
ENDROOT
BRANCH   1   2
ATOM      2  O   UNL A   1      33.004  34.559  28.766  1.00  0.00    -0.377 OA
BRANCH   2   3
ATOM      3  C   UNL A   1      32.880  35.922  29.166  1.00  0.00     0.188 C 
BRANCH   3   4
ATOM      4  C   UNL A   1      32.367  36.127  30.592  1.00  0.00     0.188 C 
BRANCH   4   5
ATOM      5  O   UNL A   1      32.969  37.278  31.188  1.00  0.00    -0.376 OA
BRANCH   5   6
ATOM      6  C   UNL A   1      33.813  37.025  32.313  1.00  0.00     0.202 C 
BRANCH   6   7
ATOM      7  C   UNL A   1      33.812  35.569  32.777  1.00  0.00     0.261 C 
BRANCH   7   8
ATOM      8  O   UNL A   1      35.141  35.055  32.940  1.00  0.00    -0.460 OA
BRANCH   8   9
ATOM      9  C   UNL A   1      35.499  33.834  33.412  1.00  0.00     0.338 C 
ATOM     10  O   UNL A   1      34.768  33.303  34.249  1.00  0.00    -0.246 OA
BRANCH   9  11
ATOM     11  C   UNL A   1      36.722  33.083  32.978  1.00  0.00     0.060 A 
ATOM     12  C   UNL A   1      37.298  32.000  33.646  1.00  0.00     0.016 A 
ATOM     13  C   UNL A   1      37.296  33.471  31.754  1.00  0.00     0.016 A 
ATOM     14  C   UNL A   1      38.432  31.362  33.168  1.00  0.00     0.010 A 
ATOM     15  C   UNL A   1      38.429  32.822  31.251  1.00  0.00     0.010 A 
ATOM     16  C   UNL A   1      39.013  31.781  31.979  1.00  0.00    -0.014 A 
BRANCH  16  17
ATOM     17  C   UNL A   1      40.338  31.232  31.643  1.00  0.00     0.031 A 
ATOM     18  C   UNL A   1      41.531  31.883  32.275  1.00  0.00     0.074 A 
ATOM     19  C   UNL A   1      40.435  30.092  30.936  1.00  0.00     0.049 A 
ATOM     20  N   UNL A   1      42.799  31.641  32.097  1.00  0.00    -0.248 NA
ATOM     21  C   UNL A   1      41.251  32.948  33.255  1.00  0.00     0.031 C 
ATOM     22  C   UNL A   1      39.299  29.310  30.440  1.00  0.00     0.029 A 
ATOM     23  N   UNL A   1      41.530  29.375  30.540  1.00  0.00    -0.354 N 
ATOM     24  C   UNL A   1      43.468  32.544  32.916  1.00  0.00     0.074 A 
ATOM     25  C   UNL A   1      42.469  33.339  33.591  1.00  0.00     0.031 C 
ATOM     26  C   UNL A   1      39.762  28.217  29.811  1.00  0.00     0.029 A 
ATOM     27  C   UNL A   1      41.219  28.265  29.789  1.00  0.00     0.049 A 
ATOM     28  H   UNL A   1      42.453  29.629  30.770  1.00  0.00     0.167 HD
ATOM     29  C   UNL A   1      44.804  32.695  33.068  1.00  0.00     0.034 A 
ATOM     30  C   UNL A   1      42.033  27.424  29.120  1.00  0.00     0.034 A 
ATOM     31  C   UNL A   1      45.758  31.879  32.362  1.00  0.00     0.049 A 
ATOM     32  C   UNL A   1      43.519  27.693  29.205  1.00  0.00     0.074 A 
ATOM     33  C   UNL A   1      47.136  31.968  32.347  1.00  0.00     0.029 A 
ATOM     34  N   UNL A   1      45.415  30.814  31.534  1.00  0.00    -0.354 N 
ATOM     35  N   UNL A   1      44.152  28.611  29.903  1.00  0.00    -0.248 NA
ATOM     36  C   UNL A   1      44.396  26.830  28.409  1.00  0.00     0.031 C 
ATOM     37  C   UNL A   1      47.621  31.001  31.460  1.00  0.00     0.029 A 
ATOM     38  C   UNL A   1      46.552  30.255  30.981  1.00  0.00     0.049 A 
ATOM     39  H   UNL A   1      44.496  30.503  31.366  1.00  0.00     0.167 HD
ATOM     40  C   UNL A   1      45.506  28.420  29.646  1.00  0.00     0.074 A 
ATOM     41  C   UNL A   1      45.594  27.281  28.750  1.00  0.00     0.031 C 
ATOM     42  C   UNL A   1      46.582  29.116  30.093  1.00  0.00     0.034 A 
BRANCH  29  43
ATOM     43  C   UNL A   1      45.274  33.842  33.926  1.00  0.00     0.023 A 
ATOM     44  C   UNL A   1      45.495  35.129  33.406  1.00  0.00     0.031 A 
ATOM     45  C   UNL A   1      45.586  33.614  35.278  1.00  0.00     0.131 A 
ATOM     46  C   UNL A   1      46.075  36.119  34.216  1.00  0.00     0.055 A 
ATOM     47  C   UNL A   1      46.093  34.623  36.099  1.00  0.00     0.041 A 
ATOM     48  F   UNL A   1      45.431  32.395  35.819  1.00  0.00    -0.206 F 
ATOM     49  C   UNL A   1      46.353  35.881  35.565  1.00  0.00     0.022 A 
BRANCH  46  50
ATOM     50  S   UNL A   1      46.591  37.682  33.452  1.00  0.00     0.124 S 
ATOM     51  O   UNL A   1      46.951  37.247  32.105  1.00  0.00    -0.237 OA
ATOM     52  O   UNL A   1      45.388  38.500  33.557  1.00  0.00    -0.237 OA
ATOM     53  O   UNL A   1      47.713  38.117  34.282  1.00  0.00    -0.744 OA
ENDBRANCH  46  50
ENDBRANCH  29  43
BRANCH  30  54
ATOM     54  C   UNL A   1      41.486  26.338  28.249  1.00  0.00     0.023 A 
ATOM     55  C   UNL A   1      41.710  24.982  28.537  1.00  0.00     0.031 A 
ATOM     56  C   UNL A   1      40.799  26.644  27.057  1.00  0.00     0.131 A 
ATOM     57  C   UNL A   1      41.307  23.992  27.623  1.00  0.00     0.055 A 
ATOM     58  C   UNL A   1      40.339  25.654  26.187  1.00  0.00     0.041 A 
ATOM     59  F   UNL A   1      40.565  27.921  26.714  1.00  0.00    -0.206 F 
ATOM     60  C   UNL A   1      40.608  24.319  26.458  1.00  0.00     0.022 A 
BRANCH  57  61
ATOM     61  S   UNL A   1      41.826  22.276  27.911  1.00  0.00     0.124 S 
ATOM     62  O   UNL A   1      42.630  22.408  29.120  1.00  0.00    -0.237 OA
ATOM     63  O   UNL A   1      40.544  21.596  28.062  1.00  0.00    -0.237 OA
ATOM     64  O   UNL A   1      42.570  21.939  26.699  1.00  0.00    -0.744 OA
ENDBRANCH  57  61
ENDBRANCH  30  54
BRANCH  42  65
ATOM     65  C   UNL A   1      47.933  28.622  29.649  1.00  0.00     0.023 A 
ATOM     66  C   UNL A   1      48.578  29.161  28.524  1.00  0.00     0.031 A 
ATOM     67  C   UNL A   1      48.579  27.600  30.365  1.00  0.00     0.131 A 
ATOM     68  C   UNL A   1      49.808  28.634  28.112  1.00  0.00     0.055 A 
ATOM     69  C   UNL A   1      49.834  27.125  29.988  1.00  0.00     0.041 A 
ATOM     70  F   UNL A   1      48.002  27.054  31.448  1.00  0.00    -0.206 F 
ATOM     71  C   UNL A   1      50.450  27.633  28.848  1.00  0.00     0.022 A 
BRANCH  68  72
ATOM     72  S   UNL A   1      50.515  29.208  26.546  1.00  0.00     0.124 S 
ATOM     73  O   UNL A   1      49.765  30.437  26.307  1.00  0.00    -0.237 OA
ATOM     74  O   UNL A   1      51.925  29.378  26.882  1.00  0.00    -0.237 OA
ATOM     75  O   UNL A   1      50.229  28.115  25.618  1.00  0.00    -0.744 OA
ENDBRANCH  68  72
ENDBRANCH  42  65
ENDBRANCH  16  17
ENDBRANCH   9  11
ENDBRANCH   8   9
ENDBRANCH   7   8
ENDBRANCH   6   7
ENDBRANCH   5   6
ENDBRANCH   4   5
ENDBRANCH   3   4
ENDBRANCH   2   3
ENDBRANCH   1   2
BRANCH   1  76
ATOM     76  C   UNL A   1      34.982  33.004  28.287  1.00  0.00     0.188 C 
BRANCH  76  77
ATOM     77  O   UNL A   1      35.177  31.656  28.692  1.00  0.00    -0.376 OA
BRANCH  77  78
ATOM     78  C   UNL A   1      35.031  30.681  27.661  1.00  0.00     0.202 C 
BRANCH  78  79
ATOM     79  C   UNL A   1      33.585  30.512  27.170  1.00  0.00     0.261 C 
BRANCH  79  80
ATOM     80  O   UNL A   1      33.372  29.401  26.281  1.00  0.00    -0.460 OA
BRANCH  80  81
ATOM     81  C   UNL A   1      32.227  29.395  25.569  1.00  0.00     0.339 C 
ATOM     82  O   UNL A   1      31.483  30.336  25.354  1.00  0.00    -0.246 OA
BRANCH  81  83
ATOM     83  C   UNL A   1      32.138  28.102  24.877  1.00  0.00     0.078 A 
ATOM     84  C   UNL A   1      33.252  27.443  24.361  1.00  0.00     0.019 A 
ATOM     85  C   UNL A   1      30.879  27.564  24.643  1.00  0.00     0.127 A 
ATOM     86  C   UNL A   1      33.072  26.211  23.733  1.00  0.00     0.028 A 
ATOM     87  N   UNL A   1      30.675  26.399  23.981  1.00  0.00    -0.257 NA
ATOM     88  C   UNL A   1      31.777  25.688  23.627  1.00  0.00     0.078 A 
BRANCH  88  89
ATOM     89  C   UNL A   1      31.601  24.203  23.367  1.00  0.00     0.285 C 
BRANCH  89  90
ATOM     90  O   UNL A   1      32.645  23.481  22.681  1.00  0.00    -0.487 OA
BRANCH  90  91
ATOM     91  C   UNL A   1      33.569  22.690  23.300  1.00  0.00     0.120 A 
ATOM     92  C   UNL A   1      33.073  21.485  23.797  1.00  0.00     0.046 A 
ATOM     93  C   UNL A   1      34.897  22.997  23.580  1.00  0.00     0.059 A 
ATOM     94  C   UNL A   1      33.873  20.641  24.578  1.00  0.00     0.004 A 
ATOM     95  C   UNL A   1      35.683  22.228  24.453  1.00  0.00     0.059 A 
ATOM     96  C   UNL A   1      35.166  21.027  24.933  1.00  0.00     0.013 A 
BRANCH  95  97
ATOM     97  C   UNL A   1      37.020  22.754  24.924  1.00  0.00     0.416 C 
ATOM     98  F   UNL A   1      37.517  23.716  24.100  1.00  0.00    -0.166 F 
ATOM     99  F   UNL A   1      36.958  23.309  26.165  1.00  0.00    -0.166 F 
ATOM    100  F   UNL A   1      37.982  21.790  25.002  1.00  0.00    -0.166 F 
ENDBRANCH  95  97
ENDBRANCH  90  91
ENDBRANCH  89  90
ENDBRANCH  88  89
ENDBRANCH  81  83
ENDBRANCH  80  81
ENDBRANCH  79  80
ENDBRANCH  78  79
ENDBRANCH  77  78
ENDBRANCH  76  77
ENDBRANCH   1  76
TORSDOF 27
ENDMDL
MODEL 3
REMARK VINA RESULT:      -8.5      5.027      7.696
REMARK SMILES O=C(OCCOCCOCCOCCOC(=O)c1ccc(COc2cccc(C(F)(F)F)c2)nc1)c1ccc(-c2c3nc(c(-c4cc(S(=O)(=O)[O-])ccc4F)c4ccc([nH]4)c(-c4cc(S(=O)(=O)[O-])ccc4F)c4nc(c(-c5cc(S(=O)(=O)[O-])ccc5F)c5ccc2[nH]5)C=C4)C=C3)cc1
REMARK SMILES IDX 10 1 9 2 8 3 7 4 6 5 5 6 4 7 3 8 2 9 1 10 36 11 37 12 98 13
REMARK SMILES IDX 38 14 97 15 39 16 40 17 41 18 91 19 42 20 96 21 90 22 92 23
REMARK SMILES IDX 43 24 95 25 89 26 88 27 44 29 76 30 56 31 75 32 57 33 60 34
REMARK SMILES IDX 74 35 93 36 58 37 59 38 73 40 94 41 61 42 45 43 46 44 54 45
REMARK SMILES IDX 47 46 53 47 55 48 52 49 48 50 49 51 50 52 51 53 77 54 78 55
REMARK SMILES IDX 86 56 79 57 85 58 87 59 84 60 80 61 81 62 82 63 83 64 62 65
REMARK SMILES IDX 63 66 71 67 64 68 70 69 72 70 69 71 65 72 66 73 67 74 68 75
REMARK SMILES IDX 11 76 12 77 13 78 14 79 15 80 16 81 17 82 18 83 19 84 35 85
REMARK SMILES IDX 20 86 34 87 21 88 22 89 23 90 24 91 25 92 33 93 26 94 28 95
REMARK SMILES IDX 27 96 29 97 30 98 31 99 32 100
REMARK H PARENT 92 28 60 39
REMARK Flexibility Score: inf
ROOT
ATOM      1  C   UNL A   1      35.855  31.311  31.579  1.00  0.00     0.188 C 
ENDROOT
BRANCH   1   2
ATOM      2  O   UNL A   1      35.300  32.392  30.839  1.00  0.00    -0.377 OA
BRANCH   2   3
ATOM      3  C   UNL A   1      35.228  33.643  31.520  1.00  0.00     0.188 C 
BRANCH   3   4
ATOM      4  C   UNL A   1      36.578  34.321  31.760  1.00  0.00     0.188 C 
BRANCH   4   5
ATOM      5  O   UNL A   1      36.627  34.908  33.062  1.00  0.00    -0.376 OA
BRANCH   5   6
ATOM      6  C   UNL A   1      37.420  34.213  34.026  1.00  0.00     0.202 C 
BRANCH   6   7
ATOM      7  C   UNL A   1      36.648  33.166  34.828  1.00  0.00     0.261 C 
BRANCH   7   8
ATOM      8  O   UNL A   1      37.433  32.622  35.898  1.00  0.00    -0.460 OA
BRANCH   8   9
ATOM      9  C   UNL A   1      38.134  31.459  35.896  1.00  0.00     0.338 C 
ATOM     10  O   UNL A   1      37.890  30.638  36.780  1.00  0.00    -0.246 OA
BRANCH   9  11
ATOM     11  C   UNL A   1      39.181  31.104  34.884  1.00  0.00     0.060 A 
ATOM     12  C   UNL A   1      38.988  30.313  33.749  1.00  0.00     0.016 A 
ATOM     13  C   UNL A   1      40.453  31.673  35.069  1.00  0.00     0.016 A 
ATOM     14  C   UNL A   1      40.017  30.037  32.862  1.00  0.00     0.010 A 
ATOM     15  C   UNL A   1      41.496  31.418  34.171  1.00  0.00     0.010 A 
ATOM     16  C   UNL A   1      41.279  30.572  33.078  1.00  0.00    -0.014 A 
BRANCH  16  17
ATOM     17  C   UNL A   1      42.382  30.060  32.249  1.00  0.00     0.031 A 
ATOM     18  C   UNL A   1      42.859  30.932  31.126  1.00  0.00     0.074 A 
ATOM     19  C   UNL A   1      43.029  28.937  32.607  1.00  0.00     0.049 A 
ATOM     20  N   UNL A   1      43.760  30.693  30.215  1.00  0.00    -0.248 NA
ATOM     21  C   UNL A   1      42.241  32.266  31.029  1.00  0.00     0.031 C 
ATOM     22  C   UNL A   1      42.726  28.133  33.794  1.00  0.00     0.029 A 
ATOM     23  N   UNL A   1      44.092  28.294  32.034  1.00  0.00    -0.354 N 
ATOM     24  C   UNL A   1      43.793  31.831  29.417  1.00  0.00     0.074 A 
ATOM     25  C   UNL A   1      42.824  32.760  29.949  1.00  0.00     0.031 C 
ATOM     26  C   UNL A   1      43.591  27.107  33.861  1.00  0.00     0.029 A 
ATOM     27  C   UNL A   1      44.451  27.136  32.684  1.00  0.00     0.049 A 
ATOM     28  H   UNL A   1      44.556  28.628  31.232  1.00  0.00     0.167 HD
ATOM     29  C   UNL A   1      44.561  32.058  28.326  1.00  0.00     0.034 A 
ATOM     30  C   UNL A   1      45.341  26.188  32.325  1.00  0.00     0.034 A 
ATOM     31  C   UNL A   1      45.506  31.091  27.834  1.00  0.00     0.049 A 
ATOM     32  C   UNL A   1      46.095  26.409  31.033  1.00  0.00     0.074 A 
ATOM     33  C   UNL A   1      46.290  31.142  26.698  1.00  0.00     0.029 A 
ATOM     34  N   UNL A   1      45.788  29.881  28.463  1.00  0.00    -0.354 N 
ATOM     35  N   UNL A   1      46.055  27.443  30.221  1.00  0.00    -0.248 NA
ATOM     36  C   UNL A   1      46.997  25.338  30.601  1.00  0.00     0.031 C 
ATOM     37  C   UNL A   1      46.995  29.936  26.606  1.00  0.00     0.029 A 
ATOM     38  C   UNL A   1      46.712  29.165  27.725  1.00  0.00     0.049 A 
ATOM     39  H   UNL A   1      45.388  29.579  29.310  1.00  0.00     0.167 HD
ATOM     40  C   UNL A   1      46.946  27.156  29.192  1.00  0.00     0.074 A 
ATOM     41  C   UNL A   1      47.526  25.862  29.505  1.00  0.00     0.031 C 
ATOM     42  C   UNL A   1      47.259  27.877  28.086  1.00  0.00     0.034 A 
BRANCH  29  43
ATOM     43  C   UNL A   1      44.308  33.332  27.561  1.00  0.00     0.023 A 
ATOM     44  C   UNL A   1      44.543  34.602  28.115  1.00  0.00     0.031 A 
ATOM     45  C   UNL A   1      43.739  33.268  26.276  1.00  0.00     0.131 A 
ATOM     46  C   UNL A   1      44.150  35.754  27.415  1.00  0.00     0.055 A 
ATOM     47  C   UNL A   1      43.418  34.418  25.553  1.00  0.00     0.041 A 
ATOM     48  F   UNL A   1      43.458  32.083  25.712  1.00  0.00    -0.206 F 
ATOM     49  C   UNL A   1      43.611  35.671  26.128  1.00  0.00     0.022 A 
BRANCH  46  50
ATOM     50  S   UNL A   1      44.222  37.359  28.259  1.00  0.00     0.124 S 
ATOM     51  O   UNL A   1      42.903  37.423  28.884  1.00  0.00    -0.237 OA
ATOM     52  O   UNL A   1      45.350  37.189  29.168  1.00  0.00    -0.237 OA
ATOM     53  O   UNL A   1      44.436  38.311  27.171  1.00  0.00    -0.744 OA
ENDBRANCH  46  50
ENDBRANCH  29  43
BRANCH  30  54
ATOM     54  C   UNL A   1      45.497  24.928  33.114  1.00  0.00     0.023 A 
ATOM     55  C   UNL A   1      46.477  24.802  34.112  1.00  0.00     0.031 A 
ATOM     56  C   UNL A   1      44.721  23.789  32.820  1.00  0.00     0.131 A 
ATOM     57  C   UNL A   1      46.693  23.560  34.735  1.00  0.00     0.055 A 
ATOM     58  C   UNL A   1      44.893  22.576  33.489  1.00  0.00     0.041 A 
ATOM     59  F   UNL A   1      43.777  23.835  31.865  1.00  0.00    -0.206 F 
ATOM     60  C   UNL A   1      45.896  22.451  34.441  1.00  0.00     0.022 A 
BRANCH  57  61
ATOM     61  S   UNL A   1      48.121  23.376  35.841  1.00  0.00     0.124 S 
ATOM     62  O   UNL A   1      49.007  24.430  35.360  1.00  0.00    -0.237 OA
ATOM     63  O   UNL A   1      47.517  23.591  37.151  1.00  0.00    -0.237 OA
ATOM     64  O   UNL A   1      48.577  22.011  35.582  1.00  0.00    -0.744 OA
ENDBRANCH  57  61
ENDBRANCH  30  54
BRANCH  42  65
ATOM     65  C   UNL A   1      48.305  27.292  27.175  1.00  0.00     0.023 A 
ATOM     66  C   UNL A   1      49.674  27.517  27.390  1.00  0.00     0.031 A 
ATOM     67  C   UNL A   1      47.921  26.499  26.080  1.00  0.00     0.131 A 
ATOM     68  C   UNL A   1      50.611  27.002  26.486  1.00  0.00     0.055 A 
ATOM     69  C   UNL A   1      48.862  25.933  25.221  1.00  0.00     0.041 A 
ATOM     70  F   UNL A   1      46.623  26.255  25.834  1.00  0.00    -0.206 F 
ATOM     71  C   UNL A   1      50.216  26.195  25.414  1.00  0.00     0.022 A 
BRANCH  68  72
ATOM     72  S   UNL A   1      52.349  27.478  26.675  1.00  0.00     0.124 S 
ATOM     73  O   UNL A   1      52.245  28.912  26.926  1.00  0.00    -0.237 OA
ATOM     74  O   UNL A   1      52.776  26.663  27.808  1.00  0.00    -0.237 OA
ATOM     75  O   UNL A   1      52.946  27.114  25.391  1.00  0.00    -0.744 OA
ENDBRANCH  68  72
ENDBRANCH  42  65
ENDBRANCH  16  17
ENDBRANCH   9  11
ENDBRANCH   8   9
ENDBRANCH   7   8
ENDBRANCH   6   7
ENDBRANCH   5   6
ENDBRANCH   4   5
ENDBRANCH   3   4
ENDBRANCH   2   3
ENDBRANCH   1   2
BRANCH   1  76
ATOM     76  C   UNL A   1      36.929  30.417  30.915  1.00  0.00     0.188 C 
BRANCH  76  77
ATOM     77  O   UNL A   1      37.913  31.115  30.165  1.00  0.00    -0.376 OA
BRANCH  77  78
ATOM     78  C   UNL A   1      37.812  30.979  28.749  1.00  0.00     0.202 C 
BRANCH  78  79
ATOM     79  C   UNL A   1      38.111  29.560  28.241  1.00  0.00     0.261 C 
BRANCH  79  80
ATOM     80  O   UNL A   1      39.419  29.059  28.575  1.00  0.00    -0.460 OA
BRANCH  80  81
ATOM     81  C   UNL A   1      39.473  27.925  29.302  1.00  0.00     0.339 C 
ATOM     82  O   UNL A   1      38.613  27.473  30.038  1.00  0.00    -0.246 OA
BRANCH  81  83
ATOM     83  C   UNL A   1      40.663  27.177  28.873  1.00  0.00     0.078 A 
ATOM     84  C   UNL A   1      41.869  27.211  29.570  1.00  0.00     0.019 A 
ATOM     85  C   UNL A   1      40.609  26.485  27.669  1.00  0.00     0.127 A 
ATOM     86  C   UNL A   1      42.940  26.455  29.095  1.00  0.00     0.028 A 
ATOM     87  N   UNL A   1      41.656  25.795  27.156  1.00  0.00    -0.257 NA
ATOM     88  C   UNL A   1      42.772  25.703  27.925  1.00  0.00     0.078 A 
BRANCH  88  89
ATOM     89  C   UNL A   1      43.730  24.561  27.640  1.00  0.00     0.285 C 
BRANCH  89  90
ATOM     90  O   UNL A   1      43.755  23.976  26.323  1.00  0.00    -0.487 OA
BRANCH  90  91
ATOM     91  C   UNL A   1      43.448  22.673  26.051  1.00  0.00     0.120 A 
ATOM     92  C   UNL A   1      42.279  22.208  26.653  1.00  0.00     0.046 A 
ATOM     93  C   UNL A   1      44.214  21.751  25.347  1.00  0.00     0.059 A 
ATOM     94  C   UNL A   1      41.917  20.857  26.580  1.00  0.00     0.004 A 
ATOM     95  C   UNL A   1      43.936  20.375  25.355  1.00  0.00     0.059 A 
ATOM     96  C   UNL A   1      42.761  19.935  25.959  1.00  0.00     0.013 A 
BRANCH  95  97
ATOM     97  C   UNL A   1      44.947  19.398  24.797  1.00  0.00     0.416 C 
ATOM     98  F   UNL A   1      44.439  18.654  23.778  1.00  0.00    -0.166 F 
ATOM     99  F   UNL A   1      46.056  20.014  24.304  1.00  0.00    -0.166 F 
ATOM    100  F   UNL A   1      45.405  18.507  25.723  1.00  0.00    -0.166 F 
ENDBRANCH  95  97
ENDBRANCH  90  91
ENDBRANCH  89  90
ENDBRANCH  88  89
ENDBRANCH  81  83
ENDBRANCH  80  81
ENDBRANCH  79  80
ENDBRANCH  78  79
ENDBRANCH  77  78
ENDBRANCH  76  77
ENDBRANCH   1  76
TORSDOF 27
ENDMDL
