MODEL 1
REMARK VINA RESULT:      -9.2      0.000      0.000
REMARK SMILES Cn1c(=O)c2c(-c3ccc(Cl)cc3)n(CC(=O)OCCOCCOCCOCCOC(=O)c3ccc(-c4c5nc(c(-c6cc(S(=O)(=O)[O-])ccc6F)c6ccc([nH]6)c(-c6cc(S(=O)(=O)[O-])ccc6F)c6nc(c(-c7cc(S(=O)(=O)[O-])ccc7F)c7ccc4[nH]7)C=C6)C=C5)cc3)cc2n(C)c1=O
REMARK SMILES IDX 25 1 24 2 23 3 22 4 21 5 20 6 19 7 18 8 16 9 17 10 15 11
REMARK SMILES IDX 14 12 1 13 2 14 3 15 100 16 4 17 5 18 98 19 101 20 6 21
REMARK SMILES IDX 97 22 99 23 96 24 7 25 8 26 13 27 9 28 12 29 10 30 11 31
REMARK SMILES IDX 26 32 27 33 28 34 29 35 30 36 31 37 32 38 33 39 34 40 95 41
REMARK SMILES IDX 35 42 94 43 36 44 37 45 38 46 88 47 39 48 93 49 87 50 89 51
REMARK SMILES IDX 40 52 92 53 86 54 85 55 41 57 73 58 53 59 72 60 54 61 57 62
REMARK SMILES IDX 71 63 90 64 55 65 56 66 70 68 91 69 58 70 42 71 43 72 51 73
REMARK SMILES IDX 44 74 50 75 52 76 49 77 45 78 46 79 47 80 48 81 74 82 75 83
REMARK SMILES IDX 83 84 76 85 82 86 84 87 81 88 77 89 78 90 79 91 80 92 59 93
REMARK SMILES IDX 60 94 68 95 61 96 67 97 69 98 66 99 62 100 63 101 64 102
REMARK SMILES IDX 65 103
REMARK H PARENT 89 56 57 67
REMARK Flexibility Score: inf
ROOT
ATOM      1  C   UNL A   1      43.459  22.675  24.462  1.00  0.00     0.188 C 
ENDROOT
BRANCH   1   2
ATOM      2  O   UNL A   1      42.655  22.932  25.601  1.00  0.00    -0.377 OA
BRANCH   2   3
ATOM      3  C   UNL A   1      42.748  21.997  26.661  1.00  0.00     0.188 C 
BRANCH   3   4
ATOM      4  C   UNL A   1      41.621  20.934  26.748  1.00  0.00     0.188 C 
BRANCH   4   5
ATOM      5  O   UNL A   1      40.400  21.074  26.026  1.00  0.00    -0.376 OA
BRANCH   5   6
ATOM      6  C   UNL A   1      39.477  22.070  26.431  1.00  0.00     0.202 C 
BRANCH   6   7
ATOM      7  C   UNL A   1      38.124  22.115  25.688  1.00  0.00     0.261 C 
BRANCH   7   8
ATOM      8  O   UNL A   1      37.856  23.339  24.953  1.00  0.00    -0.462 OA
BRANCH   8   9
ATOM      9  C   UNL A   1      36.611  23.509  24.447  1.00  0.00     0.326 C 
ATOM     10  O   UNL A   1      36.336  23.317  23.262  1.00  0.00    -0.250 OA
BRANCH   9  11
ATOM     11  C   UNL A   1      35.497  23.765  25.451  1.00  0.00     0.244 C 
BRANCH  11  12
ATOM     12  N   UNL A   1      34.304  24.562  25.117  1.00  0.00    -0.333 N 
ATOM     13  C   UNL A   1      29.061  26.837  23.507  1.00  0.00     0.158 C 
ATOM     14  N   UNL A   1      30.404  26.648  24.029  1.00  0.00    -0.263 N 
ATOM     15  C   UNL A   1      30.906  25.340  23.986  1.00  0.00     0.265 A 
ATOM     16  C   UNL A   1      31.079  27.777  24.507  1.00  0.00     0.330 A 
ATOM     17  O   UNL A   1      30.257  24.384  23.567  1.00  0.00    -0.268 OA
ATOM     18  C   UNL A   1      32.258  25.213  24.491  1.00  0.00     0.090 A 
ATOM     19  N   UNL A   1      32.342  27.579  25.084  1.00  0.00    -0.295 N 
ATOM     20  O   UNL A   1      30.593  28.909  24.430  1.00  0.00    -0.248 OA
ATOM     21  C   UNL A   1      33.102  24.107  24.586  1.00  0.00     0.064 A 
ATOM     22  C   UNL A   1      32.919  26.318  25.050  1.00  0.00     0.076 A 
ATOM     23  C   UNL A   1      33.001  28.759  25.609  1.00  0.00     0.155 C 
ATOM     24  C   UNL A   1      34.129  25.878  25.527  1.00  0.00     0.114 A 
BRANCH  21  25
ATOM     25  C   UNL A   1      32.858  22.712  24.227  1.00  0.00    -0.001 A 
ATOM     26  C   UNL A   1      32.649  22.358  22.887  1.00  0.00     0.012 A 
ATOM     27  C   UNL A   1      32.838  21.717  25.208  1.00  0.00     0.012 A 
ATOM     28  C   UNL A   1      32.352  21.041  22.540  1.00  0.00     0.021 A 
ATOM     29  C   UNL A   1      32.573  20.390  24.859  1.00  0.00     0.021 A 
ATOM     30  C   UNL A   1      32.312  20.062  23.529  1.00  0.00     0.041 A 
ATOM     31  Cl  UNL A   1      31.941  18.439  23.101  1.00  0.00    -0.084 Cl
ENDBRANCH  21  25
ENDBRANCH  11  12
ENDBRANCH   9  11
ENDBRANCH   8   9
ENDBRANCH   7   8
ENDBRANCH   6   7
ENDBRANCH   5   6
ENDBRANCH   4   5
ENDBRANCH   3   4
ENDBRANCH   2   3
ENDBRANCH   1   2
BRANCH   1  32
ATOM     32  C   UNL A   1      44.633  21.708  24.678  1.00  0.00     0.188 C 
BRANCH  32  33
ATOM     33  O   UNL A   1      45.889  22.361  24.814  1.00  0.00    -0.376 OA
BRANCH  33  34
ATOM     34  C   UNL A   1      46.302  22.879  26.063  1.00  0.00     0.202 C 
BRANCH  34  35
ATOM     35  C   UNL A   1      46.536  24.383  26.227  1.00  0.00     0.261 C 
BRANCH  35  36
ATOM     36  O   UNL A   1      45.608  25.116  27.011  1.00  0.00    -0.460 OA
BRANCH  36  37
ATOM     37  C   UNL A   1      44.733  25.840  26.279  1.00  0.00     0.338 C 
ATOM     38  O   UNL A   1      44.668  25.859  25.067  1.00  0.00    -0.246 OA
BRANCH  37  39
ATOM     39  C   UNL A   1      43.927  26.695  27.167  1.00  0.00     0.060 A 
ATOM     40  C   UNL A   1      42.893  27.401  26.559  1.00  0.00     0.016 A 
ATOM     41  C   UNL A   1      44.343  26.989  28.476  1.00  0.00     0.016 A 
ATOM     42  C   UNL A   1      42.425  28.538  27.183  1.00  0.00     0.010 A 
ATOM     43  C   UNL A   1      43.865  28.127  29.102  1.00  0.00     0.010 A 
ATOM     44  C   UNL A   1      42.971  28.940  28.414  1.00  0.00    -0.014 A 
BRANCH  44  45
ATOM     45  C   UNL A   1      42.456  30.170  28.994  1.00  0.00     0.031 A 
ATOM     46  C   UNL A   1      43.415  31.288  28.868  1.00  0.00     0.074 A 
ATOM     47  C   UNL A   1      41.278  30.318  29.631  1.00  0.00     0.049 A 
ATOM     48  N   UNL A   1      44.209  31.705  29.794  1.00  0.00    -0.248 NA
ATOM     49  C   UNL A   1      43.690  31.848  27.540  1.00  0.00     0.031 C 
ATOM     50  C   UNL A   1      40.165  29.376  29.747  1.00  0.00     0.029 A 
ATOM     51  N   UNL A   1      40.817  31.414  30.304  1.00  0.00    -0.354 N 
ATOM     52  C   UNL A   1      44.915  32.758  29.242  1.00  0.00     0.074 A 
ATOM     53  C   UNL A   1      44.701  32.676  27.820  1.00  0.00     0.031 C 
ATOM     54  C   UNL A   1      39.087  30.013  30.268  1.00  0.00     0.029 A 
ATOM     55  C   UNL A   1      39.467  31.366  30.649  1.00  0.00     0.049 A 
ATOM     56  H   UNL A   1      41.393  32.179  30.528  1.00  0.00     0.167 HD
ATOM     57  C   UNL A   1      45.395  33.747  30.040  1.00  0.00     0.034 A 
ATOM     58  C   UNL A   1      38.726  32.352  31.229  1.00  0.00     0.034 A 
ATOM     59  C   UNL A   1      45.462  33.320  31.422  1.00  0.00     0.049 A 
ATOM     60  C   UNL A   1      39.683  33.169  32.018  1.00  0.00     0.074 A 
ATOM     61  C   UNL A   1      46.092  32.285  32.089  1.00  0.00     0.029 A 
ATOM     62  N   UNL A   1      44.488  33.772  32.287  1.00  0.00    -0.354 N 
ATOM     63  N   UNL A   1      40.316  32.706  33.063  1.00  0.00    -0.248 NA
ATOM     64  C   UNL A   1      40.305  34.311  31.365  1.00  0.00     0.031 C 
ATOM     65  C   UNL A   1      45.150  31.849  33.067  1.00  0.00     0.029 A 
ATOM     66  C   UNL A   1      44.038  32.688  32.996  1.00  0.00     0.049 A 
ATOM     67  H   UNL A   1      44.174  34.701  32.378  1.00  0.00     0.167 HD
ATOM     68  C   UNL A   1      41.607  33.193  32.937  1.00  0.00     0.074 A 
ATOM     69  C   UNL A   1      41.522  34.236  31.913  1.00  0.00     0.031 C 
ATOM     70  C   UNL A   1      42.676  32.531  33.466  1.00  0.00     0.034 A 
BRANCH  57  71
ATOM     71  C   UNL A   1      45.388  35.206  29.656  1.00  0.00     0.023 A 
ATOM     72  C   UNL A   1      46.589  35.915  29.839  1.00  0.00     0.031 A 
ATOM     73  C   UNL A   1      44.228  35.989  29.454  1.00  0.00     0.131 A 
ATOM     74  C   UNL A   1      46.585  37.314  29.949  1.00  0.00     0.055 A 
ATOM     75  C   UNL A   1      44.242  37.385  29.501  1.00  0.00     0.041 A 
ATOM     76  F   UNL A   1      43.010  35.460  29.300  1.00  0.00    -0.206 F 
ATOM     77  C   UNL A   1      45.418  38.054  29.788  1.00  0.00     0.022 A 
BRANCH  74  78
ATOM     78  S   UNL A   1      48.109  38.128  30.484  1.00  0.00     0.124 S 
ATOM     79  O   UNL A   1      49.074  37.591  29.531  1.00  0.00    -0.237 OA
ATOM     80  O   UNL A   1      47.766  39.538  30.327  1.00  0.00    -0.237 OA
ATOM     81  O   UNL A   1      48.269  37.675  31.863  1.00  0.00    -0.744 OA
ENDBRANCH  74  78
ENDBRANCH  57  71
BRANCH  58  82
ATOM     82  C   UNL A   1      37.368  32.841  30.824  1.00  0.00     0.023 A 
ATOM     83  C   UNL A   1      36.472  33.456  31.736  1.00  0.00     0.031 A 
ATOM     84  C   UNL A   1      37.025  32.944  29.456  1.00  0.00     0.131 A 
ATOM     85  C   UNL A   1      35.320  34.140  31.270  1.00  0.00     0.055 A 
ATOM     86  C   UNL A   1      35.891  33.625  29.004  1.00  0.00     0.041 A 
ATOM     87  F   UNL A   1      37.827  32.458  28.498  1.00  0.00    -0.206 F 
ATOM     88  C   UNL A   1      35.040  34.237  29.907  1.00  0.00     0.022 A 
BRANCH  85  89
ATOM     89  S   UNL A   1      34.211  35.021  32.424  1.00  0.00     0.124 S 
ATOM     90  O   UNL A   1      33.406  33.933  32.966  1.00  0.00    -0.237 OA
ATOM     91  O   UNL A   1      35.145  35.657  33.346  1.00  0.00    -0.237 OA
ATOM     92  O   UNL A   1      33.484  35.949  31.556  1.00  0.00    -0.744 OA
ENDBRANCH  85  89
ENDBRANCH  58  82
BRANCH  70  93
ATOM     93  C   UNL A   1      42.444  31.431  34.475  1.00  0.00     0.023 A 
ATOM     94  C   UNL A   1      42.079  30.102  34.163  1.00  0.00     0.031 A 
ATOM     95  C   UNL A   1      42.808  31.720  35.802  1.00  0.00     0.131 A 
ATOM     96  C   UNL A   1      42.105  29.117  35.175  1.00  0.00     0.055 A 
ATOM     97  C   UNL A   1      42.854  30.741  36.790  1.00  0.00     0.041 A 
ATOM     98  F   UNL A   1      43.190  32.962  36.145  1.00  0.00    -0.206 F 
ATOM     99  C   UNL A   1      42.505  29.433  36.478  1.00  0.00     0.022 A 
BRANCH  96 100
ATOM    100  S   UNL A   1      41.673  27.384  34.800  1.00  0.00     0.124 S 
ATOM    101  O   UNL A   1      41.226  26.869  36.090  1.00  0.00    -0.237 OA
ATOM    102  O   UNL A   1      40.645  27.519  33.772  1.00  0.00    -0.237 OA
ATOM    103  O   UNL A   1      42.933  26.811  34.322  1.00  0.00    -0.744 OA
ENDBRANCH  96 100
ENDBRANCH  70  93
ENDBRANCH  44  45
ENDBRANCH  37  39
ENDBRANCH  36  37
ENDBRANCH  35  36
ENDBRANCH  34  35
ENDBRANCH  33  34
ENDBRANCH  32  33
ENDBRANCH   1  32
TORSDOF 25
ENDMDL
MODEL 2
REMARK VINA RESULT:      -8.7      5.509     12.463
REMARK SMILES Cn1c(=O)c2c(-c3ccc(Cl)cc3)n(CC(=O)OCCOCCOCCOCCOC(=O)c3ccc(-c4c5nc(c(-c6cc(S(=O)(=O)[O-])ccc6F)c6ccc([nH]6)c(-c6cc(S(=O)(=O)[O-])ccc6F)c6nc(c(-c7cc(S(=O)(=O)[O-])ccc7F)c7ccc4[nH]7)C=C6)C=C5)cc3)cc2n(C)c1=O
REMARK SMILES IDX 25 1 24 2 23 3 22 4 21 5 20 6 19 7 18 8 16 9 17 10 15 11
REMARK SMILES IDX 14 12 1 13 2 14 3 15 100 16 4 17 5 18 98 19 101 20 6 21
REMARK SMILES IDX 97 22 99 23 96 24 7 25 8 26 13 27 9 28 12 29 10 30 11 31
REMARK SMILES IDX 26 32 27 33 28 34 29 35 30 36 31 37 32 38 33 39 34 40 95 41
REMARK SMILES IDX 35 42 94 43 36 44 37 45 38 46 88 47 39 48 93 49 87 50 89 51
REMARK SMILES IDX 40 52 92 53 86 54 85 55 41 57 73 58 53 59 72 60 54 61 57 62
REMARK SMILES IDX 71 63 90 64 55 65 56 66 70 68 91 69 58 70 42 71 43 72 51 73
REMARK SMILES IDX 44 74 50 75 52 76 49 77 45 78 46 79 47 80 48 81 74 82 75 83
REMARK SMILES IDX 83 84 76 85 82 86 84 87 81 88 77 89 78 90 79 91 80 92 59 93
REMARK SMILES IDX 60 94 68 95 61 96 67 97 69 98 66 99 62 100 63 101 64 102
REMARK SMILES IDX 65 103
REMARK H PARENT 89 56 57 67
REMARK Flexibility Score: inf
ROOT
ATOM      1  C   UNL A   1      45.352  28.239  29.008  1.00  0.00     0.188 C 
ENDROOT
BRANCH   1   2
ATOM      2  O   UNL A   1      46.621  27.673  29.292  1.00  0.00    -0.377 OA
BRANCH   2   3
ATOM      3  C   UNL A   1      46.618  26.451  30.006  1.00  0.00     0.188 C 
BRANCH   3   4
ATOM      4  C   UNL A   1      47.343  26.449  31.379  1.00  0.00     0.188 C 
BRANCH   4   5
ATOM      5  O   UNL A   1      46.738  25.897  32.546  1.00  0.00    -0.376 OA
BRANCH   5   6
ATOM      6  C   UNL A   1      45.373  26.175  32.804  1.00  0.00     0.202 C 
BRANCH   6   7
ATOM      7  C   UNL A   1      44.584  25.123  33.612  1.00  0.00     0.261 C 
BRANCH   7   8
ATOM      8  O   UNL A   1      44.891  25.066  35.031  1.00  0.00    -0.462 OA
BRANCH   8   9
ATOM      9  C   UNL A   1      44.926  23.846  35.618  1.00  0.00     0.326 C 
ATOM     10  O   UNL A   1      44.095  22.966  35.390  1.00  0.00    -0.250 OA
BRANCH   9  11
ATOM     11  C   UNL A   1      46.164  23.522  36.442  1.00  0.00     0.244 C 
BRANCH  11  12
ATOM     12  N   UNL A   1      47.420  23.060  35.826  1.00  0.00    -0.333 N 
ATOM     13  C   UNL A   1      52.289  20.287  33.861  1.00  0.00     0.158 C 
ATOM     14  N   UNL A   1      51.208  21.234  34.076  1.00  0.00    -0.263 N 
ATOM     15  C   UNL A   1      50.212  20.841  34.981  1.00  0.00     0.265 A 
ATOM     16  C   UNL A   1      51.263  22.449  33.383  1.00  0.00     0.330 A 
ATOM     17  O   UNL A   1      50.211  19.752  35.549  1.00  0.00    -0.268 OA
ATOM     18  C   UNL A   1      49.175  21.835  35.180  1.00  0.00     0.090 A 
ATOM     19  N   UNL A   1      50.178  23.327  33.530  1.00  0.00    -0.295 N 
ATOM     20  O   UNL A   1      52.223  22.749  32.667  1.00  0.00    -0.248 OA
ATOM     21  C   UNL A   1      48.052  21.835  36.006  1.00  0.00     0.064 A 
ATOM     22  C   UNL A   1      49.171  23.022  34.433  1.00  0.00     0.076 A 
ATOM     23  C   UNL A   1      50.242  24.559  32.769  1.00  0.00     0.155 C 
ATOM     24  C   UNL A   1      48.030  23.713  34.761  1.00  0.00     0.114 A 
BRANCH  21  25
ATOM     25  C   UNL A   1      47.558  20.800  36.912  1.00  0.00    -0.001 A 
ATOM     26  C   UNL A   1      48.152  20.624  38.168  1.00  0.00     0.012 A 
ATOM     27  C   UNL A   1      46.486  19.983  36.542  1.00  0.00     0.012 A 
ATOM     28  C   UNL A   1      47.731  19.600  39.014  1.00  0.00     0.021 A 
ATOM     29  C   UNL A   1      46.040  18.976  37.401  1.00  0.00     0.021 A 
ATOM     30  C   UNL A   1      46.678  18.776  38.625  1.00  0.00     0.041 A 
ATOM     31  Cl  UNL A   1      46.163  17.509  39.667  1.00  0.00    -0.084 Cl
ENDBRANCH  21  25
ENDBRANCH  11  12
ENDBRANCH   9  11
ENDBRANCH   8   9
ENDBRANCH   7   8
ENDBRANCH   6   7
ENDBRANCH   5   6
ENDBRANCH   4   5
ENDBRANCH   3   4
ENDBRANCH   2   3
ENDBRANCH   1   2
BRANCH   1  32
ATOM     32  C   UNL A   1      44.712  27.809  27.679  1.00  0.00     0.188 C 
BRANCH  32  33
ATOM     33  O   UNL A   1      43.715  26.806  27.828  1.00  0.00    -0.376 OA
BRANCH  33  34
ATOM     34  C   UNL A   1      43.744  25.636  27.034  1.00  0.00     0.202 C 
BRANCH  34  35
ATOM     35  C   UNL A   1      42.446  24.878  26.743  1.00  0.00     0.261 C 
BRANCH  35  36
ATOM     36  O   UNL A   1      41.405  24.955  27.704  1.00  0.00    -0.460 OA
BRANCH  36  37
ATOM     37  C   UNL A   1      40.261  25.486  27.222  1.00  0.00     0.338 C 
ATOM     38  O   UNL A   1      39.745  25.212  26.158  1.00  0.00    -0.246 OA
BRANCH  37  39
ATOM     39  C   UNL A   1      39.776  26.537  28.133  1.00  0.00     0.060 A 
ATOM     40  C   UNL A   1      40.066  27.847  27.762  1.00  0.00     0.016 A 
ATOM     41  C   UNL A   1      39.298  26.229  29.417  1.00  0.00     0.016 A 
ATOM     42  C   UNL A   1      40.081  28.814  28.744  1.00  0.00     0.010 A 
ATOM     43  C   UNL A   1      39.308  27.205  30.399  1.00  0.00     0.010 A 
ATOM     44  C   UNL A   1      39.781  28.472  30.073  1.00  0.00    -0.014 A 
BRANCH  44  45
ATOM     45  C   UNL A   1      39.856  29.536  31.062  1.00  0.00     0.031 A 
ATOM     46  C   UNL A   1      38.570  30.247  31.213  1.00  0.00     0.074 A 
ATOM     47  C   UNL A   1      40.955  29.908  31.749  1.00  0.00     0.049 A 
ATOM     48  N   UNL A   1      38.268  31.377  30.669  1.00  0.00    -0.248 NA
ATOM     49  C   UNL A   1      37.433  29.550  31.825  1.00  0.00     0.031 C 
ATOM     50  C   UNL A   1      42.262  29.258  31.823  1.00  0.00     0.029 A 
ATOM     51  N   UNL A   1      41.103  30.980  32.582  1.00  0.00    -0.354 N 
ATOM     52  C   UNL A   1      36.979  31.662  31.080  1.00  0.00     0.074 A 
ATOM     53  C   UNL A   1      36.453  30.433  31.617  1.00  0.00     0.031 C 
ATOM     54  C   UNL A   1      42.997  29.832  32.808  1.00  0.00     0.029 A 
ATOM     55  C   UNL A   1      42.270  30.975  33.344  1.00  0.00     0.049 A 
ATOM     56  H   UNL A   1      40.436  31.702  32.640  1.00  0.00     0.167 HD
ATOM     57  C   UNL A   1      36.565  32.954  31.172  1.00  0.00     0.034 A 
ATOM     58  C   UNL A   1      42.625  31.858  34.320  1.00  0.00     0.034 A 
ATOM     59  C   UNL A   1      37.419  33.834  30.404  1.00  0.00     0.049 A 
ATOM     60  C   UNL A   1      41.946  33.134  33.980  1.00  0.00     0.074 A 
ATOM     61  C   UNL A   1      37.797  33.904  29.075  1.00  0.00     0.029 A 
ATOM     62  N   UNL A   1      38.340  34.600  31.086  1.00  0.00    -0.354 N 
ATOM     63  N   UNL A   1      42.240  33.831  32.915  1.00  0.00    -0.248 NA
ATOM     64  C   UNL A   1      40.624  33.373  34.538  1.00  0.00     0.031 C 
ATOM     65  C   UNL A   1      39.177  34.265  29.103  1.00  0.00     0.029 A 
ATOM     66  C   UNL A   1      39.540  34.472  30.434  1.00  0.00     0.049 A 
ATOM     67  H   UNL A   1      38.168  35.139  31.892  1.00  0.00     0.167 HD
ATOM     68  C   UNL A   1      41.016  34.249  32.419  1.00  0.00     0.074 A 
ATOM     69  C   UNL A   1      40.062  34.001  33.501  1.00  0.00     0.031 C 
ATOM     70  C   UNL A   1      40.831  34.503  31.091  1.00  0.00     0.034 A 
BRANCH  57  71
ATOM     71  C   UNL A   1      35.679  33.468  32.280  1.00  0.00     0.023 A 
ATOM     72  C   UNL A   1      34.559  34.225  31.895  1.00  0.00     0.031 A 
ATOM     73  C   UNL A   1      36.044  33.547  33.643  1.00  0.00     0.131 A 
ATOM     74  C   UNL A   1      33.944  35.105  32.798  1.00  0.00     0.055 A 
ATOM     75  C   UNL A   1      35.386  34.377  34.554  1.00  0.00     0.041 A 
ATOM     76  F   UNL A   1      37.105  32.911  34.151  1.00  0.00    -0.206 F 
ATOM     77  C   UNL A   1      34.354  35.191  34.125  1.00  0.00     0.022 A 
BRANCH  74  78
ATOM     78  S   UNL A   1      32.712  36.262  32.153  1.00  0.00     0.124 S 
ATOM     79  O   UNL A   1      31.536  35.405  32.051  1.00  0.00    -0.237 OA
ATOM     80  O   UNL A   1      32.678  37.279  33.200  1.00  0.00    -0.237 OA
ATOM     81  O   UNL A   1      33.286  36.694  30.882  1.00  0.00    -0.744 OA
ENDBRANCH  74  78
ENDBRANCH  57  71
BRANCH  58  82
ATOM     82  C   UNL A   1      43.163  31.552  35.686  1.00  0.00     0.023 A 
ATOM     83  C   UNL A   1      43.517  30.240  36.092  1.00  0.00     0.031 A 
ATOM     84  C   UNL A   1      43.581  32.598  36.538  1.00  0.00     0.131 A 
ATOM     85  C   UNL A   1      44.264  30.026  37.279  1.00  0.00     0.055 A 
ATOM     86  C   UNL A   1      44.323  32.380  37.704  1.00  0.00     0.041 A 
ATOM     87  F   UNL A   1      43.360  33.883  36.227  1.00  0.00    -0.206 F 
ATOM     88  C   UNL A   1      44.679  31.095  38.073  1.00  0.00     0.022 A 
BRANCH  85  89
ATOM     89  S   UNL A   1      44.814  28.352  37.764  1.00  0.00     0.124 S 
ATOM     90  O   UNL A   1      45.938  28.127  36.862  1.00  0.00    -0.237 OA
ATOM     91  O   UNL A   1      45.140  28.517  39.176  1.00  0.00    -0.237 OA
ATOM     92  O   UNL A   1      43.640  27.519  37.502  1.00  0.00    -0.744 OA
ENDBRANCH  85  89
ENDBRANCH  58  82
BRANCH  70  93
ATOM     93  C   UNL A   1      42.034  34.647  30.187  1.00  0.00     0.023 A 
ATOM     94  C   UNL A   1      42.771  35.836  29.994  1.00  0.00     0.031 A 
ATOM     95  C   UNL A   1      42.555  33.454  29.656  1.00  0.00     0.131 A 
ATOM     96  C   UNL A   1      43.999  35.789  29.297  1.00  0.00     0.055 A 
ATOM     97  C   UNL A   1      43.776  33.409  28.990  1.00  0.00     0.041 A 
ATOM     98  F   UNL A   1      41.906  32.290  29.836  1.00  0.00    -0.206 F 
ATOM     99  C   UNL A   1      44.505  34.578  28.811  1.00  0.00     0.022 A 
BRANCH  96 100
ATOM    100  S   UNL A   1      44.994  37.299  29.059  1.00  0.00     0.124 S 
ATOM    101  O   UNL A   1      44.943  37.504  27.616  1.00  0.00    -0.237 OA
ATOM    102  O   UNL A   1      44.291  38.286  29.873  1.00  0.00    -0.237 OA
ATOM    103  O   UNL A   1      46.315  36.925  29.570  1.00  0.00    -0.744 OA
ENDBRANCH  96 100
ENDBRANCH  70  93
ENDBRANCH  44  45
ENDBRANCH  37  39
ENDBRANCH  36  37
ENDBRANCH  35  36
ENDBRANCH  34  35
ENDBRANCH  33  34
ENDBRANCH  32  33
ENDBRANCH   1  32
TORSDOF 25
ENDMDL
MODEL 3
REMARK VINA RESULT:      -8.6      5.346     10.009
REMARK SMILES Cn1c(=O)c2c(-c3ccc(Cl)cc3)n(CC(=O)OCCOCCOCCOCCOC(=O)c3ccc(-c4c5nc(c(-c6cc(S(=O)(=O)[O-])ccc6F)c6ccc([nH]6)c(-c6cc(S(=O)(=O)[O-])ccc6F)c6nc(c(-c7cc(S(=O)(=O)[O-])ccc7F)c7ccc4[nH]7)C=C6)C=C5)cc3)cc2n(C)c1=O
REMARK SMILES IDX 25 1 24 2 23 3 22 4 21 5 20 6 19 7 18 8 16 9 17 10 15 11
REMARK SMILES IDX 14 12 1 13 2 14 3 15 100 16 4 17 5 18 98 19 101 20 6 21
REMARK SMILES IDX 97 22 99 23 96 24 7 25 8 26 13 27 9 28 12 29 10 30 11 31
REMARK SMILES IDX 26 32 27 33 28 34 29 35 30 36 31 37 32 38 33 39 34 40 95 41
REMARK SMILES IDX 35 42 94 43 36 44 37 45 38 46 88 47 39 48 93 49 87 50 89 51
REMARK SMILES IDX 40 52 92 53 86 54 85 55 41 57 73 58 53 59 72 60 54 61 57 62
REMARK SMILES IDX 71 63 90 64 55 65 56 66 70 68 91 69 58 70 42 71 43 72 51 73
REMARK SMILES IDX 44 74 50 75 52 76 49 77 45 78 46 79 47 80 48 81 74 82 75 83
REMARK SMILES IDX 83 84 76 85 82 86 84 87 81 88 77 89 78 90 79 91 80 92 59 93
REMARK SMILES IDX 60 94 68 95 61 96 67 97 69 98 66 99 62 100 63 101 64 102
REMARK SMILES IDX 65 103
REMARK H PARENT 89 56 57 67
REMARK Flexibility Score: inf
ROOT
ATOM      1  C   UNL A   1      49.940  26.180  32.803  1.00  0.00     0.188 C 
ENDROOT
BRANCH   1   2
ATOM      2  O   UNL A   1      50.783  25.259  32.131  1.00  0.00    -0.377 OA
BRANCH   2   3
ATOM      3  C   UNL A   1      51.803  25.813  31.321  1.00  0.00     0.188 C 
BRANCH   3   4
ATOM      4  C   UNL A   1      51.420  26.140  29.853  1.00  0.00     0.188 C 
BRANCH   4   5
ATOM      5  O   UNL A   1      50.271  25.569  29.232  1.00  0.00    -0.376 OA
BRANCH   5   6
ATOM      6  C   UNL A   1      49.692  26.233  28.122  1.00  0.00     0.202 C 
BRANCH   6   7
ATOM      7  C   UNL A   1      49.102  25.348  27.005  1.00  0.00     0.261 C 
BRANCH   7   8
ATOM      8  O   UNL A   1      47.688  25.544  26.733  1.00  0.00    -0.462 OA
BRANCH   8   9
ATOM      9  C   UNL A   1      47.280  25.473  25.443  1.00  0.00     0.326 C 
ATOM     10  O   UNL A   1      48.062  25.433  24.493  1.00  0.00    -0.250 OA
BRANCH   9  11
ATOM     11  C   UNL A   1      45.793  25.246  25.211  1.00  0.00     0.244 C 
BRANCH  11  12
ATOM     12  N   UNL A   1      45.172  23.916  25.335  1.00  0.00    -0.333 N 
ATOM     13  C   UNL A   1      41.807  19.093  26.150  1.00  0.00     0.158 C 
ATOM     14  N   UNL A   1      42.875  20.010  25.789  1.00  0.00    -0.263 N 
ATOM     15  C   UNL A   1      42.630  21.369  26.028  1.00  0.00     0.265 A 
ATOM     16  C   UNL A   1      44.048  19.463  25.256  1.00  0.00     0.330 A 
ATOM     17  O   UNL A   1      41.570  21.792  26.485  1.00  0.00    -0.268 OA
ATOM     18  C   UNL A   1      43.738  22.236  25.677  1.00  0.00     0.090 A 
ATOM     19  N   UNL A   1      45.044  20.355  24.833  1.00  0.00    -0.295 N 
ATOM     20  O   UNL A   1      44.212  18.243  25.156  1.00  0.00    -0.248 OA
ATOM     21  C   UNL A   1      43.894  23.617  25.791  1.00  0.00     0.064 A 
ATOM     22  C   UNL A   1      44.888  21.713  25.066  1.00  0.00     0.076 A 
ATOM     23  C   UNL A   1      46.230  19.763  24.246  1.00  0.00     0.155 C 
ATOM     24  C   UNL A   1      45.711  22.770  24.763  1.00  0.00     0.114 A 
BRANCH  21  25
ATOM     25  C   UNL A   1      42.957  24.625  26.279  1.00  0.00    -0.001 A 
ATOM     26  C   UNL A   1      42.166  25.346  25.375  1.00  0.00     0.012 A 
ATOM     27  C   UNL A   1      42.830  24.877  27.649  1.00  0.00     0.012 A 
ATOM     28  C   UNL A   1      41.316  26.355  25.824  1.00  0.00     0.021 A 
ATOM     29  C   UNL A   1      41.954  25.864  28.105  1.00  0.00     0.021 A 
ATOM     30  C   UNL A   1      41.215  26.612  27.189  1.00  0.00     0.041 A 
ATOM     31  Cl  UNL A   1      40.169  27.860  27.742  1.00  0.00    -0.084 Cl
ENDBRANCH  21  25
ENDBRANCH  11  12
ENDBRANCH   9  11
ENDBRANCH   8   9
ENDBRANCH   7   8
ENDBRANCH   6   7
ENDBRANCH   5   6
ENDBRANCH   4   5
ENDBRANCH   3   4
ENDBRANCH   2   3
ENDBRANCH   1   2
BRANCH   1  32
ATOM     32  C   UNL A   1      50.022  26.163  34.338  1.00  0.00     0.188 C 
BRANCH  32  33
ATOM     33  O   UNL A   1      49.257  25.123  34.935  1.00  0.00    -0.376 OA
BRANCH  33  34
ATOM     34  C   UNL A   1      48.192  24.516  34.231  1.00  0.00     0.202 C 
BRANCH  34  35
ATOM     35  C   UNL A   1      46.788  25.125  34.293  1.00  0.00     0.261 C 
BRANCH  35  36
ATOM     36  O   UNL A   1      46.295  25.770  33.129  1.00  0.00    -0.460 OA
BRANCH  36  37
ATOM     37  C   UNL A   1      44.947  25.774  33.042  1.00  0.00     0.338 C 
ATOM     38  O   UNL A   1      44.273  24.960  32.444  1.00  0.00    -0.246 OA
BRANCH  37  39
ATOM     39  C   UNL A   1      44.408  26.979  33.694  1.00  0.00     0.060 A 
ATOM     40  C   UNL A   1      43.436  26.763  34.667  1.00  0.00     0.016 A 
ATOM     41  C   UNL A   1      44.657  28.263  33.181  1.00  0.00     0.016 A 
ATOM     42  C   UNL A   1      42.571  27.794  34.965  1.00  0.00     0.010 A 
ATOM     43  C   UNL A   1      43.790  29.298  33.488  1.00  0.00     0.010 A 
ATOM     44  C   UNL A   1      42.703  29.032  34.313  1.00  0.00    -0.014 A 
BRANCH  44  45
ATOM     45  C   UNL A   1      41.730  30.061  34.648  1.00  0.00     0.031 A 
ATOM     46  C   UNL A   1      40.636  30.135  33.657  1.00  0.00     0.074 A 
ATOM     47  C   UNL A   1      41.796  30.910  35.693  1.00  0.00     0.049 A 
ATOM     48  N   UNL A   1      40.550  30.990  32.696  1.00  0.00    -0.248 NA
ATOM     49  C   UNL A   1      39.671  29.033  33.573  1.00  0.00     0.031 C 
ATOM     50  C   UNL A   1      42.721  30.910  36.825  1.00  0.00     0.029 A 
ATOM     51  N   UNL A   1      40.982  31.971  35.967  1.00  0.00    -0.354 N 
ATOM     52  C   UNL A   1      39.375  30.692  32.029  1.00  0.00     0.074 A 
ATOM     53  C   UNL A   1      38.984  29.382  32.481  1.00  0.00     0.031 C 
ATOM     54  C   UNL A   1      42.288  31.791  37.761  1.00  0.00     0.029 A 
ATOM     55  C   UNL A   1      41.137  32.516  37.241  1.00  0.00     0.049 A 
ATOM     56  H   UNL A   1      40.335  32.325  35.316  1.00  0.00     0.167 HD
ATOM     57  C   UNL A   1      38.706  31.670  31.363  1.00  0.00     0.034 A 
ATOM     58  C   UNL A   1      40.395  33.505  37.814  1.00  0.00     0.034 A 
ATOM     59  C   UNL A   1      39.564  32.804  31.093  1.00  0.00     0.049 A 
ATOM     60  C   UNL A   1      39.886  34.333  36.690  1.00  0.00     0.074 A 
ATOM     61  C   UNL A   1      40.763  32.977  30.425  1.00  0.00     0.029 A 
ATOM     62  N   UNL A   1      39.420  33.927  31.880  1.00  0.00    -0.354 N 
ATOM     63  N   UNL A   1      40.669  35.043  35.922  1.00  0.00    -0.248 NA
ATOM     64  C   UNL A   1      38.595  33.986  36.117  1.00  0.00     0.031 C 
ATOM     65  C   UNL A   1      41.494  33.912  31.216  1.00  0.00     0.029 A 
ATOM     66  C   UNL A   1      40.675  34.315  32.271  1.00  0.00     0.049 A 
ATOM     67  H   UNL A   1      38.571  34.368  32.117  1.00  0.00     0.167 HD
ATOM     68  C   UNL A   1      40.172  34.854  34.643  1.00  0.00     0.074 A 
ATOM     69  C   UNL A   1      38.849  34.256  34.833  1.00  0.00     0.031 C 
ATOM     70  C   UNL A   1      40.974  34.943  33.543  1.00  0.00     0.034 A 
BRANCH  57  71
ATOM     71  C   UNL A   1      37.202  31.786  31.345  1.00  0.00     0.023 A 
ATOM     72  C   UNL A   1      36.596  31.974  30.090  1.00  0.00     0.031 A 
ATOM     73  C   UNL A   1      36.392  32.056  32.472  1.00  0.00     0.131 A 
ATOM     74  C   UNL A   1      35.312  32.531  29.990  1.00  0.00     0.055 A 
ATOM     75  C   UNL A   1      35.090  32.549  32.366  1.00  0.00     0.041 A 
ATOM     76  F   UNL A   1      36.838  31.955  33.729  1.00  0.00    -0.206 F 
ATOM     77  C   UNL A   1      34.556  32.825  31.120  1.00  0.00     0.022 A 
BRANCH  74  78
ATOM     78  S   UNL A   1      34.723  33.023  28.353  1.00  0.00     0.124 S 
ATOM     79  O   UNL A   1      33.981  34.240  28.666  1.00  0.00    -0.237 OA
ATOM     80  O   UNL A   1      35.975  33.202  27.625  1.00  0.00    -0.237 OA
ATOM     81  O   UNL A   1      33.912  31.885  27.928  1.00  0.00    -0.744 OA
ENDBRANCH  74  78
ENDBRANCH  57  71
BRANCH  58  82
ATOM     82  C   UNL A   1      39.796  33.528  39.188  1.00  0.00     0.023 A 
ATOM     83  C   UNL A   1      38.642  32.778  39.532  1.00  0.00     0.031 A 
ATOM     84  C   UNL A   1      40.508  34.098  40.267  1.00  0.00     0.131 A 
ATOM     85  C   UNL A   1      38.264  32.612  40.889  1.00  0.00     0.055 A 
ATOM     86  C   UNL A   1      40.132  33.926  41.603  1.00  0.00     0.041 A 
ATOM     87  F   UNL A   1      41.648  34.775  40.071  1.00  0.00    -0.206 F 
ATOM     88  C   UNL A   1      39.016  33.172  41.921  1.00  0.00     0.022 A 
BRANCH  85  89
ATOM     89  S   UNL A   1      36.839  31.567  41.354  1.00  0.00     0.124 S 
ATOM     90  O   UNL A   1      35.953  32.527  42.000  1.00  0.00    -0.237 OA
ATOM     91  O   UNL A   1      36.396  31.037  40.070  1.00  0.00    -0.237 OA
ATOM     92  O   UNL A   1      37.427  30.572  42.254  1.00  0.00    -0.744 OA
ENDBRANCH  85  89
ENDBRANCH  58  82
BRANCH  70  93
ATOM     93  C   UNL A   1      42.345  35.565  33.671  1.00  0.00     0.023 A 
ATOM     94  C   UNL A   1      42.613  36.952  33.677  1.00  0.00     0.031 A 
ATOM     95  C   UNL A   1      43.395  34.688  33.997  1.00  0.00     0.131 A 
ATOM     96  C   UNL A   1      43.905  37.409  34.021  1.00  0.00     0.055 A 
ATOM     97  C   UNL A   1      44.659  35.146  34.357  1.00  0.00     0.041 A 
ATOM     98  F   UNL A   1      43.184  33.361  34.032  1.00  0.00    -0.206 F 
ATOM     99  C   UNL A   1      44.918  36.510  34.373  1.00  0.00     0.022 A 
BRANCH  96 100
ATOM    100  S   UNL A   1      44.279  39.195  34.072  1.00  0.00     0.124 S 
ATOM    101  O   UNL A   1      44.693  39.406  35.455  1.00  0.00    -0.237 OA
ATOM    102  O   UNL A   1      45.321  39.339  33.061  1.00  0.00    -0.237 OA
ATOM    103  O   UNL A   1      43.004  39.824  33.719  1.00  0.00    -0.744 OA
ENDBRANCH  96 100
ENDBRANCH  70  93
ENDBRANCH  44  45
ENDBRANCH  37  39
ENDBRANCH  36  37
ENDBRANCH  35  36
ENDBRANCH  34  35
ENDBRANCH  33  34
ENDBRANCH  32  33
ENDBRANCH   1  32
TORSDOF 25
ENDMDL
