MODEL 1
REMARK VINA RESULT:      -8.9      0.000      0.000
REMARK SMILES O=C(C[C@H](C1CCCCC1)N1Cc2ccccc2C1=O)OCCOCCOCCOCCOC(=O)c1ccc(-c2c3nc(c(-c4cc(S(=O)(=O)[O-])ccc4F)c4ccc([nH]4)c(-c4cc(S(=O)(=O)[O-])ccc4F)c4nc(c(-c5cc(S(=O)(=O)[O-])ccc5F)c5ccc2[nH]5)C=C4)C=C3)cc1
REMARK SMILES IDX 28 1 27 2 26 3 25 4 24 5 23 6 22 7 21 8 2 9 1 10 3 11 4 12
REMARK SMILES IDX 11 13 12 14 19 15 13 16 18 17 20 18 14 19 17 20 15 21 16 22
REMARK SMILES IDX 5 23 6 24 10 25 7 26 9 27 8 28 29 29 30 30 31 31 32 32 33 33
REMARK SMILES IDX 34 34 35 35 36 36 37 37 98 38 38 39 97 40 39 41 40 42 41 43
REMARK SMILES IDX 91 44 42 45 96 46 90 47 92 48 43 49 95 50 89 51 88 52 44 54
REMARK SMILES IDX 76 55 56 56 75 57 57 58 60 59 74 60 93 61 58 62 59 63 73 65
REMARK SMILES IDX 94 66 61 67 45 68 46 69 54 70 47 71 53 72 55 73 52 74 48 75
REMARK SMILES IDX 49 76 50 77 51 78 77 79 78 80 86 81 79 82 85 83 87 84 84 85
REMARK SMILES IDX 80 86 81 87 82 88 83 89 62 90 63 91 71 92 64 93 70 94 72 95
REMARK SMILES IDX 69 96 65 97 66 98 67 99 68 100
REMARK H PARENT 92 53 60 64
REMARK Flexibility Score: inf
ROOT
ATOM      1  C   UNL A   1      39.061  27.142  28.277  1.00  0.00     0.188 C 
ENDROOT
BRANCH   1   2
ATOM      2  O   UNL A   1      39.787  26.112  28.919  1.00  0.00    -0.377 OA
BRANCH   2   3
ATOM      3  C   UNL A   1      40.889  25.627  28.171  1.00  0.00     0.188 C 
BRANCH   3   4
ATOM      4  C   UNL A   1      40.613  25.288  26.692  1.00  0.00     0.188 C 
BRANCH   4   5
ATOM      5  O   UNL A   1      39.909  24.097  26.371  1.00  0.00    -0.376 OA
BRANCH   5   6
ATOM      6  C   UNL A   1      38.588  23.706  26.687  1.00  0.00     0.202 C 
BRANCH   6   7
ATOM      7  C   UNL A   1      37.569  23.212  25.666  1.00  0.00     0.261 C 
BRANCH   7   8
ATOM      8  O   UNL A   1      36.629  24.166  25.179  1.00  0.00    -0.463 OA
BRANCH   8   9
ATOM      9  C   UNL A   1      35.429  23.912  24.635  1.00  0.00     0.307 C 
ATOM     10  O   UNL A   1      35.103  24.503  23.606  1.00  0.00    -0.252 OA
BRANCH   9  11
ATOM     11  C   UNL A   1      34.453  23.024  25.356  1.00  0.00     0.148 C 
BRANCH  11  12
ATOM     12  C   UNL A   1      33.341  22.345  24.562  1.00  0.00     0.100 C 
BRANCH  12  13
ATOM     13  N   UNL A   1      33.457  20.875  24.807  1.00  0.00    -0.330 N 
ATOM     14  C   UNL A   1      32.275  20.002  24.951  1.00  0.00     0.156 C 
ATOM     15  C   UNL A   1      34.620  20.121  24.759  1.00  0.00     0.254 C 
ATOM     16  C   UNL A   1      32.853  18.629  24.851  1.00  0.00    -0.016 A 
ATOM     17  C   UNL A   1      34.231  18.719  24.699  1.00  0.00     0.045 A 
ATOM     18  O   UNL A   1      35.790  20.462  24.748  1.00  0.00    -0.269 OA
ATOM     19  C   UNL A   1      32.245  17.385  24.832  1.00  0.00     0.006 A 
ATOM     20  C   UNL A   1      35.046  17.630  24.464  1.00  0.00     0.014 A 
ATOM     21  C   UNL A   1      33.052  16.257  24.624  1.00  0.00     0.000 A 
ATOM     22  C   UNL A   1      34.440  16.380  24.423  1.00  0.00     0.001 A 
ENDBRANCH  12  13
BRANCH  12  23
ATOM     23  C   UNL A   1      31.934  22.959  24.854  1.00  0.00     0.012 C 
ATOM     24  C   UNL A   1      31.672  23.122  26.369  1.00  0.00     0.006 C 
ATOM     25  C   UNL A   1      31.686  24.293  24.107  1.00  0.00     0.006 C 
ATOM     26  C   UNL A   1      30.303  23.710  26.647  1.00  0.00     0.000 C 
ATOM     27  C   UNL A   1      30.355  24.944  24.466  1.00  0.00     0.000 C 
ATOM     28  C   UNL A   1      30.179  25.070  25.976  1.00  0.00     0.000 C 
ENDBRANCH  12  23
ENDBRANCH  11  12
ENDBRANCH   9  11
ENDBRANCH   8   9
ENDBRANCH   7   8
ENDBRANCH   6   7
ENDBRANCH   5   6
ENDBRANCH   4   5
ENDBRANCH   3   4
ENDBRANCH   2   3
ENDBRANCH   1   2
BRANCH   1  29
ATOM     29  C   UNL A   1      39.601  28.554  28.580  1.00  0.00     0.188 C 
BRANCH  29  30
ATOM     30  O   UNL A   1      38.830  29.706  28.285  1.00  0.00    -0.376 OA
BRANCH  30  31
ATOM     31  C   UNL A   1      37.414  29.684  28.284  1.00  0.00     0.202 C 
BRANCH  31  32
ATOM     32  C   UNL A   1      36.515  29.983  29.499  1.00  0.00     0.261 C 
BRANCH  32  33
ATOM     33  O   UNL A   1      36.878  29.442  30.766  1.00  0.00    -0.460 OA
BRANCH  33  34
ATOM     34  C   UNL A   1      37.490  30.293  31.619  1.00  0.00     0.338 C 
ATOM     35  O   UNL A   1      37.007  31.283  32.137  1.00  0.00    -0.246 OA
BRANCH  34  36
ATOM     36  C   UNL A   1      38.779  29.676  32.005  1.00  0.00     0.060 A 
ATOM     37  C   UNL A   1      39.915  30.495  32.114  1.00  0.00     0.016 A 
ATOM     38  C   UNL A   1      38.854  28.315  32.312  1.00  0.00     0.016 A 
ATOM     39  C   UNL A   1      41.133  29.955  32.512  1.00  0.00     0.010 A 
ATOM     40  C   UNL A   1      40.088  27.763  32.656  1.00  0.00     0.010 A 
ATOM     41  C   UNL A   1      41.235  28.575  32.719  1.00  0.00    -0.014 A 
BRANCH  41  42
ATOM     42  C   UNL A   1      42.574  27.950  32.695  1.00  0.00     0.031 A 
ATOM     43  C   UNL A   1      43.213  27.652  34.023  1.00  0.00     0.074 A 
ATOM     44  C   UNL A   1      43.189  27.629  31.545  1.00  0.00     0.049 A 
ATOM     45  N   UNL A   1      44.408  27.198  34.290  1.00  0.00    -0.248 NA
ATOM     46  C   UNL A   1      42.385  27.912  35.213  1.00  0.00     0.031 C 
ATOM     47  C   UNL A   1      42.626  27.800  30.207  1.00  0.00     0.029 A 
ATOM     48  N   UNL A   1      44.433  27.096  31.324  1.00  0.00    -0.354 N 
ATOM     49  C   UNL A   1      44.479  27.128  35.677  1.00  0.00     0.074 A 
ATOM     50  C   UNL A   1      43.222  27.619  36.194  1.00  0.00     0.031 C 
ATOM     51  C   UNL A   1      43.535  27.398  29.301  1.00  0.00     0.029 A 
ATOM     52  C   UNL A   1      44.757  26.988  29.993  1.00  0.00     0.049 A 
ATOM     53  H   UNL A   1      45.036  26.818  32.049  1.00  0.00     0.167 HD
ATOM     54  C   UNL A   1      45.503  26.690  36.447  1.00  0.00     0.034 A 
ATOM     55  C   UNL A   1      45.921  26.637  29.410  1.00  0.00     0.034 A 
ATOM     56  C   UNL A   1      46.755  26.227  35.908  1.00  0.00     0.049 A 
ATOM     57  C   UNL A   1      47.094  26.267  30.291  1.00  0.00     0.074 A 
ATOM     58  C   UNL A   1      47.865  25.761  36.588  1.00  0.00     0.029 A 
ATOM     59  N   UNL A   1      47.070  26.187  34.555  1.00  0.00    -0.354 N 
ATOM     60  N   UNL A   1      47.160  26.210  31.602  1.00  0.00    -0.248 NA
ATOM     61  C   UNL A   1      48.348  25.911  29.613  1.00  0.00     0.031 C 
ATOM     62  C   UNL A   1      48.879  25.523  35.656  1.00  0.00     0.029 A 
ATOM     63  C   UNL A   1      48.372  25.743  34.385  1.00  0.00     0.049 A 
ATOM     64  H   UNL A   1      46.459  26.437  33.825  1.00  0.00     0.167 HD
ATOM     65  C   UNL A   1      48.450  25.776  31.901  1.00  0.00     0.074 A 
ATOM     66  C   UNL A   1      49.122  25.575  30.634  1.00  0.00     0.031 C 
ATOM     67  C   UNL A   1      49.027  25.554  33.112  1.00  0.00     0.034 A 
BRANCH  54  68
ATOM     68  C   UNL A   1      45.325  26.763  37.943  1.00  0.00     0.023 A 
ATOM     69  C   UNL A   1      45.677  27.908  38.679  1.00  0.00     0.031 A 
ATOM     70  C   UNL A   1      44.830  25.652  38.650  1.00  0.00     0.131 A 
ATOM     71  C   UNL A   1      45.597  27.891  40.079  1.00  0.00     0.055 A 
ATOM     72  C   UNL A   1      44.671  25.674  40.037  1.00  0.00     0.041 A 
ATOM     73  F   UNL A   1      44.508  24.519  38.006  1.00  0.00    -0.206 F 
ATOM     74  C   UNL A   1      45.069  26.792  40.762  1.00  0.00     0.022 A 
BRANCH  71  75
ATOM     75  S   UNL A   1      46.338  29.264  41.006  1.00  0.00     0.124 S 
ATOM     76  O   UNL A   1      45.165  29.848  41.655  1.00  0.00    -0.237 OA
ATOM     77  O   UNL A   1      47.279  28.581  41.885  1.00  0.00    -0.237 OA
ATOM     78  O   UNL A   1      46.943  30.093  39.966  1.00  0.00    -0.744 OA
ENDBRANCH  71  75
ENDBRANCH  54  68
BRANCH  55  79
ATOM     79  C   UNL A   1      46.066  26.667  27.924  1.00  0.00     0.023 A 
ATOM     80  C   UNL A   1      45.924  25.498  27.159  1.00  0.00     0.031 A 
ATOM     81  C   UNL A   1      46.414  27.853  27.253  1.00  0.00     0.131 A 
ATOM     82  C   UNL A   1      46.177  25.530  25.778  1.00  0.00     0.055 A 
ATOM     83  C   UNL A   1      46.604  27.893  25.871  1.00  0.00     0.041 A 
ATOM     84  F   UNL A   1      46.572  28.999  27.936  1.00  0.00    -0.206 F 
ATOM     85  C   UNL A   1      46.499  26.722  25.127  1.00  0.00     0.022 A 
BRANCH  82  86
ATOM     86  S   UNL A   1      46.178  23.966  24.860  1.00  0.00     0.124 S 
ATOM     87  O   UNL A   1      46.531  23.012  25.904  1.00  0.00    -0.237 OA
ATOM     88  O   UNL A   1      44.805  23.903  24.371  1.00  0.00    -0.237 OA
ATOM     89  O   UNL A   1      47.195  24.175  23.833  1.00  0.00    -0.744 OA
ENDBRANCH  82  86
ENDBRANCH  55  79
BRANCH  67  90
ATOM     90  C   UNL A   1      50.438  25.015  33.120  1.00  0.00     0.023 A 
ATOM     91  C   UNL A   1      50.712  23.639  33.034  1.00  0.00     0.031 A 
ATOM     92  C   UNL A   1      51.528  25.901  33.203  1.00  0.00     0.131 A 
ATOM     93  C   UNL A   1      52.040  23.187  33.087  1.00  0.00     0.055 A 
ATOM     94  C   UNL A   1      52.848  25.450  33.183  1.00  0.00     0.041 A 
ATOM     95  F   UNL A   1      51.328  27.226  33.291  1.00  0.00    -0.206 F 
ATOM     96  C   UNL A   1      53.109  24.084  33.138  1.00  0.00     0.022 A 
BRANCH  93  97
ATOM     97  S   UNL A   1      52.347  21.402  33.188  1.00  0.00     0.124 S 
ATOM     98  O   UNL A   1      53.459  21.235  32.258  1.00  0.00    -0.237 OA
ATOM     99  O   UNL A   1      52.664  21.218  34.600  1.00  0.00    -0.237 OA
ATOM    100  O   UNL A   1      51.082  20.811  32.755  1.00  0.00    -0.744 OA
ENDBRANCH  93  97
ENDBRANCH  67  90
ENDBRANCH  41  42
ENDBRANCH  34  36
ENDBRANCH  33  34
ENDBRANCH  32  33
ENDBRANCH  31  32
ENDBRANCH  30  31
ENDBRANCH  29  30
ENDBRANCH   1  29
TORSDOF 26
ENDMDL
MODEL 2
REMARK VINA RESULT:      -8.6      5.377      9.441
REMARK SMILES O=C(C[C@H](C1CCCCC1)N1Cc2ccccc2C1=O)OCCOCCOCCOCCOC(=O)c1ccc(-c2c3nc(c(-c4cc(S(=O)(=O)[O-])ccc4F)c4ccc([nH]4)c(-c4cc(S(=O)(=O)[O-])ccc4F)c4nc(c(-c5cc(S(=O)(=O)[O-])ccc5F)c5ccc2[nH]5)C=C4)C=C3)cc1
REMARK SMILES IDX 28 1 27 2 26 3 25 4 24 5 23 6 22 7 21 8 2 9 1 10 3 11 4 12
REMARK SMILES IDX 11 13 12 14 19 15 13 16 18 17 20 18 14 19 17 20 15 21 16 22
REMARK SMILES IDX 5 23 6 24 10 25 7 26 9 27 8 28 29 29 30 30 31 31 32 32 33 33
REMARK SMILES IDX 34 34 35 35 36 36 37 37 98 38 38 39 97 40 39 41 40 42 41 43
REMARK SMILES IDX 91 44 42 45 96 46 90 47 92 48 43 49 95 50 89 51 88 52 44 54
REMARK SMILES IDX 76 55 56 56 75 57 57 58 60 59 74 60 93 61 58 62 59 63 73 65
REMARK SMILES IDX 94 66 61 67 45 68 46 69 54 70 47 71 53 72 55 73 52 74 48 75
REMARK SMILES IDX 49 76 50 77 51 78 77 79 78 80 86 81 79 82 85 83 87 84 84 85
REMARK SMILES IDX 80 86 81 87 82 88 83 89 62 90 63 91 71 92 64 93 70 94 72 95
REMARK SMILES IDX 69 96 65 97 66 98 67 99 68 100
REMARK H PARENT 92 53 60 64
REMARK Flexibility Score: inf
ROOT
ATOM      1  C   UNL A   1      35.337  23.232  25.787  1.00  0.00     0.188 C 
ENDROOT
BRANCH   1   2
ATOM      2  O   UNL A   1      33.987  23.433  26.161  1.00  0.00    -0.377 OA
BRANCH   2   3
ATOM      3  C   UNL A   1      33.565  24.785  26.098  1.00  0.00     0.188 C 
BRANCH   3   4
ATOM      4  C   UNL A   1      33.844  25.525  24.774  1.00  0.00     0.188 C 
BRANCH   4   5
ATOM      5  O   UNL A   1      33.635  26.928  24.704  1.00  0.00    -0.376 OA
BRANCH   5   6
ATOM      6  C   UNL A   1      32.944  27.793  25.583  1.00  0.00     0.202 C 
BRANCH   6   7
ATOM      7  C   UNL A   1      33.169  29.299  25.663  1.00  0.00     0.261 C 
BRANCH   7   8
ATOM      8  O   UNL A   1      34.348  29.741  26.329  1.00  0.00    -0.463 OA
BRANCH   8   9
ATOM      9  C   UNL A   1      34.444  30.178  27.594  1.00  0.00     0.307 C 
ATOM     10  O   UNL A   1      33.711  31.092  27.968  1.00  0.00    -0.252 OA
BRANCH   9  11
ATOM     11  C   UNL A   1      35.530  29.646  28.488  1.00  0.00     0.148 C 
BRANCH  11  12
ATOM     12  C   UNL A   1      36.741  30.525  28.787  1.00  0.00     0.100 C 
BRANCH  12  13
ATOM     13  N   UNL A   1      36.431  31.298  30.029  1.00  0.00    -0.330 N 
ATOM     14  C   UNL A   1      36.620  30.732  31.380  1.00  0.00     0.156 C 
ATOM     15  C   UNL A   1      36.109  32.644  30.103  1.00  0.00     0.254 C 
ATOM     16  C   UNL A   1      36.504  31.927  32.267  1.00  0.00    -0.016 A 
ATOM     17  C   UNL A   1      36.241  33.051  31.495  1.00  0.00     0.045 A 
ATOM     18  O   UNL A   1      35.781  33.433  29.234  1.00  0.00    -0.269 OA
ATOM     19  C   UNL A   1      36.667  32.062  33.636  1.00  0.00     0.006 A 
ATOM     20  C   UNL A   1      36.192  34.333  32.004  1.00  0.00     0.014 A 
ATOM     21  C   UNL A   1      36.593  33.351  34.186  1.00  0.00     0.000 A 
ATOM     22  C   UNL A   1      36.375  34.480  33.375  1.00  0.00     0.001 A 
ENDBRANCH  12  13
BRANCH  12  23
ATOM     23  C   UNL A   1      38.077  29.716  28.824  1.00  0.00     0.012 C 
ATOM     24  C   UNL A   1      37.928  28.379  29.587  1.00  0.00     0.006 C 
ATOM     25  C   UNL A   1      38.684  29.481  27.418  1.00  0.00     0.006 C 
ATOM     26  C   UNL A   1      39.228  27.601  29.627  1.00  0.00     0.000 C 
ATOM     27  C   UNL A   1      39.934  28.607  27.442  1.00  0.00     0.000 C 
ATOM     28  C   UNL A   1      39.699  27.310  28.209  1.00  0.00     0.000 C 
ENDBRANCH  12  23
ENDBRANCH  11  12
ENDBRANCH   9  11
ENDBRANCH   8   9
ENDBRANCH   7   8
ENDBRANCH   6   7
ENDBRANCH   5   6
ENDBRANCH   4   5
ENDBRANCH   3   4
ENDBRANCH   2   3
ENDBRANCH   1   2
BRANCH   1  29
ATOM     29  C   UNL A   1      35.660  21.771  25.418  1.00  0.00     0.188 C 
BRANCH  29  30
ATOM     30  O   UNL A   1      36.839  21.444  24.703  1.00  0.00    -0.376 OA
BRANCH  30  31
ATOM     31  C   UNL A   1      38.041  21.079  25.359  1.00  0.00     0.202 C 
BRANCH  31  32
ATOM     32  C   UNL A   1      39.029  22.056  26.023  1.00  0.00     0.261 C 
BRANCH  32  33
ATOM     33  O   UNL A   1      40.418  21.744  26.000  1.00  0.00    -0.460 OA
BRANCH  33  34
ATOM     34  C   UNL A   1      41.000  21.543  27.204  1.00  0.00     0.338 C 
ATOM     35  O   UNL A   1      40.796  20.619  27.969  1.00  0.00    -0.246 OA
BRANCH  34  36
ATOM     36  C   UNL A   1      42.108  22.517  27.323  1.00  0.00     0.060 A 
ATOM     37  C   UNL A   1      42.825  22.579  28.529  1.00  0.00     0.016 A 
ATOM     38  C   UNL A   1      42.474  23.316  26.238  1.00  0.00     0.016 A 
ATOM     39  C   UNL A   1      43.898  23.454  28.662  1.00  0.00     0.010 A 
ATOM     40  C   UNL A   1      43.513  24.235  26.391  1.00  0.00     0.010 A 
ATOM     41  C   UNL A   1      44.200  24.331  27.614  1.00  0.00    -0.014 A 
BRANCH  41  42
ATOM     42  C   UNL A   1      45.010  25.533  27.904  1.00  0.00     0.031 A 
ATOM     43  C   UNL A   1      44.377  26.593  28.762  1.00  0.00     0.074 A 
ATOM     44  C   UNL A   1      46.268  25.669  27.453  1.00  0.00     0.049 A 
ATOM     45  N   UNL A   1      44.822  27.776  29.090  1.00  0.00    -0.248 NA
ATOM     46  C   UNL A   1      43.052  26.270  29.320  1.00  0.00     0.031 C 
ATOM     47  C   UNL A   1      47.004  24.670  26.683  1.00  0.00     0.029 A 
ATOM     48  N   UNL A   1      47.144  26.717  27.576  1.00  0.00    -0.354 N 
ATOM     49  C   UNL A   1      43.828  28.342  29.881  1.00  0.00     0.074 A 
ATOM     50  C   UNL A   1      42.745  27.388  29.955  1.00  0.00     0.031 C 
ATOM     51  C   UNL A   1      48.219  25.163  26.382  1.00  0.00     0.029 A 
ATOM     52  C   UNL A   1      48.325  26.529  26.897  1.00  0.00     0.049 A 
ATOM     53  H   UNL A   1      46.947  27.526  28.099  1.00  0.00     0.167 HD
ATOM     54  C   UNL A   1      43.825  29.550  30.493  1.00  0.00     0.034 A 
ATOM     55  C   UNL A   1      49.349  27.380  26.687  1.00  0.00     0.034 A 
ATOM     56  C   UNL A   1      44.908  30.493  30.386  1.00  0.00     0.049 A 
ATOM     57  C   UNL A   1      49.272  28.771  27.279  1.00  0.00     0.074 A 
ATOM     58  C   UNL A   1      45.017  31.747  30.959  1.00  0.00     0.029 A 
ATOM     59  N   UNL A   1      46.064  30.293  29.641  1.00  0.00    -0.354 N 
ATOM     60  N   UNL A   1      48.328  29.305  28.020  1.00  0.00    -0.248 NA
ATOM     61  C   UNL A   1      50.402  29.671  27.008  1.00  0.00     0.031 C 
ATOM     62  C   UNL A   1      46.194  32.338  30.492  1.00  0.00     0.029 A 
ATOM     63  C   UNL A   1      46.871  31.417  29.708  1.00  0.00     0.049 A 
ATOM     64  H   UNL A   1      46.278  29.474  29.140  1.00  0.00     0.167 HD
ATOM     65  C   UNL A   1      48.769  30.590  28.333  1.00  0.00     0.074 A 
ATOM     66  C   UNL A   1      50.067  30.744  27.710  1.00  0.00     0.031 C 
ATOM     67  C   UNL A   1      48.162  31.554  29.075  1.00  0.00     0.034 A 
BRANCH  54  68
ATOM     68  C   UNL A   1      42.587  29.932  31.266  1.00  0.00     0.023 A 
ATOM     69  C   UNL A   1      42.442  29.634  32.633  1.00  0.00     0.031 A 
ATOM     70  C   UNL A   1      41.517  30.570  30.614  1.00  0.00     0.131 A 
ATOM     71  C   UNL A   1      41.230  29.909  33.283  1.00  0.00     0.055 A 
ATOM     72  C   UNL A   1      40.346  30.920  31.290  1.00  0.00     0.041 A 
ATOM     73  F   UNL A   1      41.583  30.849  29.302  1.00  0.00    -0.206 F 
ATOM     74  C   UNL A   1      40.191  30.576  32.629  1.00  0.00     0.022 A 
BRANCH  71  75
ATOM     75  S   UNL A   1      40.972  29.244  34.951  1.00  0.00     0.124 S 
ATOM     76  O   UNL A   1      39.738  29.917  35.349  1.00  0.00    -0.237 OA
ATOM     77  O   UNL A   1      40.866  27.810  34.706  1.00  0.00    -0.237 OA
ATOM     78  O   UNL A   1      42.167  29.667  35.678  1.00  0.00    -0.744 OA
ENDBRANCH  71  75
ENDBRANCH  54  68
BRANCH  55  79
ATOM     79  C   UNL A   1      50.511  26.977  25.842  1.00  0.00     0.023 A 
ATOM     80  C   UNL A   1      50.570  27.316  24.480  1.00  0.00     0.031 A 
ATOM     81  C   UNL A   1      51.551  26.189  26.368  1.00  0.00     0.131 A 
ATOM     82  C   UNL A   1      51.616  26.828  23.682  1.00  0.00     0.055 A 
ATOM     83  C   UNL A   1      52.622  25.758  25.584  1.00  0.00     0.041 A 
ATOM     84  F   UNL A   1      51.542  25.827  27.661  1.00  0.00    -0.206 F 
ATOM     85  C   UNL A   1      52.651  26.066  24.227  1.00  0.00     0.022 A 
BRANCH  82  86
ATOM     86  S   UNL A   1      51.550  27.121  21.893  1.00  0.00     0.124 S 
ATOM     87  O   UNL A   1      50.188  26.710  21.577  1.00  0.00    -0.237 OA
ATOM     88  O   UNL A   1      51.825  28.551  21.811  1.00  0.00    -0.237 OA
ATOM     89  O   UNL A   1      52.603  26.254  21.368  1.00  0.00    -0.744 OA
ENDBRANCH  82  86
ENDBRANCH  55  79
BRANCH  67  90
ATOM     90  C   UNL A   1      48.923  32.839  29.299  1.00  0.00     0.023 A 
ATOM     91  C   UNL A   1      49.924  32.953  30.279  1.00  0.00     0.031 A 
ATOM     92  C   UNL A   1      48.646  33.967  28.504  1.00  0.00     0.131 A 
ATOM     93  C   UNL A   1      50.573  34.182  30.475  1.00  0.00     0.055 A 
ATOM     94  C   UNL A   1      49.345  35.165  28.656  1.00  0.00     0.041 A 
ATOM     95  F   UNL A   1      47.698  33.920  27.555  1.00  0.00    -0.206 F 
ATOM     96  C   UNL A   1      50.306  35.281  29.655  1.00  0.00     0.022 A 
BRANCH  93  97
ATOM     97  S   UNL A   1      51.704  34.354  31.882  1.00  0.00     0.124 S 
ATOM     98  O   UNL A   1      50.792  34.732  32.957  1.00  0.00    -0.237 OA
ATOM     99  O   UNL A   1      52.288  33.021  31.980  1.00  0.00    -0.237 OA
ATOM    100  O   UNL A   1      52.627  35.404  31.454  1.00  0.00    -0.744 OA
ENDBRANCH  93  97
ENDBRANCH  67  90
ENDBRANCH  41  42
ENDBRANCH  34  36
ENDBRANCH  33  34
ENDBRANCH  32  33
ENDBRANCH  31  32
ENDBRANCH  30  31
ENDBRANCH  29  30
ENDBRANCH   1  29
TORSDOF 26
ENDMDL
MODEL 3
REMARK VINA RESULT:      -8.4     10.207     15.874
REMARK SMILES O=C(C[C@H](C1CCCCC1)N1Cc2ccccc2C1=O)OCCOCCOCCOCCOC(=O)c1ccc(-c2c3nc(c(-c4cc(S(=O)(=O)[O-])ccc4F)c4ccc([nH]4)c(-c4cc(S(=O)(=O)[O-])ccc4F)c4nc(c(-c5cc(S(=O)(=O)[O-])ccc5F)c5ccc2[nH]5)C=C4)C=C3)cc1
REMARK SMILES IDX 28 1 27 2 26 3 25 4 24 5 23 6 22 7 21 8 2 9 1 10 3 11 4 12
REMARK SMILES IDX 11 13 12 14 19 15 13 16 18 17 20 18 14 19 17 20 15 21 16 22
REMARK SMILES IDX 5 23 6 24 10 25 7 26 9 27 8 28 29 29 30 30 31 31 32 32 33 33
REMARK SMILES IDX 34 34 35 35 36 36 37 37 98 38 38 39 97 40 39 41 40 42 41 43
REMARK SMILES IDX 91 44 42 45 96 46 90 47 92 48 43 49 95 50 89 51 88 52 44 54
REMARK SMILES IDX 76 55 56 56 75 57 57 58 60 59 74 60 93 61 58 62 59 63 73 65
REMARK SMILES IDX 94 66 61 67 45 68 46 69 54 70 47 71 53 72 55 73 52 74 48 75
REMARK SMILES IDX 49 76 50 77 51 78 77 79 78 80 86 81 79 82 85 83 87 84 84 85
REMARK SMILES IDX 80 86 81 87 82 88 83 89 62 90 63 91 71 92 64 93 70 94 72 95
REMARK SMILES IDX 69 96 65 97 66 98 67 99 68 100
REMARK H PARENT 92 53 60 64
REMARK Flexibility Score: inf
ROOT
ATOM      1  C   UNL A   1      44.722  39.950  28.901  1.00  0.00     0.188 C 
ENDROOT
BRANCH   1   2
ATOM      2  O   UNL A   1      43.564  39.569  28.182  1.00  0.00    -0.377 OA
BRANCH   2   3
ATOM      3  C   UNL A   1      43.321  40.347  27.023  1.00  0.00     0.188 C 
BRANCH   3   4
ATOM      4  C   UNL A   1      41.846  40.682  26.724  1.00  0.00     0.188 C 
BRANCH   4   5
ATOM      5  O   UNL A   1      41.510  41.313  25.496  1.00  0.00    -0.376 OA
BRANCH   5   6
ATOM      6  C   UNL A   1      42.241  41.409  24.290  1.00  0.00     0.202 C 
BRANCH   6   7
ATOM      7  C   UNL A   1      42.129  42.569  23.307  1.00  0.00     0.261 C 
BRANCH   7   8
ATOM      8  O   UNL A   1      41.774  42.245  21.965  1.00  0.00    -0.463 OA
BRANCH   8   9
ATOM      9  C   UNL A   1      41.896  43.031  20.885  1.00  0.00     0.307 C 
ATOM     10  O   UNL A   1      41.093  43.948  20.720  1.00  0.00    -0.252 OA
BRANCH   9  11
ATOM     11  C   UNL A   1      42.916  42.701  19.831  1.00  0.00     0.148 C 
BRANCH  11  12
ATOM     12  C   UNL A   1      44.281  43.383  19.879  1.00  0.00     0.100 C 
BRANCH  12  13
ATOM     13  N   UNL A   1      44.266  44.473  18.855  1.00  0.00    -0.330 N 
ATOM     14  C   UNL A   1      43.025  45.169  18.459  1.00  0.00     0.156 C 
ATOM     15  C   UNL A   1      45.373  45.084  18.287  1.00  0.00     0.254 C 
ATOM     16  C   UNL A   1      43.528  46.348  17.694  1.00  0.00    -0.016 A 
ATOM     17  C   UNL A   1      44.915  46.303  17.635  1.00  0.00     0.045 A 
ATOM     18  O   UNL A   1      46.548  44.761  18.285  1.00  0.00    -0.269 OA
ATOM     19  C   UNL A   1      42.856  47.421  17.131  1.00  0.00     0.006 A 
ATOM     20  C   UNL A   1      45.689  47.310  17.097  1.00  0.00     0.014 A 
ATOM     21  C   UNL A   1      43.616  48.447  16.551  1.00  0.00     0.000 A 
ATOM     22  C   UNL A   1      45.023  48.401  16.549  1.00  0.00     0.001 A 
ENDBRANCH  12  13
BRANCH  12  23
ATOM     23  C   UNL A   1      44.678  43.831  21.321  1.00  0.00     0.012 C 
ATOM     24  C   UNL A   1      45.763  42.916  21.938  1.00  0.00     0.006 C 
ATOM     25  C   UNL A   1      45.105  45.318  21.400  1.00  0.00     0.006 C 
ATOM     26  C   UNL A   1      46.140  43.350  23.340  1.00  0.00     0.000 C 
ATOM     27  C   UNL A   1      45.588  45.732  22.787  1.00  0.00     0.000 C 
ATOM     28  C   UNL A   1      46.656  44.781  23.316  1.00  0.00     0.000 C 
ENDBRANCH  12  23
ENDBRANCH  11  12
ENDBRANCH   9  11
ENDBRANCH   8   9
ENDBRANCH   7   8
ENDBRANCH   6   7
ENDBRANCH   5   6
ENDBRANCH   4   5
ENDBRANCH   3   4
ENDBRANCH   2   3
ENDBRANCH   1   2
BRANCH   1  29
ATOM     29  C   UNL A   1      44.531  39.922  30.430  1.00  0.00     0.188 C 
BRANCH  29  30
ATOM     30  O   UNL A   1      45.609  39.601  31.292  1.00  0.00    -0.376 OA
BRANCH  30  31
ATOM     31  C   UNL A   1      46.185  38.307  31.326  1.00  0.00     0.202 C 
BRANCH  31  32
ATOM     32  C   UNL A   1      47.589  37.941  30.809  1.00  0.00     0.261 C 
BRANCH  32  33
ATOM     33  O   UNL A   1      47.739  36.774  30.007  1.00  0.00    -0.460 OA
BRANCH  33  34
ATOM     34  C   UNL A   1      48.071  35.641  30.667  1.00  0.00     0.338 C 
ATOM     35  O   UNL A   1      48.918  35.521  31.533  1.00  0.00    -0.246 OA
BRANCH  34  36
ATOM     36  C   UNL A   1      47.055  34.621  30.324  1.00  0.00     0.060 A 
ATOM     37  C   UNL A   1      46.884  33.522  31.183  1.00  0.00     0.016 A 
ATOM     38  C   UNL A   1      46.239  34.776  29.202  1.00  0.00     0.016 A 
ATOM     39  C   UNL A   1      45.912  32.565  30.912  1.00  0.00     0.010 A 
ATOM     40  C   UNL A   1      45.303  33.787  28.899  1.00  0.00     0.010 A 
ATOM     41  C   UNL A   1      45.166  32.663  29.734  1.00  0.00    -0.014 A 
BRANCH  41  42
ATOM     42  C   UNL A   1      44.479  31.456  29.225  1.00  0.00     0.031 A 
ATOM     43  C   UNL A   1      43.094  31.188  29.746  1.00  0.00     0.074 A 
ATOM     44  C   UNL A   1      45.044  30.646  28.315  1.00  0.00     0.049 A 
ATOM     45  N   UNL A   1      42.311  30.163  29.543  1.00  0.00    -0.248 NA
ATOM     46  C   UNL A   1      42.521  32.221  30.627  1.00  0.00     0.031 C 
ATOM     47  C   UNL A   1      46.346  30.857  27.686  1.00  0.00     0.029 A 
ATOM     48  N   UNL A   1      44.589  29.473  27.770  1.00  0.00    -0.354 N 
ATOM     49  C   UNL A   1      41.159  30.422  30.277  1.00  0.00     0.074 A 
ATOM     50  C   UNL A   1      41.360  31.681  30.957  1.00  0.00     0.031 C 
ATOM     51  C   UNL A   1      46.594  29.831  26.852  1.00  0.00     0.029 A 
ATOM     52  C   UNL A   1      45.493  28.871  26.928  1.00  0.00     0.049 A 
ATOM     53  H   UNL A   1      43.700  29.098  27.963  1.00  0.00     0.167 HD
ATOM     54  C   UNL A   1      40.034  29.675  30.370  1.00  0.00     0.034 A 
ATOM     55  C   UNL A   1      45.446  27.666  26.324  1.00  0.00     0.034 A 
ATOM     56  C   UNL A   1      39.866  28.411  29.701  1.00  0.00     0.049 A 
ATOM     57  C   UNL A   1      44.230  26.791  26.538  1.00  0.00     0.074 A 
ATOM     58  C   UNL A   1      38.773  27.564  29.722  1.00  0.00     0.029 A 
ATOM     59  N   UNL A   1      40.827  27.803  28.902  1.00  0.00    -0.354 N 
ATOM     60  N   UNL A   1      43.146  27.037  27.240  1.00  0.00    -0.248 NA
ATOM     61  C   UNL A   1      44.231  25.479  25.877  1.00  0.00     0.031 C 
ATOM     62  C   UNL A   1      39.105  26.408  29.010  1.00  0.00     0.029 A 
ATOM     63  C   UNL A   1      40.366  26.574  28.459  1.00  0.00     0.049 A 
ATOM     64  H   UNL A   1      41.706  28.188  28.683  1.00  0.00     0.167 HD
ATOM     65  C   UNL A   1      42.323  25.924  27.072  1.00  0.00     0.074 A 
ATOM     66  C   UNL A   1      43.031  25.015  26.195  1.00  0.00     0.031 C 
ATOM     67  C   UNL A   1      41.090  25.678  27.588  1.00  0.00     0.034 A 
BRANCH  54  68
ATOM     68  C   UNL A   1      38.941  30.179  31.280  1.00  0.00     0.023 A 
ATOM     69  C   UNL A   1      37.906  31.008  30.811  1.00  0.00     0.031 A 
ATOM     70  C   UNL A   1      38.956  29.856  32.649  1.00  0.00     0.131 A 
ATOM     71  C   UNL A   1      36.976  31.543  31.714  1.00  0.00     0.055 A 
ATOM     72  C   UNL A   1      37.975  30.321  33.526  1.00  0.00     0.041 A 
ATOM     73  F   UNL A   1      39.937  29.096  33.161  1.00  0.00    -0.206 F 
ATOM     74  C   UNL A   1      36.985  31.182  33.063  1.00  0.00     0.022 A 
BRANCH  71  75
ATOM     75  S   UNL A   1      35.847  32.837  31.129  1.00  0.00     0.124 S 
ATOM     76  O   UNL A   1      36.385  34.021  31.796  1.00  0.00    -0.237 OA
ATOM     77  O   UNL A   1      36.027  32.783  29.683  1.00  0.00    -0.237 OA
ATOM     78  O   UNL A   1      34.540  32.398  31.613  1.00  0.00    -0.744 OA
ENDBRANCH  71  75
ENDBRANCH  54  68
BRANCH  55  79
ATOM     79  C   UNL A   1      46.595  27.182  25.504  1.00  0.00     0.023 A 
ATOM     80  C   UNL A   1      46.875  27.741  24.246  1.00  0.00     0.031 A 
ATOM     81  C   UNL A   1      47.393  26.107  25.937  1.00  0.00     0.131 A 
ATOM     82  C   UNL A   1      47.890  27.192  23.446  1.00  0.00     0.055 A 
ATOM     83  C   UNL A   1      48.442  25.605  25.165  1.00  0.00     0.041 A 
ATOM     84  F   UNL A   1      47.166  25.529  27.128  1.00  0.00    -0.206 F 
ATOM     85  C   UNL A   1      48.686  26.140  23.903  1.00  0.00     0.022 A 
BRANCH  82  86
ATOM     86  S   UNL A   1      48.088  27.810  21.752  1.00  0.00     0.124 S 
ATOM     87  O   UNL A   1      49.235  28.698  21.895  1.00  0.00    -0.237 OA
ATOM     88  O   UNL A   1      48.320  26.577  21.007  1.00  0.00    -0.237 OA
ATOM     89  O   UNL A   1      46.814  28.470  21.480  1.00  0.00    -0.744 OA
ENDBRANCH  82  86
ENDBRANCH  55  79
BRANCH  67  90
ATOM     90  C   UNL A   1      40.406  24.397  27.170  1.00  0.00     0.023 A 
ATOM     91  C   UNL A   1      39.203  24.397  26.445  1.00  0.00     0.031 A 
ATOM     92  C   UNL A   1      40.982  23.155  27.495  1.00  0.00     0.131 A 
ATOM     93  C   UNL A   1      38.586  23.179  26.116  1.00  0.00     0.055 A 
ATOM     94  C   UNL A   1      40.401  21.948  27.103  1.00  0.00     0.041 A 
ATOM     95  F   UNL A   1      42.129  23.093  28.190  1.00  0.00    -0.206 F 
ATOM     96  C   UNL A   1      39.189  21.956  26.420  1.00  0.00     0.022 A 
BRANCH  93  97
ATOM     97  S   UNL A   1      36.933  23.214  25.370  1.00  0.00     0.124 S 
ATOM     98  O   UNL A   1      36.266  22.117  26.063  1.00  0.00    -0.237 OA
ATOM     99  O   UNL A   1      36.467  24.556  25.703  1.00  0.00    -0.237 OA
ATOM    100  O   UNL A   1      37.193  22.983  23.950  1.00  0.00    -0.744 OA
ENDBRANCH  93  97
ENDBRANCH  67  90
ENDBRANCH  41  42
ENDBRANCH  34  36
ENDBRANCH  33  34
ENDBRANCH  32  33
ENDBRANCH  31  32
ENDBRANCH  30  31
ENDBRANCH  29  30
ENDBRANCH   1  29
TORSDOF 26
ENDMDL
