MODEL 1
REMARK VINA RESULT:      -9.8      0.000      0.000
REMARK SMILES CC[C@@H]1CCC[C@@](CC[NH+]2CCOCC2)(C(=O)OCCOCCOCCOCCOC(=O)c2ccc(-c3c4nc(c(-c5cc(S(=O)(=O)[O-])ccc5F)c5ccc([nH]5)c(-c5cc(S(=O)(=O)[O-])ccc5F)c5nc(c(-c6cc(S(=O)(=O)[O-])ccc6F)c6ccc3[nH]6)C=C5)C=C4)cc2)C1
REMARK SMILES IDX 24 1 23 2 22 3 21 4 20 5 19 6 18 7 16 8 17 9 7 10 3 11 4 12
REMARK SMILES IDX 96 13 5 14 6 15 2 16 1 17 8 18 9 19 10 20 11 21 15 22 12 24
REMARK SMILES IDX 14 25 13 26 25 27 26 28 27 29 28 30 29 31 30 32 31 33 32 34
REMARK SMILES IDX 33 35 34 36 95 37 35 38 94 39 36 40 37 41 38 42 88 43 39 44
REMARK SMILES IDX 93 45 87 46 89 47 40 48 92 49 86 50 85 51 41 53 73 54 53 55
REMARK SMILES IDX 72 56 54 57 57 58 71 59 90 60 55 61 56 62 70 64 91 65 58 66
REMARK SMILES IDX 42 67 43 68 51 69 44 70 50 71 52 72 49 73 45 74 46 75 47 76
REMARK SMILES IDX 48 77 74 78 75 79 83 80 76 81 82 82 84 83 81 84 77 85 78 86
REMARK SMILES IDX 79 87 80 88 59 89 60 90 68 91 61 92 67 93 69 94 66 95 62 96
REMARK SMILES IDX 63 97 64 98 65 99
REMARK H PARENT 10 23 89 52 57 63
REMARK Flexibility Score: inf
ROOT
ATOM      1  O   UNL A   1      31.045  28.462  25.498  1.00  0.00    -0.377 OA
ENDROOT
BRANCH   1   2
ATOM      2  C   UNL A   1      31.600  27.260  25.011  1.00  0.00     0.188 C 
BRANCH   2   3
ATOM      3  C   UNL A   1      32.439  27.291  23.737  1.00  0.00     0.188 C 
BRANCH   3   4
ATOM      4  O   UNL A   1      33.523  26.389  23.639  1.00  0.00    -0.376 OA
BRANCH   4   5
ATOM      5  C   UNL A   1      33.567  25.530  22.499  1.00  0.00     0.202 C 
BRANCH   5   6
ATOM      6  C   UNL A   1      32.382  24.583  22.252  1.00  0.00     0.261 C 
BRANCH   6   7
ATOM      7  O   UNL A   1      32.566  23.292  22.887  1.00  0.00    -0.463 OA
BRANCH   7   8
ATOM      8  C   UNL A   1      32.083  23.106  24.126  1.00  0.00     0.312 C 
ATOM      9  O   UNL A   1      31.106  23.738  24.535  1.00  0.00    -0.252 OA
BRANCH   8  10
ATOM     10  C   UNL A   1      32.858  22.105  25.066  1.00  0.00     0.074 C 
ATOM     11  C   UNL A   1      35.122  23.410  25.107  1.00  0.00    -0.010 C 
ATOM     12  C   UNL A   1      35.260  23.291  26.627  1.00  0.00     0.003 C 
ATOM     13  C   UNL A   1      34.351  22.182  24.525  1.00  0.00     0.022 C 
ATOM     14  C   UNL A   1      33.955  23.022  27.338  1.00  0.00     0.001 C 
ATOM     15  C   UNL A   1      33.023  22.077  26.613  1.00  0.00     0.019 C 
BRANCH  11  16
ATOM     16  C   UNL A   1      36.493  23.677  24.456  1.00  0.00     0.000 C 
ATOM     17  C   UNL A   1      36.937  22.546  23.519  1.00  0.00     0.004 C 
ENDBRANCH  11  16
BRANCH  10  18
ATOM     18  C   UNL A   1      32.110  20.747  24.747  1.00  0.00     0.080 C 
BRANCH  18  19
ATOM     19  C   UNL A   1      32.933  19.547  24.113  1.00  0.00     0.263 C 
BRANCH  19  20
ATOM     20  N   UNL A   1      32.303  18.222  23.962  1.00  0.00    -0.331 N 
ATOM     21  C   UNL A   1      32.333  17.322  25.135  1.00  0.00     0.291 C 
ATOM     22  C   UNL A   1      32.866  17.434  22.826  1.00  0.00     0.291 C 
ATOM     23  H   UNL A   1      31.335  18.501  23.804  1.00  0.00     0.348 HD
ATOM     24  C   UNL A   1      33.622  16.541  25.399  1.00  0.00     0.221 C 
ATOM     25  C   UNL A   1      34.110  16.561  23.127  1.00  0.00     0.221 C 
ATOM     26  O   UNL A   1      33.930  15.729  24.276  1.00  0.00    -0.370 OA
ENDBRANCH  19  20
ENDBRANCH  18  19
ENDBRANCH  10  18
ENDBRANCH   8  10
ENDBRANCH   7   8
ENDBRANCH   6   7
ENDBRANCH   5   6
ENDBRANCH   4   5
ENDBRANCH   3   4
ENDBRANCH   2   3
ENDBRANCH   1   2
BRANCH   1  27
ATOM     27  C   UNL A   1      31.877  29.582  25.719  1.00  0.00     0.188 C 
BRANCH  27  28
ATOM     28  C   UNL A   1      32.304  29.906  27.150  1.00  0.00     0.188 C 
BRANCH  28  29
ATOM     29  O   UNL A   1      33.682  30.172  27.417  1.00  0.00    -0.376 OA
BRANCH  29  30
ATOM     30  C   UNL A   1      34.136  31.507  27.617  1.00  0.00     0.202 C 
BRANCH  30  31
ATOM     31  C   UNL A   1      33.091  32.615  27.623  1.00  0.00     0.261 C 
BRANCH  31  32
ATOM     32  O   UNL A   1      33.687  33.912  27.701  1.00  0.00    -0.460 OA
BRANCH  32  33
ATOM     33  C   UNL A   1      33.578  34.518  28.908  1.00  0.00     0.338 C 
ATOM     34  O   UNL A   1      32.695  35.259  29.287  1.00  0.00    -0.246 OA
BRANCH  33  35
ATOM     35  C   UNL A   1      34.669  34.026  29.765  1.00  0.00     0.060 A 
ATOM     36  C   UNL A   1      35.996  34.201  29.351  1.00  0.00     0.016 A 
ATOM     37  C   UNL A   1      34.361  33.327  30.932  1.00  0.00     0.016 A 
ATOM     38  C   UNL A   1      37.028  33.617  30.083  1.00  0.00     0.010 A 
ATOM     39  C   UNL A   1      35.391  32.733  31.652  1.00  0.00     0.010 A 
ATOM     40  C   UNL A   1      36.719  32.837  31.203  1.00  0.00    -0.014 A 
BRANCH  40  41
ATOM     41  C   UNL A   1      37.722  31.929  31.799  1.00  0.00     0.031 A 
ATOM     42  C   UNL A   1      38.239  32.267  33.169  1.00  0.00     0.074 A 
ATOM     43  C   UNL A   1      38.201  30.878  31.115  1.00  0.00     0.049 A 
ATOM     44  N   UNL A   1      39.275  31.794  33.808  1.00  0.00    -0.248 NA
ATOM     45  C   UNL A   1      37.492  33.300  33.907  1.00  0.00     0.031 C 
ATOM     46  C   UNL A   1      37.722  30.428  29.810  1.00  0.00     0.029 A 
ATOM     47  N   UNL A   1      39.227  30.019  31.417  1.00  0.00    -0.354 N 
ATOM     48  C   UNL A   1      39.312  32.478  35.018  1.00  0.00     0.074 A 
ATOM     49  C   UNL A   1      38.220  33.426  35.005  1.00  0.00     0.031 C 
ATOM     50  C   UNL A   1      38.474  29.388  29.409  1.00  0.00     0.029 A 
ATOM     51  C   UNL A   1      39.523  29.145  30.398  1.00  0.00     0.049 A 
ATOM     52  H   UNL A   1      39.704  30.029  32.278  1.00  0.00     0.167 HD
ATOM     53  C   UNL A   1      40.179  32.318  36.047  1.00  0.00     0.034 A 
ATOM     54  C   UNL A   1      40.556  28.288  30.267  1.00  0.00     0.034 A 
ATOM     55  C   UNL A   1      41.271  31.381  36.022  1.00  0.00     0.049 A 
ATOM     56  C   UNL A   1      41.589  28.219  31.372  1.00  0.00     0.074 A 
ATOM     57  C   UNL A   1      42.229  31.146  36.991  1.00  0.00     0.029 A 
ATOM     58  N   UNL A   1      41.555  30.525  34.965  1.00  0.00    -0.354 N 
ATOM     59  N   UNL A   1      41.640  28.888  32.504  1.00  0.00    -0.248 NA
ATOM     60  C   UNL A   1      42.706  27.282  31.185  1.00  0.00     0.031 C 
ATOM     61  C   UNL A   1      43.131  30.202  36.493  1.00  0.00     0.029 A 
ATOM     62  C   UNL A   1      42.683  29.778  35.251  1.00  0.00     0.049 A 
ATOM     63  H   UNL A   1      41.029  30.460  34.135  1.00  0.00     0.167 HD
ATOM     64  C   UNL A   1      42.760  28.407  33.180  1.00  0.00     0.074 A 
ATOM     65  C   UNL A   1      43.357  27.399  32.332  1.00  0.00     0.031 C 
ATOM     66  C   UNL A   1      43.247  28.758  34.398  1.00  0.00     0.034 A 
BRANCH  53  67
ATOM     67  C   UNL A   1      39.997  33.204  37.254  1.00  0.00     0.023 A 
ATOM     68  C   UNL A   1      40.876  34.266  37.525  1.00  0.00     0.031 A 
ATOM     69  C   UNL A   1      38.944  32.974  38.157  1.00  0.00     0.131 A 
ATOM     70  C   UNL A   1      40.728  35.016  38.701  1.00  0.00     0.055 A 
ATOM     71  C   UNL A   1      38.750  33.778  39.281  1.00  0.00     0.041 A 
ATOM     72  F   UNL A   1      38.089  31.957  37.967  1.00  0.00    -0.206 F 
ATOM     73  C   UNL A   1      39.653  34.798  39.566  1.00  0.00     0.022 A 
BRANCH  70  74
ATOM     74  S   UNL A   1      42.038  36.185  39.152  1.00  0.00     0.124 S 
ATOM     75  O   UNL A   1      41.823  37.256  38.180  1.00  0.00    -0.237 OA
ATOM     76  O   UNL A   1      41.712  36.506  40.537  1.00  0.00    -0.237 OA
ATOM     77  O   UNL A   1      43.265  35.416  38.959  1.00  0.00    -0.744 OA
ENDBRANCH  70  74
ENDBRANCH  53  67
BRANCH  54  78
ATOM     78  C   UNL A   1      40.711  27.459  29.036  1.00  0.00     0.023 A 
ATOM     79  C   UNL A   1      41.663  27.798  28.062  1.00  0.00     0.031 A 
ATOM     80  C   UNL A   1      39.856  26.374  28.768  1.00  0.00     0.131 A 
ATOM     81  C   UNL A   1      41.687  27.113  26.838  1.00  0.00     0.055 A 
ATOM     82  C   UNL A   1      39.937  25.646  27.579  1.00  0.00     0.041 A 
ATOM     83  F   UNL A   1      38.920  26.008  29.658  1.00  0.00    -0.206 F 
ATOM     84  C   UNL A   1      40.842  26.029  26.596  1.00  0.00     0.022 A 
BRANCH  81  85
ATOM     85  S   UNL A   1      42.738  27.762  25.509  1.00  0.00     0.124 S 
ATOM     86  O   UNL A   1      41.914  28.847  24.988  1.00  0.00    -0.237 OA
ATOM     87  O   UNL A   1      43.937  28.160  26.240  1.00  0.00    -0.237 OA
ATOM     88  O   UNL A   1      42.902  26.617  24.618  1.00  0.00    -0.744 OA
ENDBRANCH  81  85
ENDBRANCH  54  78
BRANCH  66  89
ATOM     89  C   UNL A   1      44.427  27.983  34.930  1.00  0.00     0.023 A 
ATOM     90  C   UNL A   1      44.280  26.768  35.620  1.00  0.00     0.031 A 
ATOM     91  C   UNL A   1      45.731  28.460  34.697  1.00  0.00     0.131 A 
ATOM     92  C   UNL A   1      45.418  26.090  36.084  1.00  0.00     0.055 A 
ATOM     93  C   UNL A   1      46.859  27.751  35.107  1.00  0.00     0.041 A 
ATOM     94  F   UNL A   1      45.928  29.618  34.044  1.00  0.00    -0.206 F 
ATOM     95  C   UNL A   1      46.705  26.562  35.812  1.00  0.00     0.022 A 
BRANCH  92  96
ATOM     96  S   UNL A   1      45.196  24.608  37.106  1.00  0.00     0.124 S 
ATOM     97  O   UNL A   1      45.204  23.545  36.106  1.00  0.00    -0.237 OA
ATOM     98  O   UNL A   1      46.355  24.659  37.990  1.00  0.00    -0.237 OA
ATOM     99  O   UNL A   1      43.908  24.832  37.762  1.00  0.00    -0.744 OA
ENDBRANCH  92  96
ENDBRANCH  66  89
ENDBRANCH  40  41
ENDBRANCH  33  35
ENDBRANCH  32  33
ENDBRANCH  31  32
ENDBRANCH  30  31
ENDBRANCH  29  30
ENDBRANCH  28  29
ENDBRANCH  27  28
ENDBRANCH   1  27
TORSDOF 27
ENDMDL
MODEL 2
REMARK VINA RESULT:      -9.7      1.769      2.019
REMARK SMILES CC[C@@H]1CCC[C@@](CC[NH+]2CCOCC2)(C(=O)OCCOCCOCCOCCOC(=O)c2ccc(-c3c4nc(c(-c5cc(S(=O)(=O)[O-])ccc5F)c5ccc([nH]5)c(-c5cc(S(=O)(=O)[O-])ccc5F)c5nc(c(-c6cc(S(=O)(=O)[O-])ccc6F)c6ccc3[nH]6)C=C5)C=C4)cc2)C1
REMARK SMILES IDX 24 1 23 2 22 3 21 4 20 5 19 6 18 7 16 8 17 9 7 10 3 11 4 12
REMARK SMILES IDX 96 13 5 14 6 15 2 16 1 17 8 18 9 19 10 20 11 21 15 22 12 24
REMARK SMILES IDX 14 25 13 26 25 27 26 28 27 29 28 30 29 31 30 32 31 33 32 34
REMARK SMILES IDX 33 35 34 36 95 37 35 38 94 39 36 40 37 41 38 42 88 43 39 44
REMARK SMILES IDX 93 45 87 46 89 47 40 48 92 49 86 50 85 51 41 53 73 54 53 55
REMARK SMILES IDX 72 56 54 57 57 58 71 59 90 60 55 61 56 62 70 64 91 65 58 66
REMARK SMILES IDX 42 67 43 68 51 69 44 70 50 71 52 72 49 73 45 74 46 75 47 76
REMARK SMILES IDX 48 77 74 78 75 79 83 80 76 81 82 82 84 83 81 84 77 85 78 86
REMARK SMILES IDX 79 87 80 88 59 89 60 90 68 91 61 92 67 93 69 94 66 95 62 96
REMARK SMILES IDX 63 97 64 98 65 99
REMARK H PARENT 10 23 89 52 57 63
REMARK Flexibility Score: inf
ROOT
ATOM      1  O   UNL A   1      31.157  28.370  25.488  1.00  0.00    -0.377 OA
ENDROOT
BRANCH   1   2
ATOM      2  C   UNL A   1      31.724  27.155  25.051  1.00  0.00     0.188 C 
BRANCH   2   3
ATOM      3  C   UNL A   1      32.589  27.148  23.794  1.00  0.00     0.188 C 
BRANCH   3   4
ATOM      4  O   UNL A   1      33.668  26.237  23.741  1.00  0.00    -0.376 OA
BRANCH   4   5
ATOM      5  C   UNL A   1      33.722  25.340  22.631  1.00  0.00     0.202 C 
BRANCH   5   6
ATOM      6  C   UNL A   1      32.522  24.411  22.385  1.00  0.00     0.261 C 
BRANCH   6   7
ATOM      7  O   UNL A   1      32.662  23.136  23.064  1.00  0.00    -0.463 OA
BRANCH   7   8
ATOM      8  C   UNL A   1      32.193  23.016  24.317  1.00  0.00     0.312 C 
ATOM      9  O   UNL A   1      31.274  23.728  24.728  1.00  0.00    -0.252 OA
BRANCH   8  10
ATOM     10  C   UNL A   1      32.911  21.984  25.268  1.00  0.00     0.074 C 
ATOM     11  C   UNL A   1      35.209  23.223  25.389  1.00  0.00    -0.010 C 
ATOM     12  C   UNL A   1      35.299  23.083  26.911  1.00  0.00     0.003 C 
ATOM     13  C   UNL A   1      34.421  22.024  24.771  1.00  0.00     0.022 C 
ATOM     14  C   UNL A   1      33.967  22.845  27.581  1.00  0.00     0.001 C 
ATOM     15  C   UNL A   1      33.029  21.935  26.818  1.00  0.00     0.019 C 
BRANCH  11  16
ATOM     16  C   UNL A   1      36.606  23.457  24.781  1.00  0.00     0.000 C 
ATOM     17  C   UNL A   1      36.626  23.296  23.255  1.00  0.00     0.004 C 
ENDBRANCH  11  16
BRANCH  10  18
ATOM     18  C   UNL A   1      32.134  20.652  24.911  1.00  0.00     0.080 C 
BRANCH  18  19
ATOM     19  C   UNL A   1      32.935  19.448  24.255  1.00  0.00     0.263 C 
BRANCH  19  20
ATOM     20  N   UNL A   1      32.309  18.116  24.156  1.00  0.00    -0.331 N 
ATOM     21  C   UNL A   1      32.456  17.212  25.317  1.00  0.00     0.291 C 
ATOM     22  C   UNL A   1      32.774  17.339  22.969  1.00  0.00     0.291 C 
ATOM     23  H   UNL A   1      31.327  18.384  24.088  1.00  0.00     0.348 HD
ATOM     24  C   UNL A   1      33.772  16.445  25.458  1.00  0.00     0.221 C 
ATOM     25  C   UNL A   1      34.050  16.480  23.151  1.00  0.00     0.221 C 
ATOM     26  O   UNL A   1      33.985  15.641  24.308  1.00  0.00    -0.370 OA
ENDBRANCH  19  20
ENDBRANCH  18  19
ENDBRANCH  10  18
ENDBRANCH   8  10
ENDBRANCH   7   8
ENDBRANCH   6   7
ENDBRANCH   5   6
ENDBRANCH   4   5
ENDBRANCH   3   4
ENDBRANCH   2   3
ENDBRANCH   1   2
BRANCH   1  27
ATOM     27  C   UNL A   1      31.983  29.498  25.696  1.00  0.00     0.188 C 
BRANCH  27  28
ATOM     28  C   UNL A   1      32.401  29.846  27.124  1.00  0.00     0.188 C 
BRANCH  28  29
ATOM     29  O   UNL A   1      33.766  30.177  27.383  1.00  0.00    -0.376 OA
BRANCH  29  30
ATOM     30  C   UNL A   1      34.158  31.534  27.570  1.00  0.00     0.202 C 
BRANCH  30  31
ATOM     31  C   UNL A   1      33.058  32.586  27.629  1.00  0.00     0.261 C 
BRANCH  31  32
ATOM     32  O   UNL A   1      33.589  33.914  27.650  1.00  0.00    -0.460 OA
BRANCH  32  33
ATOM     33  C   UNL A   1      33.484  34.550  28.842  1.00  0.00     0.338 C 
ATOM     34  O   UNL A   1      32.600  35.298  29.205  1.00  0.00    -0.246 OA
BRANCH  33  35
ATOM     35  C   UNL A   1      34.579  34.084  29.706  1.00  0.00     0.060 A 
ATOM     36  C   UNL A   1      35.905  34.283  29.298  1.00  0.00     0.016 A 
ATOM     37  C   UNL A   1      34.280  33.383  30.874  1.00  0.00     0.016 A 
ATOM     38  C   UNL A   1      36.944  33.722  30.037  1.00  0.00     0.010 A 
ATOM     39  C   UNL A   1      35.318  32.813  31.601  1.00  0.00     0.010 A 
ATOM     40  C   UNL A   1      36.646  32.941  31.159  1.00  0.00    -0.014 A 
BRANCH  40  41
ATOM     41  C   UNL A   1      37.664  32.055  31.764  1.00  0.00     0.031 A 
ATOM     42  C   UNL A   1      38.178  32.418  33.128  1.00  0.00     0.074 A 
ATOM     43  C   UNL A   1      38.157  31.003  31.092  1.00  0.00     0.049 A 
ATOM     44  N   UNL A   1      39.223  31.969  33.770  1.00  0.00    -0.248 NA
ATOM     45  C   UNL A   1      37.418  33.449  33.855  1.00  0.00     0.031 C 
ATOM     46  C   UNL A   1      37.681  30.531  29.793  1.00  0.00     0.029 A 
ATOM     47  N   UNL A   1      39.196  30.164  31.401  1.00  0.00    -0.354 N 
ATOM     48  C   UNL A   1      39.252  32.667  34.972  1.00  0.00     0.074 A 
ATOM     49  C   UNL A   1      38.146  33.599  34.950  1.00  0.00     0.031 C 
ATOM     50  C   UNL A   1      38.448  29.497  29.403  1.00  0.00     0.029 A 
ATOM     51  C   UNL A   1      39.503  29.281  30.392  1.00  0.00     0.049 A 
ATOM     52  H   UNL A   1      39.675  30.191  32.261  1.00  0.00     0.167 HD
ATOM     53  C   UNL A   1      40.124  32.533  36.001  1.00  0.00     0.034 A 
ATOM     54  C   UNL A   1      40.548  28.439  30.269  1.00  0.00     0.034 A 
ATOM     55  C   UNL A   1      41.230  31.612  35.985  1.00  0.00     0.049 A 
ATOM     56  C   UNL A   1      41.585  28.399  31.373  1.00  0.00     0.074 A 
ATOM     57  C   UNL A   1      42.193  31.404  36.954  1.00  0.00     0.029 A 
ATOM     58  N   UNL A   1      41.524  30.748  34.938  1.00  0.00    -0.354 N 
ATOM     59  N   UNL A   1      41.628  29.083  32.496  1.00  0.00    -0.248 NA
ATOM     60  C   UNL A   1      42.715  27.477  31.194  1.00  0.00     0.031 C 
ATOM     61  C   UNL A   1      43.108  30.467  36.466  1.00  0.00     0.029 A 
ATOM     62  C   UNL A   1      42.664  30.022  35.230  1.00  0.00     0.049 A 
ATOM     63  H   UNL A   1      40.997  30.664  34.109  1.00  0.00     0.167 HD
ATOM     64  C   UNL A   1      42.757  28.627  33.176  1.00  0.00     0.074 A 
ATOM     65  C   UNL A   1      43.367  27.617  32.339  1.00  0.00     0.031 C 
ATOM     66  C   UNL A   1      43.241  29.000  34.388  1.00  0.00     0.034 A 
BRANCH  53  67
ATOM     67  C   UNL A   1      39.931  33.431  37.197  1.00  0.00     0.023 A 
ATOM     68  C   UNL A   1      39.236  32.995  38.338  1.00  0.00     0.031 A 
ATOM     69  C   UNL A   1      40.430  34.746  37.193  1.00  0.00     0.131 A 
ATOM     70  C   UNL A   1      39.002  33.883  39.398  1.00  0.00     0.055 A 
ATOM     71  C   UNL A   1      40.267  35.598  38.285  1.00  0.00     0.041 A 
ATOM     72  F   UNL A   1      41.077  35.228  36.120  1.00  0.00    -0.206 F 
ATOM     73  C   UNL A   1      39.538  35.173  39.392  1.00  0.00     0.022 A 
BRANCH  70  74
ATOM     74  S   UNL A   1      37.869  33.374  40.718  1.00  0.00     0.124 S 
ATOM     75  O   UNL A   1      38.562  32.209  41.267  1.00  0.00    -0.237 OA
ATOM     76  O   UNL A   1      37.829  34.554  41.574  1.00  0.00    -0.237 OA
ATOM     77  O   UNL A   1      36.628  33.073  40.008  1.00  0.00    -0.744 OA
ENDBRANCH  70  74
ENDBRANCH  53  67
BRANCH  54  78
ATOM     78  C   UNL A   1      40.714  27.597  29.048  1.00  0.00     0.023 A 
ATOM     79  C   UNL A   1      41.642  27.951  28.057  1.00  0.00     0.031 A 
ATOM     80  C   UNL A   1      39.889  26.483  28.807  1.00  0.00     0.131 A 
ATOM     81  C   UNL A   1      41.672  27.250  26.843  1.00  0.00     0.055 A 
ATOM     82  C   UNL A   1      39.976  25.741  27.627  1.00  0.00     0.041 A 
ATOM     83  F   UNL A   1      38.975  26.101  29.713  1.00  0.00    -0.206 F 
ATOM     84  C   UNL A   1      40.857  26.137  26.627  1.00  0.00     0.022 A 
BRANCH  81  85
ATOM     85  S   UNL A   1      42.686  27.912  25.491  1.00  0.00     0.124 S 
ATOM     86  O   UNL A   1      41.829  28.974  24.977  1.00  0.00    -0.237 OA
ATOM     87  O   UNL A   1      43.888  28.340  26.198  1.00  0.00    -0.237 OA
ATOM     88  O   UNL A   1      42.859  26.763  24.605  1.00  0.00    -0.744 OA
ENDBRANCH  81  85
ENDBRANCH  54  78
BRANCH  66  89
ATOM     89  C   UNL A   1      44.434  28.249  34.927  1.00  0.00     0.023 A 
ATOM     90  C   UNL A   1      45.752  28.695  34.736  1.00  0.00     0.031 A 
ATOM     91  C   UNL A   1      44.232  27.082  35.687  1.00  0.00     0.131 A 
ATOM     92  C   UNL A   1      46.820  27.957  35.269  1.00  0.00     0.055 A 
ATOM     93  C   UNL A   1      45.293  26.387  36.266  1.00  0.00     0.041 A 
ATOM     94  F   UNL A   1      42.992  26.610  35.899  1.00  0.00    -0.206 F 
ATOM     95  C   UNL A   1      46.598  26.820  36.051  1.00  0.00     0.022 A 
BRANCH  92  96
ATOM     96  S   UNL A   1      48.517  28.466  34.877  1.00  0.00     0.124 S 
ATOM     97  O   UNL A   1      49.160  27.187  34.595  1.00  0.00    -0.237 OA
ATOM     98  O   UNL A   1      48.323  29.348  33.731  1.00  0.00    -0.237 OA
ATOM     99  O   UNL A   1      48.967  29.131  36.099  1.00  0.00    -0.744 OA
ENDBRANCH  92  96
ENDBRANCH  66  89
ENDBRANCH  40  41
ENDBRANCH  33  35
ENDBRANCH  32  33
ENDBRANCH  31  32
ENDBRANCH  30  31
ENDBRANCH  29  30
ENDBRANCH  28  29
ENDBRANCH  27  28
ENDBRANCH   1  27
TORSDOF 27
ENDMDL
MODEL 3
REMARK VINA RESULT:      -8.8      5.852     10.273
REMARK SMILES CC[C@@H]1CCC[C@@](CC[NH+]2CCOCC2)(C(=O)OCCOCCOCCOCCOC(=O)c2ccc(-c3c4nc(c(-c5cc(S(=O)(=O)[O-])ccc5F)c5ccc([nH]5)c(-c5cc(S(=O)(=O)[O-])ccc5F)c5nc(c(-c6cc(S(=O)(=O)[O-])ccc6F)c6ccc3[nH]6)C=C5)C=C4)cc2)C1
REMARK SMILES IDX 24 1 23 2 22 3 21 4 20 5 19 6 18 7 16 8 17 9 7 10 3 11 4 12
REMARK SMILES IDX 96 13 5 14 6 15 2 16 1 17 8 18 9 19 10 20 11 21 15 22 12 24
REMARK SMILES IDX 14 25 13 26 25 27 26 28 27 29 28 30 29 31 30 32 31 33 32 34
REMARK SMILES IDX 33 35 34 36 95 37 35 38 94 39 36 40 37 41 38 42 88 43 39 44
REMARK SMILES IDX 93 45 87 46 89 47 40 48 92 49 86 50 85 51 41 53 73 54 53 55
REMARK SMILES IDX 72 56 54 57 57 58 71 59 90 60 55 61 56 62 70 64 91 65 58 66
REMARK SMILES IDX 42 67 43 68 51 69 44 70 50 71 52 72 49 73 45 74 46 75 47 76
REMARK SMILES IDX 48 77 74 78 75 79 83 80 76 81 82 82 84 83 81 84 77 85 78 86
REMARK SMILES IDX 79 87 80 88 59 89 60 90 68 91 61 92 67 93 69 94 66 95 62 96
REMARK SMILES IDX 63 97 64 98 65 99
REMARK H PARENT 10 23 89 52 57 63
REMARK Flexibility Score: inf
ROOT
ATOM      1  O   UNL A   1      40.751  21.602  25.613  1.00  0.00    -0.377 OA
ENDROOT
BRANCH   1   2
ATOM      2  C   UNL A   1      39.619  21.850  26.417  1.00  0.00     0.188 C 
BRANCH   2   3
ATOM      3  C   UNL A   1      39.197  23.292  26.680  1.00  0.00     0.188 C 
BRANCH   3   4
ATOM      4  O   UNL A   1      38.303  23.896  25.766  1.00  0.00    -0.376 OA
BRANCH   4   5
ATOM      5  C   UNL A   1      37.149  23.149  25.380  1.00  0.00     0.202 C 
BRANCH   5   6
ATOM      6  C   UNL A   1      35.854  23.337  26.188  1.00  0.00     0.261 C 
BRANCH   6   7
ATOM      7  O   UNL A   1      35.066  22.121  26.257  1.00  0.00    -0.463 OA
BRANCH   7   8
ATOM      8  C   UNL A   1      33.729  22.221  26.350  1.00  0.00     0.312 C 
ATOM      9  O   UNL A   1      33.166  22.282  27.445  1.00  0.00    -0.252 OA
BRANCH   8  10
ATOM     10  C   UNL A   1      32.902  22.179  25.009  1.00  0.00     0.074 C 
ATOM     11  C   UNL A   1      32.675  24.766  24.708  1.00  0.00    -0.010 C 
ATOM     12  C   UNL A   1      33.072  24.712  23.230  1.00  0.00     0.003 C 
ATOM     13  C   UNL A   1      31.951  23.448  25.131  1.00  0.00     0.022 C 
ATOM     14  C   UNL A   1      33.840  23.469  22.849  1.00  0.00     0.001 C 
ATOM     15  C   UNL A   1      33.364  22.201  23.523  1.00  0.00     0.019 C 
BRANCH  11  16
ATOM     16  C   UNL A   1      31.891  26.058  25.014  1.00  0.00     0.000 C 
ATOM     17  C   UNL A   1      32.470  26.837  26.202  1.00  0.00     0.004 C 
ENDBRANCH  11  16
BRANCH  10  18
ATOM     18  C   UNL A   1      32.165  20.786  25.149  1.00  0.00     0.080 C 
BRANCH  18  19
ATOM     19  C   UNL A   1      33.022  19.452  25.068  1.00  0.00     0.263 C 
BRANCH  19  20
ATOM     20  N   UNL A   1      32.389  18.198  24.618  1.00  0.00    -0.331 N 
ATOM     21  C   UNL A   1      32.584  17.002  25.466  1.00  0.00     0.291 C 
ATOM     22  C   UNL A   1      32.802  17.797  23.241  1.00  0.00     0.291 C 
ATOM     23  H   UNL A   1      31.406  18.464  24.671  1.00  0.00     0.348 HD
ATOM     24  C   UNL A   1      33.903  16.239  25.328  1.00  0.00     0.221 C 
ATOM     25  C   UNL A   1      34.084  16.934  23.117  1.00  0.00     0.221 C 
ATOM     26  O   UNL A   1      34.065  15.799  23.988  1.00  0.00    -0.370 OA
ENDBRANCH  19  20
ENDBRANCH  18  19
ENDBRANCH  10  18
ENDBRANCH   8  10
ENDBRANCH   7   8
ENDBRANCH   6   7
ENDBRANCH   5   6
ENDBRANCH   4   5
ENDBRANCH   3   4
ENDBRANCH   2   3
ENDBRANCH   1   2
BRANCH   1  27
ATOM     27  C   UNL A   1      42.042  21.647  26.184  1.00  0.00     0.188 C 
BRANCH  27  28
ATOM     28  C   UNL A   1      42.191  21.387  27.683  1.00  0.00     0.188 C 
BRANCH  28  29
ATOM     29  O   UNL A   1      41.876  22.436  28.600  1.00  0.00    -0.376 OA
BRANCH  29  30
ATOM     30  C   UNL A   1      42.745  23.555  28.743  1.00  0.00     0.202 C 
BRANCH  30  31
ATOM     31  C   UNL A   1      42.371  24.839  28.014  1.00  0.00     0.261 C 
BRANCH  31  32
ATOM     32  O   UNL A   1      43.408  25.274  27.130  1.00  0.00    -0.460 OA
BRANCH  32  33
ATOM     33  C   UNL A   1      42.993  26.057  26.106  1.00  0.00     0.338 C 
ATOM     34  O   UNL A   1      42.435  25.708  25.087  1.00  0.00    -0.246 OA
BRANCH  33  35
ATOM     35  C   UNL A   1      43.219  27.461  26.485  1.00  0.00     0.060 A 
ATOM     36  C   UNL A   1      44.351  27.791  27.243  1.00  0.00     0.016 A 
ATOM     37  C   UNL A   1      42.266  28.423  26.153  1.00  0.00     0.016 A 
ATOM     38  C   UNL A   1      44.501  29.089  27.726  1.00  0.00     0.010 A 
ATOM     39  C   UNL A   1      42.411  29.713  26.648  1.00  0.00     0.010 A 
ATOM     40  C   UNL A   1      43.502  30.036  27.473  1.00  0.00    -0.014 A 
BRANCH  40  41
ATOM     41  C   UNL A   1      43.441  31.301  28.237  1.00  0.00     0.031 A 
ATOM     42  C   UNL A   1      44.407  32.388  27.859  1.00  0.00     0.074 A 
ATOM     43  C   UNL A   1      42.597  31.448  29.270  1.00  0.00     0.049 A 
ATOM     44  N   UNL A   1      44.730  33.476  28.505  1.00  0.00    -0.248 NA
ATOM     45  C   UNL A   1      45.124  32.205  26.585  1.00  0.00     0.031 C 
ATOM     46  C   UNL A   1      41.579  30.482  29.676  1.00  0.00     0.029 A 
ATOM     47  N   UNL A   1      42.492  32.461  30.189  1.00  0.00    -0.354 N 
ATOM     48  C   UNL A   1      45.693  34.103  27.723  1.00  0.00     0.074 A 
ATOM     49  C   UNL A   1      45.932  33.253  26.578  1.00  0.00     0.031 C 
ATOM     50  C   UNL A   1      40.967  30.939  30.784  1.00  0.00     0.029 A 
ATOM     51  C   UNL A   1      41.596  32.192  31.197  1.00  0.00     0.049 A 
ATOM     52  H   UNL A   1      43.008  33.298  30.132  1.00  0.00     0.167 HD
ATOM     53  C   UNL A   1      46.315  35.287  27.945  1.00  0.00     0.034 A 
ATOM     54  C   UNL A   1      41.356  32.862  32.341  1.00  0.00     0.034 A 
ATOM     55  C   UNL A   1      46.073  36.101  29.106  1.00  0.00     0.049 A 
ATOM     56  C   UNL A   1      42.156  34.115  32.633  1.00  0.00     0.074 A 
ATOM     57  C   UNL A   1      46.657  37.306  29.453  1.00  0.00     0.029 A 
ATOM     58  N   UNL A   1      45.173  35.789  30.118  1.00  0.00    -0.354 N 
ATOM     59  N   UNL A   1      43.089  34.691  31.907  1.00  0.00    -0.248 NA
ATOM     60  C   UNL A   1      41.874  34.808  33.898  1.00  0.00     0.031 C 
ATOM     61  C   UNL A   1      46.165  37.685  30.705  1.00  0.00     0.029 A 
ATOM     62  C   UNL A   1      45.203  36.766  31.097  1.00  0.00     0.049 A 
ATOM     63  H   UNL A   1      44.598  34.990  30.135  1.00  0.00     0.167 HD
ATOM     64  C   UNL A   1      43.458  35.841  32.604  1.00  0.00     0.074 A 
ATOM     65  C   UNL A   1      42.654  35.875  33.805  1.00  0.00     0.031 C 
ATOM     66  C   UNL A   1      44.371  36.790  32.277  1.00  0.00     0.034 A 
BRANCH  53  67
ATOM     67  C   UNL A   1      47.335  35.737  26.930  1.00  0.00     0.023 A 
ATOM     68  C   UNL A   1      48.528  35.023  26.722  1.00  0.00     0.031 A 
ATOM     69  C   UNL A   1      47.126  36.904  26.174  1.00  0.00     0.131 A 
ATOM     70  C   UNL A   1      49.494  35.516  25.832  1.00  0.00     0.055 A 
ATOM     71  C   UNL A   1      48.053  37.344  25.228  1.00  0.00     0.041 A 
ATOM     72  F   UNL A   1      46.020  37.643  26.349  1.00  0.00    -0.206 F 
ATOM     73  C   UNL A   1      49.252  36.656  25.062  1.00  0.00     0.022 A 
BRANCH  70  74
ATOM     74  S   UNL A   1      51.124  34.725  25.801  1.00  0.00     0.124 S 
ATOM     75  O   UNL A   1      51.997  35.836  26.178  1.00  0.00    -0.237 OA
ATOM     76  O   UNL A   1      50.980  33.663  26.790  1.00  0.00    -0.237 OA
ATOM     77  O   UNL A   1      51.261  34.277  24.417  1.00  0.00    -0.744 OA
ENDBRANCH  70  74
ENDBRANCH  53  67
BRANCH  54  78
ATOM     78  C   UNL A   1      40.361  32.356  33.331  1.00  0.00     0.023 A 
ATOM     79  C   UNL A   1      39.073  32.909  33.395  1.00  0.00     0.031 A 
ATOM     80  C   UNL A   1      40.704  31.380  34.285  1.00  0.00     0.131 A 
ATOM     81  C   UNL A   1      38.205  32.544  34.434  1.00  0.00     0.055 A 
ATOM     82  C   UNL A   1      39.807  30.964  35.271  1.00  0.00     0.041 A 
ATOM     83  F   UNL A   1      41.924  30.820  34.280  1.00  0.00    -0.206 F 
ATOM     84  C   UNL A   1      38.555  31.563  35.363  1.00  0.00     0.022 A 
BRANCH  81  85
ATOM     85  S   UNL A   1      36.666  33.484  34.641  1.00  0.00     0.124 S 
ATOM     86  O   UNL A   1      37.036  34.778  34.078  1.00  0.00    -0.237 OA
ATOM     87  O   UNL A   1      35.721  32.691  33.862  1.00  0.00    -0.237 OA
ATOM     88  O   UNL A   1      36.452  33.468  36.086  1.00  0.00    -0.744 OA
ENDBRANCH  81  85
ENDBRANCH  54  78
BRANCH  66  89
ATOM     89  C   UNL A   1      44.484  37.995  33.179  1.00  0.00     0.023 A 
ATOM     90  C   UNL A   1      43.806  39.197  32.917  1.00  0.00     0.031 A 
ATOM     91  C   UNL A   1      45.258  37.912  34.352  1.00  0.00     0.131 A 
ATOM     92  C   UNL A   1      43.944  40.280  33.799  1.00  0.00     0.055 A 
ATOM     93  C   UNL A   1      45.342  38.971  35.255  1.00  0.00     0.041 A 
ATOM     94  F   UNL A   1      45.928  36.786  34.650  1.00  0.00    -0.206 F 
ATOM     95  C   UNL A   1      44.689  40.167  34.976  1.00  0.00     0.022 A 
BRANCH  92  96
ATOM     96  S   UNL A   1      43.186  41.868  33.358  1.00  0.00     0.124 S 
ATOM     97  O   UNL A   1      43.436  41.936  31.922  1.00  0.00    -0.237 OA
ATOM     98  O   UNL A   1      41.796  41.673  33.754  1.00  0.00    -0.237 OA
ATOM     99  O   UNL A   1      43.927  42.838  34.164  1.00  0.00    -0.744 OA
ENDBRANCH  92  96
ENDBRANCH  66  89
ENDBRANCH  40  41
ENDBRANCH  33  35
ENDBRANCH  32  33
ENDBRANCH  31  32
ENDBRANCH  30  31
ENDBRANCH  29  30
ENDBRANCH  28  29
ENDBRANCH  27  28
ENDBRANCH   1  27
TORSDOF 27
ENDMDL
