MODEL 1
REMARK VINA RESULT:      -9.4      0.000      0.000
REMARK SMILES Cc1ccccc1NC(=O)C[NH+]1CCC(CC(=O)OCCOCCOCCOCCOC(=O)c2ccc(-c3c4nc(c(-c5cc(S(=O)(=O)[O-])ccc5F)c5ccc([nH]5)c(-c5cc(S(=O)(=O)[O-])ccc5F)c5nc(c(-c6cc(S(=O)(=O)[O-])ccc6F)c6ccc3[nH]6)C=C5)C=C4)cc2)CC1
REMARK SMILES IDX 24 1 23 2 22 3 21 4 20 5 19 6 17 7 18 8 16 9 15 10 12 11
REMARK SMILES IDX 13 12 98 13 14 15 97 16 11 17 9 18 8 19 10 21 7 22 1 23 2 24
REMARK SMILES IDX 3 25 4 26 6 27 5 28 25 29 26 30 27 31 28 32 29 33 30 34
REMARK SMILES IDX 31 35 32 36 33 37 34 38 35 39 96 40 36 41 95 42 37 43 38 44
REMARK SMILES IDX 39 45 89 46 40 47 94 48 88 49 90 50 41 51 93 52 87 53 86 54
REMARK SMILES IDX 42 56 74 57 54 58 73 59 55 60 58 61 72 62 91 63 56 64 57 65
REMARK SMILES IDX 71 67 92 68 59 69 43 70 44 71 52 72 45 73 51 74 53 75 50 76
REMARK SMILES IDX 46 77 47 78 48 79 49 80 75 81 76 82 84 83 77 84 83 85 85 86
REMARK SMILES IDX 82 87 78 88 79 89 80 90 81 91 60 92 61 93 69 94 62 95 68 96
REMARK SMILES IDX 70 97 67 98 63 99 64 100 65 101 66 102
REMARK H PARENT 12 14 8 20 90 55 58 66
REMARK Flexibility Score: inf
ROOT
ATOM      1  C   UNL A   1      33.216  26.756  25.604  1.00  0.00     0.188 C 
ENDROOT
BRANCH   1   2
ATOM      2  C   UNL A   1      32.249  27.888  25.105  1.00  0.00     0.188 C 
BRANCH   2   3
ATOM      3  O   UNL A   1      31.583  29.154  25.772  1.00  0.00    -0.376 OA
BRANCH   3   4
ATOM      4  C   UNL A   1      32.200  30.763  26.023  1.00  0.00     0.202 C 
BRANCH   4   5
ATOM      5  C   UNL A   1      31.807  32.281  27.076  1.00  0.00     0.261 C 
BRANCH   5   6
ATOM      6  O   UNL A   1      32.851  33.705  27.645  1.00  0.00    -0.463 OA
BRANCH   6   7
ATOM      7  C   UNL A   1      32.992  34.823  28.769  1.00  0.00     0.306 C 
ATOM      8  O   UNL A   1      32.246  35.815  28.723  1.00  0.00    -0.252 OA
BRANCH   7   9
ATOM      9  C   UNL A   1      34.265  34.869  30.045  1.00  0.00     0.126 C 
BRANCH   9  10
ATOM     10  C   UNL A   1      35.703  34.028  30.455  1.00  0.00     0.011 C 
ATOM     11  N   UNL A   1      38.653  33.777  31.510  1.00  0.00    -0.327 N 
ATOM     12  C   UNL A   1      38.311  33.531  30.129  1.00  0.00     0.262 C 
ATOM     13  C   UNL A   1      37.481  33.524  32.349  1.00  0.00     0.262 C 
ATOM     14  H   UNL A   1      38.846  34.755  31.728  1.00  0.00     0.348 HD
ATOM     15  C   UNL A   1      37.045  34.292  29.767  1.00  0.00     0.066 C 
ATOM     16  C   UNL A   1      36.142  34.265  31.939  1.00  0.00     0.066 C 
BRANCH  11  17
ATOM     17  C   UNL A   1      39.986  33.179  31.834  1.00  0.00     0.363 C 
BRANCH  17  18
ATOM     18  C   UNL A   1      40.977  33.966  32.754  1.00  0.00     0.279 C 
ATOM     19  N   UNL A   1      41.097  33.697  34.093  1.00  0.00    -0.321 N 
ATOM     20  H   UNL A   1      41.939  33.974  34.523  1.00  0.00     0.170 HD
ATOM     21  O   UNL A   1      41.656  34.901  32.314  1.00  0.00    -0.268 OA
BRANCH  19  22
ATOM     22  C   UNL A   1      40.156  33.073  34.913  1.00  0.00     0.044 A 
ATOM     23  C   UNL A   1      41.140  30.742  34.463  1.00  0.00     0.046 C 
ATOM     24  C   UNL A   1      40.102  31.676  35.021  1.00  0.00    -0.027 A 
ATOM     25  C   UNL A   1      38.964  31.111  35.627  1.00  0.00     0.005 A 
ATOM     26  C   UNL A   1      37.947  31.915  36.152  1.00  0.00     0.000 A 
ATOM     27  C   UNL A   1      39.204  33.869  35.567  1.00  0.00     0.026 A 
ATOM     28  C   UNL A   1      38.087  33.297  36.161  1.00  0.00     0.002 A 
ENDBRANCH  19  22
ENDBRANCH  17  18
ENDBRANCH  11  17
ENDBRANCH   9  10
ENDBRANCH   7   9
ENDBRANCH   6   7
ENDBRANCH   5   6
ENDBRANCH   4   5
ENDBRANCH   3   4
ENDBRANCH   2   3
ENDBRANCH   1   2
BRANCH   1  29
ATOM     29  O   UNL A   1      33.801  25.727  24.847  1.00  0.00    -0.377 OA
BRANCH  29  30
ATOM     30  C   UNL A   1      34.453  24.712  25.548  1.00  0.00     0.188 C 
BRANCH  30  31
ATOM     31  C   UNL A   1      35.775  24.297  24.939  1.00  0.00     0.188 C 
BRANCH  31  32
ATOM     32  O   UNL A   1      36.646  23.580  25.817  1.00  0.00    -0.376 OA
BRANCH  32  33
ATOM     33  C   UNL A   1      37.617  22.730  25.226  1.00  0.00     0.202 C 
BRANCH  33  34
ATOM     34  C   UNL A   1      38.669  22.196  26.208  1.00  0.00     0.261 C 
BRANCH  34  35
ATOM     35  O   UNL A   1      39.987  22.534  25.721  1.00  0.00    -0.460 OA
BRANCH  35  36
ATOM     36  C   UNL A   1      40.983  21.674  26.075  1.00  0.00     0.338 C 
ATOM     37  O   UNL A   1      40.905  20.458  26.022  1.00  0.00    -0.246 OA
BRANCH  36  38
ATOM     38  C   UNL A   1      42.077  22.433  26.771  1.00  0.00     0.060 A 
ATOM     39  C   UNL A   1      42.361  22.156  28.100  1.00  0.00     0.016 A 
ATOM     40  C   UNL A   1      42.599  23.610  26.225  1.00  0.00     0.016 A 
ATOM     41  C   UNL A   1      43.033  23.125  28.883  1.00  0.00     0.010 A 
ATOM     42  C   UNL A   1      43.102  24.632  27.058  1.00  0.00     0.010 A 
ATOM     43  C   UNL A   1      43.254  24.467  28.448  1.00  0.00    -0.014 A 
BRANCH  43  44
ATOM     44  C   UNL A   1      43.711  25.840  29.340  1.00  0.00     0.031 A 
ATOM     45  C   UNL A   1      42.086  26.547  29.109  1.00  0.00     0.074 A 
ATOM     46  C   UNL A   1      45.164  26.544  29.854  1.00  0.00     0.049 A 
ATOM     47  N   UNL A   1      41.834  27.738  28.619  1.00  0.00    -0.248 NA
ATOM     48  C   UNL A   1      40.782  25.839  29.197  1.00  0.00     0.031 C 
ATOM     49  C   UNL A   1      45.624  28.024  30.543  1.00  0.00     0.029 A 
ATOM     50  N   UNL A   1      46.630  26.408  29.472  1.00  0.00    -0.354 N 
ATOM     51  C   UNL A   1      40.567  28.092  28.942  1.00  0.00     0.074 A 
ATOM     52  C   UNL A   1      39.889  26.826  29.018  1.00  0.00     0.031 C 
ATOM     53  C   UNL A   1      46.876  28.433  30.421  1.00  0.00     0.029 A 
ATOM     54  C   UNL A   1      47.393  27.614  29.416  1.00  0.00     0.049 A 
ATOM     55  H   UNL A   1      47.033  25.532  29.274  1.00  0.00     0.167 HD
ATOM     56  C   UNL A   1      40.263  29.364  29.347  1.00  0.00     0.034 A 
ATOM     57  C   UNL A   1      48.052  28.192  28.371  1.00  0.00     0.034 A 
ATOM     58  C   UNL A   1      41.459  30.220  29.619  1.00  0.00     0.049 A 
ATOM     59  C   UNL A   1      47.373  29.578  28.014  1.00  0.00     0.074 A 
ATOM     60  C   UNL A   1      42.016  30.704  30.797  1.00  0.00     0.029 A 
ATOM     61  N   UNL A   1      42.428  30.500  28.642  1.00  0.00    -0.354 N 
ATOM     62  N   UNL A   1      46.277  30.039  28.594  1.00  0.00    -0.248 NA
ATOM     63  C   UNL A   1      47.812  30.506  26.979  1.00  0.00     0.031 C 
ATOM     64  C   UNL A   1      43.299  31.282  30.516  1.00  0.00     0.029 A 
ATOM     65  C   UNL A   1      43.557  31.168  29.157  1.00  0.00     0.049 A 
ATOM     66  H   UNL A   1      42.329  30.256  27.694  1.00  0.00     0.167 HD
ATOM     67  C   UNL A   1      45.788  31.159  27.982  1.00  0.00     0.074 A 
ATOM     68  C   UNL A   1      46.839  31.442  27.001  1.00  0.00     0.031 C 
ATOM     69  C   UNL A   1      44.573  31.763  28.256  1.00  0.00     0.034 A 
BRANCH  56  70
ATOM     70  C   UNL A   1      38.852  29.640  29.854  1.00  0.00     0.023 A 
ATOM     71  C   UNL A   1      37.799  30.006  28.994  1.00  0.00     0.031 A 
ATOM     72  C   UNL A   1      38.514  29.570  31.226  1.00  0.00     0.131 A 
ATOM     73  C   UNL A   1      36.544  30.405  29.507  1.00  0.00     0.055 A 
ATOM     74  C   UNL A   1      37.297  30.034  31.742  1.00  0.00     0.041 A 
ATOM     75  F   UNL A   1      39.363  29.037  32.120  1.00  0.00    -0.206 F 
ATOM     76  C   UNL A   1      36.307  30.476  30.878  1.00  0.00     0.022 A 
BRANCH  73  77
ATOM     77  S   UNL A   1      35.189  30.789  28.358  1.00  0.00     0.124 S 
ATOM     78  O   UNL A   1      34.291  31.587  29.185  1.00  0.00    -0.237 OA
ATOM     79  O   UNL A   1      35.883  31.497  27.288  1.00  0.00    -0.237 OA
ATOM     80  O   UNL A   1      34.673  29.471  27.986  1.00  0.00    -0.744 OA
ENDBRANCH  73  77
ENDBRANCH  56  70
BRANCH  57  81
ATOM     81  C   UNL A   1      48.720  27.182  27.499  1.00  0.00     0.023 A 
ATOM     82  C   UNL A   1      48.165  26.975  26.204  1.00  0.00     0.031 A 
ATOM     83  C   UNL A   1      50.017  26.714  27.719  1.00  0.00     0.131 A 
ATOM     84  C   UNL A   1      48.960  26.508  25.146  1.00  0.00     0.055 A 
ATOM     85  C   UNL A   1      50.807  26.248  26.658  1.00  0.00     0.041 A 
ATOM     86  F   UNL A   1      50.602  26.868  28.915  1.00  0.00    -0.206 F 
ATOM     87  C   UNL A   1      50.297  26.188  25.360  1.00  0.00     0.022 A 
BRANCH  84  88
ATOM     88  S   UNL A   1      48.289  26.516  23.453  1.00  0.00     0.124 S 
ATOM     89  O   UNL A   1      49.432  27.018  22.689  1.00  0.00    -0.237 OA
ATOM     90  O   UNL A   1      47.951  25.116  23.253  1.00  0.00    -0.237 OA
ATOM     91  O   UNL A   1      47.153  27.431  23.542  1.00  0.00    -0.744 OA
ENDBRANCH  84  88
ENDBRANCH  57  81
BRANCH  69  92
ATOM     92  C   UNL A   1      44.242  33.117  27.668  1.00  0.00     0.023 A 
ATOM     93  C   UNL A   1      44.250  34.267  28.465  1.00  0.00     0.031 A 
ATOM     94  C   UNL A   1      43.832  33.291  26.327  1.00  0.00     0.131 A 
ATOM     95  C   UNL A   1      44.056  35.533  27.897  1.00  0.00     0.055 A 
ATOM     96  C   UNL A   1      43.515  34.542  25.793  1.00  0.00     0.041 A 
ATOM     97  F   UNL A   1      43.759  32.266  25.467  1.00  0.00    -0.206 F 
ATOM     98  C   UNL A   1      43.667  35.681  26.569  1.00  0.00     0.022 A 
BRANCH  95  99
ATOM     99  S   UNL A   1      44.506  36.972  28.896  1.00  0.00     0.124 S 
ATOM    100  O   UNL A   1      45.952  36.833  29.022  1.00  0.00    -0.237 OA
ATOM    101  O   UNL A   1      44.045  38.069  28.047  1.00  0.00    -0.237 OA
ATOM    102  O   UNL A   1      43.746  36.783  30.130  1.00  0.00    -0.744 OA
ENDBRANCH  95  99
ENDBRANCH  69  92
ENDBRANCH  43  44
ENDBRANCH  36  38
ENDBRANCH  35  36
ENDBRANCH  34  35
ENDBRANCH  33  34
ENDBRANCH  32  33
ENDBRANCH  31  32
ENDBRANCH  30  31
ENDBRANCH  29  30
ENDBRANCH   1  29
TORSDOF 27
ENDMDL
MODEL 2
REMARK VINA RESULT:      -8.8      5.536     11.375
REMARK SMILES Cc1ccccc1NC(=O)C[NH+]1CCC(CC(=O)OCCOCCOCCOCCOC(=O)c2ccc(-c3c4nc(c(-c5cc(S(=O)(=O)[O-])ccc5F)c5ccc([nH]5)c(-c5cc(S(=O)(=O)[O-])ccc5F)c5nc(c(-c6cc(S(=O)(=O)[O-])ccc6F)c6ccc3[nH]6)C=C5)C=C4)cc2)CC1
REMARK SMILES IDX 24 1 23 2 22 3 21 4 20 5 19 6 17 7 18 8 16 9 15 10 12 11
REMARK SMILES IDX 13 12 98 13 14 15 97 16 11 17 9 18 8 19 10 21 7 22 1 23 2 24
REMARK SMILES IDX 3 25 4 26 6 27 5 28 25 29 26 30 27 31 28 32 29 33 30 34
REMARK SMILES IDX 31 35 32 36 33 37 34 38 35 39 96 40 36 41 95 42 37 43 38 44
REMARK SMILES IDX 39 45 89 46 40 47 94 48 88 49 90 50 41 51 93 52 87 53 86 54
REMARK SMILES IDX 42 56 74 57 54 58 73 59 55 60 58 61 72 62 91 63 56 64 57 65
REMARK SMILES IDX 71 67 92 68 59 69 43 70 44 71 52 72 45 73 51 74 53 75 50 76
REMARK SMILES IDX 46 77 47 78 48 79 49 80 75 81 76 82 84 83 77 84 83 85 85 86
REMARK SMILES IDX 82 87 78 88 79 89 80 90 81 91 60 92 61 93 69 94 62 95 68 96
REMARK SMILES IDX 70 97 67 98 63 99 64 100 65 101 66 102
REMARK H PARENT 12 14 8 20 90 55 58 66
REMARK Flexibility Score: inf
ROOT
ATOM      1  C   UNL A   1      36.685  33.121  33.739  1.00  0.00     0.188 C 
ENDROOT
BRANCH   1   2
ATOM      2  C   UNL A   1      36.458  34.636  33.396  1.00  0.00     0.188 C 
BRANCH   2   3
ATOM      3  O   UNL A   1      35.191  35.533  33.109  1.00  0.00    -0.376 OA
BRANCH   3   4
ATOM      4  C   UNL A   1      34.061  35.514  31.784  1.00  0.00     0.202 C 
BRANCH   4   5
ATOM      5  C   UNL A   1      33.868  34.679  30.101  1.00  0.00     0.261 C 
BRANCH   5   6
ATOM      6  O   UNL A   1      34.070  32.918  29.556  1.00  0.00    -0.463 OA
BRANCH   6   7
ATOM      7  C   UNL A   1      34.625  31.994  28.385  1.00  0.00     0.306 C 
ATOM      8  O   UNL A   1      35.317  32.509  27.492  1.00  0.00    -0.252 OA
BRANCH   7   9
ATOM      9  C   UNL A   1      34.208  30.257  28.137  1.00  0.00     0.126 C 
BRANCH   9  10
ATOM     10  C   UNL A   1      33.457  29.273  26.949  1.00  0.00     0.011 C 
ATOM     11  N   UNL A   1      31.071  28.302  25.147  1.00  0.00    -0.327 N 
ATOM     12  C   UNL A   1      31.619  27.480  26.200  1.00  0.00     0.262 C 
ATOM     13  C   UNL A   1      32.100  29.232  24.678  1.00  0.00     0.262 C 
ATOM     14  H   UNL A   1      30.344  28.949  25.453  1.00  0.00     0.348 HD
ATOM     15  C   UNL A   1      32.269  28.359  27.258  1.00  0.00     0.066 C 
ATOM     16  C   UNL A   1      32.825  30.104  25.782  1.00  0.00     0.066 C 
BRANCH  11  17
ATOM     17  C   UNL A   1      30.280  27.468  24.190  1.00  0.00     0.363 C 
BRANCH  17  18
ATOM     18  C   UNL A   1      30.835  27.221  22.747  1.00  0.00     0.279 C 
ATOM     19  N   UNL A   1      31.646  26.155  22.453  1.00  0.00    -0.321 N 
ATOM     20  H   UNL A   1      31.678  25.875  21.509  1.00  0.00     0.170 HD
ATOM     21  O   UNL A   1      30.603  28.012  21.826  1.00  0.00    -0.268 OA
BRANCH  19  22
ATOM     22  C   UNL A   1      32.430  25.423  23.345  1.00  0.00     0.044 A 
ATOM     23  C   UNL A   1      30.709  23.518  23.475  1.00  0.00     0.046 C 
ATOM     24  C   UNL A   1      31.961  24.228  23.910  1.00  0.00    -0.027 A 
ATOM     25  C   UNL A   1      32.672  23.701  25.005  1.00  0.00     0.005 A 
ATOM     26  C   UNL A   1      33.835  24.315  25.479  1.00  0.00     0.000 A 
ATOM     27  C   UNL A   1      33.670  25.949  23.735  1.00  0.00     0.026 A 
ATOM     28  C   UNL A   1      34.360  25.417  24.817  1.00  0.00     0.002 A 
ENDBRANCH  19  22
ENDBRANCH  17  18
ENDBRANCH  11  17
ENDBRANCH   9  10
ENDBRANCH   7   9
ENDBRANCH   6   7
ENDBRANCH   5   6
ENDBRANCH   4   5
ENDBRANCH   3   4
ENDBRANCH   2   3
ENDBRANCH   1   2
BRANCH   1  29
ATOM     29  O   UNL A   1      35.803  32.048  33.529  1.00  0.00    -0.377 OA
BRANCH  29  30
ATOM     30  C   UNL A   1      36.093  31.181  32.474  1.00  0.00     0.188 C 
BRANCH  30  31
ATOM     31  C   UNL A   1      37.319  31.573  31.679  1.00  0.00     0.188 C 
BRANCH  31  32
ATOM     32  O   UNL A   1      37.270  31.238  30.290  1.00  0.00    -0.376 OA
BRANCH  32  33
ATOM     33  C   UNL A   1      38.077  30.157  29.847  1.00  0.00     0.202 C 
BRANCH  33  34
ATOM     34  C   UNL A   1      37.600  28.777  30.324  1.00  0.00     0.261 C 
BRANCH  34  35
ATOM     35  O   UNL A   1      38.710  28.074  30.926  1.00  0.00    -0.460 OA
BRANCH  35  36
ATOM     36  C   UNL A   1      38.755  28.103  32.287  1.00  0.00     0.338 C 
ATOM     37  O   UNL A   1      37.796  27.933  33.020  1.00  0.00    -0.246 OA
BRANCH  36  38
ATOM     38  C   UNL A   1      40.094  28.621  32.733  1.00  0.00     0.060 A 
ATOM     39  C   UNL A   1      40.539  29.850  32.269  1.00  0.00     0.016 A 
ATOM     40  C   UNL A   1      41.028  27.777  33.341  1.00  0.00     0.016 A 
ATOM     41  C   UNL A   1      41.923  30.142  32.294  1.00  0.00     0.010 A 
ATOM     42  C   UNL A   1      42.412  28.006  33.194  1.00  0.00     0.010 A 
ATOM     43  C   UNL A   1      42.925  29.162  32.575  1.00  0.00    -0.014 A 
BRANCH  43  44
ATOM     44  C   UNL A   1      44.604  29.219  32.321  1.00  0.00     0.031 A 
ATOM     45  C   UNL A   1      44.477  27.914  31.106  1.00  0.00     0.074 A 
ATOM     46  C   UNL A   1      45.951  29.848  33.135  1.00  0.00     0.049 A 
ATOM     47  N   UNL A   1      45.160  26.794  31.114  1.00  0.00    -0.248 NA
ATOM     48  C   UNL A   1      43.436  27.770  30.055  1.00  0.00     0.031 C 
ATOM     49  C   UNL A   1      47.635  29.706  32.996  1.00  0.00     0.029 A 
ATOM     50  N   UNL A   1      46.233  30.338  34.547  1.00  0.00    -0.354 N 
ATOM     51  C   UNL A   1      45.108  26.234  29.882  1.00  0.00     0.074 A 
ATOM     52  C   UNL A   1      43.838  26.682  29.377  1.00  0.00     0.031 C 
ATOM     53  C   UNL A   1      48.395  29.970  34.045  1.00  0.00     0.029 A 
ATOM     54  C   UNL A   1      47.495  29.976  35.111  1.00  0.00     0.049 A 
ATOM     55  H   UNL A   1      45.580  30.878  35.047  1.00  0.00     0.167 HD
ATOM     56  C   UNL A   1      46.212  25.659  29.311  1.00  0.00     0.034 A 
ATOM     57  C   UNL A   1      47.784  29.237  36.220  1.00  0.00     0.034 A 
ATOM     58  C   UNL A   1      47.485  25.920  30.052  1.00  0.00     0.049 A 
ATOM     59  C   UNL A   1      48.522  27.901  35.793  1.00  0.00     0.074 A 
ATOM     60  C   UNL A   1      48.589  26.716  29.769  1.00  0.00     0.029 A 
ATOM     61  N   UNL A   1      47.675  25.537  31.390  1.00  0.00    -0.354 N 
ATOM     62  N   UNL A   1      48.730  27.538  34.538  1.00  0.00    -0.248 NA
ATOM     63  C   UNL A   1      49.021  26.872  36.697  1.00  0.00     0.031 C 
ATOM     64  C   UNL A   1      49.434  26.791  30.926  1.00  0.00     0.029 A 
ATOM     65  C   UNL A   1      48.869  26.038  31.945  1.00  0.00     0.049 A 
ATOM     66  H   UNL A   1      47.039  24.975  31.889  1.00  0.00     0.167 HD
ATOM     67  C   UNL A   1      49.215  26.263  34.433  1.00  0.00     0.074 A 
ATOM     68  C   UNL A   1      49.436  25.915  35.839  1.00  0.00     0.031 C 
ATOM     69  C   UNL A   1      49.368  25.553  33.255  1.00  0.00     0.034 A 
BRANCH  56  70
ATOM     70  C   UNL A   1      46.119  25.203  27.860  1.00  0.00     0.023 A 
ATOM     71  C   UNL A   1      45.329  24.108  27.462  1.00  0.00     0.031 A 
ATOM     72  C   UNL A   1      46.839  25.837  26.819  1.00  0.00     0.131 A 
ATOM     73  C   UNL A   1      45.381  23.613  26.140  1.00  0.00     0.055 A 
ATOM     74  C   UNL A   1      46.950  25.305  25.528  1.00  0.00     0.041 A 
ATOM     75  F   UNL A   1      47.462  27.010  27.025  1.00  0.00    -0.206 F 
ATOM     76  C   UNL A   1      46.231  24.171  25.187  1.00  0.00     0.022 A 
BRANCH  73  77
ATOM     77  S   UNL A   1      44.283  22.250  25.650  1.00  0.00     0.124 S 
ATOM     78  O   UNL A   1      45.180  21.101  25.668  1.00  0.00    -0.237 OA
ATOM     79  O   UNL A   1      43.261  22.288  26.691  1.00  0.00    -0.237 OA
ATOM     80  O   UNL A   1      43.818  22.647  24.321  1.00  0.00    -0.744 OA
ENDBRANCH  73  77
ENDBRANCH  56  70
BRANCH  57  81
ATOM     81  C   UNL A   1      46.838  29.510  37.342  1.00  0.00     0.023 A 
ATOM     82  C   UNL A   1      46.376  28.389  38.089  1.00  0.00     0.031 A 
ATOM     83  C   UNL A   1      46.671  30.771  37.916  1.00  0.00     0.131 A 
ATOM     84  C   UNL A   1      45.963  28.533  39.422  1.00  0.00     0.055 A 
ATOM     85  C   UNL A   1      46.257  30.910  39.249  1.00  0.00     0.041 A 
ATOM     86  F   UNL A   1      47.076  31.873  37.269  1.00  0.00    -0.206 F 
ATOM     87  C   UNL A   1      45.947  29.788  40.021  1.00  0.00     0.022 A 
BRANCH  84  88
ATOM     88  S   UNL A   1      45.642  27.046  40.423  1.00  0.00     0.124 S 
ATOM     89  O   UNL A   1      46.710  27.129  41.420  1.00  0.00    -0.237 OA
ATOM     90  O   UNL A   1      44.292  27.291  40.908  1.00  0.00    -0.237 OA
ATOM     91  O   UNL A   1      45.775  25.954  39.461  1.00  0.00    -0.744 OA
ENDBRANCH  84  88
ENDBRANCH  57  81
BRANCH  69  92
ATOM     92  C   UNL A   1      50.115  24.238  33.246  1.00  0.00     0.023 A 
ATOM     93  C   UNL A   1      49.562  23.094  33.834  1.00  0.00     0.031 A 
ATOM     94  C   UNL A   1      51.423  24.103  32.729  1.00  0.00     0.131 A 
ATOM     95  C   UNL A   1      50.203  21.853  33.724  1.00  0.00     0.055 A 
ATOM     96  C   UNL A   1      52.113  22.889  32.734  1.00  0.00     0.041 A 
ATOM     97  F   UNL A   1      52.072  25.128  32.161  1.00  0.00    -0.206 F 
ATOM     98  C   UNL A   1      51.486  21.742  33.197  1.00  0.00     0.022 A 
BRANCH  95  99
ATOM     99  S   UNL A   1      49.235  20.378  34.122  1.00  0.00     0.124 S 
ATOM    100  O   UNL A   1      48.846  19.888  32.805  1.00  0.00    -0.237 OA
ATOM    101  O   UNL A   1      50.221  19.568  34.835  1.00  0.00    -0.237 OA
ATOM    102  O   UNL A   1      48.146  20.896  34.948  1.00  0.00    -0.744 OA
ENDBRANCH  95  99
ENDBRANCH  69  92
ENDBRANCH  43  44
ENDBRANCH  36  38
ENDBRANCH  35  36
ENDBRANCH  34  35
ENDBRANCH  33  34
ENDBRANCH  32  33
ENDBRANCH  31  32
ENDBRANCH  30  31
ENDBRANCH  29  30
ENDBRANCH   1  29
TORSDOF 27
ENDMDL
MODEL 3
REMARK VINA RESULT:      -8.3      7.055     15.298
REMARK SMILES Cc1ccccc1NC(=O)C[NH+]1CCC(CC(=O)OCCOCCOCCOCCOC(=O)c2ccc(-c3c4nc(c(-c5cc(S(=O)(=O)[O-])ccc5F)c5ccc([nH]5)c(-c5cc(S(=O)(=O)[O-])ccc5F)c5nc(c(-c6cc(S(=O)(=O)[O-])ccc6F)c6ccc3[nH]6)C=C5)C=C4)cc2)CC1
REMARK SMILES IDX 24 1 23 2 22 3 21 4 20 5 19 6 17 7 18 8 16 9 15 10 12 11
REMARK SMILES IDX 13 12 98 13 14 15 97 16 11 17 9 18 8 19 10 21 7 22 1 23 2 24
REMARK SMILES IDX 3 25 4 26 6 27 5 28 25 29 26 30 27 31 28 32 29 33 30 34
REMARK SMILES IDX 31 35 32 36 33 37 34 38 35 39 96 40 36 41 95 42 37 43 38 44
REMARK SMILES IDX 39 45 89 46 40 47 94 48 88 49 90 50 41 51 93 52 87 53 86 54
REMARK SMILES IDX 42 56 74 57 54 58 73 59 55 60 58 61 72 62 91 63 56 64 57 65
REMARK SMILES IDX 71 67 92 68 59 69 43 70 44 71 52 72 45 73 51 74 53 75 50 76
REMARK SMILES IDX 46 77 47 78 48 79 49 80 75 81 76 82 84 83 77 84 83 85 85 86
REMARK SMILES IDX 82 87 78 88 79 89 80 90 81 91 60 92 61 93 69 94 62 95 68 96
REMARK SMILES IDX 70 97 67 98 63 99 64 100 65 101 66 102
REMARK H PARENT 12 14 8 20 90 55 58 66
REMARK Flexibility Score: inf
ROOT
ATOM      1  C   UNL A   1      52.855  35.588  23.889  1.00  0.00     0.188 C 
ENDROOT
BRANCH   1   2
ATOM      2  C   UNL A   1      53.285  37.095  23.986  1.00  0.00     0.188 C 
BRANCH   2   3
ATOM      3  O   UNL A   1      54.405  37.976  23.307  1.00  0.00    -0.376 OA
BRANCH   3   4
ATOM      4  C   UNL A   1      54.340  39.585  22.646  1.00  0.00     0.202 C 
BRANCH   4   5
ATOM      5  C   UNL A   1      54.517  41.369  23.243  1.00  0.00     0.261 C 
BRANCH   5   6
ATOM      6  O   UNL A   1      53.672  42.940  22.734  1.00  0.00    -0.463 OA
BRANCH   6   7
ATOM      7  C   UNL A   1      52.589  43.549  21.739  1.00  0.00     0.306 C 
ATOM      8  O   UNL A   1      52.828  43.550  20.521  1.00  0.00    -0.252 OA
BRANCH   7   9
ATOM      9  C   UNL A   1      51.078  44.400  22.232  1.00  0.00     0.126 C 
BRANCH   9  10
ATOM     10  C   UNL A   1      49.399  44.341  21.886  1.00  0.00     0.011 C 
ATOM     11  N   UNL A   1      46.678  45.459  20.779  1.00  0.00    -0.327 N 
ATOM     12  C   UNL A   1      46.902  45.251  22.190  1.00  0.00     0.262 C 
ATOM     13  C   UNL A   1      47.539  44.554  20.017  1.00  0.00     0.262 C 
ATOM     14  H   UNL A   1      46.988  46.367  20.433  1.00  0.00     0.348 HD
ATOM     15  C   UNL A   1      48.391  45.321  22.493  1.00  0.00     0.066 C 
ATOM     16  C   UNL A   1      49.082  44.576  20.371  1.00  0.00     0.066 C 
BRANCH  11  17
ATOM     17  C   UNL A   1      45.213  45.567  20.492  1.00  0.00     0.363 C 
BRANCH  17  18
ATOM     18  C   UNL A   1      44.509  44.439  19.666  1.00  0.00     0.279 C 
ATOM     19  N   UNL A   1      44.098  44.633  18.373  1.00  0.00    -0.321 N 
ATOM     20  H   UNL A   1      43.982  43.824  17.823  1.00  0.00     0.170 HD
ATOM     21  O   UNL A   1      44.249  43.341  20.171  1.00  0.00    -0.268 OA
BRANCH  19  22
ATOM     22  C   UNL A   1      43.828  45.851  17.750  1.00  0.00     0.044 A 
ATOM     23  C   UNL A   1      46.236  46.073  16.879  1.00  0.00     0.046 C 
ATOM     24  C   UNL A   1      44.845  46.588  17.126  1.00  0.00    -0.027 A 
ATOM     25  C   UNL A   1      44.565  47.923  16.777  1.00  0.00     0.005 A 
ATOM     26  C   UNL A   1      43.300  48.479  16.993  1.00  0.00     0.000 A 
ATOM     27  C   UNL A   1      42.528  46.371  17.831  1.00  0.00     0.026 A 
ATOM     28  C   UNL A   1      42.267  47.690  17.481  1.00  0.00     0.002 A 
ENDBRANCH  19  22
ENDBRANCH  17  18
ENDBRANCH  11  17
ENDBRANCH   9  10
ENDBRANCH   7   9
ENDBRANCH   6   7
ENDBRANCH   5   6
ENDBRANCH   4   5
ENDBRANCH   3   4
ENDBRANCH   2   3
ENDBRANCH   1   2
BRANCH   1  29
ATOM     29  O   UNL A   1      51.554  35.059  23.937  1.00  0.00    -0.377 OA
BRANCH  29  30
ATOM     30  C   UNL A   1      51.177  34.398  25.107  1.00  0.00     0.188 C 
BRANCH  30  31
ATOM     31  C   UNL A   1      49.885  34.906  25.709  1.00  0.00     0.188 C 
BRANCH  31  32
ATOM     32  O   UNL A   1      49.100  33.916  26.377  1.00  0.00    -0.376 OA
BRANCH  32  33
ATOM     33  C   UNL A   1      47.708  33.889  26.102  1.00  0.00     0.202 C 
BRANCH  33  34
ATOM     34  C   UNL A   1      47.078  35.275  25.899  1.00  0.00     0.261 C 
BRANCH  34  35
ATOM     35  O   UNL A   1      46.612  35.775  27.172  1.00  0.00    -0.460 OA
BRANCH  35  36
ATOM     36  C   UNL A   1      45.284  36.072  27.236  1.00  0.00     0.338 C 
ATOM     37  O   UNL A   1      44.779  37.101  26.820  1.00  0.00    -0.246 OA
BRANCH  36  38
ATOM     38  C   UNL A   1      44.587  35.069  28.112  1.00  0.00     0.060 A 
ATOM     39  C   UNL A   1      44.945  34.964  29.448  1.00  0.00     0.016 A 
ATOM     40  C   UNL A   1      43.822  34.037  27.561  1.00  0.00     0.016 A 
ATOM     41  C   UNL A   1      44.656  33.772  30.154  1.00  0.00     0.010 A 
ATOM     42  C   UNL A   1      43.702  32.795  28.219  1.00  0.00     0.010 A 
ATOM     43  C   UNL A   1      44.201  32.577  29.517  1.00  0.00    -0.014 A 
BRANCH  43  44
ATOM     44  C   UNL A   1      44.132  30.986  30.111  1.00  0.00     0.031 A 
ATOM     45  C   UNL A   1      45.480  30.513  29.037  1.00  0.00     0.074 A 
ATOM     46  C   UNL A   1      43.021  30.043  30.976  1.00  0.00     0.049 A 
ATOM     47  N   UNL A   1      45.464  29.516  28.185  1.00  0.00    -0.248 NA
ATOM     48  C   UNL A   1      46.715  31.292  28.757  1.00  0.00     0.031 C 
ATOM     49  C   UNL A   1      42.860  28.400  31.366  1.00  0.00     0.029 A 
ATOM     50  N   UNL A   1      41.537  30.138  31.298  1.00  0.00    -0.354 N 
ATOM     51  C   UNL A   1      46.736  29.209  27.836  1.00  0.00     0.074 A 
ATOM     52  C   UNL A   1      47.417  30.470  27.959  1.00  0.00     0.031 C 
ATOM     53  C   UNL A   1      41.666  27.923  31.676  1.00  0.00     0.029 A 
ATOM     54  C   UNL A   1      40.791  28.921  31.244  1.00  0.00     0.049 A 
ATOM     55  H   UNL A   1      41.113  30.994  31.533  1.00  0.00     0.167 HD
ATOM     56  C   UNL A   1      47.150  27.909  27.715  1.00  0.00     0.034 A 
ATOM     57  C   UNL A   1      39.731  28.572  30.460  1.00  0.00     0.034 A 
ATOM     58  C   UNL A   1      46.163  26.906  28.222  1.00  0.00     0.049 A 
ATOM     59  C   UNL A   1      40.153  27.392  29.489  1.00  0.00     0.074 A 
ATOM     60  C   UNL A   1      46.151  26.087  29.345  1.00  0.00     0.029 A 
ATOM     61  N   UNL A   1      44.860  26.797  27.706  1.00  0.00    -0.354 N 
ATOM     62  N   UNL A   1      41.378  26.901  29.407  1.00  0.00    -0.248 NA
ATOM     63  C   UNL A   1      39.286  26.724  28.527  1.00  0.00     0.031 C 
ATOM     64  C   UNL A   1      44.856  25.486  29.485  1.00  0.00     0.029 A 
ATOM     65  C   UNL A   1      44.044  25.920  28.447  1.00  0.00     0.049 A 
ATOM     66  H   UNL A   1      44.550  27.284  26.910  1.00  0.00     0.167 HD
ATOM     67  C   UNL A   1      41.525  26.024  28.369  1.00  0.00     0.074 A 
ATOM     68  C   UNL A   1      40.148  25.906  27.884  1.00  0.00     0.031 C 
ATOM     69  C   UNL A   1      42.723  25.485  27.932  1.00  0.00     0.034 A 
BRANCH  56  70
ATOM     70  C   UNL A   1      48.633  27.643  27.487  1.00  0.00     0.023 A 
ATOM     71  C   UNL A   1      49.240  27.786  26.224  1.00  0.00     0.031 A 
ATOM     72  C   UNL A   1      49.493  27.212  28.524  1.00  0.00     0.131 A 
ATOM     73  C   UNL A   1      50.578  27.385  26.010  1.00  0.00     0.055 A 
ATOM     74  C   UNL A   1      50.795  26.746  28.299  1.00  0.00     0.041 A 
ATOM     75  F   UNL A   1      49.093  27.235  29.808  1.00  0.00    -0.206 F 
ATOM     76  C   UNL A   1      51.339  26.813  27.027  1.00  0.00     0.022 A 
BRANCH  73  77
ATOM     77  S   UNL A   1      51.346  27.664  24.386  1.00  0.00     0.124 S 
ATOM     78  O   UNL A   1      51.025  29.062  24.122  1.00  0.00    -0.237 OA
ATOM     79  O   UNL A   1      52.748  27.362  24.652  1.00  0.00    -0.237 OA
ATOM     80  O   UNL A   1      50.667  26.703  23.517  1.00  0.00    -0.744 OA
ENDBRANCH  73  77
ENDBRANCH  56  70
BRANCH  57  81
ATOM     81  C   UNL A   1      38.782  29.706  30.258  1.00  0.00     0.023 A 
ATOM     82  C   UNL A   1      38.118  30.209  31.412  1.00  0.00     0.031 A 
ATOM     83  C   UNL A   1      38.780  30.513  29.118  1.00  0.00     0.131 A 
ATOM     84  C   UNL A   1      37.664  31.536  31.460  1.00  0.00     0.055 A 
ATOM     85  C   UNL A   1      38.325  31.838  29.172  1.00  0.00     0.041 A 
ATOM     86  F   UNL A   1      39.381  30.102  27.993  1.00  0.00    -0.206 F 
ATOM     87  C   UNL A   1      37.809  32.369  30.356  1.00  0.00     0.022 A 
BRANCH  84  88
ATOM     88  S   UNL A   1      37.069  32.220  33.040  1.00  0.00     0.124 S 
ATOM     89  O   UNL A   1      37.535  33.605  32.952  1.00  0.00    -0.237 OA
ATOM     90  O   UNL A   1      35.632  32.020  32.937  1.00  0.00    -0.237 OA
ATOM     91  O   UNL A   1      37.748  31.401  34.042  1.00  0.00    -0.744 OA
ENDBRANCH  84  88
ENDBRANCH  57  81
BRANCH  69  92
ATOM     92  C   UNL A   1      42.732  24.362  26.917  1.00  0.00     0.023 A 
ATOM     93  C   UNL A   1      42.147  23.125  27.211  1.00  0.00     0.031 A 
ATOM     94  C   UNL A   1      43.388  24.461  25.670  1.00  0.00     0.131 A 
ATOM     95  C   UNL A   1      42.055  22.127  26.231  1.00  0.00     0.055 A 
ATOM     96  C   UNL A   1      43.403  23.418  24.742  1.00  0.00     0.041 A 
ATOM     97  F   UNL A   1      44.006  25.584  25.279  1.00  0.00    -0.206 F 
ATOM     98  C   UNL A   1      42.697  22.253  25.003  1.00  0.00     0.022 A 
BRANCH  95  99
ATOM     99  S   UNL A   1      40.924  20.752  26.547  1.00  0.00     0.124 S 
ATOM    100  O   UNL A   1      40.857  20.724  28.004  1.00  0.00    -0.237 OA
ATOM    101  O   UNL A   1      39.714  21.210  25.865  1.00  0.00    -0.237 OA
ATOM    102  O   UNL A   1      41.590  19.610  25.925  1.00  0.00    -0.744 OA
ENDBRANCH  95  99
ENDBRANCH  69  92
ENDBRANCH  43  44
ENDBRANCH  36  38
ENDBRANCH  35  36
ENDBRANCH  34  35
ENDBRANCH  33  34
ENDBRANCH  32  33
ENDBRANCH  31  32
ENDBRANCH  30  31
ENDBRANCH  29  30
ENDBRANCH   1  29
TORSDOF 27
ENDMDL
