MODEL 1
REMARK VINA RESULT:     -10.6      0.000      0.000
REMARK SMILES O=C(OCCOCCOCCOCCOC(=O)c1nsc2c1N=C(O)C[C@@H]2c1ccc(F)cc1Cl)c1ccc(-c2c3nc(c(-c4cc(S(=O)(=O)[O-])ccc4F)c4ccc([nH]4)c(-c4cc(S(=O)(=O)[O-])ccc4F)c4nc(c(-c5cc(S(=O)(=O)[O-])ccc5F)c5ccc2[nH]5)C=C4)C=C3)cc1
REMARK SMILES IDX 8 1 7 2 6 3 5 4 4 5 3 6 2 7 1 8 36 9 37 10 98 11 38 12 97 13
REMARK SMILES IDX 39 14 40 15 41 16 91 17 42 18 96 19 90 20 92 21 43 22 95 23
REMARK SMILES IDX 89 24 88 25 44 27 76 28 56 29 75 30 57 31 60 32 74 33 93 34
REMARK SMILES IDX 58 35 59 36 73 38 94 39 61 40 45 41 46 42 54 43 47 44 53 45
REMARK SMILES IDX 55 46 52 47 48 48 49 49 50 50 51 51 77 52 78 53 86 54 79 55
REMARK SMILES IDX 85 56 87 57 84 58 80 59 81 60 82 61 83 62 62 63 63 64 71 65
REMARK SMILES IDX 64 66 70 67 72 68 69 69 65 70 66 71 67 72 68 73 9 74 10 75
REMARK SMILES IDX 11 76 12 77 13 78 14 79 15 80 16 81 17 82 18 83 19 84 22 85
REMARK SMILES IDX 20 86 21 87 23 88 27 89 24 90 26 91 28 92 29 93 34 94 30 95
REMARK SMILES IDX 33 96 35 97 31 98 32 99 25 100
REMARK H PARENT 92 26 60 37 25 101
REMARK Flexibility Score: inf
ROOT
ATOM      1  C   UNL A   1      35.738  24.445  25.802  1.00  0.00     0.188 C 
ENDROOT
BRANCH   1   2
ATOM      2  C   UNL A   1      36.794  23.780  24.904  1.00  0.00     0.188 C 
BRANCH   2   3
ATOM      3  O   UNL A   1      36.805  22.405  24.550  1.00  0.00    -0.376 OA
BRANCH   3   4
ATOM      4  C   UNL A   1      37.795  21.444  24.849  1.00  0.00     0.202 C 
BRANCH   4   5
ATOM      5  C   UNL A   1      38.651  21.452  26.118  1.00  0.00     0.261 C 
BRANCH   5   6
ATOM      6  O   UNL A   1      39.625  22.484  26.201  1.00  0.00    -0.460 OA
BRANCH   6   7
ATOM      7  C   UNL A   1      40.376  22.877  27.249  1.00  0.00     0.338 C 
ATOM      8  O   UNL A   1      40.710  22.011  28.060  1.00  0.00    -0.246 OA
BRANCH   7   9
ATOM      9  C   UNL A   1      40.769  24.286  27.533  1.00  0.00     0.060 A 
ATOM     10  C   UNL A   1      41.797  24.712  28.377  1.00  0.00     0.016 A 
ATOM     11  C   UNL A   1      39.991  25.261  26.878  1.00  0.00     0.016 A 
ATOM     12  C   UNL A   1      41.909  26.046  28.724  1.00  0.00     0.010 A 
ATOM     13  C   UNL A   1      40.126  26.602  27.186  1.00  0.00     0.010 A 
ATOM     14  C   UNL A   1      41.026  26.968  28.178  1.00  0.00    -0.014 A 
BRANCH  14  15
ATOM     15  C   UNL A   1      41.070  28.315  28.707  1.00  0.00     0.031 A 
ATOM     16  C   UNL A   1      42.189  29.159  28.233  1.00  0.00     0.074 A 
ATOM     17  C   UNL A   1      40.116  28.761  29.546  1.00  0.00     0.049 A 
ATOM     18  N   UNL A   1      43.145  29.676  28.931  1.00  0.00    -0.248 NA
ATOM     19  C   UNL A   1      42.331  29.353  26.783  1.00  0.00     0.031 C 
ATOM     20  C   UNL A   1      38.856  28.100  29.894  1.00  0.00     0.029 A 
ATOM     21  N   UNL A   1      40.021  29.966  30.168  1.00  0.00    -0.354 N 
ATOM     22  C   UNL A   1      43.886  30.452  28.045  1.00  0.00     0.074 A 
ATOM     23  C   UNL A   1      43.448  30.078  26.726  1.00  0.00     0.031 C 
ATOM     24  C   UNL A   1      38.025  29.004  30.455  1.00  0.00     0.029 A 
ATOM     25  C   UNL A   1      38.740  30.259  30.619  1.00  0.00     0.049 A 
ATOM     26  H   UNL A   1      40.786  30.573  30.290  1.00  0.00     0.167 HD
ATOM     27  C   UNL A   1      44.635  31.502  28.480  1.00  0.00     0.034 A 
ATOM     28  C   UNL A   1      38.272  31.472  31.007  1.00  0.00     0.034 A 
ATOM     29  C   UNL A   1      44.920  31.391  29.893  1.00  0.00     0.049 A 
ATOM     30  C   UNL A   1      39.445  32.292  31.400  1.00  0.00     0.074 A 
ATOM     31  C   UNL A   1      45.542  30.442  30.682  1.00  0.00     0.029 A 
ATOM     32  N   UNL A   1      44.234  32.202  30.770  1.00  0.00    -0.354 N 
ATOM     33  N   UNL A   1      40.199  32.018  32.429  1.00  0.00    -0.248 NA
ATOM     34  C   UNL A   1      40.066  33.141  30.394  1.00  0.00     0.031 C 
ATOM     35  C   UNL A   1      44.800  30.426  31.898  1.00  0.00     0.029 A 
ATOM     36  C   UNL A   1      43.813  31.409  31.810  1.00  0.00     0.049 A 
ATOM     37  H   UNL A   1      44.075  33.168  30.671  1.00  0.00     0.167 HD
ATOM     38  C   UNL A   1      41.493  32.278  32.008  1.00  0.00     0.074 A 
ATOM     39  C   UNL A   1      41.341  33.074  30.793  1.00  0.00     0.031 C 
ATOM     40  C   UNL A   1      42.560  31.592  32.519  1.00  0.00     0.034 A 
BRANCH  27  41
ATOM     41  C   UNL A   1      44.805  32.801  27.723  1.00  0.00     0.023 A 
ATOM     42  C   UNL A   1      44.093  33.920  28.198  1.00  0.00     0.031 A 
ATOM     43  C   UNL A   1      45.356  32.932  26.427  1.00  0.00     0.131 A 
ATOM     44  C   UNL A   1      43.848  35.027  27.368  1.00  0.00     0.055 A 
ATOM     45  C   UNL A   1      45.174  34.070  25.635  1.00  0.00     0.041 A 
ATOM     46  F   UNL A   1      46.015  31.943  25.814  1.00  0.00    -0.206 F 
ATOM     47  C   UNL A   1      44.384  35.110  26.087  1.00  0.00     0.022 A 
BRANCH  44  48
ATOM     48  S   UNL A   1      42.641  36.258  27.923  1.00  0.00     0.124 S 
ATOM     49  O   UNL A   1      41.385  35.638  27.514  1.00  0.00    -0.237 OA
ATOM     50  O   UNL A   1      42.900  36.306  29.358  1.00  0.00    -0.237 OA
ATOM     51  O   UNL A   1      43.017  37.459  27.179  1.00  0.00    -0.744 OA
ENDBRANCH  44  48
ENDBRANCH  27  41
BRANCH  28  52
ATOM     52  C   UNL A   1      36.917  32.014  30.724  1.00  0.00     0.023 A 
ATOM     53  C   UNL A   1      36.177  32.739  31.677  1.00  0.00     0.031 A 
ATOM     54  C   UNL A   1      36.409  32.001  29.403  1.00  0.00     0.131 A 
ATOM     55  C   UNL A   1      34.985  33.397  31.298  1.00  0.00     0.055 A 
ATOM     56  C   UNL A   1      35.222  32.637  29.039  1.00  0.00     0.041 A 
ATOM     57  F   UNL A   1      37.094  31.437  28.396  1.00  0.00    -0.206 F 
ATOM     58  C   UNL A   1      34.507  33.346  29.986  1.00  0.00     0.022 A 
BRANCH  55  59
ATOM     59  S   UNL A   1      34.085  34.428  32.500  1.00  0.00     0.124 S 
ATOM     60  O   UNL A   1      35.074  35.447  32.834  1.00  0.00    -0.237 OA
ATOM     61  O   UNL A   1      32.930  34.872  31.728  1.00  0.00    -0.237 OA
ATOM     62  O   UNL A   1      33.774  33.494  33.583  1.00  0.00    -0.744 OA
ENDBRANCH  55  59
ENDBRANCH  28  52
BRANCH  40  63
ATOM     63  C   UNL A   1      42.363  30.770  33.776  1.00  0.00     0.023 A 
ATOM     64  C   UNL A   1      42.038  29.395  33.795  1.00  0.00     0.031 A 
ATOM     65  C   UNL A   1      42.651  31.388  35.006  1.00  0.00     0.131 A 
ATOM     66  C   UNL A   1      41.998  28.697  35.018  1.00  0.00     0.055 A 
ATOM     67  C   UNL A   1      42.629  30.690  36.213  1.00  0.00     0.041 A 
ATOM     68  F   UNL A   1      43.000  32.685  35.052  1.00  0.00    -0.206 F 
ATOM     69  C   UNL A   1      42.296  29.341  36.223  1.00  0.00     0.022 A 
BRANCH  66  70
ATOM     70  S   UNL A   1      41.552  26.931  35.067  1.00  0.00     0.124 S 
ATOM     71  O   UNL A   1      41.157  26.715  36.453  1.00  0.00    -0.237 OA
ATOM     72  O   UNL A   1      40.482  26.849  34.075  1.00  0.00    -0.237 OA
ATOM     73  O   UNL A   1      42.792  26.258  34.676  1.00  0.00    -0.744 OA
ENDBRANCH  66  70
ENDBRANCH  40  63
ENDBRANCH  14  15
ENDBRANCH   7   9
ENDBRANCH   6   7
ENDBRANCH   5   6
ENDBRANCH   4   5
ENDBRANCH   3   4
ENDBRANCH   2   3
ENDBRANCH   1   2
BRANCH   1  74
ATOM     74  O   UNL A   1      34.723  25.168  25.128  1.00  0.00    -0.377 OA
BRANCH  74  75
ATOM     75  C   UNL A   1      34.439  26.434  25.683  1.00  0.00     0.188 C 
BRANCH  75  76
ATOM     76  C   UNL A   1      33.015  26.949  25.399  1.00  0.00     0.188 C 
BRANCH  76  77
ATOM     77  O   UNL A   1      32.737  28.087  24.587  1.00  0.00    -0.376 OA
BRANCH  77  78
ATOM     78  C   UNL A   1      31.511  28.787  24.681  1.00  0.00     0.202 C 
BRANCH  78  79
ATOM     79  C   UNL A   1      30.386  28.368  23.727  1.00  0.00     0.261 C 
BRANCH  79  80
ATOM     80  O   UNL A   1      30.460  27.019  23.259  1.00  0.00    -0.458 OA
BRANCH  80  81
ATOM     81  C   UNL A   1      29.645  26.118  23.879  1.00  0.00     0.360 C 
ATOM     82  O   UNL A   1      28.416  26.181  23.882  1.00  0.00    -0.244 OA
BRANCH  81  83
ATOM     83  C   UNL A   1      30.400  25.015  24.485  1.00  0.00     0.188 A 
ATOM     84  N   UNL A   1      30.289  24.764  25.802  1.00  0.00    -0.183 NA
ATOM     85  C   UNL A   1      31.299  24.135  23.802  1.00  0.00     0.116 A 
ATOM     86  S   UNL A   1      31.238  23.466  26.207  1.00  0.00    -0.038 S 
ATOM     87  C   UNL A   1      31.871  23.219  24.652  1.00  0.00     0.060 A 
ATOM     88  N   UNL A   1      31.652  24.247  22.451  1.00  0.00    -0.214 NA
ATOM     89  C   UNL A   1      33.000  22.321  24.305  1.00  0.00     0.074 C 
ATOM     90  C   UNL A   1      32.755  23.654  22.142  1.00  0.00     0.187 C 
ATOM     91  C   UNL A   1      33.703  22.926  23.068  1.00  0.00     0.111 C 
BRANCH  89  92
ATOM     92  C   UNL A   1      32.807  20.807  24.176  1.00  0.00    -0.020 A 
ATOM     93  C   UNL A   1      33.211  20.064  25.320  1.00  0.00     0.009 A 
ATOM     94  C   UNL A   1      32.290  20.073  23.092  1.00  0.00     0.047 A 
ATOM     95  C   UNL A   1      33.114  18.675  25.380  1.00  0.00     0.039 A 
ATOM     96  C   UNL A   1      32.171  18.674  23.167  1.00  0.00     0.060 A 
ATOM     97  Cl  UNL A   1      31.782  20.778  21.603  1.00  0.00    -0.084 Cl
ATOM     98  C   UNL A   1      32.585  17.992  24.302  1.00  0.00     0.124 A 
ATOM     99  F   UNL A   1      32.476  16.658  24.358  1.00  0.00    -0.207 F 
ENDBRANCH  89  92
BRANCH  90 100
ATOM    100  O   UNL A   1      33.201  23.767  20.875  1.00  0.00    -0.496 OA
ATOM    101  H   UNL A   1      32.698  24.239  20.242  1.00  0.00     0.294 HD
ENDBRANCH  90 100
ENDBRANCH  81  83
ENDBRANCH  80  81
ENDBRANCH  79  80
ENDBRANCH  78  79
ENDBRANCH  77  78
ENDBRANCH  76  77
ENDBRANCH  75  76
ENDBRANCH  74  75
ENDBRANCH   1  74
TORSDOF 25
ENDMDL
MODEL 2
REMARK VINA RESULT:     -10.2      3.135      7.817
REMARK SMILES O=C(OCCOCCOCCOCCOC(=O)c1nsc2c1N=C(O)C[C@@H]2c1ccc(F)cc1Cl)c1ccc(-c2c3nc(c(-c4cc(S(=O)(=O)[O-])ccc4F)c4ccc([nH]4)c(-c4cc(S(=O)(=O)[O-])ccc4F)c4nc(c(-c5cc(S(=O)(=O)[O-])ccc5F)c5ccc2[nH]5)C=C4)C=C3)cc1
REMARK SMILES IDX 8 1 7 2 6 3 5 4 4 5 3 6 2 7 1 8 36 9 37 10 98 11 38 12 97 13
REMARK SMILES IDX 39 14 40 15 41 16 91 17 42 18 96 19 90 20 92 21 43 22 95 23
REMARK SMILES IDX 89 24 88 25 44 27 76 28 56 29 75 30 57 31 60 32 74 33 93 34
REMARK SMILES IDX 58 35 59 36 73 38 94 39 61 40 45 41 46 42 54 43 47 44 53 45
REMARK SMILES IDX 55 46 52 47 48 48 49 49 50 50 51 51 77 52 78 53 86 54 79 55
REMARK SMILES IDX 85 56 87 57 84 58 80 59 81 60 82 61 83 62 62 63 63 64 71 65
REMARK SMILES IDX 64 66 70 67 72 68 69 69 65 70 66 71 67 72 68 73 9 74 10 75
REMARK SMILES IDX 11 76 12 77 13 78 14 79 15 80 16 81 17 82 18 83 19 84 22 85
REMARK SMILES IDX 20 86 21 87 23 88 27 89 24 90 26 91 28 92 29 93 34 94 30 95
REMARK SMILES IDX 33 96 35 97 31 98 32 99 25 100
REMARK H PARENT 92 26 60 37 25 101
REMARK Flexibility Score: inf
ROOT
ATOM      1  C   UNL A   1      36.083  22.935  24.645  1.00  0.00     0.188 C 
ENDROOT
BRANCH   1   2
ATOM      2  C   UNL A   1      37.484  22.993  25.276  1.00  0.00     0.188 C 
BRANCH   2   3
ATOM      3  O   UNL A   1      38.371  21.890  25.382  1.00  0.00    -0.376 OA
BRANCH   3   4
ATOM      4  C   UNL A   1      39.341  21.654  26.380  1.00  0.00     0.202 C 
BRANCH   4   5
ATOM      5  C   UNL A   1      40.411  22.665  26.801  1.00  0.00     0.261 C 
BRANCH   5   6
ATOM      6  O   UNL A   1      39.932  23.944  27.196  1.00  0.00    -0.460 OA
BRANCH   6   7
ATOM      7  C   UNL A   1      40.224  25.163  26.701  1.00  0.00     0.338 C 
ATOM      8  O   UNL A   1      40.642  25.217  25.543  1.00  0.00    -0.246 OA
BRANCH   7   9
ATOM      9  C   UNL A   1      40.145  26.435  27.474  1.00  0.00     0.060 A 
ATOM     10  C   UNL A   1      40.370  27.724  26.985  1.00  0.00     0.016 A 
ATOM     11  C   UNL A   1      39.824  26.281  28.837  1.00  0.00     0.016 A 
ATOM     12  C   UNL A   1      40.484  28.792  27.856  1.00  0.00     0.010 A 
ATOM     13  C   UNL A   1      39.892  27.352  29.709  1.00  0.00     0.010 A 
ATOM     14  C   UNL A   1      40.314  28.581  29.218  1.00  0.00    -0.014 A 
BRANCH  14  15
ATOM     15  C   UNL A   1      40.618  29.689  30.100  1.00  0.00     0.031 A 
ATOM     16  C   UNL A   1      39.466  30.519  30.516  1.00  0.00     0.074 A 
ATOM     17  C   UNL A   1      41.875  29.905  30.532  1.00  0.00     0.049 A 
ATOM     18  N   UNL A   1      39.259  31.770  30.271  1.00  0.00    -0.248 NA
ATOM     19  C   UNL A   1      38.345  29.844  31.184  1.00  0.00     0.031 C 
ATOM     20  C   UNL A   1      43.034  29.024  30.374  1.00  0.00     0.029 A 
ATOM     21  N   UNL A   1      42.347  30.908  31.318  1.00  0.00    -0.354 N 
ATOM     22  C   UNL A   1      38.090  32.101  30.950  1.00  0.00     0.074 A 
ATOM     23  C   UNL A   1      37.489  30.853  31.340  1.00  0.00     0.031 C 
ATOM     24  C   UNL A   1      43.997  29.404  31.241  1.00  0.00     0.029 A 
ATOM     25  C   UNL A   1      43.570  30.620  31.911  1.00  0.00     0.049 A 
ATOM     26  H   UNL A   1      41.871  31.759  31.452  1.00  0.00     0.167 HD
ATOM     27  C   UNL A   1      37.833  33.383  31.332  1.00  0.00     0.034 A 
ATOM     28  C   UNL A   1      44.144  31.278  32.950  1.00  0.00     0.034 A 
ATOM     29  C   UNL A   1      38.622  34.324  30.570  1.00  0.00     0.049 A 
ATOM     30  C   UNL A   1      43.561  32.642  32.984  1.00  0.00     0.074 A 
ATOM     31  C   UNL A   1      38.754  34.606  29.223  1.00  0.00     0.029 A 
ATOM     32  N   UNL A   1      39.704  34.922  31.176  1.00  0.00    -0.354 N 
ATOM     33  N   UNL A   1      43.750  33.527  32.043  1.00  0.00    -0.248 NA
ATOM     34  C   UNL A   1      42.392  32.876  33.819  1.00  0.00     0.031 C 
ATOM     35  C   UNL A   1      40.135  34.903  29.041  1.00  0.00     0.029 A 
ATOM     36  C   UNL A   1      40.753  34.853  30.291  1.00  0.00     0.049 A 
ATOM     37  H   UNL A   1      39.724  35.323  32.074  1.00  0.00     0.167 HD
ATOM     38  C   UNL A   1      42.525  34.155  31.887  1.00  0.00     0.074 A 
ATOM     39  C   UNL A   1      41.763  33.797  33.081  1.00  0.00     0.031 C 
ATOM     40  C   UNL A   1      42.138  34.672  30.682  1.00  0.00     0.034 A 
BRANCH  27  41
ATOM     41  C   UNL A   1      37.149  33.766  32.626  1.00  0.00     0.023 A 
ATOM     42  C   UNL A   1      37.889  33.613  33.815  1.00  0.00     0.031 A 
ATOM     43  C   UNL A   1      35.760  33.969  32.793  1.00  0.00     0.131 A 
ATOM     44  C   UNL A   1      37.247  33.538  35.062  1.00  0.00     0.055 A 
ATOM     45  C   UNL A   1      35.136  33.971  34.045  1.00  0.00     0.041 A 
ATOM     46  F   UNL A   1      34.912  34.080  31.765  1.00  0.00    -0.206 F 
ATOM     47  C   UNL A   1      35.873  33.715  35.186  1.00  0.00     0.022 A 
BRANCH  44  48
ATOM     48  S   UNL A   1      38.219  32.994  36.491  1.00  0.00     0.124 S 
ATOM     49  O   UNL A   1      37.303  32.050  37.123  1.00  0.00    -0.237 OA
ATOM     50  O   UNL A   1      39.396  32.419  35.849  1.00  0.00    -0.237 OA
ATOM     51  O   UNL A   1      38.452  34.231  37.231  1.00  0.00    -0.744 OA
ENDBRANCH  44  48
ENDBRANCH  27  41
BRANCH  28  52
ATOM     52  C   UNL A   1      44.900  30.652  34.066  1.00  0.00     0.023 A 
ATOM     53  C   UNL A   1      44.410  29.548  34.788  1.00  0.00     0.031 A 
ATOM     54  C   UNL A   1      46.247  31.018  34.304  1.00  0.00     0.131 A 
ATOM     55  C   UNL A   1      45.247  28.871  35.705  1.00  0.00     0.055 A 
ATOM     56  C   UNL A   1      47.062  30.358  35.224  1.00  0.00     0.041 A 
ATOM     57  F   UNL A   1      46.846  31.982  33.587  1.00  0.00    -0.206 F 
ATOM     58  C   UNL A   1      46.567  29.274  35.924  1.00  0.00     0.022 A 
BRANCH  55  59
ATOM     59  S   UNL A   1      44.653  27.375  36.556  1.00  0.00     0.124 S 
ATOM     60  O   UNL A   1      43.607  27.907  37.422  1.00  0.00    -0.237 OA
ATOM     61  O   UNL A   1      44.214  26.537  35.446  1.00  0.00    -0.237 OA
ATOM     62  O   UNL A   1      45.842  26.888  37.256  1.00  0.00    -0.744 OA
ENDBRANCH  55  59
ENDBRANCH  28  52
BRANCH  40  63
ATOM     63  C   UNL A   1      43.181  34.844  29.595  1.00  0.00     0.023 A 
ATOM     64  C   UNL A   1      43.418  33.916  28.556  1.00  0.00     0.031 A 
ATOM     65  C   UNL A   1      43.867  36.070  29.543  1.00  0.00     0.131 A 
ATOM     66  C   UNL A   1      44.326  34.230  27.525  1.00  0.00     0.055 A 
ATOM     67  C   UNL A   1      44.750  36.385  28.512  1.00  0.00     0.041 A 
ATOM     68  F   UNL A   1      43.658  37.008  30.483  1.00  0.00    -0.206 F 
ATOM     69  C   UNL A   1      44.988  35.461  27.501  1.00  0.00     0.022 A 
BRANCH  66  70
ATOM     70  S   UNL A   1      44.670  33.035  26.194  1.00  0.00     0.124 S 
ATOM     71  O   UNL A   1      44.186  31.771  26.733  1.00  0.00    -0.237 OA
ATOM     72  O   UNL A   1      43.912  33.586  25.073  1.00  0.00    -0.237 OA
ATOM     73  O   UNL A   1      46.124  33.113  26.037  1.00  0.00    -0.744 OA
ENDBRANCH  66  70
ENDBRANCH  40  63
ENDBRANCH  14  15
ENDBRANCH   7   9
ENDBRANCH   6   7
ENDBRANCH   5   6
ENDBRANCH   4   5
ENDBRANCH   3   4
ENDBRANCH   2   3
ENDBRANCH   1   2
BRANCH   1  74
ATOM     74  O   UNL A   1      35.240  24.041  24.912  1.00  0.00    -0.377 OA
BRANCH  74  75
ATOM     75  C   UNL A   1      34.571  23.981  26.153  1.00  0.00     0.188 C 
BRANCH  75  76
ATOM     76  C   UNL A   1      34.499  22.571  26.770  1.00  0.00     0.188 C 
BRANCH  76  77
ATOM     77  O   UNL A   1      33.432  21.658  26.526  1.00  0.00    -0.376 OA
BRANCH  77  78
ATOM     78  C   UNL A   1      33.665  20.368  25.992  1.00  0.00     0.202 C 
BRANCH  78  79
ATOM     79  C   UNL A   1      33.299  20.139  24.520  1.00  0.00     0.261 C 
BRANCH  79  80
ATOM     80  O   UNL A   1      33.454  21.282  23.674  1.00  0.00    -0.458 OA
BRANCH  80  81
ATOM     81  C   UNL A   1      32.326  21.734  23.055  1.00  0.00     0.360 C 
ATOM     82  O   UNL A   1      31.767  21.158  22.123  1.00  0.00    -0.244 OA
BRANCH  81  83
ATOM     83  C   UNL A   1      31.807  22.958  23.678  1.00  0.00     0.188 A 
ATOM     84  N   UNL A   1      31.002  22.878  24.753  1.00  0.00    -0.183 NA
ATOM     85  C   UNL A   1      32.062  24.297  23.244  1.00  0.00     0.116 A 
ATOM     86  S   UNL A   1      30.578  24.403  25.249  1.00  0.00    -0.038 S 
ATOM     87  C   UNL A   1      31.413  25.225  24.021  1.00  0.00     0.060 A 
ATOM     88  N   UNL A   1      32.794  24.639  22.099  1.00  0.00    -0.214 NA
ATOM     89  C   UNL A   1      31.292  26.669  23.706  1.00  0.00     0.074 C 
ATOM     90  C   UNL A   1      32.559  25.827  21.656  1.00  0.00     0.187 C 
ATOM     91  C   UNL A   1      31.565  26.832  22.192  1.00  0.00     0.111 C 
BRANCH  89  92
ATOM     92  C   UNL A   1      32.014  27.733  24.539  1.00  0.00    -0.020 A 
ATOM     93  C   UNL A   1      33.165  27.259  25.228  1.00  0.00     0.009 A 
ATOM     94  C   UNL A   1      31.690  29.093  24.704  1.00  0.00     0.047 A 
ATOM     95  C   UNL A   1      33.942  28.085  26.037  1.00  0.00     0.039 A 
ATOM     96  C   UNL A   1      32.492  29.928  25.501  1.00  0.00     0.060 A 
ATOM     97  Cl  UNL A   1      30.318  29.854  23.989  1.00  0.00    -0.084 Cl
ATOM     98  C   UNL A   1      33.602  29.418  26.160  1.00  0.00     0.124 A 
ATOM     99  F   UNL A   1      34.353  30.220  26.926  1.00  0.00    -0.207 F 
ENDBRANCH  89  92
BRANCH  90 100
ATOM    100  O   UNL A   1      33.174  26.212  20.521  1.00  0.00    -0.496 OA
ATOM    101  H   UNL A   1      32.710  26.194  19.707  1.00  0.00     0.294 HD
ENDBRANCH  90 100
ENDBRANCH  81  83
ENDBRANCH  80  81
ENDBRANCH  79  80
ENDBRANCH  78  79
ENDBRANCH  77  78
ENDBRANCH  76  77
ENDBRANCH  75  76
ENDBRANCH  74  75
ENDBRANCH   1  74
TORSDOF 25
ENDMDL
MODEL 3
REMARK VINA RESULT:     -10.2      3.294      5.429
REMARK SMILES O=C(OCCOCCOCCOCCOC(=O)c1nsc2c1N=C(O)C[C@@H]2c1ccc(F)cc1Cl)c1ccc(-c2c3nc(c(-c4cc(S(=O)(=O)[O-])ccc4F)c4ccc([nH]4)c(-c4cc(S(=O)(=O)[O-])ccc4F)c4nc(c(-c5cc(S(=O)(=O)[O-])ccc5F)c5ccc2[nH]5)C=C4)C=C3)cc1
REMARK SMILES IDX 8 1 7 2 6 3 5 4 4 5 3 6 2 7 1 8 36 9 37 10 98 11 38 12 97 13
REMARK SMILES IDX 39 14 40 15 41 16 91 17 42 18 96 19 90 20 92 21 43 22 95 23
REMARK SMILES IDX 89 24 88 25 44 27 76 28 56 29 75 30 57 31 60 32 74 33 93 34
REMARK SMILES IDX 58 35 59 36 73 38 94 39 61 40 45 41 46 42 54 43 47 44 53 45
REMARK SMILES IDX 55 46 52 47 48 48 49 49 50 50 51 51 77 52 78 53 86 54 79 55
REMARK SMILES IDX 85 56 87 57 84 58 80 59 81 60 82 61 83 62 62 63 63 64 71 65
REMARK SMILES IDX 64 66 70 67 72 68 69 69 65 70 66 71 67 72 68 73 9 74 10 75
REMARK SMILES IDX 11 76 12 77 13 78 14 79 15 80 16 81 17 82 18 83 19 84 22 85
REMARK SMILES IDX 20 86 21 87 23 88 27 89 24 90 26 91 28 92 29 93 34 94 30 95
REMARK SMILES IDX 33 96 35 97 31 98 32 99 25 100
REMARK H PARENT 92 26 60 37 25 101
REMARK Flexibility Score: inf
ROOT
ATOM      1  C   UNL A   1      42.138  19.507  26.989  1.00  0.00     0.188 C 
ENDROOT
BRANCH   1   2
ATOM      2  C   UNL A   1      42.820  18.468  26.083  1.00  0.00     0.188 C 
BRANCH   2   3
ATOM      3  O   UNL A   1      44.223  18.340  25.912  1.00  0.00    -0.376 OA
BRANCH   3   4
ATOM      4  C   UNL A   1      45.002  18.769  24.815  1.00  0.00     0.202 C 
BRANCH   4   5
ATOM      5  C   UNL A   1      46.282  19.599  24.937  1.00  0.00     0.261 C 
BRANCH   5   6
ATOM      6  O   UNL A   1      46.204  20.932  24.449  1.00  0.00    -0.460 OA
BRANCH   6   7
ATOM      7  C   UNL A   1      45.120  21.689  24.182  1.00  0.00     0.338 C 
ATOM      8  O   UNL A   1      44.554  21.503  23.104  1.00  0.00    -0.246 OA
BRANCH   7   9
ATOM      9  C   UNL A   1      44.605  22.775  25.063  1.00  0.00     0.060 A 
ATOM     10  C   UNL A   1      43.674  23.758  24.718  1.00  0.00     0.016 A 
ATOM     11  C   UNL A   1      45.146  22.790  26.363  1.00  0.00     0.016 A 
ATOM     12  C   UNL A   1      43.453  24.836  25.556  1.00  0.00     0.010 A 
ATOM     13  C   UNL A   1      44.896  23.842  27.225  1.00  0.00     0.010 A 
ATOM     14  C   UNL A   1      44.121  24.902  26.772  1.00  0.00    -0.014 A 
BRANCH  14  15
ATOM     15  C   UNL A   1      43.994  26.130  27.528  1.00  0.00     0.031 A 
ATOM     16  C   UNL A   1      45.119  27.083  27.404  1.00  0.00     0.074 A 
ATOM     17  C   UNL A   1      42.892  26.382  28.259  1.00  0.00     0.049 A 
ATOM     18  N   UNL A   1      45.916  27.496  28.333  1.00  0.00    -0.248 NA
ATOM     19  C   UNL A   1      45.477  27.544  26.056  1.00  0.00     0.031 C 
ATOM     20  C   UNL A   1      41.637  25.626  28.268  1.00  0.00     0.029 A 
ATOM     21  N   UNL A   1      42.622  27.449  29.058  1.00  0.00    -0.354 N 
ATOM     22  C   UNL A   1      46.737  28.446  27.734  1.00  0.00     0.074 A 
ATOM     23  C   UNL A   1      46.541  28.305  26.316  1.00  0.00     0.031 C 
ATOM     24  C   UNL A   1      40.672  26.383  28.831  1.00  0.00     0.029 A 
ATOM     25  C   UNL A   1      41.269  27.610  29.330  1.00  0.00     0.049 A 
ATOM     26  H   UNL A   1      43.318  28.049  29.411  1.00  0.00     0.167 HD
ATOM     27  C   UNL A   1      47.339  29.423  28.467  1.00  0.00     0.034 A 
ATOM     28  C   UNL A   1      40.669  28.715  29.840  1.00  0.00     0.034 A 
ATOM     29  C   UNL A   1      47.401  29.065  29.865  1.00  0.00     0.049 A 
ATOM     30  C   UNL A   1      41.710  29.488  30.562  1.00  0.00     0.074 A 
ATOM     31  C   UNL A   1      47.949  28.009  30.569  1.00  0.00     0.029 A 
ATOM     32  N   UNL A   1      46.534  29.678  30.743  1.00  0.00    -0.354 N 
ATOM     33  N   UNL A   1      42.306  29.056  31.640  1.00  0.00    -0.248 NA
ATOM     34  C   UNL A   1      42.428  30.528  29.840  1.00  0.00     0.031 C 
ATOM     35  C   UNL A   1      47.024  27.746  31.621  1.00  0.00     0.029 A 
ATOM     36  C   UNL A   1      46.003  28.694  31.542  1.00  0.00     0.049 A 
ATOM     37  H   UNL A   1      46.331  30.640  30.789  1.00  0.00     0.167 HD
ATOM     38  C   UNL A   1      43.632  29.433  31.495  1.00  0.00     0.074 A 
ATOM     39  C   UNL A   1      43.624  30.433  30.430  1.00  0.00     0.031 C 
ATOM     40  C   UNL A   1      44.645  28.701  32.050  1.00  0.00     0.034 A 
BRANCH  27  41
ATOM     41  C   UNL A   1      47.545  30.844  27.988  1.00  0.00     0.023 A 
ATOM     42  C   UNL A   1      46.391  31.588  27.672  1.00  0.00     0.031 A 
ATOM     43  C   UNL A   1      48.768  31.392  27.539  1.00  0.00     0.131 A 
ATOM     44  C   UNL A   1      46.468  32.726  26.851  1.00  0.00     0.055 A 
ATOM     45  C   UNL A   1      48.845  32.569  26.787  1.00  0.00     0.041 A 
ATOM     46  F   UNL A   1      49.946  30.783  27.714  1.00  0.00    -0.206 F 
ATOM     47  C   UNL A   1      47.688  33.222  26.405  1.00  0.00     0.022 A 
BRANCH  44  48
ATOM     48  S   UNL A   1      44.923  33.418  26.206  1.00  0.00     0.124 S 
ATOM     49  O   UNL A   1      45.259  34.834  26.104  1.00  0.00    -0.237 OA
ATOM     50  O   UNL A   1      44.775  32.698  24.947  1.00  0.00    -0.237 OA
ATOM     51  O   UNL A   1      43.945  33.080  27.239  1.00  0.00    -0.744 OA
ENDBRANCH  44  48
ENDBRANCH  27  41
BRANCH  28  52
ATOM     52  C   UNL A   1      39.345  29.253  29.432  1.00  0.00     0.023 A 
ATOM     53  C   UNL A   1      38.464  29.867  30.343  1.00  0.00     0.031 A 
ATOM     54  C   UNL A   1      39.014  29.358  28.060  1.00  0.00     0.131 A 
ATOM     55  C   UNL A   1      37.309  30.533  29.873  1.00  0.00     0.055 A 
ATOM     56  C   UNL A   1      37.863  30.001  27.603  1.00  0.00     0.041 A 
ATOM     57  F   UNL A   1      39.842  28.909  27.105  1.00  0.00    -0.206 F 
ATOM     58  C   UNL A   1      37.007  30.600  28.510  1.00  0.00     0.022 A 
BRANCH  55  59
ATOM     59  S   UNL A   1      36.228  31.423  31.035  1.00  0.00     0.124 S 
ATOM     60  O   UNL A   1      37.074  32.533  31.458  1.00  0.00    -0.237 OA
ATOM     61  O   UNL A   1      35.081  31.762  30.200  1.00  0.00    -0.237 OA
ATOM     62  O   UNL A   1      35.953  30.429  32.073  1.00  0.00    -0.744 OA
ENDBRANCH  55  59
ENDBRANCH  28  52
BRANCH  40  63
ATOM     63  C   UNL A   1      44.302  27.657  33.093  1.00  0.00     0.023 A 
ATOM     64  C   UNL A   1      43.984  27.941  34.440  1.00  0.00     0.031 A 
ATOM     65  C   UNL A   1      44.163  26.327  32.656  1.00  0.00     0.131 A 
ATOM     66  C   UNL A   1      43.559  26.906  35.297  1.00  0.00     0.055 A 
ATOM     67  C   UNL A   1      43.723  25.309  33.502  1.00  0.00     0.041 A 
ATOM     68  F   UNL A   1      44.415  25.999  31.378  1.00  0.00    -0.206 F 
ATOM     69  C   UNL A   1      43.426  25.594  34.829  1.00  0.00     0.022 A 
BRANCH  66  70
ATOM     70  S   UNL A   1      43.175  27.245  37.045  1.00  0.00     0.124 S 
ATOM     71  O   UNL A   1      42.353  28.448  36.989  1.00  0.00    -0.237 OA
ATOM     72  O   UNL A   1      42.492  26.022  37.460  1.00  0.00    -0.237 OA
ATOM     73  O   UNL A   1      44.494  27.437  37.650  1.00  0.00    -0.744 OA
ENDBRANCH  66  70
ENDBRANCH  40  63
ENDBRANCH  14  15
ENDBRANCH   7   9
ENDBRANCH   6   7
ENDBRANCH   5   6
ENDBRANCH   4   5
ENDBRANCH   3   4
ENDBRANCH   2   3
ENDBRANCH   1   2
BRANCH   1  74
ATOM     74  O   UNL A   1      41.514  20.590  26.322  1.00  0.00    -0.377 OA
BRANCH  74  75
ATOM     75  C   UNL A   1      40.119  20.454  26.162  1.00  0.00     0.188 C 
BRANCH  75  76
ATOM     76  C   UNL A   1      39.397  21.747  25.737  1.00  0.00     0.188 C 
BRANCH  76  77
ATOM     77  O   UNL A   1      38.240  22.256  26.395  1.00  0.00    -0.376 OA
BRANCH  77  78
ATOM     78  C   UNL A   1      37.751  23.559  26.138  1.00  0.00     0.202 C 
BRANCH  78  79
ATOM     79  C   UNL A   1      36.813  23.734  24.937  1.00  0.00     0.261 C 
BRANCH  79  80
ATOM     80  O   UNL A   1      36.551  22.540  24.195  1.00  0.00    -0.458 OA
BRANCH  80  81
ATOM     81  C   UNL A   1      35.459  21.818  24.576  1.00  0.00     0.360 C 
ATOM     82  O   UNL A   1      35.422  20.589  24.626  1.00  0.00    -0.244 OA
BRANCH  81  83
ATOM     83  C   UNL A   1      34.346  22.678  24.994  1.00  0.00     0.188 A 
ATOM     84  N   UNL A   1      33.863  22.596  26.248  1.00  0.00    -0.183 NA
ATOM     85  C   UNL A   1      33.670  23.638  24.176  1.00  0.00     0.116 A 
ATOM     86  S   UNL A   1      32.625  23.682  26.443  1.00  0.00    -0.038 S 
ATOM     87  C   UNL A   1      32.653  24.268  24.851  1.00  0.00     0.060 A 
ATOM     88  N   UNL A   1      33.925  23.846  22.814  1.00  0.00    -0.214 NA
ATOM     89  C   UNL A   1      31.630  25.145  24.230  1.00  0.00     0.074 C 
ATOM     90  C   UNL A   1      32.962  24.420  22.177  1.00  0.00     0.187 C 
ATOM     91  C   UNL A   1      31.609  24.825  22.717  1.00  0.00     0.111 C 
BRANCH  89  92
ATOM     92  C   UNL A   1      31.597  26.652  24.500  1.00  0.00    -0.020 A 
ATOM     93  C   UNL A   1      32.772  27.164  25.118  1.00  0.00     0.009 A 
ATOM     94  C   UNL A   1      30.575  27.577  24.217  1.00  0.00     0.047 A 
ATOM     95  C   UNL A   1      32.918  28.511  25.443  1.00  0.00     0.039 A 
ATOM     96  C   UNL A   1      30.736  28.940  24.523  1.00  0.00     0.060 A 
ATOM     97  Cl  UNL A   1      29.061  27.156  23.508  1.00  0.00    -0.084 Cl
ATOM     98  C   UNL A   1      31.898  29.391  25.133  1.00  0.00     0.124 A 
ATOM     99  F   UNL A   1      32.037  30.689  25.431  1.00  0.00    -0.207 F 
ENDBRANCH  89  92
BRANCH  90 100
ATOM    100  O   UNL A   1      33.101  24.599  20.849  1.00  0.00    -0.496 OA
ATOM    101  H   UNL A   1      33.322  23.875  20.298  1.00  0.00     0.294 HD
ENDBRANCH  90 100
ENDBRANCH  81  83
ENDBRANCH  80  81
ENDBRANCH  79  80
ENDBRANCH  78  79
ENDBRANCH  77  78
ENDBRANCH  76  77
ENDBRANCH  75  76
ENDBRANCH  74  75
ENDBRANCH   1  74
TORSDOF 25
ENDMDL
