MODEL 1
REMARK VINA RESULT:      -9.4      0.000      0.000
REMARK SMILES Cc1ccc(NC(=O)NC2(C(=O)OCCOCCOCCOCCOC(=O)c3ccc(-c4c5nc(c(-c6cc(S(=O)(=O)[O-])ccc6F)c6ccc([nH]6)c(-c6cc(S(=O)(=O)[O-])ccc6F)c6nc(c(-c7cc(S(=O)(=O)[O-])ccc7F)c7ccc4[nH]7)C=C6)C=C5)cc3)CC2)c(C)n1
REMARK SMILES IDX 20 1 19 2 18 3 17 4 16 5 15 6 14 7 13 8 11 9 12 10 10 11
REMARK SMILES IDX 91 12 92 13 9 14 6 15 7 16 8 18 5 20 1 21 2 22 3 23 95 24
REMARK SMILES IDX 4 25 93 26 94 27 21 28 22 29 23 30 24 31 25 32 26 33 27 34
REMARK SMILES IDX 28 35 29 36 90 37 30 38 89 39 31 40 32 41 33 42 83 43 34 44
REMARK SMILES IDX 88 45 82 46 84 47 35 48 87 49 81 50 80 51 36 53 68 54 48 55
REMARK SMILES IDX 67 56 49 57 52 58 66 59 85 60 50 61 51 62 65 64 86 65 53 66
REMARK SMILES IDX 37 67 38 68 46 69 39 70 45 71 47 72 44 73 40 74 41 75 42 76
REMARK SMILES IDX 43 77 69 78 70 79 78 80 71 81 77 82 79 83 76 84 72 85 73 86
REMARK SMILES IDX 74 87 75 88 54 89 55 90 63 91 56 92 62 93 64 94 61 95 57 96
REMARK SMILES IDX 58 97 59 98 60 99
REMARK H PARENT 6 17 9 19 84 52 52 63
REMARK Flexibility Score: inf
ROOT
ATOM      1  C   UNL A   1      42.108  21.753  27.000  1.00  0.00     0.188 C 
ENDROOT
BRANCH   1   2
ATOM      2  O   UNL A   1      41.076  22.544  26.451  1.00  0.00    -0.377 OA
BRANCH   2   3
ATOM      3  C   UNL A   1      39.911  22.815  27.196  1.00  0.00     0.188 C 
BRANCH   3   4
ATOM      4  C   UNL A   1      38.819  23.586  26.453  1.00  0.00     0.188 C 
BRANCH   4   5
ATOM      5  O   UNL A   1      37.755  22.870  25.840  1.00  0.00    -0.376 OA
BRANCH   5   6
ATOM      6  C   UNL A   1      36.873  23.566  24.965  1.00  0.00     0.202 C 
BRANCH   6   7
ATOM      7  C   UNL A   1      35.389  23.647  25.364  1.00  0.00     0.261 C 
BRANCH   7   8
ATOM      8  O   UNL A   1      34.808  22.385  25.760  1.00  0.00    -0.461 OA
BRANCH   8   9
ATOM      9  C   UNL A   1      33.716  22.414  26.570  1.00  0.00     0.331 C 
ATOM     10  O   UNL A   1      33.756  22.678  27.765  1.00  0.00    -0.249 OA
BRANCH   9  11
ATOM     11  C   UNL A   1      32.356  22.228  25.841  1.00  0.00     0.139 C 
ATOM     12  C   UNL A   1      32.491  20.956  24.953  1.00  0.00     0.043 C 
ATOM     13  C   UNL A   1      31.999  22.201  24.349  1.00  0.00     0.043 C 
BRANCH  11  14
ATOM     14  N   UNL A   1      31.213  22.345  26.694  1.00  0.00    -0.322 N 
ATOM     15  N   UNL A   1      30.135  24.478  26.317  1.00  0.00    -0.306 N 
ATOM     16  C   UNL A   1      30.273  23.270  26.867  1.00  0.00     0.320 C 
ATOM     17  H   UNL A   1      29.330  24.874  26.723  1.00  0.00     0.171 HD
ATOM     18  O   UNL A   1      29.394  22.979  27.697  1.00  0.00    -0.248 OA
ATOM     19  H   UNL A   1      31.096  21.566  27.284  1.00  0.00     0.166 HD
BRANCH  15  20
ATOM     20  C   UNL A   1      30.633  25.446  25.407  1.00  0.00     0.064 A 
ATOM     21  C   UNL A   1      31.621  28.591  22.696  1.00  0.00     0.067 C 
ATOM     22  C   UNL A   1      31.164  27.396  23.466  1.00  0.00     0.038 A 
ATOM     23  C   UNL A   1      29.860  27.190  23.849  1.00  0.00     0.025 A 
ATOM     24  N   UNL A   1      32.154  26.642  23.957  1.00  0.00    -0.256 NA
ATOM     25  C   UNL A   1      29.600  26.149  24.745  1.00  0.00     0.030 A 
ATOM     26  C   UNL A   1      31.911  25.898  25.070  1.00  0.00     0.061 A 
ATOM     27  C   UNL A   1      32.989  26.249  26.040  1.00  0.00     0.069 C 
ENDBRANCH  15  20
ENDBRANCH  11  14
ENDBRANCH   9  11
ENDBRANCH   8   9
ENDBRANCH   7   8
ENDBRANCH   6   7
ENDBRANCH   5   6
ENDBRANCH   4   5
ENDBRANCH   3   4
ENDBRANCH   2   3
ENDBRANCH   1   2
BRANCH   1  28
ATOM     28  C   UNL A   1      42.370  20.438  26.272  1.00  0.00     0.188 C 
BRANCH  28  29
ATOM     29  O   UNL A   1      43.289  20.471  25.176  1.00  0.00    -0.376 OA
BRANCH  29  30
ATOM     30  C   UNL A   1      44.143  21.603  25.018  1.00  0.00     0.202 C 
BRANCH  30  31
ATOM     31  C   UNL A   1      45.619  21.384  25.324  1.00  0.00     0.261 C 
BRANCH  31  32
ATOM     32  O   UNL A   1      46.168  22.534  25.987  1.00  0.00    -0.460 OA
BRANCH  32  33
ATOM     33  C   UNL A   1      46.255  23.637  25.213  1.00  0.00     0.338 C 
ATOM     34  O   UNL A   1      46.586  23.684  24.036  1.00  0.00    -0.246 OA
BRANCH  33  35
ATOM     35  C   UNL A   1      45.701  24.792  25.936  1.00  0.00     0.060 A 
ATOM     36  C   UNL A   1      45.174  25.836  25.167  1.00  0.00     0.016 A 
ATOM     37  C   UNL A   1      45.768  24.892  27.329  1.00  0.00     0.016 A 
ATOM     38  C   UNL A   1      44.776  27.016  25.779  1.00  0.00     0.010 A 
ATOM     39  C   UNL A   1      45.378  26.085  27.943  1.00  0.00     0.010 A 
ATOM     40  C   UNL A   1      44.931  27.166  27.163  1.00  0.00    -0.014 A 
BRANCH  40  41
ATOM     41  C   UNL A   1      44.827  28.525  27.738  1.00  0.00     0.031 A 
ATOM     42  C   UNL A   1      43.500  28.965  28.294  1.00  0.00     0.074 A 
ATOM     43  C   UNL A   1      45.911  29.309  27.842  1.00  0.00     0.049 A 
ATOM     44  N   UNL A   1      43.164  30.103  28.841  1.00  0.00    -0.248 NA
ATOM     45  C   UNL A   1      42.405  27.984  28.225  1.00  0.00     0.031 C 
ATOM     46  C   UNL A   1      47.259  28.944  27.406  1.00  0.00     0.029 A 
ATOM     47  N   UNL A   1      46.053  30.572  28.356  1.00  0.00    -0.354 N 
ATOM     48  C   UNL A   1      41.820  29.978  29.180  1.00  0.00     0.074 A 
ATOM     49  C   UNL A   1      41.394  28.668  28.736  1.00  0.00     0.031 C 
ATOM     50  C   UNL A   1      48.092  29.964  27.672  1.00  0.00     0.029 A 
ATOM     51  C   UNL A   1      47.330  31.068  28.252  1.00  0.00     0.049 A 
ATOM     52  H   UNL A   1      45.311  31.075  28.761  1.00  0.00     0.167 HD
ATOM     53  C   UNL A   1      41.021  30.871  29.812  1.00  0.00     0.034 A 
ATOM     54  C   UNL A   1      47.817  32.286  28.565  1.00  0.00     0.034 A 
ATOM     55  C   UNL A   1      41.468  32.177  30.233  1.00  0.00     0.049 A 
ATOM     56  C   UNL A   1      46.877  33.307  29.163  1.00  0.00     0.074 A 
ATOM     57  C   UNL A   1      40.749  33.169  30.875  1.00  0.00     0.029 A 
ATOM     58  N   UNL A   1      42.750  32.678  30.042  1.00  0.00    -0.354 N 
ATOM     59  N   UNL A   1      45.605  33.184  29.468  1.00  0.00    -0.248 NA
ATOM     60  C   UNL A   1      47.444  34.626  29.468  1.00  0.00     0.031 C 
ATOM     61  C   UNL A   1      41.568  34.295  30.994  1.00  0.00     0.029 A 
ATOM     62  C   UNL A   1      42.830  33.978  30.516  1.00  0.00     0.049 A 
ATOM     63  H   UNL A   1      43.494  32.182  29.630  1.00  0.00     0.167 HD
ATOM     64  C   UNL A   1      45.230  34.402  30.032  1.00  0.00     0.074 A 
ATOM     65  C   UNL A   1      46.417  35.234  30.040  1.00  0.00     0.031 C 
ATOM     66  C   UNL A   1      44.020  34.799  30.504  1.00  0.00     0.034 A 
BRANCH  53  67
ATOM     67  C   UNL A   1      39.576  30.486  30.022  1.00  0.00     0.023 A 
ATOM     68  C   UNL A   1      38.545  30.992  29.210  1.00  0.00     0.031 A 
ATOM     69  C   UNL A   1      39.220  29.623  31.074  1.00  0.00     0.131 A 
ATOM     70  C   UNL A   1      37.207  30.689  29.507  1.00  0.00     0.055 A 
ATOM     71  C   UNL A   1      37.894  29.256  31.310  1.00  0.00     0.041 A 
ATOM     72  F   UNL A   1      40.155  29.132  31.902  1.00  0.00    -0.206 F 
ATOM     73  C   UNL A   1      36.876  29.802  30.534  1.00  0.00     0.022 A 
BRANCH  70  74
ATOM     74  S   UNL A   1      35.898  31.591  28.633  1.00  0.00     0.124 S 
ATOM     75  O   UNL A   1      36.623  32.762  28.145  1.00  0.00    -0.237 OA
ATOM     76  O   UNL A   1      35.476  30.632  27.620  1.00  0.00    -0.237 OA
ATOM     77  O   UNL A   1      34.916  31.868  29.680  1.00  0.00    -0.744 OA
ENDBRANCH  70  74
ENDBRANCH  53  67
BRANCH  54  78
ATOM     78  C   UNL A   1      49.239  32.629  28.280  1.00  0.00     0.023 A 
ATOM     79  C   UNL A   1      49.642  33.067  27.009  1.00  0.00     0.031 A 
ATOM     80  C   UNL A   1      50.231  32.465  29.264  1.00  0.00     0.131 A 
ATOM     81  C   UNL A   1      51.003  33.276  26.740  1.00  0.00     0.055 A 
ATOM     82  C   UNL A   1      51.577  32.735  29.010  1.00  0.00     0.041 A 
ATOM     83  F   UNL A   1      49.904  32.042  30.496  1.00  0.00    -0.206 F 
ATOM     84  C   UNL A   1      51.971  33.128  27.736  1.00  0.00     0.022 A 
BRANCH  81  85
ATOM     85  S   UNL A   1      51.504  33.643  25.036  1.00  0.00     0.124 S 
ATOM     86  O   UNL A   1      52.833  34.209  25.233  1.00  0.00    -0.237 OA
ATOM     87  O   UNL A   1      51.451  32.324  24.415  1.00  0.00    -0.237 OA
ATOM     88  O   UNL A   1      50.484  34.586  24.579  1.00  0.00    -0.744 OA
ENDBRANCH  81  85
ENDBRANCH  54  78
BRANCH  66  89
ATOM     89  C   UNL A   1      43.937  36.180  31.112  1.00  0.00     0.023 A 
ATOM     90  C   UNL A   1      43.796  37.332  30.319  1.00  0.00     0.031 A 
ATOM     91  C   UNL A   1      44.017  36.345  32.507  1.00  0.00     0.131 A 
ATOM     92  C   UNL A   1      43.811  38.600  30.920  1.00  0.00     0.055 A 
ATOM     93  C   UNL A   1      43.953  37.604  33.104  1.00  0.00     0.041 A 
ATOM     94  F   UNL A   1      44.156  35.281  33.315  1.00  0.00    -0.206 F 
ATOM     95  C   UNL A   1      43.866  38.742  32.308  1.00  0.00     0.022 A 
BRANCH  92  96
ATOM     96  S   UNL A   1      43.876  40.065  29.853  1.00  0.00     0.124 S 
ATOM     97  O   UNL A   1      44.484  39.528  28.640  1.00  0.00    -0.237 OA
ATOM     98  O   UNL A   1      42.468  40.439  29.750  1.00  0.00    -0.237 OA
ATOM     99  O   UNL A   1      44.711  41.000  30.606  1.00  0.00    -0.744 OA
ENDBRANCH  92  96
ENDBRANCH  66  89
ENDBRANCH  40  41
ENDBRANCH  33  35
ENDBRANCH  32  33
ENDBRANCH  31  32
ENDBRANCH  30  31
ENDBRANCH  29  30
ENDBRANCH  28  29
ENDBRANCH   1  28
TORSDOF 25
ENDMDL
MODEL 2
REMARK VINA RESULT:      -9.1      1.820      7.562
REMARK SMILES Cc1ccc(NC(=O)NC2(C(=O)OCCOCCOCCOCCOC(=O)c3ccc(-c4c5nc(c(-c6cc(S(=O)(=O)[O-])ccc6F)c6ccc([nH]6)c(-c6cc(S(=O)(=O)[O-])ccc6F)c6nc(c(-c7cc(S(=O)(=O)[O-])ccc7F)c7ccc4[nH]7)C=C6)C=C5)cc3)CC2)c(C)n1
REMARK SMILES IDX 20 1 19 2 18 3 17 4 16 5 15 6 14 7 13 8 11 9 12 10 10 11
REMARK SMILES IDX 91 12 92 13 9 14 6 15 7 16 8 18 5 20 1 21 2 22 3 23 95 24
REMARK SMILES IDX 4 25 93 26 94 27 21 28 22 29 23 30 24 31 25 32 26 33 27 34
REMARK SMILES IDX 28 35 29 36 90 37 30 38 89 39 31 40 32 41 33 42 83 43 34 44
REMARK SMILES IDX 88 45 82 46 84 47 35 48 87 49 81 50 80 51 36 53 68 54 48 55
REMARK SMILES IDX 67 56 49 57 52 58 66 59 85 60 50 61 51 62 65 64 86 65 53 66
REMARK SMILES IDX 37 67 38 68 46 69 39 70 45 71 47 72 44 73 40 74 41 75 42 76
REMARK SMILES IDX 43 77 69 78 70 79 78 80 71 81 77 82 79 83 76 84 72 85 73 86
REMARK SMILES IDX 74 87 75 88 54 89 55 90 63 91 56 92 62 93 64 94 61 95 57 96
REMARK SMILES IDX 58 97 59 98 60 99
REMARK H PARENT 6 17 9 19 84 52 52 63
REMARK Flexibility Score: inf
ROOT
ATOM      1  C   UNL A   1      40.667  21.555  26.420  1.00  0.00     0.188 C 
ENDROOT
BRANCH   1   2
ATOM      2  O   UNL A   1      40.125  22.281  27.503  1.00  0.00    -0.377 OA
BRANCH   2   3
ATOM      3  C   UNL A   1      39.603  23.575  27.306  1.00  0.00     0.188 C 
BRANCH   3   4
ATOM      4  C   UNL A   1      38.502  23.687  26.250  1.00  0.00     0.188 C 
BRANCH   4   5
ATOM      5  O   UNL A   1      37.523  22.661  26.154  1.00  0.00    -0.376 OA
BRANCH   5   6
ATOM      6  C   UNL A   1      36.444  22.825  25.238  1.00  0.00     0.202 C 
BRANCH   6   7
ATOM      7  C   UNL A   1      35.758  24.202  25.183  1.00  0.00     0.261 C 
BRANCH   7   8
ATOM      8  O   UNL A   1      34.353  24.183  25.520  1.00  0.00    -0.461 OA
BRANCH   8   9
ATOM      9  C   UNL A   1      33.454  24.295  24.505  1.00  0.00     0.331 C 
ATOM     10  O   UNL A   1      33.526  25.134  23.616  1.00  0.00    -0.249 OA
BRANCH   9  11
ATOM     11  C   UNL A   1      32.379  23.173  24.457  1.00  0.00     0.139 C 
ATOM     12  C   UNL A   1      33.015  21.972  23.696  1.00  0.00     0.043 C 
ATOM     13  C   UNL A   1      31.699  22.469  23.276  1.00  0.00     0.043 C 
BRANCH  11  14
ATOM     14  N   UNL A   1      31.739  22.922  25.712  1.00  0.00    -0.322 N 
ATOM     15  N   UNL A   1      30.596  24.922  26.451  1.00  0.00    -0.306 N 
ATOM     16  C   UNL A   1      30.971  23.644  26.524  1.00  0.00     0.320 C 
ATOM     17  H   UNL A   1      30.055  25.095  27.256  1.00  0.00     0.171 HD
ATOM     18  O   UNL A   1      30.558  23.042  27.530  1.00  0.00    -0.248 OA
ATOM     19  H   UNL A   1      31.903  22.012  26.049  1.00  0.00     0.166 HD
BRANCH  15  20
ATOM     20  C   UNL A   1      30.628  26.144  25.729  1.00  0.00     0.064 A 
ATOM     21  C   UNL A   1      30.226  29.665  23.352  1.00  0.00     0.067 C 
ATOM     22  C   UNL A   1      30.421  28.327  23.986  1.00  0.00     0.038 A 
ATOM     23  C   UNL A   1      29.552  27.274  23.824  1.00  0.00     0.025 A 
ATOM     24  N   UNL A   1      31.387  28.288  24.911  1.00  0.00    -0.256 NA
ATOM     25  C   UNL A   1      29.731  26.151  24.637  1.00  0.00     0.030 A 
ATOM     26  C   UNL A   1      31.301  27.356  25.897  1.00  0.00     0.061 A 
ATOM     27  C   UNL A   1      31.426  28.105  27.181  1.00  0.00     0.069 C 
ENDBRANCH  15  20
ENDBRANCH  11  14
ENDBRANCH   9  11
ENDBRANCH   8   9
ENDBRANCH   7   8
ENDBRANCH   6   7
ENDBRANCH   5   6
ENDBRANCH   4   5
ENDBRANCH   3   4
ENDBRANCH   2   3
ENDBRANCH   1   2
BRANCH   1  28
ATOM     28  C   UNL A   1      41.154  20.150  26.763  1.00  0.00     0.188 C 
BRANCH  28  29
ATOM     29  O   UNL A   1      42.566  19.963  26.889  1.00  0.00    -0.376 OA
BRANCH  29  30
ATOM     30  C   UNL A   1      43.346  19.740  25.715  1.00  0.00     0.202 C 
BRANCH  30  31
ATOM     31  C   UNL A   1      43.884  20.981  25.016  1.00  0.00     0.261 C 
BRANCH  31  32
ATOM     32  O   UNL A   1      44.533  21.847  25.962  1.00  0.00    -0.460 OA
BRANCH  32  33
ATOM     33  C   UNL A   1      45.773  22.241  25.601  1.00  0.00     0.338 C 
ATOM     34  O   UNL A   1      46.558  21.632  24.886  1.00  0.00    -0.246 OA
BRANCH  33  35
ATOM     35  C   UNL A   1      45.996  23.628  26.036  1.00  0.00     0.060 A 
ATOM     36  C   UNL A   1      45.961  23.881  27.412  1.00  0.00     0.016 A 
ATOM     37  C   UNL A   1      46.156  24.672  25.120  1.00  0.00     0.016 A 
ATOM     38  C   UNL A   1      46.012  25.187  27.879  1.00  0.00     0.010 A 
ATOM     39  C   UNL A   1      46.196  25.987  25.590  1.00  0.00     0.010 A 
ATOM     40  C   UNL A   1      46.072  26.247  26.966  1.00  0.00    -0.014 A 
BRANCH  40  41
ATOM     41  C   UNL A   1      45.784  27.613  27.456  1.00  0.00     0.031 A 
ATOM     42  C   UNL A   1      46.889  28.634  27.418  1.00  0.00     0.074 A 
ATOM     43  C   UNL A   1      44.543  27.955  27.842  1.00  0.00     0.049 A 
ATOM     44  N   UNL A   1      46.879  29.884  27.795  1.00  0.00    -0.248 NA
ATOM     45  C   UNL A   1      48.179  28.178  26.877  1.00  0.00     0.031 C 
ATOM     46  C   UNL A   1      43.386  27.061  27.840  1.00  0.00     0.029 A 
ATOM     47  N   UNL A   1      44.048  29.148  28.298  1.00  0.00    -0.354 N 
ATOM     48  C   UNL A   1      48.158  30.366  27.540  1.00  0.00     0.074 A 
ATOM     49  C   UNL A   1      48.930  29.260  27.016  1.00  0.00     0.031 C 
ATOM     50  C   UNL A   1      42.312  27.741  28.277  1.00  0.00     0.029 A 
ATOM     51  C   UNL A   1      42.717  29.100  28.632  1.00  0.00     0.049 A 
ATOM     52  H   UNL A   1      44.596  29.963  28.379  1.00  0.00     0.167 HD
ATOM     53  C   UNL A   1      48.640  31.621  27.717  1.00  0.00     0.034 A 
ATOM     54  C   UNL A   1      41.926  30.040  29.187  1.00  0.00     0.034 A 
ATOM     55  C   UNL A   1      47.853  32.705  28.254  1.00  0.00     0.049 A 
ATOM     56  C   UNL A   1      42.518  31.399  29.484  1.00  0.00     0.074 A 
ATOM     57  C   UNL A   1      48.234  34.014  28.485  1.00  0.00     0.029 A 
ATOM     58  N   UNL A   1      46.527  32.601  28.656  1.00  0.00    -0.354 N 
ATOM     59  N   UNL A   1      43.733  31.842  29.251  1.00  0.00    -0.248 NA
ATOM     60  C   UNL A   1      41.628  32.384  30.108  1.00  0.00     0.031 C 
ATOM     61  C   UNL A   1      47.169  34.676  29.103  1.00  0.00     0.029 A 
ATOM     62  C   UNL A   1      46.088  33.811  29.170  1.00  0.00     0.049 A 
ATOM     63  H   UNL A   1      45.978  31.787  28.585  1.00  0.00     0.167 HD
ATOM     64  C   UNL A   1      43.740  33.170  29.672  1.00  0.00     0.074 A 
ATOM     65  C   UNL A   1      42.403  33.456  30.152  1.00  0.00     0.031 C 
ATOM     66  C   UNL A   1      44.754  34.074  29.659  1.00  0.00     0.034 A 
BRANCH  53  67
ATOM     67  C   UNL A   1      50.095  31.861  27.390  1.00  0.00     0.023 A 
ATOM     68  C   UNL A   1      50.507  32.331  26.130  1.00  0.00     0.031 A 
ATOM     69  C   UNL A   1      51.090  31.582  28.344  1.00  0.00     0.131 A 
ATOM     70  C   UNL A   1      51.876  32.440  25.837  1.00  0.00     0.055 A 
ATOM     71  C   UNL A   1      52.446  31.776  28.075  1.00  0.00     0.041 A 
ATOM     72  F   UNL A   1      50.761  31.102  29.554  1.00  0.00    -0.206 F 
ATOM     73  C   UNL A   1      52.846  32.193  26.809  1.00  0.00     0.022 A 
BRANCH  70  74
ATOM     74  S   UNL A   1      52.372  32.758  24.121  1.00  0.00     0.124 S 
ATOM     75  O   UNL A   1      51.854  31.574  23.440  1.00  0.00    -0.237 OA
ATOM     76  O   UNL A   1      51.696  34.015  23.825  1.00  0.00    -0.237 OA
ATOM     77  O   UNL A   1      53.830  32.835  24.196  1.00  0.00    -0.744 OA
ENDBRANCH  70  74
ENDBRANCH  53  67
BRANCH  54  78
ATOM     78  C   UNL A   1      40.514  29.727  29.544  1.00  0.00     0.023 A 
ATOM     79  C   UNL A   1      40.094  29.679  30.883  1.00  0.00     0.031 A 
ATOM     80  C   UNL A   1      39.571  29.411  28.548  1.00  0.00     0.131 A 
ATOM     81  C   UNL A   1      38.786  29.274  31.192  1.00  0.00     0.055 A 
ATOM     82  C   UNL A   1      38.254  29.070  28.857  1.00  0.00     0.041 A 
ATOM     83  F   UNL A   1      39.919  29.435  27.251  1.00  0.00    -0.206 F 
ATOM     84  C   UNL A   1      37.859  28.984  30.188  1.00  0.00     0.022 A 
BRANCH  81  85
ATOM     85  S   UNL A   1      38.344  29.028  32.934  1.00  0.00     0.124 S 
ATOM     86  O   UNL A   1      37.726  27.708  32.899  1.00  0.00    -0.237 OA
ATOM     87  O   UNL A   1      39.645  29.112  33.590  1.00  0.00    -0.237 OA
ATOM     88  O   UNL A   1      37.435  30.138  33.212  1.00  0.00    -0.744 OA
ENDBRANCH  81  85
ENDBRANCH  54  78
BRANCH  66  89
ATOM     89  C   UNL A   1      44.436  35.472  30.139  1.00  0.00     0.023 A 
ATOM     90  C   UNL A   1      43.917  36.453  29.276  1.00  0.00     0.031 A 
ATOM     91  C   UNL A   1      44.671  35.830  31.479  1.00  0.00     0.131 A 
ATOM     92  C   UNL A   1      43.718  37.760  29.743  1.00  0.00     0.055 A 
ATOM     93  C   UNL A   1      44.399  37.112  31.957  1.00  0.00     0.041 A 
ATOM     94  F   UNL A   1      45.169  34.937  32.349  1.00  0.00    -0.206 F 
ATOM     95  C   UNL A   1      43.935  38.091  31.083  1.00  0.00     0.022 A 
BRANCH  92  96
ATOM     96  S   UNL A   1      43.285  39.053  28.547  1.00  0.00     0.124 S 
ATOM     97  O   UNL A   1      41.919  38.687  28.189  1.00  0.00    -0.237 OA
ATOM     98  O   UNL A   1      43.433  40.272  29.337  1.00  0.00    -0.237 OA
ATOM     99  O   UNL A   1      44.274  38.881  27.484  1.00  0.00    -0.744 OA
ENDBRANCH  92  96
ENDBRANCH  66  89
ENDBRANCH  40  41
ENDBRANCH  33  35
ENDBRANCH  32  33
ENDBRANCH  31  32
ENDBRANCH  30  31
ENDBRANCH  29  30
ENDBRANCH  28  29
ENDBRANCH   1  28
TORSDOF 25
ENDMDL
MODEL 3
REMARK VINA RESULT:      -9.0      0.847      7.326
REMARK SMILES Cc1ccc(NC(=O)NC2(C(=O)OCCOCCOCCOCCOC(=O)c3ccc(-c4c5nc(c(-c6cc(S(=O)(=O)[O-])ccc6F)c6ccc([nH]6)c(-c6cc(S(=O)(=O)[O-])ccc6F)c6nc(c(-c7cc(S(=O)(=O)[O-])ccc7F)c7ccc4[nH]7)C=C6)C=C5)cc3)CC2)c(C)n1
REMARK SMILES IDX 20 1 19 2 18 3 17 4 16 5 15 6 14 7 13 8 11 9 12 10 10 11
REMARK SMILES IDX 91 12 92 13 9 14 6 15 7 16 8 18 5 20 1 21 2 22 3 23 95 24
REMARK SMILES IDX 4 25 93 26 94 27 21 28 22 29 23 30 24 31 25 32 26 33 27 34
REMARK SMILES IDX 28 35 29 36 90 37 30 38 89 39 31 40 32 41 33 42 83 43 34 44
REMARK SMILES IDX 88 45 82 46 84 47 35 48 87 49 81 50 80 51 36 53 68 54 48 55
REMARK SMILES IDX 67 56 49 57 52 58 66 59 85 60 50 61 51 62 65 64 86 65 53 66
REMARK SMILES IDX 37 67 38 68 46 69 39 70 45 71 47 72 44 73 40 74 41 75 42 76
REMARK SMILES IDX 43 77 69 78 70 79 78 80 71 81 77 82 79 83 76 84 72 85 73 86
REMARK SMILES IDX 74 87 75 88 54 89 55 90 63 91 56 92 62 93 64 94 61 95 57 96
REMARK SMILES IDX 58 97 59 98 60 99
REMARK H PARENT 6 17 9 19 84 52 52 63
REMARK Flexibility Score: inf
ROOT
ATOM      1  C   UNL A   1      42.075  21.749  27.837  1.00  0.00     0.188 C 
ENDROOT
BRANCH   1   2
ATOM      2  O   UNL A   1      41.062  22.655  27.453  1.00  0.00    -0.377 OA
BRANCH   2   3
ATOM      3  C   UNL A   1      39.805  22.182  27.028  1.00  0.00     0.188 C 
BRANCH   3   4
ATOM      4  C   UNL A   1      38.956  23.183  26.242  1.00  0.00     0.188 C 
BRANCH   4   5
ATOM      5  O   UNL A   1      37.741  22.749  25.646  1.00  0.00    -0.376 OA
BRANCH   5   6
ATOM      6  C   UNL A   1      36.800  23.727  25.214  1.00  0.00     0.202 C 
BRANCH   6   7
ATOM      7  C   UNL A   1      35.323  23.514  25.592  1.00  0.00     0.261 C 
BRANCH   7   8
ATOM      8  O   UNL A   1      34.916  22.129  25.648  1.00  0.00    -0.461 OA
BRANCH   8   9
ATOM      9  C   UNL A   1      33.846  21.811  26.426  1.00  0.00     0.331 C 
ATOM     10  O   UNL A   1      33.914  21.590  27.628  1.00  0.00    -0.249 OA
BRANCH   9  11
ATOM     11  C   UNL A   1      32.470  21.889  25.706  1.00  0.00     0.139 C 
ATOM     12  C   UNL A   1      32.404  20.678  24.730  1.00  0.00     0.043 C 
ATOM     13  C   UNL A   1      32.107  22.023  24.222  1.00  0.00     0.043 C 
BRANCH  11  14
ATOM     14  N   UNL A   1      31.363  22.118  26.583  1.00  0.00    -0.322 N 
ATOM     15  N   UNL A   1      30.728  24.451  26.493  1.00  0.00    -0.306 N 
ATOM     16  C   UNL A   1      30.621  23.180  26.884  1.00  0.00     0.320 C 
ATOM     17  H   UNL A   1      30.011  24.942  26.956  1.00  0.00     0.171 HD
ATOM     18  O   UNL A   1      29.692  22.964  27.683  1.00  0.00    -0.248 OA
ATOM     19  H   UNL A   1      31.090  21.309  27.073  1.00  0.00     0.166 HD
BRANCH  15  20
ATOM     20  C   UNL A   1      31.415  25.410  25.704  1.00  0.00     0.064 A 
ATOM     21  C   UNL A   1      33.941  28.149  23.623  1.00  0.00     0.067 C 
ATOM     22  C   UNL A   1      33.062  27.345  24.523  1.00  0.00     0.038 A 
ATOM     23  C   UNL A   1      33.513  26.699  25.650  1.00  0.00     0.025 A 
ATOM     24  N   UNL A   1      31.839  27.106  24.034  1.00  0.00    -0.256 NA
ATOM     25  C   UNL A   1      32.642  25.809  26.284  1.00  0.00     0.030 A 
ATOM     26  C   UNL A   1      31.178  25.996  24.459  1.00  0.00     0.061 A 
ATOM     27  C   UNL A   1      30.768  25.267  23.224  1.00  0.00     0.069 C 
ENDBRANCH  15  20
ENDBRANCH  11  14
ENDBRANCH   9  11
ENDBRANCH   8   9
ENDBRANCH   7   8
ENDBRANCH   6   7
ENDBRANCH   5   6
ENDBRANCH   4   5
ENDBRANCH   3   4
ENDBRANCH   2   3
ENDBRANCH   1   2
BRANCH   1  28
ATOM     28  C   UNL A   1      42.135  20.463  27.018  1.00  0.00     0.188 C 
BRANCH  28  29
ATOM     29  O   UNL A   1      42.573  20.574  25.660  1.00  0.00    -0.376 OA
BRANCH  29  30
ATOM     30  C   UNL A   1      43.321  21.722  25.263  1.00  0.00     0.202 C 
BRANCH  30  31
ATOM     31  C   UNL A   1      44.838  21.580  25.283  1.00  0.00     0.261 C 
BRANCH  31  32
ATOM     32  O   UNL A   1      45.436  22.694  25.966  1.00  0.00    -0.460 OA
BRANCH  32  33
ATOM     33  C   UNL A   1      45.521  23.822  25.228  1.00  0.00     0.338 C 
ATOM     34  O   UNL A   1      45.857  23.908  24.055  1.00  0.00    -0.246 OA
BRANCH  33  35
ATOM     35  C   UNL A   1      44.958  24.950  25.984  1.00  0.00     0.060 A 
ATOM     36  C   UNL A   1      44.586  26.087  25.256  1.00  0.00     0.016 A 
ATOM     37  C   UNL A   1      44.869  24.933  27.379  1.00  0.00     0.016 A 
ATOM     38  C   UNL A   1      44.193  27.239  25.923  1.00  0.00     0.010 A 
ATOM     39  C   UNL A   1      44.484  26.097  28.049  1.00  0.00     0.010 A 
ATOM     40  C   UNL A   1      44.195  27.266  27.322  1.00  0.00    -0.014 A 
BRANCH  40  41
ATOM     41  C   UNL A   1      44.107  28.578  28.000  1.00  0.00     0.031 A 
ATOM     42  C   UNL A   1      45.349  29.424  28.081  1.00  0.00     0.074 A 
ATOM     43  C   UNL A   1      42.930  29.038  28.453  1.00  0.00     0.049 A 
ATOM     44  N   UNL A   1      45.520  30.599  28.625  1.00  0.00    -0.248 NA
ATOM     45  C   UNL A   1      46.560  28.867  27.457  1.00  0.00     0.031 C 
ATOM     46  C   UNL A   1      41.654  28.328  28.351  1.00  0.00     0.029 A 
ATOM     47  N   UNL A   1      42.613  30.215  29.078  1.00  0.00    -0.354 N 
ATOM     48  C   UNL A   1      46.856  30.923  28.413  1.00  0.00     0.074 A 
ATOM     49  C   UNL A   1      47.459  29.800  27.728  1.00  0.00     0.031 C 
ATOM     50  C   UNL A   1      40.691  29.089  28.898  1.00  0.00     0.029 A 
ATOM     51  C   UNL A   1      41.288  30.314  29.427  1.00  0.00     0.049 A 
ATOM     52  H   UNL A   1      43.272  30.924  29.258  1.00  0.00     0.167 HD
ATOM     53  C   UNL A   1      47.515  32.059  28.751  1.00  0.00     0.034 A 
ATOM     54  C   UNL A   1      40.642  31.272  30.121  1.00  0.00     0.034 A 
ATOM     55  C   UNL A   1      46.893  33.160  29.445  1.00  0.00     0.049 A 
ATOM     56  C   UNL A   1      41.424  32.477  30.589  1.00  0.00     0.074 A 
ATOM     57  C   UNL A   1      47.460  34.356  29.846  1.00  0.00     0.029 A 
ATOM     58  N   UNL A   1      45.565  33.193  29.855  1.00  0.00    -0.354 N 
ATOM     59  N   UNL A   1      42.691  32.769  30.395  1.00  0.00    -0.248 NA
ATOM     60  C   UNL A   1      40.686  33.485  31.359  1.00  0.00     0.031 C 
ATOM     61  C   UNL A   1      46.502  35.073  30.569  1.00  0.00     0.029 A 
ATOM     62  C   UNL A   1      45.307  34.371  30.538  1.00  0.00     0.049 A 
ATOM     63  H   UNL A   1      44.905  32.484  29.684  1.00  0.00     0.167 HD
ATOM     64  C   UNL A   1      42.890  34.012  30.993  1.00  0.00     0.074 A 
ATOM     65  C   UNL A   1      41.609  34.418  31.534  1.00  0.00     0.031 C 
ATOM     66  C   UNL A   1      44.024  34.754  31.085  1.00  0.00     0.034 A 
BRANCH  53  67
ATOM     67  C   UNL A   1      48.989  32.130  28.431  1.00  0.00     0.023 A 
ATOM     68  C   UNL A   1      49.468  32.737  27.256  1.00  0.00     0.031 A 
ATOM     69  C   UNL A   1      49.930  31.550  29.301  1.00  0.00     0.131 A 
ATOM     70  C   UNL A   1      50.838  32.688  26.950  1.00  0.00     0.055 A 
ATOM     71  C   UNL A   1      51.300  31.582  29.033  1.00  0.00     0.041 A 
ATOM     72  F   UNL A   1      49.532  30.930  30.422  1.00  0.00    -0.206 F 
ATOM     73  C   UNL A   1      51.759  32.139  27.844  1.00  0.00     0.022 A 
BRANCH  70  74
ATOM     74  S   UNL A   1      51.377  33.210  25.299  1.00  0.00     0.124 S 
ATOM     75  O   UNL A   1      52.650  33.862  25.597  1.00  0.00    -0.237 OA
ATOM     76  O   UNL A   1      51.458  31.945  24.578  1.00  0.00    -0.237 OA
ATOM     77  O   UNL A   1      50.313  34.112  24.861  1.00  0.00    -0.744 OA
ENDBRANCH  70  74
ENDBRANCH  53  67
BRANCH  54  78
ATOM     78  C   UNL A   1      39.199  31.119  30.459  1.00  0.00     0.023 A 
ATOM     79  C   UNL A   1      38.200  31.723  29.678  1.00  0.00     0.031 A 
ATOM     80  C   UNL A   1      38.797  30.413  31.608  1.00  0.00     0.131 A 
ATOM     81  C   UNL A   1      36.858  31.653  30.083  1.00  0.00     0.055 A 
ATOM     82  C   UNL A   1      37.455  30.293  31.972  1.00  0.00     0.041 A 
ATOM     83  F   UNL A   1      39.710  29.821  32.395  1.00  0.00    -0.206 F 
ATOM     84  C   UNL A   1      36.477  30.929  31.216  1.00  0.00     0.022 A 
BRANCH  81  85
ATOM     85  S   UNL A   1      35.625  32.614  29.163  1.00  0.00     0.124 S 
ATOM     86  O   UNL A   1      34.591  31.615  28.922  1.00  0.00    -0.237 OA
ATOM     87  O   UNL A   1      35.291  33.667  30.117  1.00  0.00    -0.237 OA
ATOM     88  O   UNL A   1      36.355  33.058  27.978  1.00  0.00    -0.744 OA
ENDBRANCH  81  85
ENDBRANCH  54  78
BRANCH  66  89
ATOM     89  C   UNL A   1      43.912  36.103  31.757  1.00  0.00     0.023 A 
ATOM     90  C   UNL A   1      43.776  37.291  31.019  1.00  0.00     0.031 A 
ATOM     91  C   UNL A   1      43.959  36.200  33.160  1.00  0.00     0.131 A 
ATOM     92  C   UNL A   1      43.762  38.527  31.680  1.00  0.00     0.055 A 
ATOM     93  C   UNL A   1      43.868  37.427  33.816  1.00  0.00     0.041 A 
ATOM     94  F   UNL A   1      44.093  35.100  33.918  1.00  0.00    -0.206 F 
ATOM     95  C   UNL A   1      43.785  38.602  33.075  1.00  0.00     0.022 A 
BRANCH  92  96
ATOM     96  S   UNL A   1      43.833  40.044  30.688  1.00  0.00     0.124 S 
ATOM     97  O   UNL A   1      45.148  40.571  31.037  1.00  0.00    -0.237 OA
ATOM     98  O   UNL A   1      43.690  39.534  29.328  1.00  0.00    -0.237 OA
ATOM     99  O   UNL A   1      42.700  40.827  31.178  1.00  0.00    -0.744 OA
ENDBRANCH  92  96
ENDBRANCH  66  89
ENDBRANCH  40  41
ENDBRANCH  33  35
ENDBRANCH  32  33
ENDBRANCH  31  32
ENDBRANCH  30  31
ENDBRANCH  29  30
ENDBRANCH  28  29
ENDBRANCH   1  28
TORSDOF 25
ENDMDL
