MODEL 1
REMARK VINA RESULT:      -6.9      0.000      0.000
REMARK SMILES CCCCNC(=O)c1cnn([C@@H](C)C(=O)OCCOCCOCCOCCOC(=O)c2ccc(-c3c4nc(c(-c5cc(S(=O)(=O)[O-])ccc5F)c5ccc([nH]5)c(-c5cc(S(=O)(=O)[O-])ccc5F)c5nc(c(-c6cc(S(=O)(=O)[O-])ccc6F)c6ccc3[nH]6)C=C5)C=C4)cc2)c1
REMARK SMILES IDX 21 1 20 2 19 3 18 4 17 5 16 6 14 7 15 8 12 9 13 10 11 11
REMARK SMILES IDX 8 12 9 13 94 14 10 15 6 16 5 17 7 19 4 20 3 21 2 22 1 23
REMARK SMILES IDX 22 24 23 25 24 26 25 27 26 28 27 29 28 30 29 31 30 32 31 33
REMARK SMILES IDX 32 34 93 35 33 36 92 37 34 38 35 39 36 40 86 41 37 42 91 43
REMARK SMILES IDX 85 44 87 45 38 46 90 47 84 48 83 49 39 51 71 52 51 53 70 54
REMARK SMILES IDX 52 55 55 56 69 57 88 58 53 59 54 60 68 62 89 63 56 64 40 65
REMARK SMILES IDX 41 66 49 67 42 68 48 69 50 70 47 71 43 72 44 73 45 74 46 75
REMARK SMILES IDX 72 76 73 77 81 78 74 79 80 80 82 81 79 82 75 83 76 84 77 85
REMARK SMILES IDX 78 86 57 87 58 88 66 89 59 90 65 91 67 92 64 93 60 94 61 95
REMARK SMILES IDX 62 96 63 97
REMARK H PARENT 5 18 87 50 55 61
REMARK Flexibility Score: inf
ROOT
ATOM      1  C   UNL A   1      32.995  34.804  29.349  1.00  0.00     0.188 C 
ENDROOT
BRANCH   1   2
ATOM      2  C   UNL A   1      33.535  36.183  29.778  1.00  0.00     0.188 C 
BRANCH   2   3
ATOM      3  O   UNL A   1      33.215  36.758  31.042  1.00  0.00    -0.376 OA
BRANCH   3   4
ATOM      4  C   UNL A   1      33.050  35.926  32.178  1.00  0.00     0.202 C 
BRANCH   4   5
ATOM      5  C   UNL A   1      34.088  36.003  33.308  1.00  0.00     0.261 C 
BRANCH   5   6
ATOM      6  O   UNL A   1      34.762  34.774  33.646  1.00  0.00    -0.462 OA
BRANCH   6   7
ATOM      7  C   UNL A   1      36.097  34.739  33.441  1.00  0.00     0.330 C 
ATOM      8  O   UNL A   1      36.655  35.348  32.528  1.00  0.00    -0.250 OA
BRANCH   7   9
ATOM      9  C   UNL A   1      36.912  33.873  34.384  1.00  0.00     0.213 C 
ATOM     10  C   UNL A   1      36.209  33.791  35.731  1.00  0.00     0.046 C 
BRANCH   9  11
ATOM     11  N   UNL A   1      38.338  34.154  34.556  1.00  0.00    -0.258 N 
ATOM     12  C   UNL A   1      40.535  33.883  34.708  1.00  0.00     0.077 A 
ATOM     13  C   UNL A   1      40.111  35.177  35.085  1.00  0.00     0.149 A 
ATOM     14  C   UNL A   1      39.357  33.253  34.354  1.00  0.00     0.123 A 
ATOM     15  N   UNL A   1      38.779  35.310  35.093  1.00  0.00    -0.180 NA
BRANCH  12  16
ATOM     16  C   UNL A   1      41.863  33.309  34.608  1.00  0.00     0.254 C 
ATOM     17  N   UNL A   1      42.500  33.277  33.392  1.00  0.00    -0.352 N 
ATOM     18  H   UNL A   1      43.320  32.735  33.362  1.00  0.00     0.163 HD
ATOM     19  O   UNL A   1      42.454  32.882  35.599  1.00  0.00    -0.269 OA
BRANCH  17  20
ATOM     20  C   UNL A   1      42.142  33.925  32.141  1.00  0.00     0.116 C 
BRANCH  20  21
ATOM     21  C   UNL A   1      43.105  35.057  31.779  1.00  0.00     0.021 C 
BRANCH  21  22
ATOM     22  C   UNL A   1      43.990  34.791  30.559  1.00  0.00    -0.002 C 
ATOM     23  C   UNL A   1      43.281  34.027  29.450  1.00  0.00     0.004 C 
ENDBRANCH  21  22
ENDBRANCH  20  21
ENDBRANCH  17  20
ENDBRANCH  12  16
ENDBRANCH   9  11
ENDBRANCH   7   9
ENDBRANCH   6   7
ENDBRANCH   5   6
ENDBRANCH   4   5
ENDBRANCH   3   4
ENDBRANCH   2   3
ENDBRANCH   1   2
BRANCH   1  24
ATOM     24  O   UNL A   1      33.767  33.686  29.740  1.00  0.00    -0.377 OA
BRANCH  24  25
ATOM     25  C   UNL A   1      35.137  33.956  29.998  1.00  0.00     0.188 C 
BRANCH  25  26
ATOM     26  C   UNL A   1      36.108  33.732  28.815  1.00  0.00     0.188 C 
BRANCH  26  27
ATOM     27  O   UNL A   1      37.479  33.576  29.184  1.00  0.00    -0.376 OA
BRANCH  27  28
ATOM     28  C   UNL A   1      37.857  32.726  30.260  1.00  0.00     0.202 C 
BRANCH  28  29
ATOM     29  C   UNL A   1      38.342  31.320  29.908  1.00  0.00     0.261 C 
BRANCH  29  30
ATOM     30  O   UNL A   1      37.294  30.391  29.725  1.00  0.00    -0.460 OA
BRANCH  30  31
ATOM     31  C   UNL A   1      37.087  29.995  28.460  1.00  0.00     0.338 C 
ATOM     32  O   UNL A   1      36.183  30.346  27.705  1.00  0.00    -0.246 OA
BRANCH  31  33
ATOM     33  C   UNL A   1      38.084  28.988  28.124  1.00  0.00     0.060 A 
ATOM     34  C   UNL A   1      38.198  27.931  29.026  1.00  0.00     0.016 A 
ATOM     35  C   UNL A   1      39.117  29.384  27.262  1.00  0.00     0.016 A 
ATOM     36  C   UNL A   1      39.461  27.499  29.322  1.00  0.00     0.010 A 
ATOM     37  C   UNL A   1      40.377  28.995  27.596  1.00  0.00     0.010 A 
ATOM     38  C   UNL A   1      40.527  28.141  28.689  1.00  0.00    -0.014 A 
BRANCH  38  39
ATOM     39  C   UNL A   1      41.864  27.845  29.133  1.00  0.00     0.031 A 
ATOM     40  C   UNL A   1      42.434  26.714  28.376  1.00  0.00     0.074 A 
ATOM     41  C   UNL A   1      42.483  28.657  30.010  1.00  0.00     0.049 A 
ATOM     42  N   UNL A   1      42.766  25.552  28.825  1.00  0.00    -0.248 NA
ATOM     43  C   UNL A   1      42.394  26.793  26.901  1.00  0.00     0.031 C 
ATOM     44  C   UNL A   1      41.993  29.932  30.551  1.00  0.00     0.029 A 
ATOM     45  N   UNL A   1      43.746  28.596  30.495  1.00  0.00    -0.354 N 
ATOM     46  C   UNL A   1      43.252  24.874  27.714  1.00  0.00     0.074 A 
ATOM     47  C   UNL A   1      42.721  25.548  26.568  1.00  0.00     0.031 C 
ATOM     48  C   UNL A   1      43.040  30.627  31.052  1.00  0.00     0.029 A 
ATOM     49  C   UNL A   1      44.242  29.816  30.944  1.00  0.00     0.049 A 
ATOM     50  H   UNL A   1      44.268  27.762  30.527  1.00  0.00     0.167 HD
ATOM     51  C   UNL A   1      44.336  24.063  27.826  1.00  0.00     0.034 A 
ATOM     52  C   UNL A   1      45.555  30.156  31.071  1.00  0.00     0.034 A 
ATOM     53  C   UNL A   1      44.511  23.637  29.200  1.00  0.00     0.049 A 
ATOM     54  C   UNL A   1      46.320  28.874  31.108  1.00  0.00     0.074 A 
ATOM     55  C   UNL A   1      43.676  23.024  30.117  1.00  0.00     0.029 A 
ATOM     56  N   UNL A   1      45.524  24.205  29.945  1.00  0.00    -0.354 N 
ATOM     57  N   UNL A   1      46.196  27.992  32.066  1.00  0.00    -0.248 NA
ATOM     58  C   UNL A   1      46.805  28.336  29.842  1.00  0.00     0.031 C 
ATOM     59  C   UNL A   1      43.941  23.680  31.354  1.00  0.00     0.029 A 
ATOM     60  C   UNL A   1      44.992  24.578  31.157  1.00  0.00     0.049 A 
ATOM     61  H   UNL A   1      46.459  24.322  29.660  1.00  0.00     0.167 HD
ATOM     62  C   UNL A   1      46.160  26.760  31.426  1.00  0.00     0.074 A 
ATOM     63  C   UNL A   1      46.624  27.029  30.065  1.00  0.00     0.031 C 
ATOM     64  C   UNL A   1      45.471  25.700  31.950  1.00  0.00     0.034 A 
BRANCH  51  65
ATOM     65  C   UNL A   1      45.443  24.020  26.795  1.00  0.00     0.023 A 
ATOM     66  C   UNL A   1      46.384  25.060  26.849  1.00  0.00     0.031 A 
ATOM     67  C   UNL A   1      45.482  23.224  25.621  1.00  0.00     0.131 A 
ATOM     68  C   UNL A   1      47.202  25.351  25.745  1.00  0.00     0.055 A 
ATOM     69  C   UNL A   1      46.347  23.475  24.554  1.00  0.00     0.041 A 
ATOM     70  F   UNL A   1      44.642  22.212  25.383  1.00  0.00    -0.206 F 
ATOM     71  C   UNL A   1      47.188  24.569  24.595  1.00  0.00     0.022 A 
BRANCH  68  72
ATOM     72  S   UNL A   1      48.143  26.892  25.778  1.00  0.00     0.124 S 
ATOM     73  O   UNL A   1      48.724  26.846  27.116  1.00  0.00    -0.237 OA
ATOM     74  O   UNL A   1      49.066  26.698  24.666  1.00  0.00    -0.237 OA
ATOM     75  O   UNL A   1      47.120  27.913  25.574  1.00  0.00    -0.744 OA
ENDBRANCH  68  72
ENDBRANCH  51  65
BRANCH  52  76
ATOM     76  C   UNL A   1      46.162  31.488  30.746  1.00  0.00     0.023 A 
ATOM     77  C   UNL A   1      46.834  32.283  31.702  1.00  0.00     0.031 A 
ATOM     78  C   UNL A   1      46.268  31.917  29.401  1.00  0.00     0.131 A 
ATOM     79  C   UNL A   1      47.546  33.443  31.300  1.00  0.00     0.055 A 
ATOM     80  C   UNL A   1      46.956  33.069  29.012  1.00  0.00     0.041 A 
ATOM     81  F   UNL A   1      45.778  31.185  28.389  1.00  0.00    -0.206 F 
ATOM     82  C   UNL A   1      47.606  33.834  29.961  1.00  0.00     0.022 A 
BRANCH  79  83
ATOM     83  S   UNL A   1      48.500  34.423  32.507  1.00  0.00     0.124 S 
ATOM     84  O   UNL A   1      49.456  35.119  31.654  1.00  0.00    -0.237 OA
ATOM     85  O   UNL A   1      47.469  35.243  33.133  1.00  0.00    -0.237 OA
ATOM     86  O   UNL A   1      49.086  33.407  33.384  1.00  0.00    -0.744 OA
ENDBRANCH  79  83
ENDBRANCH  52  76
BRANCH  64  87
ATOM     87  C   UNL A   1      44.982  25.774  33.387  1.00  0.00     0.023 A 
ATOM     88  C   UNL A   1      43.766  26.358  33.809  1.00  0.00     0.031 A 
ATOM     89  C   UNL A   1      45.739  25.084  34.353  1.00  0.00     0.131 A 
ATOM     90  C   UNL A   1      43.357  26.243  35.155  1.00  0.00     0.055 A 
ATOM     91  C   UNL A   1      45.320  24.952  35.676  1.00  0.00     0.041 A 
ATOM     92  F   UNL A   1      46.893  24.483  34.014  1.00  0.00    -0.206 F 
ATOM     93  C   UNL A   1      44.127  25.536  36.084  1.00  0.00     0.022 A 
BRANCH  90  94
ATOM     94  S   UNL A   1      41.818  27.029  35.738  1.00  0.00     0.124 S 
ATOM     95  O   UNL A   1      41.092  25.933  36.369  1.00  0.00    -0.237 OA
ATOM     96  O   UNL A   1      42.318  28.068  36.635  1.00  0.00    -0.237 OA
ATOM     97  O   UNL A   1      41.208  27.534  34.507  1.00  0.00    -0.744 OA
ENDBRANCH  90  94
ENDBRANCH  64  87
ENDBRANCH  38  39
ENDBRANCH  31  33
ENDBRANCH  30  31
ENDBRANCH  29  30
ENDBRANCH  28  29
ENDBRANCH  27  28
ENDBRANCH  26  27
ENDBRANCH  25  26
ENDBRANCH  24  25
ENDBRANCH   1  24
TORSDOF 28
ENDMDL
MODEL 2
REMARK VINA RESULT:      -6.6      4.616      7.559
REMARK SMILES CCCCNC(=O)c1cnn([C@@H](C)C(=O)OCCOCCOCCOCCOC(=O)c2ccc(-c3c4nc(c(-c5cc(S(=O)(=O)[O-])ccc5F)c5ccc([nH]5)c(-c5cc(S(=O)(=O)[O-])ccc5F)c5nc(c(-c6cc(S(=O)(=O)[O-])ccc6F)c6ccc3[nH]6)C=C5)C=C4)cc2)c1
REMARK SMILES IDX 21 1 20 2 19 3 18 4 17 5 16 6 14 7 15 8 12 9 13 10 11 11
REMARK SMILES IDX 8 12 9 13 94 14 10 15 6 16 5 17 7 19 4 20 3 21 2 22 1 23
REMARK SMILES IDX 22 24 23 25 24 26 25 27 26 28 27 29 28 30 29 31 30 32 31 33
REMARK SMILES IDX 32 34 93 35 33 36 92 37 34 38 35 39 36 40 86 41 37 42 91 43
REMARK SMILES IDX 85 44 87 45 38 46 90 47 84 48 83 49 39 51 71 52 51 53 70 54
REMARK SMILES IDX 52 55 55 56 69 57 88 58 53 59 54 60 68 62 89 63 56 64 40 65
REMARK SMILES IDX 41 66 49 67 42 68 48 69 50 70 47 71 43 72 44 73 45 74 46 75
REMARK SMILES IDX 72 76 73 77 81 78 74 79 80 80 82 81 79 82 75 83 76 84 77 85
REMARK SMILES IDX 78 86 57 87 58 88 66 89 59 90 65 91 67 92 64 93 60 94 61 95
REMARK SMILES IDX 62 96 63 97
REMARK H PARENT 5 18 87 50 55 61
REMARK Flexibility Score: inf
ROOT
ATOM      1  C   UNL A   1      35.013  32.017  28.586  1.00  0.00     0.188 C 
ENDROOT
BRANCH   1   2
ATOM      2  C   UNL A   1      35.370  30.921  27.560  1.00  0.00     0.188 C 
BRANCH   2   3
ATOM      3  O   UNL A   1      34.400  29.997  27.076  1.00  0.00    -0.376 OA
BRANCH   3   4
ATOM      4  C   UNL A   1      33.019  30.297  27.184  1.00  0.00     0.202 C 
BRANCH   4   5
ATOM      5  C   UNL A   1      32.000  29.319  26.577  1.00  0.00     0.261 C 
BRANCH   5   6
ATOM      6  O   UNL A   1      31.509  29.639  25.259  1.00  0.00    -0.462 OA
BRANCH   6   7
ATOM      7  C   UNL A   1      32.111  29.019  24.221  1.00  0.00     0.330 C 
ATOM      8  O   UNL A   1      33.310  29.141  23.966  1.00  0.00    -0.250 OA
BRANCH   7   9
ATOM      9  C   UNL A   1      31.229  28.163  23.331  1.00  0.00     0.213 C 
ATOM     10  C   UNL A   1      29.768  28.431  23.657  1.00  0.00     0.046 C 
BRANCH   9  11
ATOM     11  N   UNL A   1      31.490  26.725  23.243  1.00  0.00    -0.258 N 
ATOM     12  C   UNL A   1      32.434  24.783  22.734  1.00  0.00     0.077 A 
ATOM     13  C   UNL A   1      31.161  24.639  23.330  1.00  0.00     0.149 A 
ATOM     14  C   UNL A   1      32.621  26.152  22.710  1.00  0.00     0.123 A 
ATOM     15  N   UNL A   1      30.546  25.809  23.542  1.00  0.00    -0.180 NA
BRANCH  12  16
ATOM     16  C   UNL A   1      33.402  23.791  22.307  1.00  0.00     0.254 C 
ATOM     17  N   UNL A   1      34.237  23.214  23.232  1.00  0.00    -0.352 N 
ATOM     18  H   UNL A   1      34.970  22.676  22.856  1.00  0.00     0.163 HD
ATOM     19  O   UNL A   1      33.468  23.423  21.135  1.00  0.00    -0.269 OA
BRANCH  17  20
ATOM     20  C   UNL A   1      34.200  23.280  24.683  1.00  0.00     0.116 C 
BRANCH  20  21
ATOM     21  C   UNL A   1      34.503  21.929  25.332  1.00  0.00     0.021 C 
BRANCH  21  22
ATOM     22  C   UNL A   1      34.212  21.849  26.833  1.00  0.00    -0.002 C 
ATOM     23  C   UNL A   1      33.158  22.843  27.300  1.00  0.00     0.004 C 
ENDBRANCH  21  22
ENDBRANCH  20  21
ENDBRANCH  17  20
ENDBRANCH  12  16
ENDBRANCH   9  11
ENDBRANCH   7   9
ENDBRANCH   6   7
ENDBRANCH   5   6
ENDBRANCH   4   5
ENDBRANCH   3   4
ENDBRANCH   2   3
ENDBRANCH   1   2
BRANCH   1  24
ATOM     24  O   UNL A   1      34.458  33.205  28.058  1.00  0.00    -0.377 OA
BRANCH  24  25
ATOM     25  C   UNL A   1      34.839  34.399  28.724  1.00  0.00     0.188 C 
BRANCH  25  26
ATOM     26  C   UNL A   1      34.107  34.698  30.053  1.00  0.00     0.188 C 
BRANCH  26  27
ATOM     27  O   UNL A   1      34.007  33.587  30.947  1.00  0.00    -0.376 OA
BRANCH  27  28
ATOM     28  C   UNL A   1      34.863  33.476  32.078  1.00  0.00     0.202 C 
BRANCH  28  29
ATOM     29  C   UNL A   1      35.784  32.257  32.144  1.00  0.00     0.261 C 
BRANCH  29  30
ATOM     30  O   UNL A   1      37.058  32.482  31.575  1.00  0.00    -0.460 OA
BRANCH  30  31
ATOM     31  C   UNL A   1      38.097  32.012  32.282  1.00  0.00     0.338 C 
ATOM     32  O   UNL A   1      38.538  32.448  33.343  1.00  0.00    -0.246 OA
BRANCH  31  33
ATOM     33  C   UNL A   1      38.699  30.914  31.540  1.00  0.00     0.060 A 
ATOM     34  C   UNL A   1      39.138  29.837  32.310  1.00  0.00     0.016 A 
ATOM     35  C   UNL A   1      39.210  31.214  30.269  1.00  0.00     0.016 A 
ATOM     36  C   UNL A   1      40.335  29.274  31.965  1.00  0.00     0.010 A 
ATOM     37  C   UNL A   1      40.428  30.693  29.958  1.00  0.00     0.010 A 
ATOM     38  C   UNL A   1      41.011  29.812  30.869  1.00  0.00    -0.014 A 
BRANCH  38  39
ATOM     39  C   UNL A   1      42.358  29.374  30.614  1.00  0.00     0.031 A 
ATOM     40  C   UNL A   1      42.369  28.163  29.771  1.00  0.00     0.074 A 
ATOM     41  C   UNL A   1      43.402  30.133  30.995  1.00  0.00     0.049 A 
ATOM     42  N   UNL A   1      42.779  26.983  30.092  1.00  0.00    -0.248 NA
ATOM     43  C   UNL A   1      41.600  28.203  28.510  1.00  0.00     0.031 C 
ATOM     44  C   UNL A   1      43.364  31.472  31.599  1.00  0.00     0.029 A 
ATOM     45  N   UNL A   1      44.727  29.938  30.792  1.00  0.00    -0.354 N 
ATOM     46  C   UNL A   1      42.579  26.221  28.948  1.00  0.00     0.074 A 
ATOM     47  C   UNL A   1      41.605  26.919  28.165  1.00  0.00     0.031 C 
ATOM     48  C   UNL A   1      44.576  32.054  31.453  1.00  0.00     0.029 A 
ATOM     49  C   UNL A   1      45.485  31.104  30.831  1.00  0.00     0.049 A 
ATOM     50  H   UNL A   1      45.119  29.050  30.631  1.00  0.00     0.167 HD
ATOM     51  C   UNL A   1      43.497  25.292  28.575  1.00  0.00     0.034 A 
ATOM     52  C   UNL A   1      46.708  31.291  30.260  1.00  0.00     0.034 A 
ATOM     53  C   UNL A   1      44.302  24.888  29.710  1.00  0.00     0.049 A 
ATOM     54  C   UNL A   1      47.273  29.930  30.021  1.00  0.00     0.074 A 
ATOM     55  C   UNL A   1      43.991  24.405  30.969  1.00  0.00     0.029 A 
ATOM     56  N   UNL A   1      45.596  25.355  29.803  1.00  0.00    -0.354 N 
ATOM     57  N   UNL A   1      47.571  29.096  30.983  1.00  0.00    -0.248 NA
ATOM     58  C   UNL A   1      47.006  29.301  28.731  1.00  0.00     0.031 C 
ATOM     59  C   UNL A   1      44.899  25.060  31.851  1.00  0.00     0.029 A 
ATOM     60  C   UNL A   1      45.782  25.823  31.083  1.00  0.00     0.049 A 
ATOM     61  H   UNL A   1      46.267  25.353  29.082  1.00  0.00     0.167 HD
ATOM     62  C   UNL A   1      47.111  27.859  30.552  1.00  0.00     0.074 A 
ATOM     63  C   UNL A   1      46.849  28.032  29.123  1.00  0.00     0.031 C 
ATOM     64  C   UNL A   1      46.689  26.903  31.436  1.00  0.00     0.034 A 
BRANCH  51  65
ATOM     65  C   UNL A   1      43.927  25.089  27.138  1.00  0.00     0.023 A 
ATOM     66  C   UNL A   1      43.895  23.769  26.660  1.00  0.00     0.031 A 
ATOM     67  C   UNL A   1      44.617  26.017  26.316  1.00  0.00     0.131 A 
ATOM     68  C   UNL A   1      44.619  23.399  25.516  1.00  0.00     0.055 A 
ATOM     69  C   UNL A   1      45.278  25.656  25.140  1.00  0.00     0.041 A 
ATOM     70  F   UNL A   1      44.776  27.307  26.627  1.00  0.00    -0.206 F 
ATOM     71  C   UNL A   1      45.315  24.331  24.753  1.00  0.00     0.022 A 
BRANCH  68  72
ATOM     72  S   UNL A   1      44.787  21.636  25.161  1.00  0.00     0.124 S 
ATOM     73  O   UNL A   1      46.142  21.374  25.634  1.00  0.00    -0.237 OA
ATOM     74  O   UNL A   1      43.704  21.070  25.957  1.00  0.00    -0.237 OA
ATOM     75  O   UNL A   1      44.604  21.567  23.714  1.00  0.00    -0.744 OA
ENDBRANCH  68  72
ENDBRANCH  51  65
BRANCH  52  76
ATOM     76  C   UNL A   1      47.182  32.533  29.566  1.00  0.00     0.023 A 
ATOM     77  C   UNL A   1      46.926  32.801  28.202  1.00  0.00     0.031 A 
ATOM     78  C   UNL A   1      47.736  33.602  30.313  1.00  0.00     0.131 A 
ATOM     79  C   UNL A   1      47.236  34.070  27.648  1.00  0.00     0.055 A 
ATOM     80  C   UNL A   1      48.055  34.843  29.759  1.00  0.00     0.041 A 
ATOM     81  F   UNL A   1      47.912  33.514  31.640  1.00  0.00    -0.206 F 
ATOM     82  C   UNL A   1      47.798  35.087  28.423  1.00  0.00     0.022 A 
BRANCH  79  83
ATOM     83  S   UNL A   1      46.820  34.463  25.916  1.00  0.00     0.124 S 
ATOM     84  O   UNL A   1      48.076  34.185  25.227  1.00  0.00    -0.237 OA
ATOM     85  O   UNL A   1      45.713  33.556  25.643  1.00  0.00    -0.237 OA
ATOM     86  O   UNL A   1      46.449  35.879  25.967  1.00  0.00    -0.744 OA
ENDBRANCH  79  83
ENDBRANCH  52  76
BRANCH  64  87
ATOM     87  C   UNL A   1      46.998  27.075  32.913  1.00  0.00     0.023 A 
ATOM     88  C   UNL A   1      46.147  27.688  33.862  1.00  0.00     0.031 A 
ATOM     89  C   UNL A   1      48.165  26.453  33.398  1.00  0.00     0.131 A 
ATOM     90  C   UNL A   1      46.485  27.665  35.232  1.00  0.00     0.055 A 
ATOM     91  C   UNL A   1      48.482  26.412  34.754  1.00  0.00     0.041 A 
ATOM     92  F   UNL A   1      49.005  25.830  32.553  1.00  0.00    -0.206 F 
ATOM     93  C   UNL A   1      47.644  27.023  35.678  1.00  0.00     0.022 A 
BRANCH  90  94
ATOM     94  S   UNL A   1      45.431  28.491  36.471  1.00  0.00     0.124 S 
ATOM     95  O   UNL A   1      44.593  29.376  35.672  1.00  0.00    -0.237 OA
ATOM     96  O   UNL A   1      44.753  27.365  37.107  1.00  0.00    -0.237 OA
ATOM     97  O   UNL A   1      46.396  29.180  37.331  1.00  0.00    -0.744 OA
ENDBRANCH  90  94
ENDBRANCH  64  87
ENDBRANCH  38  39
ENDBRANCH  31  33
ENDBRANCH  30  31
ENDBRANCH  29  30
ENDBRANCH  28  29
ENDBRANCH  27  28
ENDBRANCH  26  27
ENDBRANCH  25  26
ENDBRANCH  24  25
ENDBRANCH   1  24
TORSDOF 28
ENDMDL
MODEL 3
REMARK VINA RESULT:      -6.1      4.277     11.922
REMARK SMILES CCCCNC(=O)c1cnn([C@@H](C)C(=O)OCCOCCOCCOCCOC(=O)c2ccc(-c3c4nc(c(-c5cc(S(=O)(=O)[O-])ccc5F)c5ccc([nH]5)c(-c5cc(S(=O)(=O)[O-])ccc5F)c5nc(c(-c6cc(S(=O)(=O)[O-])ccc6F)c6ccc3[nH]6)C=C5)C=C4)cc2)c1
REMARK SMILES IDX 21 1 20 2 19 3 18 4 17 5 16 6 14 7 15 8 12 9 13 10 11 11
REMARK SMILES IDX 8 12 9 13 94 14 10 15 6 16 5 17 7 19 4 20 3 21 2 22 1 23
REMARK SMILES IDX 22 24 23 25 24 26 25 27 26 28 27 29 28 30 29 31 30 32 31 33
REMARK SMILES IDX 32 34 93 35 33 36 92 37 34 38 35 39 36 40 86 41 37 42 91 43
REMARK SMILES IDX 85 44 87 45 38 46 90 47 84 48 83 49 39 51 71 52 51 53 70 54
REMARK SMILES IDX 52 55 55 56 69 57 88 58 53 59 54 60 68 62 89 63 56 64 40 65
REMARK SMILES IDX 41 66 49 67 42 68 48 69 50 70 47 71 43 72 44 73 45 74 46 75
REMARK SMILES IDX 72 76 73 77 81 78 74 79 80 80 82 81 79 82 75 83 76 84 77 85
REMARK SMILES IDX 78 86 57 87 58 88 66 89 59 90 65 91 67 92 64 93 60 94 61 95
REMARK SMILES IDX 62 96 63 97
REMARK H PARENT 5 18 87 50 55 61
REMARK Flexibility Score: inf
ROOT
ATOM      1  C   UNL A   1      48.272  29.979  28.844  1.00  0.00     0.188 C 
ENDROOT
BRANCH   1   2
ATOM      2  C   UNL A   1      49.597  29.803  28.074  1.00  0.00     0.188 C 
BRANCH   2   3
ATOM      3  O   UNL A   1      50.718  29.134  28.646  1.00  0.00    -0.376 OA
BRANCH   3   4
ATOM      4  C   UNL A   1      51.035  27.812  28.245  1.00  0.00     0.202 C 
BRANCH   4   5
ATOM      5  C   UNL A   1      52.301  27.577  27.406  1.00  0.00     0.261 C 
BRANCH   5   6
ATOM      6  O   UNL A   1      52.822  26.233  27.391  1.00  0.00    -0.462 OA
BRANCH   6   7
ATOM      7  C   UNL A   1      52.166  25.338  26.622  1.00  0.00     0.330 C 
ATOM      8  O   UNL A   1      51.115  24.794  26.966  1.00  0.00    -0.250 OA
BRANCH   7   9
ATOM      9  C   UNL A   1      52.800  24.986  25.288  1.00  0.00     0.213 C 
ATOM     10  C   UNL A   1      54.141  24.310  25.528  1.00  0.00     0.046 C 
BRANCH   9  11
ATOM     11  N   UNL A   1      52.912  26.021  24.259  1.00  0.00    -0.258 N 
ATOM     12  C   UNL A   1      52.403  27.673  22.869  1.00  0.00     0.077 A 
ATOM     13  C   UNL A   1      53.682  27.122  22.626  1.00  0.00     0.149 A 
ATOM     14  C   UNL A   1      51.941  26.943  23.948  1.00  0.00     0.123 A 
ATOM     15  N   UNL A   1      53.947  26.059  23.395  1.00  0.00    -0.180 NA
BRANCH  12  16
ATOM     16  C   UNL A   1      51.712  28.784  22.243  1.00  0.00     0.254 C 
ATOM     17  N   UNL A   1      51.069  28.596  21.045  1.00  0.00    -0.352 N 
ATOM     18  H   UNL A   1      50.763  29.419  20.600  1.00  0.00     0.163 HD
ATOM     19  O   UNL A   1      51.655  29.889  22.782  1.00  0.00    -0.269 OA
BRANCH  17  20
ATOM     20  C   UNL A   1      50.774  27.363  20.334  1.00  0.00     0.116 C 
BRANCH  20  21
ATOM     21  C   UNL A   1      50.888  27.528  18.818  1.00  0.00     0.021 C 
BRANCH  21  22
ATOM     22  C   UNL A   1      51.595  26.381  18.091  1.00  0.00    -0.002 C 
ATOM     23  C   UNL A   1      53.076  26.273  18.427  1.00  0.00     0.004 C 
ENDBRANCH  21  22
ENDBRANCH  20  21
ENDBRANCH  17  20
ENDBRANCH  12  16
ENDBRANCH   9  11
ENDBRANCH   7   9
ENDBRANCH   6   7
ENDBRANCH   5   6
ENDBRANCH   4   5
ENDBRANCH   3   4
ENDBRANCH   2   3
ENDBRANCH   1   2
BRANCH   1  24
ATOM     24  O   UNL A   1      47.187  29.187  28.403  1.00  0.00    -0.377 OA
BRANCH  24  25
ATOM     25  C   UNL A   1      47.397  28.501  27.178  1.00  0.00     0.188 C 
BRANCH  25  26
ATOM     26  C   UNL A   1      46.992  27.008  27.157  1.00  0.00     0.188 C 
BRANCH  26  27
ATOM     27  O   UNL A   1      46.926  26.422  25.856  1.00  0.00    -0.376 OA
BRANCH  27  28
ATOM     28  C   UNL A   1      45.722  25.835  25.376  1.00  0.00     0.202 C 
BRANCH  28  29
ATOM     29  C   UNL A   1      44.488  26.734  25.294  1.00  0.00     0.261 C 
BRANCH  29  30
ATOM     30  O   UNL A   1      43.268  26.022  25.335  1.00  0.00    -0.460 OA
BRANCH  30  31
ATOM     31  C   UNL A   1      43.089  25.245  26.413  1.00  0.00     0.338 C 
ATOM     32  O   UNL A   1      43.522  24.110  26.597  1.00  0.00    -0.246 OA
BRANCH  31  33
ATOM     33  C   UNL A   1      42.205  25.940  27.339  1.00  0.00     0.060 A 
ATOM     34  C   UNL A   1      41.391  26.920  26.771  1.00  0.00     0.016 A 
ATOM     35  C   UNL A   1      42.570  25.927  28.692  1.00  0.00     0.016 A 
ATOM     36  C   UNL A   1      41.237  28.083  27.474  1.00  0.00     0.010 A 
ATOM     37  C   UNL A   1      42.464  27.103  29.368  1.00  0.00     0.010 A 
ATOM     38  C   UNL A   1      41.892  28.188  28.702  1.00  0.00    -0.014 A 
BRANCH  38  39
ATOM     39  C   UNL A   1      41.911  29.467  29.359  1.00  0.00     0.031 A 
ATOM     40  C   UNL A   1      43.027  30.297  28.868  1.00  0.00     0.074 A 
ATOM     41  C   UNL A   1      40.901  29.827  30.174  1.00  0.00     0.049 A 
ATOM     42  N   UNL A   1      44.053  30.712  29.531  1.00  0.00    -0.248 NA
ATOM     43  C   UNL A   1      43.154  30.474  27.406  1.00  0.00     0.031 C 
ATOM     44  C   UNL A   1      39.660  29.090  30.442  1.00  0.00     0.029 A 
ATOM     45  N   UNL A   1      40.697  30.997  30.825  1.00  0.00    -0.354 N 
ATOM     46  C   UNL A   1      44.787  31.451  28.612  1.00  0.00     0.074 A 
ATOM     47  C   UNL A   1      44.365  31.015  27.315  1.00  0.00     0.031 C 
ATOM     48  C   UNL A   1      38.747  29.942  30.963  1.00  0.00     0.029 A 
ATOM     49  C   UNL A   1      39.365  31.247  31.141  1.00  0.00     0.049 A 
ATOM     50  H   UNL A   1      41.427  31.618  31.054  1.00  0.00     0.167 HD
ATOM     51  C   UNL A   1      45.394  32.606  28.990  1.00  0.00     0.034 A 
ATOM     52  C   UNL A   1      38.808  32.466  31.386  1.00  0.00     0.034 A 
ATOM     53  C   UNL A   1      45.601  32.625  30.425  1.00  0.00     0.049 A 
ATOM     54  C   UNL A   1      39.937  33.384  31.722  1.00  0.00     0.074 A 
ATOM     55  C   UNL A   1      46.210  31.751  31.307  1.00  0.00     0.029 A 
ATOM     56  N   UNL A   1      44.786  33.424  31.199  1.00  0.00    -0.354 N 
ATOM     57  N   UNL A   1      40.692  33.236  32.780  1.00  0.00    -0.248 NA
ATOM     58  C   UNL A   1      40.555  34.126  30.630  1.00  0.00     0.031 C 
ATOM     59  C   UNL A   1      45.362  31.731  32.452  1.00  0.00     0.029 A 
ATOM     60  C   UNL A   1      44.343  32.666  32.259  1.00  0.00     0.049 A 
ATOM     61  H   UNL A   1      44.561  34.367  31.026  1.00  0.00     0.167 HD
ATOM     62  C   UNL A   1      41.988  33.469  32.339  1.00  0.00     0.074 A 
ATOM     63  C   UNL A   1      41.833  34.095  31.025  1.00  0.00     0.031 C 
ATOM     64  C   UNL A   1      43.064  32.859  32.924  1.00  0.00     0.034 A 
BRANCH  51  65
ATOM     65  C   UNL A   1      45.399  33.854  28.133  1.00  0.00     0.023 A 
ATOM     66  C   UNL A   1      44.359  34.769  28.361  1.00  0.00     0.031 A 
ATOM     67  C   UNL A   1      46.153  34.072  26.952  1.00  0.00     0.131 A 
ATOM     68  C   UNL A   1      44.028  35.738  27.401  1.00  0.00     0.055 A 
ATOM     69  C   UNL A   1      45.863  35.083  26.034  1.00  0.00     0.041 A 
ATOM     70  F   UNL A   1      47.158  33.284  26.558  1.00  0.00    -0.206 F 
ATOM     71  C   UNL A   1      44.769  35.901  26.236  1.00  0.00     0.022 A 
BRANCH  68  72
ATOM     72  S   UNL A   1      42.487  36.653  27.626  1.00  0.00     0.124 S 
ATOM     73  O   UNL A   1      41.504  35.576  27.580  1.00  0.00    -0.237 OA
ATOM     74  O   UNL A   1      42.701  37.277  28.927  1.00  0.00    -0.237 OA
ATOM     75  O   UNL A   1      42.470  37.566  26.487  1.00  0.00    -0.744 OA
ENDBRANCH  68  72
ENDBRANCH  51  65
BRANCH  52  76
ATOM     76  C   UNL A   1      37.452  32.926  30.943  1.00  0.00     0.023 A 
ATOM     77  C   UNL A   1      36.539  33.579  31.802  1.00  0.00     0.031 A 
ATOM     78  C   UNL A   1      37.105  32.912  29.570  1.00  0.00     0.131 A 
ATOM     79  C   UNL A   1      35.350  34.155  31.285  1.00  0.00     0.055 A 
ATOM     80  C   UNL A   1      35.926  33.465  29.067  1.00  0.00     0.041 A 
ATOM     81  F   UNL A   1      37.944  32.431  28.638  1.00  0.00    -0.206 F 
ATOM     82  C   UNL A   1      35.045  34.098  29.923  1.00  0.00     0.022 A 
BRANCH  79  83
ATOM     83  S   UNL A   1      34.212  35.085  32.365  1.00  0.00     0.124 S 
ATOM     84  O   UNL A   1      33.515  35.942  31.414  1.00  0.00    -0.237 OA
ATOM     85  O   UNL A   1      33.426  34.024  32.984  1.00  0.00    -0.237 OA
ATOM     86  O   UNL A   1      35.111  35.790  33.282  1.00  0.00    -0.744 OA
ENDBRANCH  79  83
ENDBRANCH  52  76
BRANCH  64  87
ATOM     87  C   UNL A   1      42.878  32.150  34.256  1.00  0.00     0.023 A 
ATOM     88  C   UNL A   1      42.497  30.798  34.417  1.00  0.00     0.031 A 
ATOM     89  C   UNL A   1      43.248  32.861  35.413  1.00  0.00     0.131 A 
ATOM     90  C   UNL A   1      42.491  30.215  35.702  1.00  0.00     0.055 A 
ATOM     91  C   UNL A   1      43.263  32.274  36.678  1.00  0.00     0.041 A 
ATOM     92  F   UNL A   1      43.645  34.143  35.328  1.00  0.00    -0.206 F 
ATOM     93  C   UNL A   1      42.880  30.948  36.828  1.00  0.00     0.022 A 
BRANCH  90  94
ATOM     94  S   UNL A   1      41.956  28.488  35.946  1.00  0.00     0.124 S 
ATOM     95  O   UNL A   1      42.105  27.894  34.623  1.00  0.00    -0.237 OA
ATOM     96  O   UNL A   1      42.883  28.014  36.971  1.00  0.00    -0.237 OA
ATOM     97  O   UNL A   1      40.570  28.624  36.399  1.00  0.00    -0.744 OA
ENDBRANCH  90  94
ENDBRANCH  64  87
ENDBRANCH  38  39
ENDBRANCH  31  33
ENDBRANCH  30  31
ENDBRANCH  29  30
ENDBRANCH  28  29
ENDBRANCH  27  28
ENDBRANCH  26  27
ENDBRANCH  25  26
ENDBRANCH  24  25
ENDBRANCH   1  24
TORSDOF 28
ENDMDL
