MODEL 1
REMARK VINA RESULT:      -8.4      0.000      0.000
REMARK SMILES CC(C)CCn1cc(C(=O)OCCOCCOCCOCCOC(=O)c2ccc(-c3c4nc(c(-c5cc(S(=O)(=O)[O-])ccc5F)c5ccc([nH]5)c(-c5cc(S(=O)(=O)[O-])ccc5F)c5nc(c(-c6cc(S(=O)(=O)[O-])ccc6F)c6ccc3[nH]6)C=C5)C=C4)cc2)c(-c2ccoc2)n1
REMARK SMILES IDX 17 1 16 2 15 3 14 4 13 5 12 6 11 7 9 8 10 9 8 10 6 11 7 12
REMARK SMILES IDX 95 13 89 14 5 15 4 16 2 17 1 18 3 19 90 20 91 21 94 22 92 23
REMARK SMILES IDX 93 24 18 25 19 26 20 27 21 28 22 29 23 30 24 31 25 32 26 33
REMARK SMILES IDX 27 34 88 35 28 36 87 37 29 38 30 39 31 40 81 41 32 42 86 43
REMARK SMILES IDX 80 44 82 45 33 46 85 47 79 48 78 49 34 51 66 52 46 53 65 54
REMARK SMILES IDX 47 55 50 56 64 57 83 58 48 59 49 60 63 62 84 63 51 64 35 65
REMARK SMILES IDX 36 66 44 67 37 68 43 69 45 70 42 71 38 72 39 73 40 74 41 75
REMARK SMILES IDX 67 76 68 77 76 78 69 79 75 80 77 81 74 82 70 83 71 84 72 85
REMARK SMILES IDX 73 86 52 87 53 88 61 89 54 90 60 91 62 92 59 93 55 94 56 95
REMARK SMILES IDX 57 96 58 97
REMARK H PARENT 82 50 50 61
REMARK Flexibility Score: inf
ROOT
ATOM      1  O   UNL A   1      41.401  21.261  27.822  1.00  0.00    -0.377 OA
ENDROOT
BRANCH   1   2
ATOM      2  C   UNL A   1      40.782  22.540  27.850  1.00  0.00     0.188 C 
BRANCH   2   3
ATOM      3  C   UNL A   1      40.535  23.104  26.435  1.00  0.00     0.188 C 
BRANCH   3   4
ATOM      4  O   UNL A   1      39.470  24.039  26.404  1.00  0.00    -0.376 OA
BRANCH   4   5
ATOM      5  C   UNL A   1      38.136  23.595  26.277  1.00  0.00     0.202 C 
BRANCH   5   6
ATOM      6  C   UNL A   1      37.735  22.346  25.470  1.00  0.00     0.261 C 
BRANCH   6   7
ATOM      7  O   UNL A   1      36.375  22.213  25.049  1.00  0.00    -0.460 OA
BRANCH   7   8
ATOM      8  C   UNL A   1      35.878  23.100  24.142  1.00  0.00     0.342 C 
ATOM      9  O   UNL A   1      36.317  23.276  23.026  1.00  0.00    -0.246 OA
BRANCH   8  10
ATOM     10  C   UNL A   1      34.661  23.702  24.660  1.00  0.00     0.106 A 
ATOM     11  N   UNL A   1      33.249  25.086  25.634  1.00  0.00    -0.271 N 
ATOM     12  C   UNL A   1      34.543  24.967  25.216  1.00  0.00     0.125 A 
ATOM     13  N   UNL A   1      32.550  23.957  25.481  1.00  0.00    -0.172 NA
ATOM     14  C   UNL A   1      33.386  23.123  24.864  1.00  0.00     0.110 A 
BRANCH  11  15
ATOM     15  C   UNL A   1      32.613  26.260  26.205  1.00  0.00     0.144 C 
BRANCH  15  16
ATOM     16  C   UNL A   1      33.563  27.449  26.422  1.00  0.00     0.027 C 
BRANCH  16  17
ATOM     17  C   UNL A   1      32.888  28.816  26.677  1.00  0.00    -0.016 C 
ATOM     18  C   UNL A   1      33.902  29.950  26.819  1.00  0.00     0.007 C 
ATOM     19  C   UNL A   1      31.899  29.128  25.552  1.00  0.00     0.007 C 
ENDBRANCH  16  17
ENDBRANCH  15  16
ENDBRANCH  11  15
BRANCH  14  20
ATOM     20  C   UNL A   1      32.968  21.756  24.612  1.00  0.00     0.041 A 
ATOM     21  C   UNL A   1      32.886  21.137  23.345  1.00  0.00     0.052 A 
ATOM     22  C   UNL A   1      32.453  20.862  25.523  1.00  0.00     0.205 A 
ATOM     23  C   UNL A   1      32.345  19.891  23.573  1.00  0.00     0.195 A 
ATOM     24  O   UNL A   1      32.093  19.710  24.896  1.00  0.00    -0.472 OA
ENDBRANCH  14  20
ENDBRANCH   8  10
ENDBRANCH   7   8
ENDBRANCH   6   7
ENDBRANCH   5   6
ENDBRANCH   4   5
ENDBRANCH   3   4
ENDBRANCH   2   3
ENDBRANCH   1   2
BRANCH   1  25
ATOM     25  C   UNL A   1      41.339  20.533  26.591  1.00  0.00     0.188 C 
BRANCH  25  26
ATOM     26  C   UNL A   1      42.239  19.296  26.300  1.00  0.00     0.188 C 
BRANCH  26  27
ATOM     27  O   UNL A   1      42.733  19.190  24.966  1.00  0.00    -0.376 OA
BRANCH  27  28
ATOM     28  C   UNL A   1      44.114  19.329  24.688  1.00  0.00     0.202 C 
BRANCH  28  29
ATOM     29  C   UNL A   1      44.838  20.260  25.652  1.00  0.00     0.261 C 
BRANCH  29  30
ATOM     30  O   UNL A   1      45.394  21.386  24.999  1.00  0.00    -0.460 OA
BRANCH  30  31
ATOM     31  C   UNL A   1      44.519  22.381  24.754  1.00  0.00     0.338 C 
ATOM     32  O   UNL A   1      43.408  22.292  24.265  1.00  0.00    -0.246 OA
BRANCH  31  33
ATOM     33  C   UNL A   1      45.170  23.645  25.081  1.00  0.00     0.060 A 
ATOM     34  C   UNL A   1      46.206  23.564  26.011  1.00  0.00     0.016 A 
ATOM     35  C   UNL A   1      44.473  24.830  24.805  1.00  0.00     0.016 A 
ATOM     36  C   UNL A   1      46.334  24.601  26.896  1.00  0.00     0.010 A 
ATOM     37  C   UNL A   1      44.571  25.841  25.714  1.00  0.00     0.010 A 
ATOM     38  C   UNL A   1      45.428  25.658  26.796  1.00  0.00    -0.014 A 
BRANCH  38  39
ATOM     39  C   UNL A   1      45.407  26.625  27.861  1.00  0.00     0.031 A 
ATOM     40  C   UNL A   1      46.543  27.555  27.791  1.00  0.00     0.074 A 
ATOM     41  C   UNL A   1      44.374  26.706  28.714  1.00  0.00     0.049 A 
ATOM     42  N   UNL A   1      47.559  27.623  28.581  1.00  0.00    -0.248 NA
ATOM     43  C   UNL A   1      46.685  28.342  26.554  1.00  0.00     0.031 C 
ATOM     44  C   UNL A   1      43.086  26.013  28.634  1.00  0.00     0.029 A 
ATOM     45  N   UNL A   1      44.213  27.545  29.767  1.00  0.00    -0.354 N 
ATOM     46  C   UNL A   1      48.332  28.657  28.075  1.00  0.00     0.074 A 
ATOM     47  C   UNL A   1      47.910  28.835  26.717  1.00  0.00     0.031 C 
ATOM     48  C   UNL A   1      42.204  26.634  29.450  1.00  0.00     0.029 A 
ATOM     49  C   UNL A   1      42.895  27.687  30.178  1.00  0.00     0.049 A 
ATOM     50  H   UNL A   1      44.963  28.011  30.201  1.00  0.00     0.167 HD
ATOM     51  C   UNL A   1      49.006  29.491  28.910  1.00  0.00     0.034 A 
ATOM     52  C   UNL A   1      42.406  28.678  30.970  1.00  0.00     0.034 A 
ATOM     53  C   UNL A   1      49.181  28.872  30.212  1.00  0.00     0.049 A 
ATOM     54  C   UNL A   1      43.565  29.266  31.696  1.00  0.00     0.074 A 
ATOM     55  C   UNL A   1      49.738  27.677  30.634  1.00  0.00     0.029 A 
ATOM     56  N   UNL A   1      48.395  29.300  31.261  1.00  0.00    -0.354 N 
ATOM     57  N   UNL A   1      44.274  28.611  32.575  1.00  0.00    -0.248 NA
ATOM     58  C   UNL A   1      44.240  30.413  31.101  1.00  0.00     0.031 C 
ATOM     59  C   UNL A   1      48.894  27.222  31.690  1.00  0.00     0.029 A 
ATOM     60  C   UNL A   1      47.915  28.191  31.915  1.00  0.00     0.049 A 
ATOM     61  H   UNL A   1      48.210  30.238  31.501  1.00  0.00     0.167 HD
ATOM     62  C   UNL A   1      45.590  28.981  32.334  1.00  0.00     0.074 A 
ATOM     63  C   UNL A   1      45.495  30.173  31.494  1.00  0.00     0.031 C 
ATOM     64  C   UNL A   1      46.627  28.127  32.587  1.00  0.00     0.034 A 
BRANCH  51  65
ATOM     65  C   UNL A   1      49.105  30.991  28.684  1.00  0.00     0.023 A 
ATOM     66  C   UNL A   1      47.963  31.607  28.148  1.00  0.00     0.031 A 
ATOM     67  C   UNL A   1      50.278  31.784  28.677  1.00  0.00     0.131 A 
ATOM     68  C   UNL A   1      48.051  32.846  27.492  1.00  0.00     0.055 A 
ATOM     69  C   UNL A   1      50.346  33.045  28.077  1.00  0.00     0.041 A 
ATOM     70  F   UNL A   1      51.449  31.386  29.184  1.00  0.00    -0.206 F 
ATOM     71  C   UNL A   1      49.238  33.564  27.439  1.00  0.00     0.022 A 
BRANCH  68  72
ATOM     72  S   UNL A   1      46.618  33.390  26.537  1.00  0.00     0.124 S 
ATOM     73  O   UNL A   1      45.848  34.098  27.556  1.00  0.00    -0.237 OA
ATOM     74  O   UNL A   1      47.245  34.217  25.511  1.00  0.00    -0.237 OA
ATOM     75  O   UNL A   1      46.034  32.138  26.065  1.00  0.00    -0.744 OA
ENDBRANCH  68  72
ENDBRANCH  51  65
BRANCH  52  76
ATOM     76  C   UNL A   1      41.076  29.334  30.845  1.00  0.00     0.023 A 
ATOM     77  C   UNL A   1      40.041  29.131  31.779  1.00  0.00     0.031 A 
ATOM     78  C   UNL A   1      40.875  30.362  29.893  1.00  0.00     0.131 A 
ATOM     79  C   UNL A   1      38.870  29.926  31.727  1.00  0.00     0.055 A 
ATOM     80  C   UNL A   1      39.711  31.130  29.836  1.00  0.00     0.041 A 
ATOM     81  F   UNL A   1      41.841  30.716  29.032  1.00  0.00    -0.206 F 
ATOM     82  C   UNL A   1      38.704  30.920  30.761  1.00  0.00     0.022 A 
BRANCH  79  83
ATOM     83  S   UNL A   1      37.576  29.740  32.996  1.00  0.00     0.124 S 
ATOM     84  O   UNL A   1      36.460  30.471  32.408  1.00  0.00    -0.237 OA
ATOM     85  O   UNL A   1      37.431  28.291  33.084  1.00  0.00    -0.237 OA
ATOM     86  O   UNL A   1      38.167  30.367  34.179  1.00  0.00    -0.744 OA
ENDBRANCH  79  83
ENDBRANCH  52  76
BRANCH  64  87
ATOM     87  C   UNL A   1      46.366  26.906  33.449  1.00  0.00     0.023 A 
ATOM     88  C   UNL A   1      45.620  25.775  33.046  1.00  0.00     0.031 A 
ATOM     89  C   UNL A   1      47.016  26.845  34.695  1.00  0.00     0.131 A 
ATOM     90  C   UNL A   1      45.540  24.646  33.888  1.00  0.00     0.055 A 
ATOM     91  C   UNL A   1      46.951  25.719  35.516  1.00  0.00     0.041 A 
ATOM     92  F   UNL A   1      47.766  27.874  35.125  1.00  0.00    -0.206 F 
ATOM     93  C   UNL A   1      46.207  24.616  35.117  1.00  0.00     0.022 A 
BRANCH  90  94
ATOM     94  S   UNL A   1      44.554  23.192  33.403  1.00  0.00     0.124 S 
ATOM     95  O   UNL A   1      44.424  23.331  31.959  1.00  0.00    -0.237 OA
ATOM     96  O   UNL A   1      45.382  22.082  33.869  1.00  0.00    -0.237 OA
ATOM     97  O   UNL A   1      43.305  23.368  34.146  1.00  0.00    -0.744 OA
ENDBRANCH  90  94
ENDBRANCH  64  87
ENDBRANCH  38  39
ENDBRANCH  31  33
ENDBRANCH  30  31
ENDBRANCH  29  30
ENDBRANCH  28  29
ENDBRANCH  27  28
ENDBRANCH  26  27
ENDBRANCH  25  26
ENDBRANCH   1  25
TORSDOF 27
ENDMDL
MODEL 2
REMARK VINA RESULT:      -8.4      1.491      3.101
REMARK SMILES CC(C)CCn1cc(C(=O)OCCOCCOCCOCCOC(=O)c2ccc(-c3c4nc(c(-c5cc(S(=O)(=O)[O-])ccc5F)c5ccc([nH]5)c(-c5cc(S(=O)(=O)[O-])ccc5F)c5nc(c(-c6cc(S(=O)(=O)[O-])ccc6F)c6ccc3[nH]6)C=C5)C=C4)cc2)c(-c2ccoc2)n1
REMARK SMILES IDX 17 1 16 2 15 3 14 4 13 5 12 6 11 7 9 8 10 9 8 10 6 11 7 12
REMARK SMILES IDX 95 13 89 14 5 15 4 16 2 17 1 18 3 19 90 20 91 21 94 22 92 23
REMARK SMILES IDX 93 24 18 25 19 26 20 27 21 28 22 29 23 30 24 31 25 32 26 33
REMARK SMILES IDX 27 34 88 35 28 36 87 37 29 38 30 39 31 40 81 41 32 42 86 43
REMARK SMILES IDX 80 44 82 45 33 46 85 47 79 48 78 49 34 51 66 52 46 53 65 54
REMARK SMILES IDX 47 55 50 56 64 57 83 58 48 59 49 60 63 62 84 63 51 64 35 65
REMARK SMILES IDX 36 66 44 67 37 68 43 69 45 70 42 71 38 72 39 73 40 74 41 75
REMARK SMILES IDX 67 76 68 77 76 78 69 79 75 80 77 81 74 82 70 83 71 84 72 85
REMARK SMILES IDX 73 86 52 87 53 88 61 89 54 90 60 91 62 92 59 93 55 94 56 95
REMARK SMILES IDX 57 96 58 97
REMARK H PARENT 82 50 50 61
REMARK Flexibility Score: inf
ROOT
ATOM      1  O   UNL A   1      41.266  21.026  27.765  1.00  0.00    -0.377 OA
ENDROOT
BRANCH   1   2
ATOM      2  C   UNL A   1      40.458  22.194  27.794  1.00  0.00     0.188 C 
BRANCH   2   3
ATOM      3  C   UNL A   1      40.027  22.645  26.384  1.00  0.00     0.188 C 
BRANCH   3   4
ATOM      4  O   UNL A   1      38.916  23.526  26.414  1.00  0.00    -0.376 OA
BRANCH   4   5
ATOM      5  C   UNL A   1      37.666  23.112  25.905  1.00  0.00     0.202 C 
BRANCH   5   6
ATOM      6  C   UNL A   1      36.593  24.093  25.397  1.00  0.00     0.261 C 
BRANCH   6   7
ATOM      7  O   UNL A   1      35.329  23.569  24.984  1.00  0.00    -0.460 OA
BRANCH   7   8
ATOM      8  C   UNL A   1      34.518  22.995  25.918  1.00  0.00     0.342 C 
ATOM      9  O   UNL A   1      34.383  23.383  27.057  1.00  0.00    -0.246 OA
BRANCH   8  10
ATOM     10  C   UNL A   1      33.738  21.933  25.304  1.00  0.00     0.106 A 
ATOM     11  N   UNL A   1      33.132  19.999  24.441  1.00  0.00    -0.271 N 
ATOM     12  C   UNL A   1      34.141  20.620  25.119  1.00  0.00     0.125 A 
ATOM     13  N   UNL A   1      32.153  20.837  24.087  1.00  0.00    -0.172 NA
ATOM     14  C   UNL A   1      32.495  22.004  24.631  1.00  0.00     0.110 A 
BRANCH  11  15
ATOM     15  C   UNL A   1      33.045  18.593  24.087  1.00  0.00     0.144 C 
BRANCH  15  16
ATOM     16  C   UNL A   1      34.313  17.783  24.403  1.00  0.00     0.027 C 
BRANCH  16  17
ATOM     17  C   UNL A   1      34.107  16.270  24.643  1.00  0.00    -0.016 C 
ATOM     18  C   UNL A   1      35.366  15.586  25.175  1.00  0.00     0.007 C 
ATOM     19  C   UNL A   1      32.937  16.048  25.604  1.00  0.00     0.007 C 
ENDBRANCH  16  17
ENDBRANCH  15  16
ENDBRANCH  11  15
BRANCH  14  20
ATOM     20  C   UNL A   1      31.678  23.175  24.371  1.00  0.00     0.041 A 
ATOM     21  C   UNL A   1      31.022  23.958  25.346  1.00  0.00     0.052 A 
ATOM     22  C   UNL A   1      31.282  23.658  23.144  1.00  0.00     0.205 A 
ATOM     23  C   UNL A   1      30.284  24.886  24.645  1.00  0.00     0.195 A 
ATOM     24  O   UNL A   1      30.448  24.720  23.306  1.00  0.00    -0.472 OA
ENDBRANCH  14  20
ENDBRANCH   8  10
ENDBRANCH   7   8
ENDBRANCH   6   7
ENDBRANCH   5   6
ENDBRANCH   4   5
ENDBRANCH   3   4
ENDBRANCH   2   3
ENDBRANCH   1   2
BRANCH   1  25
ATOM     25  C   UNL A   1      41.245  20.248  26.563  1.00  0.00     0.188 C 
BRANCH  25  26
ATOM     26  C   UNL A   1      42.277  19.117  26.276  1.00  0.00     0.188 C 
BRANCH  26  27
ATOM     27  O   UNL A   1      42.733  19.023  24.927  1.00  0.00    -0.376 OA
BRANCH  27  28
ATOM     28  C   UNL A   1      44.092  19.249  24.602  1.00  0.00     0.202 C 
BRANCH  28  29
ATOM     29  C   UNL A   1      44.787  20.232  25.534  1.00  0.00     0.261 C 
BRANCH  29  30
ATOM     30  O   UNL A   1      45.201  21.409  24.867  1.00  0.00    -0.460 OA
BRANCH  30  31
ATOM     31  C   UNL A   1      44.283  22.397  24.849  1.00  0.00     0.338 C 
ATOM     32  O   UNL A   1      43.104  22.312  24.561  1.00  0.00    -0.246 OA
BRANCH  31  33
ATOM     33  C   UNL A   1      44.967  23.652  25.139  1.00  0.00     0.060 A 
ATOM     34  C   UNL A   1      46.034  23.563  26.032  1.00  0.00     0.016 A 
ATOM     35  C   UNL A   1      44.280  24.846  24.876  1.00  0.00     0.016 A 
ATOM     36  C   UNL A   1      46.212  24.606  26.901  1.00  0.00     0.010 A 
ATOM     37  C   UNL A   1      44.428  25.864  25.771  1.00  0.00     0.010 A 
ATOM     38  C   UNL A   1      45.320  25.677  26.823  1.00  0.00    -0.014 A 
BRANCH  38  39
ATOM     39  C   UNL A   1      45.354  26.654  27.878  1.00  0.00     0.031 A 
ATOM     40  C   UNL A   1      46.527  27.535  27.783  1.00  0.00     0.074 A 
ATOM     41  C   UNL A   1      44.338  26.786  28.745  1.00  0.00     0.049 A 
ATOM     42  N   UNL A   1      47.555  27.569  28.559  1.00  0.00    -0.248 NA
ATOM     43  C   UNL A   1      46.683  28.304  26.537  1.00  0.00     0.031 C 
ATOM     44  C   UNL A   1      43.021  26.145  28.690  1.00  0.00     0.029 A 
ATOM     45  N   UNL A   1      44.225  27.641  29.791  1.00  0.00    -0.354 N 
ATOM     46  C   UNL A   1      48.363  28.566  28.031  1.00  0.00     0.074 A 
ATOM     47  C   UNL A   1      47.929  28.748  26.678  1.00  0.00     0.031 C 
ATOM     48  C   UNL A   1      42.177  26.810  29.511  1.00  0.00     0.029 A 
ATOM     49  C   UNL A   1      42.921  27.841  30.219  1.00  0.00     0.049 A 
ATOM     50  H   UNL A   1      45.001  28.080  30.210  1.00  0.00     0.167 HD
ATOM     51  C   UNL A   1      49.082  29.379  28.848  1.00  0.00     0.034 A 
ATOM     52  C   UNL A   1      42.484  28.859  31.007  1.00  0.00     0.034 A 
ATOM     53  C   UNL A   1      49.250  28.766  30.155  1.00  0.00     0.049 A 
ATOM     54  C   UNL A   1      43.676  29.406  31.711  1.00  0.00     0.074 A 
ATOM     55  C   UNL A   1      49.763  27.553  30.581  1.00  0.00     0.029 A 
ATOM     56  N   UNL A   1      48.497  29.237  31.210  1.00  0.00    -0.354 N 
ATOM     57  N   UNL A   1      44.370  28.730  32.587  1.00  0.00    -0.248 NA
ATOM     58  C   UNL A   1      44.390  30.518  31.095  1.00  0.00     0.031 C 
ATOM     59  C   UNL A   1      48.917  27.144  31.653  1.00  0.00     0.029 A 
ATOM     60  C   UNL A   1      47.981  28.154  31.881  1.00  0.00     0.049 A 
ATOM     61  H   UNL A   1      48.354  30.184  31.443  1.00  0.00     0.167 HD
ATOM     62  C   UNL A   1      45.697  29.044  32.324  1.00  0.00     0.074 A 
ATOM     63  C   UNL A   1      45.639  30.231  31.473  1.00  0.00     0.031 C 
ATOM     64  C   UNL A   1      46.702  28.151  32.572  1.00  0.00     0.034 A 
BRANCH  51  65
ATOM     65  C   UNL A   1      49.239  30.871  28.606  1.00  0.00     0.023 A 
ATOM     66  C   UNL A   1      48.104  31.537  28.118  1.00  0.00     0.031 A 
ATOM     67  C   UNL A   1      50.446  31.610  28.538  1.00  0.00     0.131 A 
ATOM     68  C   UNL A   1      48.217  32.766  27.448  1.00  0.00     0.055 A 
ATOM     69  C   UNL A   1      50.544  32.862  27.925  1.00  0.00     0.041 A 
ATOM     70  F   UNL A   1      51.619  31.161  28.993  1.00  0.00    -0.206 F 
ATOM     71  C   UNL A   1      49.433  33.429  27.335  1.00  0.00     0.022 A 
BRANCH  68  72
ATOM     72  S   UNL A   1      46.769  33.370  26.556  1.00  0.00     0.124 S 
ATOM     73  O   UNL A   1      46.029  34.032  27.627  1.00  0.00    -0.237 OA
ATOM     74  O   UNL A   1      47.379  34.242  25.559  1.00  0.00    -0.237 OA
ATOM     75  O   UNL A   1      46.162  32.149  26.035  1.00  0.00    -0.744 OA
ENDBRANCH  68  72
ENDBRANCH  51  65
BRANCH  52  76
ATOM     76  C   UNL A   1      41.180  29.568  30.893  1.00  0.00     0.023 A 
ATOM     77  C   UNL A   1      40.169  29.453  31.867  1.00  0.00     0.031 A 
ATOM     78  C   UNL A   1      40.994  30.562  29.903  1.00  0.00     0.131 A 
ATOM     79  C   UNL A   1      39.032  30.296  31.816  1.00  0.00     0.055 A 
ATOM     80  C   UNL A   1      39.863  31.378  29.847  1.00  0.00     0.041 A 
ATOM     81  F   UNL A   1      41.946  30.835  28.998  1.00  0.00    -0.206 F 
ATOM     82  C   UNL A   1      38.879  31.254  30.811  1.00  0.00     0.022 A 
BRANCH  79  83
ATOM     83  S   UNL A   1      37.773  30.223  33.130  1.00  0.00     0.124 S 
ATOM     84  O   UNL A   1      36.780  29.322  32.558  1.00  0.00    -0.237 OA
ATOM     85  O   UNL A   1      38.535  29.715  34.265  1.00  0.00    -0.237 OA
ATOM     86  O   UNL A   1      37.338  31.614  33.261  1.00  0.00    -0.744 OA
ENDBRANCH  79  83
ENDBRANCH  52  76
BRANCH  64  87
ATOM     87  C   UNL A   1      46.403  26.950  33.450  1.00  0.00     0.023 A 
ATOM     88  C   UNL A   1      45.656  25.818  33.048  1.00  0.00     0.031 A 
ATOM     89  C   UNL A   1      47.017  26.907  34.715  1.00  0.00     0.131 A 
ATOM     90  C   UNL A   1      45.540  24.708  33.909  1.00  0.00     0.055 A 
ATOM     91  C   UNL A   1      46.916  25.798  35.555  1.00  0.00     0.041 A 
ATOM     92  F   UNL A   1      47.765  27.936  35.145  1.00  0.00    -0.206 F 
ATOM     93  C   UNL A   1      46.172  24.695  35.157  1.00  0.00     0.022 A 
BRANCH  90  94
ATOM     94  S   UNL A   1      44.552  23.254  33.425  1.00  0.00     0.124 S 
ATOM     95  O   UNL A   1      44.375  23.422  31.988  1.00  0.00    -0.237 OA
ATOM     96  O   UNL A   1      45.405  22.143  33.841  1.00  0.00    -0.237 OA
ATOM     97  O   UNL A   1      43.326  23.402  34.211  1.00  0.00    -0.744 OA
ENDBRANCH  90  94
ENDBRANCH  64  87
ENDBRANCH  38  39
ENDBRANCH  31  33
ENDBRANCH  30  31
ENDBRANCH  29  30
ENDBRANCH  28  29
ENDBRANCH  27  28
ENDBRANCH  26  27
ENDBRANCH  25  26
ENDBRANCH   1  25
TORSDOF 27
ENDMDL
MODEL 3
REMARK VINA RESULT:      -8.2      4.676      8.709
REMARK SMILES CC(C)CCn1cc(C(=O)OCCOCCOCCOCCOC(=O)c2ccc(-c3c4nc(c(-c5cc(S(=O)(=O)[O-])ccc5F)c5ccc([nH]5)c(-c5cc(S(=O)(=O)[O-])ccc5F)c5nc(c(-c6cc(S(=O)(=O)[O-])ccc6F)c6ccc3[nH]6)C=C5)C=C4)cc2)c(-c2ccoc2)n1
REMARK SMILES IDX 17 1 16 2 15 3 14 4 13 5 12 6 11 7 9 8 10 9 8 10 6 11 7 12
REMARK SMILES IDX 95 13 89 14 5 15 4 16 2 17 1 18 3 19 90 20 91 21 94 22 92 23
REMARK SMILES IDX 93 24 18 25 19 26 20 27 21 28 22 29 23 30 24 31 25 32 26 33
REMARK SMILES IDX 27 34 88 35 28 36 87 37 29 38 30 39 31 40 81 41 32 42 86 43
REMARK SMILES IDX 80 44 82 45 33 46 85 47 79 48 78 49 34 51 66 52 46 53 65 54
REMARK SMILES IDX 47 55 50 56 64 57 83 58 48 59 49 60 63 62 84 63 51 64 35 65
REMARK SMILES IDX 36 66 44 67 37 68 43 69 45 70 42 71 38 72 39 73 40 74 41 75
REMARK SMILES IDX 67 76 68 77 76 78 69 79 75 80 77 81 74 82 70 83 71 84 72 85
REMARK SMILES IDX 73 86 52 87 53 88 61 89 54 90 60 91 62 92 59 93 55 94 56 95
REMARK SMILES IDX 57 96 58 97
REMARK H PARENT 82 50 50 61
REMARK Flexibility Score: inf
ROOT
ATOM      1  O   UNL A   1      42.633  22.601  26.464  1.00  0.00    -0.377 OA
ENDROOT
BRANCH   1   2
ATOM      2  C   UNL A   1      41.357  22.180  26.002  1.00  0.00     0.188 C 
BRANCH   2   3
ATOM      3  C   UNL A   1      40.208  22.719  26.879  1.00  0.00     0.188 C 
BRANCH   3   4
ATOM      4  O   UNL A   1      38.965  22.730  26.197  1.00  0.00    -0.376 OA
BRANCH   4   5
ATOM      5  C   UNL A   1      38.501  21.567  25.544  1.00  0.00     0.202 C 
BRANCH   5   6
ATOM      6  C   UNL A   1      37.084  21.439  24.954  1.00  0.00     0.261 C 
BRANCH   6   7
ATOM      7  O   UNL A   1      36.367  22.635  24.634  1.00  0.00    -0.460 OA
BRANCH   7   8
ATOM      8  C   UNL A   1      35.593  23.214  25.594  1.00  0.00     0.342 C 
ATOM      9  O   UNL A   1      35.952  23.459  26.725  1.00  0.00    -0.246 OA
BRANCH   8  10
ATOM     10  C   UNL A   1      34.321  23.620  25.021  1.00  0.00     0.106 A 
ATOM     11  N   UNL A   1      32.597  24.829  24.373  1.00  0.00    -0.271 N 
ATOM     12  C   UNL A   1      33.857  24.920  24.889  1.00  0.00     0.125 A 
ATOM     13  N   UNL A   1      32.175  23.567  24.256  1.00  0.00    -0.172 NA
ATOM     14  C   UNL A   1      33.222  22.826  24.616  1.00  0.00     0.110 A 
BRANCH  11  15
ATOM     15  C   UNL A   1      31.728  25.923  23.975  1.00  0.00     0.144 C 
BRANCH  15  16
ATOM     16  C   UNL A   1      31.006  26.612  25.145  1.00  0.00     0.027 C 
BRANCH  16  17
ATOM     17  C   UNL A   1      31.132  28.152  25.205  1.00  0.00    -0.016 C 
ATOM     18  C   UNL A   1      32.531  28.608  25.615  1.00  0.00     0.007 C 
ATOM     19  C   UNL A   1      30.752  28.759  23.852  1.00  0.00     0.007 C 
ENDBRANCH  16  17
ENDBRANCH  15  16
ENDBRANCH  11  15
BRANCH  14  20
ATOM     20  C   UNL A   1      33.081  21.383  24.684  1.00  0.00     0.041 A 
ATOM     21  C   UNL A   1      32.616  20.548  23.643  1.00  0.00     0.052 A 
ATOM     22  C   UNL A   1      33.241  20.581  25.791  1.00  0.00     0.205 A 
ATOM     23  C   UNL A   1      32.545  19.284  24.183  1.00  0.00     0.195 A 
ATOM     24  O   UNL A   1      32.937  19.292  25.485  1.00  0.00    -0.472 OA
ENDBRANCH  14  20
ENDBRANCH   8  10
ENDBRANCH   7   8
ENDBRANCH   6   7
ENDBRANCH   5   6
ENDBRANCH   4   5
ENDBRANCH   3   4
ENDBRANCH   2   3
ENDBRANCH   1   2
BRANCH   1  25
ATOM     25  C   UNL A   1      42.812  24.001  26.699  1.00  0.00     0.188 C 
BRANCH  25  26
ATOM     26  C   UNL A   1      43.194  24.577  28.096  1.00  0.00     0.188 C 
BRANCH  26  27
ATOM     27  O   UNL A   1      44.520  25.088  28.213  1.00  0.00    -0.376 OA
BRANCH  27  28
ATOM     28  C   UNL A   1      45.090  25.350  29.482  1.00  0.00     0.202 C 
BRANCH  28  29
ATOM     29  C   UNL A   1      44.318  24.724  30.637  1.00  0.00     0.261 C 
BRANCH  29  30
ATOM     30  O   UNL A   1      43.936  25.678  31.611  1.00  0.00    -0.460 OA
BRANCH  30  31
ATOM     31  C   UNL A   1      44.140  25.290  32.886  1.00  0.00     0.338 C 
ATOM     32  O   UNL A   1      44.339  24.162  33.298  1.00  0.00    -0.246 OA
BRANCH  31  33
ATOM     33  C   UNL A   1      43.976  26.458  33.744  1.00  0.00     0.060 A 
ATOM     34  C   UNL A   1      42.806  26.486  34.502  1.00  0.00     0.016 A 
ATOM     35  C   UNL A   1      44.725  27.603  33.439  1.00  0.00     0.016 A 
ATOM     36  C   UNL A   1      42.212  27.706  34.690  1.00  0.00     0.010 A 
ATOM     37  C   UNL A   1      44.110  28.811  33.587  1.00  0.00     0.010 A 
ATOM     38  C   UNL A   1      42.824  28.823  34.117  1.00  0.00    -0.014 A 
BRANCH  38  39
ATOM     39  C   UNL A   1      42.087  30.058  34.109  1.00  0.00     0.031 A 
ATOM     40  C   UNL A   1      41.305  30.232  32.877  1.00  0.00     0.074 A 
ATOM     41  C   UNL A   1      42.050  30.859  35.185  1.00  0.00     0.049 A 
ATOM     42  N   UNL A   1      41.514  31.068  31.919  1.00  0.00    -0.248 NA
ATOM     43  C   UNL A   1      40.315  29.188  32.563  1.00  0.00     0.031 C 
ATOM     44  C   UNL A   1      42.555  30.579  36.532  1.00  0.00     0.029 A 
ATOM     45  N   UNL A   1      41.419  32.050  35.330  1.00  0.00    -0.354 N 
ATOM     46  C   UNL A   1      40.502  30.818  31.004  1.00  0.00     0.074 A 
ATOM     47  C   UNL A   1      40.014  29.506  31.307  1.00  0.00     0.031 C 
ATOM     48  C   UNL A   1      42.003  31.460  37.397  1.00  0.00     0.029 A 
ATOM     49  C   UNL A   1      41.202  32.418  36.650  1.00  0.00     0.049 A 
ATOM     50  H   UNL A   1      41.140  32.605  34.566  1.00  0.00     0.167 HD
ATOM     51  C   UNL A   1      39.933  31.836  30.306  1.00  0.00     0.034 A 
ATOM     52  C   UNL A   1      40.333  33.368  37.085  1.00  0.00     0.034 A 
ATOM     53  C   UNL A   1      40.810  32.994  30.291  1.00  0.00     0.049 A 
ATOM     54  C   UNL A   1      40.040  34.253  35.924  1.00  0.00     0.074 A 
ATOM     55  C   UNL A   1      42.122  33.193  29.899  1.00  0.00     0.029 A 
ATOM     56  N   UNL A   1      40.502  34.068  31.100  1.00  0.00    -0.354 N 
ATOM     57  N   UNL A   1      40.935  35.016  35.354  1.00  0.00    -0.248 NA
ATOM     58  C   UNL A   1      38.890  33.934  35.088  1.00  0.00     0.031 C 
ATOM     59  C   UNL A   1      42.669  34.093  30.860  1.00  0.00     0.029 A 
ATOM     60  C   UNL A   1      41.652  34.461  31.743  1.00  0.00     0.049 A 
ATOM     61  H   UNL A   1      39.614  34.483  31.199  1.00  0.00     0.167 HD
ATOM     62  C   UNL A   1      40.685  34.918  33.992  1.00  0.00     0.074 A 
ATOM     63  C   UNL A   1      39.350  34.332  33.897  1.00  0.00     0.031 C 
ATOM     64  C   UNL A   1      41.690  35.044  33.074  1.00  0.00     0.034 A 
BRANCH  51  65
ATOM     65  C   UNL A   1      38.441  31.922  30.030  1.00  0.00     0.023 A 
ATOM     66  C   UNL A   1      37.678  32.611  30.985  1.00  0.00     0.031 A 
ATOM     67  C   UNL A   1      37.694  31.163  29.095  1.00  0.00     0.131 A 
ATOM     68  C   UNL A   1      36.295  32.398  31.098  1.00  0.00     0.055 A 
ATOM     69  C   UNL A   1      36.308  31.002  29.174  1.00  0.00     0.041 A 
ATOM     70  F   UNL A   1      38.240  30.476  28.088  1.00  0.00    -0.206 F 
ATOM     71  C   UNL A   1      35.604  31.586  30.208  1.00  0.00     0.022 A 
BRANCH  68  72
ATOM     72  S   UNL A   1      35.465  33.049  32.563  1.00  0.00     0.124 S 
ATOM     73  O   UNL A   1      36.005  34.405  32.618  1.00  0.00    -0.237 OA
ATOM     74  O   UNL A   1      34.061  32.928  32.184  1.00  0.00    -0.237 OA
ATOM     75  O   UNL A   1      35.907  32.152  33.627  1.00  0.00    -0.744 OA
ENDBRANCH  68  72
ENDBRANCH  51  65
BRANCH  52  76
ATOM     76  C   UNL A   1      39.510  33.313  38.324  1.00  0.00     0.023 A 
ATOM     77  C   UNL A   1      38.266  32.654  38.378  1.00  0.00     0.031 A 
ATOM     78  C   UNL A   1      40.053  33.740  39.559  1.00  0.00     0.131 A 
ATOM     79  C   UNL A   1      37.617  32.459  39.621  1.00  0.00     0.055 A 
ATOM     80  C   UNL A   1      39.400  33.562  40.780  1.00  0.00     0.041 A 
ATOM     81  F   UNL A   1      41.281  34.275  39.636  1.00  0.00    -0.206 F 
ATOM     82  C   UNL A   1      38.180  32.911  40.817  1.00  0.00     0.022 A 
BRANCH  79  83
ATOM     83  S   UNL A   1      36.062  31.516  39.709  1.00  0.00     0.124 S 
ATOM     84  O   UNL A   1      36.347  30.368  38.855  1.00  0.00    -0.237 OA
ATOM     85  O   UNL A   1      35.938  31.249  41.137  1.00  0.00    -0.237 OA
ATOM     86  O   UNL A   1      35.068  32.448  39.174  1.00  0.00    -0.744 OA
ENDBRANCH  79  83
ENDBRANCH  52  76
BRANCH  64  87
ATOM     87  C   UNL A   1      43.015  35.628  33.526  1.00  0.00     0.023 A 
ATOM     88  C   UNL A   1      43.326  37.008  33.551  1.00  0.00     0.031 A 
ATOM     89  C   UNL A   1      43.959  34.740  34.073  1.00  0.00     0.131 A 
ATOM     90  C   UNL A   1      44.548  37.445  34.101  1.00  0.00     0.055 A 
ATOM     91  C   UNL A   1      45.158  35.179  34.634  1.00  0.00     0.041 A 
ATOM     92  F   UNL A   1      43.713  33.420  34.107  1.00  0.00    -0.206 F 
ATOM     93  C   UNL A   1      45.459  36.535  34.646  1.00  0.00     0.022 A 
BRANCH  90  94
ATOM     94  S   UNL A   1      44.983  39.215  34.111  1.00  0.00     0.124 S 
ATOM     95  O   UNL A   1      43.746  39.876  33.715  1.00  0.00    -0.237 OA
ATOM     96  O   UNL A   1      45.409  39.426  35.493  1.00  0.00    -0.237 OA
ATOM     97  O   UNL A   1      46.063  39.304  33.126  1.00  0.00    -0.744 OA
ENDBRANCH  90  94
ENDBRANCH  64  87
ENDBRANCH  38  39
ENDBRANCH  31  33
ENDBRANCH  30  31
ENDBRANCH  29  30
ENDBRANCH  28  29
ENDBRANCH  27  28
ENDBRANCH  26  27
ENDBRANCH  25  26
ENDBRANCH   1  25
TORSDOF 27
ENDMDL
