MODEL 1
REMARK VINA RESULT:      -8.6      0.000      0.000
REMARK SMILES O=C(CN(CC(F)(F)F)S(=O)(=O)c1cccc(F)c1)OCCOCCOCCOCCOC(=O)c1ccc(-c2c3nc(c(-c4cc(S(=O)(=O)[O-])ccc4F)c4ccc([nH]4)c(-c4cc(S(=O)(=O)[O-])ccc4F)c4nc(c(-c5cc(S(=O)(=O)[O-])ccc5F)c5ccc2[nH]5)C=C4)C=C3)cc1
REMARK SMILES IDX 26 1 25 2 24 3 23 4 22 5 21 6 20 7 2 8 1 9 3 10 4 11 5 12
REMARK SMILES IDX 6 13 7 14 8 15 9 16 10 17 11 18 12 19 13 20 14 21 19 22
REMARK SMILES IDX 15 23 17 24 16 25 18 26 27 27 28 28 29 29 30 30 31 31 32 32
REMARK SMILES IDX 33 33 34 34 35 35 36 36 97 37 37 38 96 39 38 40 39 41 40 42
REMARK SMILES IDX 90 43 41 44 95 45 89 46 91 47 42 48 94 49 88 50 87 51 43 53
REMARK SMILES IDX 75 54 55 55 74 56 56 57 59 58 73 59 92 60 57 61 58 62 72 64
REMARK SMILES IDX 93 65 60 66 44 67 45 68 53 69 46 70 52 71 54 72 51 73 47 74
REMARK SMILES IDX 48 75 49 76 50 77 76 78 77 79 85 80 78 81 84 82 86 83 83 84
REMARK SMILES IDX 79 85 80 86 81 87 82 88 61 89 62 90 70 91 63 92 69 93 71 94
REMARK SMILES IDX 68 95 64 96 65 97 66 98 67 99
REMARK H PARENT 91 52 59 63
REMARK Flexibility Score: inf
ROOT
ATOM      1  O   UNL A   1      42.179  19.119  26.769  1.00  0.00    -0.377 OA
ENDROOT
BRANCH   1   2
ATOM      2  C   UNL A   1      41.058  19.961  26.993  1.00  0.00     0.188 C 
BRANCH   2   3
ATOM      3  C   UNL A   1      40.175  20.237  25.774  1.00  0.00     0.188 C 
BRANCH   3   4
ATOM      4  O   UNL A   1      39.150  21.233  25.773  1.00  0.00    -0.376 OA
BRANCH   4   5
ATOM      5  C   UNL A   1      37.845  21.053  25.261  1.00  0.00     0.202 C 
BRANCH   5   6
ATOM      6  C   UNL A   1      36.764  22.122  25.424  1.00  0.00     0.261 C 
BRANCH   6   7
ATOM      7  O   UNL A   1      35.886  22.326  24.316  1.00  0.00    -0.462 OA
BRANCH   7   8
ATOM      8  C   UNL A   1      34.633  21.828  24.221  1.00  0.00     0.321 C 
ATOM      9  O   UNL A   1      34.403  20.691  24.637  1.00  0.00    -0.251 OA
BRANCH   8  10
ATOM     10  C   UNL A   1      33.587  22.593  23.443  1.00  0.00     0.225 C 
BRANCH  10  11
ATOM     11  N   UNL A   1      32.861  23.704  24.126  1.00  0.00    -0.178 NA
BRANCH  11  12
ATOM     12  C   UNL A   1      32.587  23.382  25.584  1.00  0.00     0.218 C 
BRANCH  12  13
ATOM     13  C   UNL A   1      31.148  23.465  26.113  1.00  0.00     0.402 C 
ATOM     14  F   UNL A   1      30.290  23.966  25.206  1.00  0.00    -0.170 F 
ATOM     15  F   UNL A   1      30.711  22.218  26.422  1.00  0.00    -0.170 F 
ATOM     16  F   UNL A   1      31.054  24.201  27.241  1.00  0.00    -0.170 F 
ENDBRANCH  12  13
ENDBRANCH  11  12
BRANCH  11  17
ATOM     17  S   UNL A   1      33.603  25.189  23.748  1.00  0.00     0.244 S 
ATOM     18  O   UNL A   1      34.535  25.460  24.811  1.00  0.00    -0.207 OA
ATOM     19  O   UNL A   1      34.028  25.112  22.366  1.00  0.00    -0.207 OA
BRANCH  17  20
ATOM     20  C   UNL A   1      32.338  26.415  23.803  1.00  0.00     0.085 A 
ATOM     21  C   UNL A   1      31.129  26.126  23.157  1.00  0.00     0.022 A 
ATOM     22  C   UNL A   1      32.522  27.620  24.479  1.00  0.00     0.061 A 
ATOM     23  C   UNL A   1      30.090  27.053  23.187  1.00  0.00     0.004 A 
ATOM     24  C   UNL A   1      31.482  28.541  24.479  1.00  0.00     0.124 A 
ATOM     25  C   UNL A   1      30.272  28.269  23.845  1.00  0.00     0.039 A 
ATOM     26  F   UNL A   1      31.649  29.718  25.095  1.00  0.00    -0.207 F 
ENDBRANCH  17  20
ENDBRANCH  11  17
ENDBRANCH  10  11
ENDBRANCH   8  10
ENDBRANCH   7   8
ENDBRANCH   6   7
ENDBRANCH   5   6
ENDBRANCH   4   5
ENDBRANCH   3   4
ENDBRANCH   2   3
ENDBRANCH   1   2
BRANCH   1  27
ATOM     27  C   UNL A   1      43.024  19.541  25.711  1.00  0.00     0.188 C 
BRANCH  27  28
ATOM     28  C   UNL A   1      44.320  18.719  25.606  1.00  0.00     0.188 C 
BRANCH  28  29
ATOM     29  O   UNL A   1      45.415  19.460  25.082  1.00  0.00    -0.376 OA
BRANCH  29  30
ATOM     30  C   UNL A   1      45.138  20.788  24.643  1.00  0.00     0.202 C 
BRANCH  30  31
ATOM     31  C   UNL A   1      45.309  21.937  25.654  1.00  0.00     0.261 C 
BRANCH  31  32
ATOM     32  O   UNL A   1      44.709  23.193  25.303  1.00  0.00    -0.460 OA
BRANCH  32  33
ATOM     33  C   UNL A   1      43.365  23.296  25.371  1.00  0.00     0.338 C 
ATOM     34  O   UNL A   1      42.550  22.576  24.822  1.00  0.00    -0.246 OA
BRANCH  33  35
ATOM     35  C   UNL A   1      43.053  24.279  26.436  1.00  0.00     0.060 A 
ATOM     36  C   UNL A   1      43.599  25.565  26.333  1.00  0.00     0.016 A 
ATOM     37  C   UNL A   1      42.161  23.974  27.473  1.00  0.00     0.016 A 
ATOM     38  C   UNL A   1      43.288  26.535  27.284  1.00  0.00     0.010 A 
ATOM     39  C   UNL A   1      41.871  24.938  28.443  1.00  0.00     0.010 A 
ATOM     40  C   UNL A   1      42.465  26.210  28.371  1.00  0.00    -0.014 A 
BRANCH  40  41
ATOM     41  C   UNL A   1      42.469  27.103  29.554  1.00  0.00     0.031 A 
ATOM     42  C   UNL A   1      43.400  26.745  30.681  1.00  0.00     0.074 A 
ATOM     43  C   UNL A   1      41.732  28.226  29.606  1.00  0.00     0.049 A 
ATOM     44  N   UNL A   1      43.640  27.381  31.796  1.00  0.00    -0.248 NA
ATOM     45  C   UNL A   1      44.170  25.499  30.521  1.00  0.00     0.031 C 
ATOM     46  C   UNL A   1      40.831  28.697  28.557  1.00  0.00     0.029 A 
ATOM     47  N   UNL A   1      41.640  29.184  30.585  1.00  0.00    -0.354 N 
ATOM     48  C   UNL A   1      44.594  26.621  32.462  1.00  0.00     0.074 A 
ATOM     49  C   UNL A   1      44.863  25.460  31.646  1.00  0.00     0.031 C 
ATOM     50  C   UNL A   1      40.279  29.861  28.949  1.00  0.00     0.029 A 
ATOM     51  C   UNL A   1      40.770  30.204  30.284  1.00  0.00     0.049 A 
ATOM     52  H   UNL A   1      42.150  29.142  31.427  1.00  0.00     0.167 HD
ATOM     53  C   UNL A   1      45.200  26.874  33.645  1.00  0.00     0.034 A 
ATOM     54  C   UNL A   1      40.406  31.283  31.008  1.00  0.00     0.034 A 
ATOM     55  C   UNL A   1      44.911  28.023  34.460  1.00  0.00     0.049 A 
ATOM     56  C   UNL A   1      41.021  31.498  32.368  1.00  0.00     0.074 A 
ATOM     57  C   UNL A   1      45.477  28.384  35.668  1.00  0.00     0.029 A 
ATOM     58  N   UNL A   1      43.959  28.987  34.157  1.00  0.00    -0.354 N 
ATOM     59  N   UNL A   1      41.923  30.774  32.988  1.00  0.00    -0.248 NA
ATOM     60  C   UNL A   1      40.569  32.672  33.129  1.00  0.00     0.031 C 
ATOM     61  C   UNL A   1      44.819  29.528  36.130  1.00  0.00     0.029 A 
ATOM     62  C   UNL A   1      43.894  29.922  35.175  1.00  0.00     0.049 A 
ATOM     63  H   UNL A   1      43.411  29.003  33.339  1.00  0.00     0.167 HD
ATOM     64  C   UNL A   1      42.160  31.412  34.203  1.00  0.00     0.074 A 
ATOM     65  C   UNL A   1      41.303  32.580  34.231  1.00  0.00     0.031 C 
ATOM     66  C   UNL A   1      43.018  31.069  35.196  1.00  0.00     0.034 A 
BRANCH  53  67
ATOM     67  C   UNL A   1      46.190  25.856  34.144  1.00  0.00     0.023 A 
ATOM     68  C   UNL A   1      47.533  25.867  33.729  1.00  0.00     0.031 A 
ATOM     69  C   UNL A   1      45.776  24.847  35.030  1.00  0.00     0.131 A 
ATOM     70  C   UNL A   1      48.403  24.855  34.162  1.00  0.00     0.055 A 
ATOM     71  C   UNL A   1      46.662  23.882  35.508  1.00  0.00     0.041 A 
ATOM     72  F   UNL A   1      44.497  24.777  35.434  1.00  0.00    -0.206 F 
ATOM     73  C   UNL A   1      47.982  23.876  35.067  1.00  0.00     0.022 A 
BRANCH  70  74
ATOM     74  S   UNL A   1      50.069  24.777  33.450  1.00  0.00     0.124 S 
ATOM     75  O   UNL A   1      50.106  23.409  32.938  1.00  0.00    -0.237 OA
ATOM     76  O   UNL A   1      50.035  25.833  32.446  1.00  0.00    -0.237 OA
ATOM     77  O   UNL A   1      50.942  25.033  34.594  1.00  0.00    -0.744 OA
ENDBRANCH  70  74
ENDBRANCH  53  67
BRANCH  54  78
ATOM     78  C   UNL A   1      39.383  32.221  30.469  1.00  0.00     0.023 A 
ATOM     79  C   UNL A   1      38.012  31.923  30.530  1.00  0.00     0.031 A 
ATOM     80  C   UNL A   1      39.771  33.447  29.901  1.00  0.00     0.131 A 
ATOM     81  C   UNL A   1      37.077  32.843  30.026  1.00  0.00     0.055 A 
ATOM     82  C   UNL A   1      38.837  34.369  29.427  1.00  0.00     0.041 A 
ATOM     83  F   UNL A   1      41.070  33.777  29.826  1.00  0.00    -0.206 F 
ATOM     84  C   UNL A   1      37.480  34.068  29.488  1.00  0.00     0.022 A 
BRANCH  81  85
ATOM     85  S   UNL A   1      35.312  32.424  30.093  1.00  0.00     0.124 S 
ATOM     86  O   UNL A   1      35.161  31.995  31.479  1.00  0.00    -0.237 OA
ATOM     87  O   UNL A   1      34.683  33.692  29.740  1.00  0.00    -0.237 OA
ATOM     88  O   UNL A   1      35.175  31.368  29.092  1.00  0.00    -0.744 OA
ENDBRANCH  81  85
ENDBRANCH  54  78
BRANCH  66  89
ATOM     89  C   UNL A   1      43.100  31.972  36.398  1.00  0.00     0.023 A 
ATOM     90  C   UNL A   1      42.160  31.897  37.438  1.00  0.00     0.031 A 
ATOM     91  C   UNL A   1      44.187  32.851  36.540  1.00  0.00     0.131 A 
ATOM     92  C   UNL A   1      42.318  32.703  38.575  1.00  0.00     0.055 A 
ATOM     93  C   UNL A   1      44.362  33.619  37.692  1.00  0.00     0.041 A 
ATOM     94  F   UNL A   1      45.116  32.950  35.576  1.00  0.00    -0.206 F 
ATOM     95  C   UNL A   1      43.424  33.548  38.717  1.00  0.00     0.022 A 
BRANCH  92  96
ATOM     96  S   UNL A   1      41.056  32.641  39.877  1.00  0.00     0.124 S 
ATOM     97  O   UNL A   1      39.853  32.325  39.113  1.00  0.00    -0.237 OA
ATOM     98  O   UNL A   1      41.553  31.583  40.752  1.00  0.00    -0.237 OA
ATOM     99  O   UNL A   1      41.091  33.984  40.453  1.00  0.00    -0.744 OA
ENDBRANCH  92  96
ENDBRANCH  66  89
ENDBRANCH  40  41
ENDBRANCH  33  35
ENDBRANCH  32  33
ENDBRANCH  31  32
ENDBRANCH  30  31
ENDBRANCH  29  30
ENDBRANCH  28  29
ENDBRANCH  27  28
ENDBRANCH   1  27
TORSDOF 28
ENDMDL
MODEL 2
REMARK VINA RESULT:      -8.3      7.620      9.215
REMARK SMILES O=C(CN(CC(F)(F)F)S(=O)(=O)c1cccc(F)c1)OCCOCCOCCOCCOC(=O)c1ccc(-c2c3nc(c(-c4cc(S(=O)(=O)[O-])ccc4F)c4ccc([nH]4)c(-c4cc(S(=O)(=O)[O-])ccc4F)c4nc(c(-c5cc(S(=O)(=O)[O-])ccc5F)c5ccc2[nH]5)C=C4)C=C3)cc1
REMARK SMILES IDX 26 1 25 2 24 3 23 4 22 5 21 6 20 7 2 8 1 9 3 10 4 11 5 12
REMARK SMILES IDX 6 13 7 14 8 15 9 16 10 17 11 18 12 19 13 20 14 21 19 22
REMARK SMILES IDX 15 23 17 24 16 25 18 26 27 27 28 28 29 29 30 30 31 31 32 32
REMARK SMILES IDX 33 33 34 34 35 35 36 36 97 37 37 38 96 39 38 40 39 41 40 42
REMARK SMILES IDX 90 43 41 44 95 45 89 46 91 47 42 48 94 49 88 50 87 51 43 53
REMARK SMILES IDX 75 54 55 55 74 56 56 57 59 58 73 59 92 60 57 61 58 62 72 64
REMARK SMILES IDX 93 65 60 66 44 67 45 68 53 69 46 70 52 71 54 72 51 73 47 74
REMARK SMILES IDX 48 75 49 76 50 77 76 78 77 79 85 80 78 81 84 82 86 83 83 84
REMARK SMILES IDX 79 85 80 86 81 87 82 88 61 89 62 90 70 91 63 92 69 93 71 94
REMARK SMILES IDX 68 95 64 96 65 97 66 98 67 99
REMARK H PARENT 91 52 59 63
REMARK Flexibility Score: inf
ROOT
ATOM      1  O   UNL A   1      41.605  26.646  27.208  1.00  0.00    -0.377 OA
ENDROOT
BRANCH   1   2
ATOM      2  C   UNL A   1      40.307  26.127  26.955  1.00  0.00     0.188 C 
BRANCH   2   3
ATOM      3  C   UNL A   1      39.952  24.828  27.684  1.00  0.00     0.188 C 
BRANCH   3   4
ATOM      4  O   UNL A   1      38.719  24.139  27.474  1.00  0.00    -0.376 OA
BRANCH   4   5
ATOM      5  C   UNL A   1      38.319  23.544  26.255  1.00  0.00     0.202 C 
BRANCH   5   6
ATOM      6  C   UNL A   1      36.960  23.848  25.622  1.00  0.00     0.261 C 
BRANCH   6   7
ATOM      7  O   UNL A   1      36.329  22.783  24.909  1.00  0.00    -0.462 OA
BRANCH   7   8
ATOM      8  C   UNL A   1      35.898  22.858  23.631  1.00  0.00     0.321 C 
ATOM      9  O   UNL A   1      36.723  22.932  22.720  1.00  0.00    -0.251 OA
BRANCH   8  10
ATOM     10  C   UNL A   1      34.422  23.039  23.354  1.00  0.00     0.225 C 
BRANCH  10  11
ATOM     11  N   UNL A   1      33.509  23.307  24.504  1.00  0.00    -0.178 NA
BRANCH  11  12
ATOM     12  C   UNL A   1      33.527  24.772  24.904  1.00  0.00     0.218 C 
BRANCH  12  13
ATOM     13  C   UNL A   1      32.819  25.802  24.013  1.00  0.00     0.402 C 
ATOM     14  F   UNL A   1      31.483  25.786  24.161  1.00  0.00    -0.170 F 
ATOM     15  F   UNL A   1      33.238  27.048  24.348  1.00  0.00    -0.170 F 
ATOM     16  F   UNL A   1      33.105  25.634  22.704  1.00  0.00    -0.170 F 
ENDBRANCH  12  13
ENDBRANCH  11  12
BRANCH  11  17
ATOM     17  S   UNL A   1      32.005  22.561  24.225  1.00  0.00     0.244 S 
ATOM     18  O   UNL A   1      31.207  22.802  25.398  1.00  0.00    -0.207 OA
ATOM     19  O   UNL A   1      31.564  22.973  22.908  1.00  0.00    -0.207 OA
BRANCH  17  20
ATOM     20  C   UNL A   1      32.311  20.829  24.117  1.00  0.00     0.085 A 
ATOM     21  C   UNL A   1      32.740  20.175  25.279  1.00  0.00     0.022 A 
ATOM     22  C   UNL A   1      32.117  20.127  22.928  1.00  0.00     0.061 A 
ATOM     23  C   UNL A   1      32.978  18.803  25.254  1.00  0.00     0.004 A 
ATOM     24  C   UNL A   1      32.380  18.764  22.917  1.00  0.00     0.124 A 
ATOM     25  C   UNL A   1      32.804  18.097  24.064  1.00  0.00     0.039 A 
ATOM     26  F   UNL A   1      32.231  18.077  21.777  1.00  0.00    -0.207 F 
ENDBRANCH  17  20
ENDBRANCH  11  17
ENDBRANCH  10  11
ENDBRANCH   8  10
ENDBRANCH   7   8
ENDBRANCH   6   7
ENDBRANCH   5   6
ENDBRANCH   4   5
ENDBRANCH   3   4
ENDBRANCH   2   3
ENDBRANCH   1   2
BRANCH   1  27
ATOM     27  C   UNL A   1      42.662  25.754  26.895  1.00  0.00     0.188 C 
BRANCH  27  28
ATOM     28  C   UNL A   1      42.881  25.582  25.382  1.00  0.00     0.188 C 
BRANCH  28  29
ATOM     29  O   UNL A   1      42.833  24.225  24.957  1.00  0.00    -0.376 OA
BRANCH  29  30
ATOM     30  C   UNL A   1      42.493  23.256  25.945  1.00  0.00     0.202 C 
BRANCH  30  31
ATOM     31  C   UNL A   1      43.502  22.130  26.236  1.00  0.00     0.261 C 
BRANCH  31  32
ATOM     32  O   UNL A   1      44.685  22.502  26.960  1.00  0.00    -0.460 OA
BRANCH  32  33
ATOM     33  C   UNL A   1      45.829  22.674  26.265  1.00  0.00     0.338 C 
ATOM     34  O   UNL A   1      46.372  21.858  25.543  1.00  0.00    -0.246 OA
BRANCH  33  35
ATOM     35  C   UNL A   1      46.170  24.115  26.330  1.00  0.00     0.060 A 
ATOM     36  C   UNL A   1      46.303  24.821  25.127  1.00  0.00     0.016 A 
ATOM     37  C   UNL A   1      46.267  24.788  27.555  1.00  0.00     0.016 A 
ATOM     38  C   UNL A   1      46.570  26.189  25.145  1.00  0.00     0.010 A 
ATOM     39  C   UNL A   1      46.563  26.154  27.575  1.00  0.00     0.010 A 
ATOM     40  C   UNL A   1      46.753  26.850  26.368  1.00  0.00    -0.014 A 
BRANCH  40  41
ATOM     41  C   UNL A   1      47.416  28.175  26.363  1.00  0.00     0.031 A 
ATOM     42  C   UNL A   1      48.907  28.196  26.163  1.00  0.00     0.074 A 
ATOM     43  C   UNL A   1      46.723  29.323  26.462  1.00  0.00     0.049 A 
ATOM     44  N   UNL A   1      49.719  29.214  26.062  1.00  0.00    -0.248 NA
ATOM     45  C   UNL A   1      49.570  26.884  26.056  1.00  0.00     0.031 C 
ATOM     46  C   UNL A   1      45.274  29.427  26.614  1.00  0.00     0.029 A 
ATOM     47  N   UNL A   1      47.154  30.626  26.435  1.00  0.00    -0.354 N 
ATOM     48  C   UNL A   1      50.982  28.667  25.868  1.00  0.00     0.074 A 
ATOM     49  C   UNL A   1      50.836  27.230  25.901  1.00  0.00     0.031 C 
ATOM     50  C   UNL A   1      44.934  30.729  26.662  1.00  0.00     0.029 A 
ATOM     51  C   UNL A   1      46.143  31.548  26.568  1.00  0.00     0.049 A 
ATOM     52  H   UNL A   1      48.101  30.877  26.332  1.00  0.00     0.167 HD
ATOM     53  C   UNL A   1      52.158  29.305  25.669  1.00  0.00     0.034 A 
ATOM     54  C   UNL A   1      46.193  32.896  26.617  1.00  0.00     0.034 A 
ATOM     55  C   UNL A   1      52.296  30.737  25.657  1.00  0.00     0.049 A 
ATOM     56  C   UNL A   1      47.526  33.589  26.491  1.00  0.00     0.074 A 
ATOM     57  C   UNL A   1      53.438  31.488  25.449  1.00  0.00     0.029 A 
ATOM     58  N   UNL A   1      51.259  31.633  25.881  1.00  0.00    -0.354 N 
ATOM     59  N   UNL A   1      48.714  33.062  26.307  1.00  0.00    -0.248 NA
ATOM     60  C   UNL A   1      47.529  35.056  26.581  1.00  0.00     0.031 C 
ATOM     61  C   UNL A   1      53.105  32.836  25.617  1.00  0.00     0.029 A 
ATOM     62  C   UNL A   1      51.742  32.929  25.857  1.00  0.00     0.049 A 
ATOM     63  H   UNL A   1      50.320  31.382  26.035  1.00  0.00     0.167 HD
ATOM     64  C   UNL A   1      49.603  34.131  26.242  1.00  0.00     0.074 A 
ATOM     65  C   UNL A   1      48.815  35.336  26.409  1.00  0.00     0.031 C 
ATOM     66  C   UNL A   1      50.946  34.117  26.048  1.00  0.00     0.034 A 
BRANCH  53  67
ATOM     67  C   UNL A   1      53.388  28.453  25.507  1.00  0.00     0.023 A 
ATOM     68  C   UNL A   1      54.144  28.031  26.614  1.00  0.00     0.031 A 
ATOM     69  C   UNL A   1      53.821  28.079  24.224  1.00  0.00     0.131 A 
ATOM     70  C   UNL A   1      55.324  27.300  26.412  1.00  0.00     0.055 A 
ATOM     71  C   UNL A   1      54.960  27.297  24.033  1.00  0.00     0.041 A 
ATOM     72  F   UNL A   1      53.149  28.481  23.133  1.00  0.00    -0.206 F 
ATOM     73  C   UNL A   1      55.725  26.911  25.131  1.00  0.00     0.022 A 
BRANCH  70  74
ATOM     74  S   UNL A   1      56.385  26.947  27.841  1.00  0.00     0.124 S 
ATOM     75  O   UNL A   1      57.712  27.226  27.298  1.00  0.00    -0.237 OA
ATOM     76  O   UNL A   1      55.894  27.888  28.840  1.00  0.00    -0.237 OA
ATOM     77  O   UNL A   1      56.117  25.539  28.125  1.00  0.00    -0.744 OA
ENDBRANCH  70  74
ENDBRANCH  53  67
BRANCH  54  78
ATOM     78  C   UNL A   1      44.939  33.671  26.830  1.00  0.00     0.023 A 
ATOM     79  C   UNL A   1      44.382  33.827  28.109  1.00  0.00     0.031 A 
ATOM     80  C   UNL A   1      44.292  34.287  25.745  1.00  0.00     0.131 A 
ATOM     81  C   UNL A   1      43.208  34.581  28.270  1.00  0.00     0.055 A 
ATOM     82  C   UNL A   1      43.141  35.058  25.914  1.00  0.00     0.041 A 
ATOM     83  F   UNL A   1      44.790  34.171  24.504  1.00  0.00    -0.206 F 
ATOM     84  C   UNL A   1      42.592  35.209  27.183  1.00  0.00     0.022 A 
BRANCH  81  85
ATOM     85  S   UNL A   1      42.493  34.748  29.930  1.00  0.00     0.124 S 
ATOM     86  O   UNL A   1      42.549  33.374  30.416  1.00  0.00    -0.237 OA
ATOM     87  O   UNL A   1      43.407  35.691  30.564  1.00  0.00    -0.237 OA
ATOM     88  O   UNL A   1      41.151  35.266  29.672  1.00  0.00    -0.744 OA
ENDBRANCH  81  85
ENDBRANCH  54  78
BRANCH  66  89
ATOM     89  C   UNL A   1      51.661  35.440  25.981  1.00  0.00     0.023 A 
ATOM     90  C   UNL A   1      52.236  36.021  27.122  1.00  0.00     0.031 A 
ATOM     91  C   UNL A   1      51.845  36.076  24.741  1.00  0.00     0.131 A 
ATOM     92  C   UNL A   1      52.961  37.217  27.002  1.00  0.00     0.055 A 
ATOM     93  C   UNL A   1      52.603  37.241  24.621  1.00  0.00     0.041 A 
ATOM     94  F   UNL A   1      51.322  35.552  23.621  1.00  0.00    -0.206 F 
ATOM     95  C   UNL A   1      53.164  37.819  25.756  1.00  0.00     0.022 A 
BRANCH  92  96
ATOM     96  S   UNL A   1      53.637  37.987  28.498  1.00  0.00     0.124 S 
ATOM     97  O   UNL A   1      54.857  38.607  27.991  1.00  0.00    -0.237 OA
ATOM     98  O   UNL A   1      52.572  38.905  28.893  1.00  0.00    -0.237 OA
ATOM     99  O   UNL A   1      53.845  36.858  29.402  1.00  0.00    -0.744 OA
ENDBRANCH  92  96
ENDBRANCH  66  89
ENDBRANCH  40  41
ENDBRANCH  33  35
ENDBRANCH  32  33
ENDBRANCH  31  32
ENDBRANCH  30  31
ENDBRANCH  29  30
ENDBRANCH  28  29
ENDBRANCH  27  28
ENDBRANCH   1  27
TORSDOF 28
ENDMDL
MODEL 3
REMARK VINA RESULT:      -8.2      2.507      7.682
REMARK SMILES O=C(CN(CC(F)(F)F)S(=O)(=O)c1cccc(F)c1)OCCOCCOCCOCCOC(=O)c1ccc(-c2c3nc(c(-c4cc(S(=O)(=O)[O-])ccc4F)c4ccc([nH]4)c(-c4cc(S(=O)(=O)[O-])ccc4F)c4nc(c(-c5cc(S(=O)(=O)[O-])ccc5F)c5ccc2[nH]5)C=C4)C=C3)cc1
REMARK SMILES IDX 26 1 25 2 24 3 23 4 22 5 21 6 20 7 2 8 1 9 3 10 4 11 5 12
REMARK SMILES IDX 6 13 7 14 8 15 9 16 10 17 11 18 12 19 13 20 14 21 19 22
REMARK SMILES IDX 15 23 17 24 16 25 18 26 27 27 28 28 29 29 30 30 31 31 32 32
REMARK SMILES IDX 33 33 34 34 35 35 36 36 97 37 37 38 96 39 38 40 39 41 40 42
REMARK SMILES IDX 90 43 41 44 95 45 89 46 91 47 42 48 94 49 88 50 87 51 43 53
REMARK SMILES IDX 75 54 55 55 74 56 56 57 59 58 73 59 92 60 57 61 58 62 72 64
REMARK SMILES IDX 93 65 60 66 44 67 45 68 53 69 46 70 52 71 54 72 51 73 47 74
REMARK SMILES IDX 48 75 49 76 50 77 76 78 77 79 85 80 78 81 84 82 86 83 83 84
REMARK SMILES IDX 79 85 80 86 81 87 82 88 61 89 62 90 70 91 63 92 69 93 71 94
REMARK SMILES IDX 68 95 64 96 65 97 66 98 67 99
REMARK H PARENT 91 52 59 63
REMARK Flexibility Score: inf
ROOT
ATOM      1  O   UNL A   1      41.667  19.585  26.870  1.00  0.00    -0.377 OA
ENDROOT
BRANCH   1   2
ATOM      2  C   UNL A   1      40.875  20.760  26.968  1.00  0.00     0.188 C 
BRANCH   2   3
ATOM      3  C   UNL A   1      39.918  21.020  25.803  1.00  0.00     0.188 C 
BRANCH   3   4
ATOM      4  O   UNL A   1      38.757  21.843  25.929  1.00  0.00    -0.376 OA
BRANCH   4   5
ATOM      5  C   UNL A   1      37.496  21.561  25.354  1.00  0.00     0.202 C 
BRANCH   5   6
ATOM      6  C   UNL A   1      36.388  22.613  25.292  1.00  0.00     0.261 C 
BRANCH   6   7
ATOM      7  O   UNL A   1      35.581  22.630  24.113  1.00  0.00    -0.462 OA
BRANCH   7   8
ATOM      8  C   UNL A   1      34.328  22.130  24.028  1.00  0.00     0.321 C 
ATOM      9  O   UNL A   1      34.113  20.976  24.400  1.00  0.00    -0.251 OA
BRANCH   8  10
ATOM     10  C   UNL A   1      33.260  22.923  23.310  1.00  0.00     0.225 C 
BRANCH  10  11
ATOM     11  N   UNL A   1      32.618  24.066  24.024  1.00  0.00    -0.178 NA
BRANCH  11  12
ATOM     12  C   UNL A   1      32.351  23.738  25.483  1.00  0.00     0.218 C 
BRANCH  12  13
ATOM     13  C   UNL A   1      31.258  24.507  26.236  1.00  0.00     0.402 C 
ATOM     14  F   UNL A   1      30.219  24.836  25.449  1.00  0.00    -0.170 F 
ATOM     15  F   UNL A   1      30.766  23.726  27.232  1.00  0.00    -0.170 F 
ATOM     16  F   UNL A   1      31.726  25.631  26.818  1.00  0.00    -0.170 F 
ENDBRANCH  12  13
ENDBRANCH  11  12
BRANCH  11  17
ATOM     17  S   UNL A   1      33.446  25.507  23.655  1.00  0.00     0.244 S 
ATOM     18  O   UNL A   1      34.347  25.751  24.751  1.00  0.00    -0.207 OA
ATOM     19  O   UNL A   1      33.922  25.386  22.292  1.00  0.00    -0.207 OA
BRANCH  17  20
ATOM     20  C   UNL A   1      32.241  26.793  23.640  1.00  0.00     0.085 A 
ATOM     21  C   UNL A   1      31.113  26.612  22.830  1.00  0.00     0.022 A 
ATOM     22  C   UNL A   1      32.391  27.940  24.418  1.00  0.00     0.061 A 
ATOM     23  C   UNL A   1      30.121  27.590  22.797  1.00  0.00     0.004 A 
ATOM     24  C   UNL A   1      31.403  28.914  24.354  1.00  0.00     0.124 A 
ATOM     25  C   UNL A   1      30.272  28.749  23.557  1.00  0.00     0.039 A 
ATOM     26  F   UNL A   1      31.543  30.038  25.068  1.00  0.00    -0.207 F 
ENDBRANCH  17  20
ENDBRANCH  11  17
ENDBRANCH  10  11
ENDBRANCH   8  10
ENDBRANCH   7   8
ENDBRANCH   6   7
ENDBRANCH   5   6
ENDBRANCH   4   5
ENDBRANCH   3   4
ENDBRANCH   2   3
ENDBRANCH   1   2
BRANCH   1  27
ATOM     27  C   UNL A   1      42.649  19.627  25.848  1.00  0.00     0.188 C 
BRANCH  27  28
ATOM     28  C   UNL A   1      43.589  18.409  25.860  1.00  0.00     0.188 C 
BRANCH  28  29
ATOM     29  O   UNL A   1      44.740  18.579  25.042  1.00  0.00    -0.376 OA
BRANCH  29  30
ATOM     30  C   UNL A   1      44.860  19.821  24.355  1.00  0.00     0.202 C 
BRANCH  30  31
ATOM     31  C   UNL A   1      45.669  20.947  25.027  1.00  0.00     0.261 C 
BRANCH  31  32
ATOM     32  O   UNL A   1      45.611  22.238  24.402  1.00  0.00    -0.460 OA
BRANCH  32  33
ATOM     33  C   UNL A   1      44.442  22.912  24.441  1.00  0.00     0.338 C 
ATOM     34  O   UNL A   1      43.440  22.670  23.793  1.00  0.00    -0.246 OA
BRANCH  33  35
ATOM     35  C   UNL A   1      44.507  23.838  25.598  1.00  0.00     0.060 A 
ATOM     36  C   UNL A   1      45.035  25.119  25.393  1.00  0.00     0.016 A 
ATOM     37  C   UNL A   1      43.973  23.487  26.844  1.00  0.00     0.016 A 
ATOM     38  C   UNL A   1      45.065  26.038  26.440  1.00  0.00     0.010 A 
ATOM     39  C   UNL A   1      44.028  24.399  27.903  1.00  0.00     0.010 A 
ATOM     40  C   UNL A   1      44.610  25.664  27.712  1.00  0.00    -0.014 A 
BRANCH  40  41
ATOM     41  C   UNL A   1      45.009  26.488  28.877  1.00  0.00     0.031 A 
ATOM     42  C   UNL A   1      43.992  27.460  29.411  1.00  0.00     0.074 A 
ATOM     43  C   UNL A   1      46.198  26.340  29.486  1.00  0.00     0.049 A 
ATOM     44  N   UNL A   1      44.062  28.254  30.446  1.00  0.00    -0.248 NA
ATOM     45  C   UNL A   1      42.717  27.539  28.677  1.00  0.00     0.031 C 
ATOM     46  C   UNL A   1      47.243  25.400  29.086  1.00  0.00     0.029 A 
ATOM     47  N   UNL A   1      46.719  26.975  30.586  1.00  0.00    -0.354 N 
ATOM     48  C   UNL A   1      42.841  28.915  30.494  1.00  0.00     0.074 A 
ATOM     49  C   UNL A   1      42.062  28.459  29.365  1.00  0.00     0.031 C 
ATOM     50  C   UNL A   1      48.282  25.518  29.935  1.00  0.00     0.029 A 
ATOM     51  C   UNL A   1      47.984  26.555  30.922  1.00  0.00     0.049 A 
ATOM     52  H   UNL A   1      46.231  27.668  31.088  1.00  0.00     0.167 HD
ATOM     53  C   UNL A   1      42.403  29.816  31.403  1.00  0.00     0.034 A 
ATOM     54  C   UNL A   1      48.808  26.970  31.908  1.00  0.00     0.034 A 
ATOM     55  C   UNL A   1      43.193  30.279  32.512  1.00  0.00     0.049 A 
ATOM     56  C   UNL A   1      48.339  28.046  32.855  1.00  0.00     0.074 A 
ATOM     57  C   UNL A   1      42.842  31.178  33.501  1.00  0.00     0.029 A 
ATOM     58  N   UNL A   1      44.502  29.892  32.765  1.00  0.00    -0.354 N 
ATOM     59  N   UNL A   1      47.182  28.664  32.891  1.00  0.00    -0.248 NA
ATOM     60  C   UNL A   1      49.285  28.484  33.892  1.00  0.00     0.031 C 
ATOM     61  C   UNL A   1      43.961  31.388  34.312  1.00  0.00     0.029 A 
ATOM     62  C   UNL A   1      44.987  30.565  33.873  1.00  0.00     0.049 A 
ATOM     63  H   UNL A   1      45.010  29.236  32.235  1.00  0.00     0.167 HD
ATOM     64  C   UNL A   1      47.253  29.551  33.963  1.00  0.00     0.074 A 
ATOM     65  C   UNL A   1      48.569  29.390  34.547  1.00  0.00     0.031 C 
ATOM     66  C   UNL A   1      46.310  30.408  34.428  1.00  0.00     0.034 A 
BRANCH  53  67
ATOM     67  C   UNL A   1      41.029  30.395  31.195  1.00  0.00     0.023 A 
ATOM     68  C   UNL A   1      39.898  29.860  31.836  1.00  0.00     0.031 A 
ATOM     69  C   UNL A   1      40.848  31.481  30.323  1.00  0.00     0.131 A 
ATOM     70  C   UNL A   1      38.627  30.384  31.555  1.00  0.00     0.055 A 
ATOM     71  C   UNL A   1      39.590  32.040  30.098  1.00  0.00     0.041 A 
ATOM     72  F   UNL A   1      41.893  32.010  29.665  1.00  0.00    -0.206 F 
ATOM     73  C   UNL A   1      38.468  31.485  30.708  1.00  0.00     0.022 A 
BRANCH  70  74
ATOM     74  S   UNL A   1      37.171  29.545  32.235  1.00  0.00     0.124 S 
ATOM     75  O   UNL A   1      36.616  30.579  33.106  1.00  0.00    -0.237 OA
ATOM     76  O   UNL A   1      36.396  29.235  31.040  1.00  0.00    -0.237 OA
ATOM     77  O   UNL A   1      37.735  28.389  32.930  1.00  0.00    -0.744 OA
ENDBRANCH  70  74
ENDBRANCH  53  67
BRANCH  54  78
ATOM     78  C   UNL A   1      50.173  26.386  32.021  1.00  0.00     0.023 A 
ATOM     79  C   UNL A   1      50.423  25.261  32.822  1.00  0.00     0.031 A 
ATOM     80  C   UNL A   1      51.246  26.942  31.304  1.00  0.00     0.131 A 
ATOM     81  C   UNL A   1      51.722  24.729  32.888  1.00  0.00     0.055 A 
ATOM     82  C   UNL A   1      52.528  26.394  31.351  1.00  0.00     0.041 A 
ATOM     83  F   UNL A   1      51.053  28.015  30.520  1.00  0.00    -0.206 F 
ATOM     84  C   UNL A   1      52.772  25.279  32.147  1.00  0.00     0.022 A 
BRANCH  81  85
ATOM     85  S   UNL A   1      52.027  23.289  33.950  1.00  0.00     0.124 S 
ATOM     86  O   UNL A   1      52.427  22.280  32.975  1.00  0.00    -0.237 OA
ATOM     87  O   UNL A   1      53.078  23.778  34.836  1.00  0.00    -0.237 OA
ATOM     88  O   UNL A   1      50.734  23.060  34.592  1.00  0.00    -0.744 OA
ENDBRANCH  81  85
ENDBRANCH  54  78
BRANCH  66  89
ATOM     89  C   UNL A   1      46.646  31.232  35.643  1.00  0.00     0.023 A 
ATOM     90  C   UNL A   1      46.280  30.819  36.933  1.00  0.00     0.031 A 
ATOM     91  C   UNL A   1      47.422  32.396  35.507  1.00  0.00     0.131 A 
ATOM     92  C   UNL A   1      46.681  31.576  38.044  1.00  0.00     0.055 A 
ATOM     93  C   UNL A   1      47.853  33.122  36.618  1.00  0.00     0.041 A 
ATOM     94  F   UNL A   1      47.803  32.824  34.293  1.00  0.00    -0.206 F 
ATOM     95  C   UNL A   1      47.481  32.713  37.895  1.00  0.00     0.022 A 
BRANCH  92  96
ATOM     96  S   UNL A   1      46.140  31.063  39.697  1.00  0.00     0.124 S 
ATOM     97  O   UNL A   1      45.110  32.054  39.997  1.00  0.00    -0.237 OA
ATOM     98  O   UNL A   1      45.667  29.701  39.469  1.00  0.00    -0.237 OA
ATOM     99  O   UNL A   1      47.354  31.168  40.504  1.00  0.00    -0.744 OA
ENDBRANCH  92  96
ENDBRANCH  66  89
ENDBRANCH  40  41
ENDBRANCH  33  35
ENDBRANCH  32  33
ENDBRANCH  31  32
ENDBRANCH  30  31
ENDBRANCH  29  30
ENDBRANCH  28  29
ENDBRANCH  27  28
ENDBRANCH   1  27
TORSDOF 28
ENDMDL
