MODEL 1
REMARK VINA RESULT:      -9.9      0.000      0.000
REMARK SMILES CC(=O)c1ccc(N2/C(=[NH+]/C(=O)CCC(=O)OCCOCCOCCOCCOC(=O)c3ccc(-c4c5nc(c(-c6cc(S(=O)(=O)[O-])ccc6F)c6ccc([nH]6)c(-c6cc(S(=O)(=O)[O-])ccc6F)c6nc(c(-c7cc(S(=O)(=O)[O-])ccc7F)c7ccc4[nH]7)C=C6)C=C5)cc3)S[C@H]3CS(=O)(=O)C[C@@H]32)cc1
REMARK SMILES IDX 22 1 21 2 20 3 19 4 18 5 17 6 15 7 16 8 14 9 13 10 11 11
REMARK SMILES IDX 8 12 9 13 102 14 10 15 95 16 96 17 101 18 97 20 98 21 12 22
REMARK SMILES IDX 99 23 100 24 7 25 4 26 5 27 104 28 6 29 103 30 2 31 1 32
REMARK SMILES IDX 3 33 23 34 24 35 25 36 26 37 27 38 28 39 29 40 30 41 31 42
REMARK SMILES IDX 32 43 33 44 94 45 34 46 93 47 35 48 36 49 37 50 87 51 38 52
REMARK SMILES IDX 92 53 86 54 88 55 39 56 91 57 85 58 84 59 40 61 72 62 52 63
REMARK SMILES IDX 71 64 53 65 56 66 70 67 89 68 54 69 55 70 69 72 90 73 57 74
REMARK SMILES IDX 41 75 42 76 50 77 43 78 49 79 51 80 48 81 44 82 45 83 46 84
REMARK SMILES IDX 47 85 73 86 74 87 82 88 75 89 81 90 83 91 80 92 76 93 77 94
REMARK SMILES IDX 78 95 79 96 58 97 59 98 67 99 60 100 66 101 68 102 65 103
REMARK SMILES IDX 61 104 62 105 63 106 64 107
REMARK H PARENT 10 19 88 60 56 71
REMARK Flexibility Score: inf
ROOT
ATOM      1  C   UNL A   1      35.796  18.183  25.006  1.00  0.00     0.188 C 
ENDROOT
BRANCH   1   2
ATOM      2  C   UNL A   1      34.741  17.358  24.230  1.00  0.00     0.188 C 
BRANCH   2   3
ATOM      3  O   UNL A   1      33.512  17.139  24.903  1.00  0.00    -0.376 OA
BRANCH   3   4
ATOM      4  C   UNL A   1      32.326  17.681  24.349  1.00  0.00     0.202 C 
BRANCH   4   5
ATOM      5  C   UNL A   1      32.405  19.170  24.085  1.00  0.00     0.261 C 
BRANCH   5   6
ATOM      6  O   UNL A   1      32.229  19.965  25.251  1.00  0.00    -0.463 OA
BRANCH   6   7
ATOM      7  C   UNL A   1      31.812  21.229  25.137  1.00  0.00     0.306 C 
ATOM      8  O   UNL A   1      31.065  21.795  25.920  1.00  0.00    -0.252 OA
BRANCH   7   9
ATOM      9  C   UNL A   1      32.342  21.846  23.869  1.00  0.00     0.135 C 
BRANCH   9  10
ATOM     10  C   UNL A   1      32.733  23.317  23.912  1.00  0.00     0.139 C 
BRANCH  10  11
ATOM     11  C   UNL A   1      31.664  24.415  23.764  1.00  0.00     0.308 C 
ATOM     12  N   UNL A   1      31.145  28.050  24.466  1.00  0.00    -0.217 N 
ATOM     13  C   UNL A   1      31.035  26.640  24.272  1.00  0.00     0.319 C 
ATOM     14  C   UNL A   1      29.894  28.759  24.141  1.00  0.00     0.212 C 
ATOM     15  N   UNL A   1      31.941  25.712  24.196  1.00  0.00    -0.204 N 
ATOM     16  S   UNL A   1      29.284  26.317  23.917  1.00  0.00    -0.029 SA
ATOM     17  C   UNL A   1      29.236  27.883  23.076  1.00  0.00     0.120 C 
ATOM     18  C   UNL A   1      29.997  30.093  23.447  1.00  0.00     0.188 C 
ATOM     19  H   UNL A   1      32.864  25.934  24.457  1.00  0.00     0.316 HD
ATOM     20  C   UNL A   1      27.936  28.510  22.691  1.00  0.00     0.156 C 
ATOM     21  S   UNL A   1      28.355  30.237  22.732  1.00  0.00     0.155 S 
ATOM     22  O   UNL A   1      30.617  24.035  23.231  1.00  0.00    -0.247 OA
ATOM     23  O   UNL A   1      28.496  30.689  21.360  1.00  0.00    -0.229 OA
ATOM     24  O   UNL A   1      27.474  30.822  23.704  1.00  0.00    -0.229 OA
BRANCH  12  25
ATOM     25  C   UNL A   1      32.029  28.797  25.277  1.00  0.00     0.128 A 
ATOM     26  C   UNL A   1      33.851  30.211  26.986  1.00  0.00     0.018 A 
ATOM     27  C   UNL A   1      34.315  29.294  26.041  1.00  0.00     0.016 A 
ATOM     28  C   UNL A   1      32.470  30.357  27.135  1.00  0.00     0.016 A 
ATOM     29  C   UNL A   1      33.416  28.594  25.215  1.00  0.00     0.052 A 
ATOM     30  C   UNL A   1      31.574  29.641  26.300  1.00  0.00     0.052 A 
BRANCH  26  31
ATOM     31  C   UNL A   1      34.871  31.012  27.737  1.00  0.00     0.159 C 
ATOM     32  C   UNL A   1      34.432  32.118  28.659  1.00  0.00     0.093 C 
ATOM     33  O   UNL A   1      36.066  30.766  27.576  1.00  0.00    -0.295 OA
ENDBRANCH  26  31
ENDBRANCH  12  25
ENDBRANCH  10  11
ENDBRANCH   9  10
ENDBRANCH   7   9
ENDBRANCH   6   7
ENDBRANCH   5   6
ENDBRANCH   4   5
ENDBRANCH   3   4
ENDBRANCH   2   3
ENDBRANCH   1   2
BRANCH   1  34
ATOM     34  O   UNL A   1      36.329  19.433  24.611  1.00  0.00    -0.377 OA
BRANCH  34  35
ATOM     35  C   UNL A   1      35.690  20.609  25.057  1.00  0.00     0.188 C 
BRANCH  35  36
ATOM     36  C   UNL A   1      36.487  21.885  24.775  1.00  0.00     0.188 C 
BRANCH  36  37
ATOM     37  O   UNL A   1      37.547  22.064  25.707  1.00  0.00    -0.376 OA
BRANCH  37  38
ATOM     38  C   UNL A   1      38.709  21.269  25.502  1.00  0.00     0.202 C 
BRANCH  38  39
ATOM     39  C   UNL A   1      39.763  21.126  26.623  1.00  0.00     0.261 C 
BRANCH  39  40
ATOM     40  O   UNL A   1      40.808  20.145  26.454  1.00  0.00    -0.460 OA
BRANCH  40  41
ATOM     41  C   UNL A   1      42.050  20.586  26.171  1.00  0.00     0.338 C 
ATOM     42  O   UNL A   1      42.892  19.990  25.523  1.00  0.00    -0.246 OA
BRANCH  41  43
ATOM     43  C   UNL A   1      42.177  22.005  26.607  1.00  0.00     0.060 A 
ATOM     44  C   UNL A   1      42.088  23.010  25.637  1.00  0.00     0.016 A 
ATOM     45  C   UNL A   1      42.409  22.357  27.942  1.00  0.00     0.016 A 
ATOM     46  C   UNL A   1      42.283  24.356  25.981  1.00  0.00     0.010 A 
ATOM     47  C   UNL A   1      42.612  23.707  28.283  1.00  0.00     0.010 A 
ATOM     48  C   UNL A   1      42.581  24.720  27.301  1.00  0.00    -0.014 A 
BRANCH  48  49
ATOM     49  C   UNL A   1      43.083  26.098  27.598  1.00  0.00     0.031 A 
ATOM     50  C   UNL A   1      44.520  26.411  27.271  1.00  0.00     0.074 A 
ATOM     51  C   UNL A   1      42.298  27.107  28.038  1.00  0.00     0.049 A 
ATOM     52  N   UNL A   1      45.177  27.532  27.420  1.00  0.00    -0.248 NA
ATOM     53  C   UNL A   1      45.300  25.336  26.637  1.00  0.00     0.031 C 
ATOM     54  C   UNL A   1      40.849  27.050  28.189  1.00  0.00     0.029 A 
ATOM     55  N   UNL A   1      42.609  28.387  28.443  1.00  0.00    -0.354 N 
ATOM     56  C   UNL A   1      46.419  27.323  26.836  1.00  0.00     0.074 A 
ATOM     57  C   UNL A   1      46.457  25.939  26.413  1.00  0.00     0.031 C 
ATOM     58  C   UNL A   1      40.410  28.200  28.733  1.00  0.00     0.029 A 
ATOM     59  C   UNL A   1      41.545  29.062  29.009  1.00  0.00     0.049 A 
ATOM     60  H   UNL A   1      43.504  28.782  28.339  1.00  0.00     0.167 HD
ATOM     61  C   UNL A   1      47.415  28.218  26.629  1.00  0.00     0.034 A 
ATOM     62  C   UNL A   1      41.492  30.220  29.698  1.00  0.00     0.034 A 
ATOM     63  C   UNL A   1      47.382  29.584  27.092  1.00  0.00     0.049 A 
ATOM     64  C   UNL A   1      42.714  31.079  29.743  1.00  0.00     0.074 A 
ATOM     65  C   UNL A   1      48.340  30.571  26.930  1.00  0.00     0.029 A 
ATOM     66  N   UNL A   1      46.356  30.153  27.836  1.00  0.00    -0.354 N 
ATOM     67  N   UNL A   1      43.887  30.865  29.200  1.00  0.00    -0.248 NA
ATOM     68  C   UNL A   1      42.575  32.374  30.417  1.00  0.00     0.031 C 
ATOM     69  C   UNL A   1      47.939  31.699  27.654  1.00  0.00     0.029 A 
ATOM     70  C   UNL A   1      46.686  31.454  28.190  1.00  0.00     0.049 A 
ATOM     71  H   UNL A   1      45.515  29.699  28.077  1.00  0.00     0.167 HD
ATOM     72  C   UNL A   1      44.605  32.036  29.400  1.00  0.00     0.074 A 
ATOM     73  C   UNL A   1      43.740  32.936  30.138  1.00  0.00     0.031 C 
ATOM     74  C   UNL A   1      45.849  32.345  28.960  1.00  0.00     0.034 A 
BRANCH  61  75
ATOM     75  C   UNL A   1      48.643  27.718  25.909  1.00  0.00     0.023 A 
ATOM     76  C   UNL A   1      48.789  27.850  24.516  1.00  0.00     0.031 A 
ATOM     77  C   UNL A   1      49.665  27.070  26.622  1.00  0.00     0.131 A 
ATOM     78  C   UNL A   1      49.897  27.277  23.873  1.00  0.00     0.055 A 
ATOM     79  C   UNL A   1      50.804  26.575  25.986  1.00  0.00     0.041 A 
ATOM     80  F   UNL A   1      49.566  26.890  27.948  1.00  0.00    -0.206 F 
ATOM     81  C   UNL A   1      50.918  26.664  24.601  1.00  0.00     0.022 A 
BRANCH  78  82
ATOM     82  S   UNL A   1      49.909  27.207  22.059  1.00  0.00     0.124 S 
ATOM     83  O   UNL A   1      49.461  28.552  21.709  1.00  0.00    -0.237 OA
ATOM     84  O   UNL A   1      51.303  26.899  21.764  1.00  0.00    -0.237 OA
ATOM     85  O   UNL A   1      48.956  26.142  21.753  1.00  0.00    -0.744 OA
ENDBRANCH  78  82
ENDBRANCH  61  75
BRANCH  62  86
ATOM     86  C   UNL A   1      40.284  30.641  30.467  1.00  0.00     0.023 A 
ATOM     87  C   UNL A   1      39.477  31.722  30.088  1.00  0.00     0.031 A 
ATOM     88  C   UNL A   1      40.029  30.045  31.714  1.00  0.00     0.131 A 
ATOM     89  C   UNL A   1      38.438  32.147  30.941  1.00  0.00     0.055 A 
ATOM     90  C   UNL A   1      38.940  30.406  32.508  1.00  0.00     0.041 A 
ATOM     91  F   UNL A   1      40.892  29.155  32.223  1.00  0.00    -0.206 F 
ATOM     92  C   UNL A   1      38.129  31.463  32.119  1.00  0.00     0.022 A 
BRANCH  89  93
ATOM     93  S   UNL A   1      37.577  33.701  30.574  1.00  0.00     0.124 S 
ATOM     94  O   UNL A   1      38.492  34.684  31.139  1.00  0.00    -0.237 OA
ATOM     95  O   UNL A   1      37.488  33.664  29.118  1.00  0.00    -0.237 OA
ATOM     96  O   UNL A   1      36.301  33.560  31.274  1.00  0.00    -0.744 OA
ENDBRANCH  89  93
ENDBRANCH  62  86
BRANCH  74  97
ATOM     97  C   UNL A   1      46.318  33.752  29.220  1.00  0.00     0.023 A 
ATOM     98  C   UNL A   1      46.150  34.774  28.272  1.00  0.00     0.031 A 
ATOM     99  C   UNL A   1      47.015  34.052  30.404  1.00  0.00     0.131 A 
ATOM    100  C   UNL A   1      46.749  36.024  28.484  1.00  0.00     0.055 A 
ATOM    101  C   UNL A   1      47.531  35.324  30.648  1.00  0.00     0.041 A 
ATOM    102  F   UNL A   1      47.221  33.109  31.337  1.00  0.00    -0.206 F 
ATOM    103  C   UNL A   1      47.418  36.313  29.676  1.00  0.00     0.022 A 
BRANCH 100 104
ATOM    104  S   UNL A   1      46.767  37.215  27.117  1.00  0.00     0.124 S 
ATOM    105  O   UNL A   1      48.122  37.751  27.206  1.00  0.00    -0.237 OA
ATOM    106  O   UNL A   1      46.490  36.369  25.961  1.00  0.00    -0.237 OA
ATOM    107  O   UNL A   1      45.704  38.154  27.468  1.00  0.00    -0.744 OA
ENDBRANCH 100 104
ENDBRANCH  74  97
ENDBRANCH  48  49
ENDBRANCH  41  43
ENDBRANCH  40  41
ENDBRANCH  39  40
ENDBRANCH  38  39
ENDBRANCH  37  38
ENDBRANCH  36  37
ENDBRANCH  35  36
ENDBRANCH  34  35
ENDBRANCH   1  34
TORSDOF 27
ENDMDL
MODEL 2
REMARK VINA RESULT:      -9.5      1.795      2.043
REMARK SMILES CC(=O)c1ccc(N2/C(=[NH+]/C(=O)CCC(=O)OCCOCCOCCOCCOC(=O)c3ccc(-c4c5nc(c(-c6cc(S(=O)(=O)[O-])ccc6F)c6ccc([nH]6)c(-c6cc(S(=O)(=O)[O-])ccc6F)c6nc(c(-c7cc(S(=O)(=O)[O-])ccc7F)c7ccc4[nH]7)C=C6)C=C5)cc3)S[C@H]3CS(=O)(=O)C[C@@H]32)cc1
REMARK SMILES IDX 22 1 21 2 20 3 19 4 18 5 17 6 15 7 16 8 14 9 13 10 11 11
REMARK SMILES IDX 8 12 9 13 102 14 10 15 95 16 96 17 101 18 97 20 98 21 12 22
REMARK SMILES IDX 99 23 100 24 7 25 4 26 5 27 104 28 6 29 103 30 2 31 1 32
REMARK SMILES IDX 3 33 23 34 24 35 25 36 26 37 27 38 28 39 29 40 30 41 31 42
REMARK SMILES IDX 32 43 33 44 94 45 34 46 93 47 35 48 36 49 37 50 87 51 38 52
REMARK SMILES IDX 92 53 86 54 88 55 39 56 91 57 85 58 84 59 40 61 72 62 52 63
REMARK SMILES IDX 71 64 53 65 56 66 70 67 89 68 54 69 55 70 69 72 90 73 57 74
REMARK SMILES IDX 41 75 42 76 50 77 43 78 49 79 51 80 48 81 44 82 45 83 46 84
REMARK SMILES IDX 47 85 73 86 74 87 82 88 75 89 81 90 83 91 80 92 76 93 77 94
REMARK SMILES IDX 78 95 79 96 58 97 59 98 67 99 60 100 66 101 68 102 65 103
REMARK SMILES IDX 61 104 62 105 63 106 64 107
REMARK H PARENT 10 19 88 60 56 71
REMARK Flexibility Score: inf
ROOT
ATOM      1  C   UNL A   1      35.832  18.285  24.989  1.00  0.00     0.188 C 
ENDROOT
BRANCH   1   2
ATOM      2  C   UNL A   1      34.772  17.474  24.204  1.00  0.00     0.188 C 
BRANCH   2   3
ATOM      3  O   UNL A   1      33.551  17.235  24.884  1.00  0.00    -0.376 OA
BRANCH   3   4
ATOM      4  C   UNL A   1      32.352  17.754  24.335  1.00  0.00     0.202 C 
BRANCH   4   5
ATOM      5  C   UNL A   1      32.405  19.243  24.062  1.00  0.00     0.261 C 
BRANCH   5   6
ATOM      6  O   UNL A   1      32.234  20.042  25.226  1.00  0.00    -0.463 OA
BRANCH   6   7
ATOM      7  C   UNL A   1      31.782  21.294  25.112  1.00  0.00     0.306 C 
ATOM      8  O   UNL A   1      31.033  21.844  25.906  1.00  0.00    -0.252 OA
BRANCH   7   9
ATOM      9  C   UNL A   1      32.273  21.918  23.832  1.00  0.00     0.135 C 
BRANCH   9  10
ATOM     10  C   UNL A   1      32.681  23.383  23.875  1.00  0.00     0.139 C 
BRANCH  10  11
ATOM     11  C   UNL A   1      31.623  24.494  23.734  1.00  0.00     0.308 C 
ATOM     12  N   UNL A   1      31.137  28.126  24.474  1.00  0.00    -0.217 N 
ATOM     13  C   UNL A   1      31.014  26.719  24.264  1.00  0.00     0.319 C 
ATOM     14  C   UNL A   1      29.895  28.852  24.152  1.00  0.00     0.212 C 
ATOM     15  N   UNL A   1      31.911  25.784  24.181  1.00  0.00    -0.204 N 
ATOM     16  S   UNL A   1      29.261  26.418  23.899  1.00  0.00    -0.029 SA
ATOM     17  C   UNL A   1      29.233  27.994  23.075  1.00  0.00     0.120 C 
ATOM     18  C   UNL A   1      30.014  30.191  23.473  1.00  0.00     0.188 C 
ATOM     19  H   UNL A   1      32.835  25.993  24.448  1.00  0.00     0.316 HD
ATOM     20  C   UNL A   1      27.941  28.637  22.692  1.00  0.00     0.156 C 
ATOM     21  S   UNL A   1      28.377  30.359  22.753  1.00  0.00     0.155 S 
ATOM     22  O   UNL A   1      30.575  24.130  23.193  1.00  0.00    -0.247 OA
ATOM     23  O   UNL A   1      28.527  30.825  21.386  1.00  0.00    -0.229 OA
ATOM     24  O   UNL A   1      27.498  30.943  23.728  1.00  0.00    -0.229 OA
BRANCH  12  25
ATOM     25  C   UNL A   1      32.026  28.855  25.296  1.00  0.00     0.128 A 
ATOM     26  C   UNL A   1      33.834  30.241  27.044  1.00  0.00     0.018 A 
ATOM     27  C   UNL A   1      34.261  29.151  26.283  1.00  0.00     0.016 A 
ATOM     28  C   UNL A   1      32.481  30.584  26.995  1.00  0.00     0.016 A 
ATOM     29  C   UNL A   1      33.367  28.467  25.438  1.00  0.00     0.052 A 
ATOM     30  C   UNL A   1      31.588  29.883  26.143  1.00  0.00     0.052 A 
BRANCH  26  31
ATOM     31  C   UNL A   1      34.870  30.997  27.818  1.00  0.00     0.159 C 
ATOM     32  C   UNL A   1      36.319  30.601  27.727  1.00  0.00     0.093 C 
ATOM     33  O   UNL A   1      34.518  31.929  28.541  1.00  0.00    -0.295 OA
ENDBRANCH  26  31
ENDBRANCH  12  25
ENDBRANCH  10  11
ENDBRANCH   9  10
ENDBRANCH   7   9
ENDBRANCH   6   7
ENDBRANCH   5   6
ENDBRANCH   4   5
ENDBRANCH   3   4
ENDBRANCH   2   3
ENDBRANCH   1   2
BRANCH   1  34
ATOM     34  O   UNL A   1      36.359  19.545  24.615  1.00  0.00    -0.377 OA
BRANCH  34  35
ATOM     35  C   UNL A   1      35.721  20.709  25.092  1.00  0.00     0.188 C 
BRANCH  35  36
ATOM     36  C   UNL A   1      36.498  21.995  24.804  1.00  0.00     0.188 C 
BRANCH  36  37
ATOM     37  O   UNL A   1      37.593  22.165  25.697  1.00  0.00    -0.376 OA
BRANCH  37  38
ATOM     38  C   UNL A   1      38.711  21.308  25.495  1.00  0.00     0.202 C 
BRANCH  38  39
ATOM     39  C   UNL A   1      39.793  21.168  26.590  1.00  0.00     0.261 C 
BRANCH  39  40
ATOM     40  O   UNL A   1      40.830  20.182  26.399  1.00  0.00    -0.460 OA
BRANCH  40  41
ATOM     41  C   UNL A   1      42.076  20.620  26.127  1.00  0.00     0.338 C 
ATOM     42  O   UNL A   1      42.914  20.030  25.470  1.00  0.00    -0.246 OA
BRANCH  41  43
ATOM     43  C   UNL A   1      42.211  22.029  26.591  1.00  0.00     0.060 A 
ATOM     44  C   UNL A   1      42.144  23.052  25.639  1.00  0.00     0.016 A 
ATOM     45  C   UNL A   1      42.432  22.354  27.934  1.00  0.00     0.016 A 
ATOM     46  C   UNL A   1      42.348  24.390  26.010  1.00  0.00     0.010 A 
ATOM     47  C   UNL A   1      42.645  23.696  28.303  1.00  0.00     0.010 A 
ATOM     48  C   UNL A   1      42.635  24.727  27.339  1.00  0.00    -0.014 A 
BRANCH  48  49
ATOM     49  C   UNL A   1      43.147  26.094  27.667  1.00  0.00     0.031 A 
ATOM     50  C   UNL A   1      44.597  26.391  27.383  1.00  0.00     0.074 A 
ATOM     51  C   UNL A   1      42.364  27.108  28.099  1.00  0.00     0.049 A 
ATOM     52  N   UNL A   1      45.264  27.501  27.564  1.00  0.00    -0.248 NA
ATOM     53  C   UNL A   1      45.378  25.313  26.756  1.00  0.00     0.031 C 
ATOM     54  C   UNL A   1      40.911  27.069  28.211  1.00  0.00     0.029 A 
ATOM     55  N   UNL A   1      42.681  28.378  28.529  1.00  0.00    -0.354 N 
ATOM     56  C   UNL A   1      46.518  27.282  27.011  1.00  0.00     0.074 A 
ATOM     57  C   UNL A   1      46.549  25.903  26.571  1.00  0.00     0.031 C 
ATOM     58  C   UNL A   1      40.473  28.218  28.758  1.00  0.00     0.029 A 
ATOM     59  C   UNL A   1      41.612  29.060  29.075  1.00  0.00     0.049 A 
ATOM     60  H   UNL A   1      43.584  28.763  28.454  1.00  0.00     0.167 HD
ATOM     61  C   UNL A   1      47.532  28.166  26.842  1.00  0.00     0.034 A 
ATOM     62  C   UNL A   1      41.555  30.211  29.777  1.00  0.00     0.034 A 
ATOM     63  C   UNL A   1      47.505  29.527  27.321  1.00  0.00     0.049 A 
ATOM     64  C   UNL A   1      42.788  31.053  29.865  1.00  0.00     0.074 A 
ATOM     65  C   UNL A   1      48.479  30.502  27.197  1.00  0.00     0.029 A 
ATOM     66  N   UNL A   1      46.466  30.100  28.044  1.00  0.00    -0.354 N 
ATOM     67  N   UNL A   1      43.972  30.829  29.351  1.00  0.00    -0.248 NA
ATOM     68  C   UNL A   1      42.648  32.341  30.552  1.00  0.00     0.031 C 
ATOM     69  C   UNL A   1      48.075  31.626  27.924  1.00  0.00     0.029 A 
ATOM     70  C   UNL A   1      46.805  31.392  28.424  1.00  0.00     0.049 A 
ATOM     71  H   UNL A   1      45.614  29.655  28.257  1.00  0.00     0.167 HD
ATOM     72  C   UNL A   1      44.699  31.987  29.586  1.00  0.00     0.074 A 
ATOM     73  C   UNL A   1      43.827  32.890  30.312  1.00  0.00     0.031 C 
ATOM     74  C   UNL A   1      45.959  32.284  29.183  1.00  0.00     0.034 A 
BRANCH  61  75
ATOM     75  C   UNL A   1      48.772  27.659  26.149  1.00  0.00     0.023 A 
ATOM     76  C   UNL A   1      49.938  27.329  26.864  1.00  0.00     0.031 A 
ATOM     77  C   UNL A   1      48.799  27.537  24.750  1.00  0.00     0.131 A 
ATOM     78  C   UNL A   1      51.102  26.964  26.172  1.00  0.00     0.055 A 
ATOM     79  C   UNL A   1      49.936  27.094  24.073  1.00  0.00     0.041 A 
ATOM     80  F   UNL A   1      47.726  27.865  24.014  1.00  0.00    -0.206 F 
ATOM     81  C   UNL A   1      51.102  26.818  24.783  1.00  0.00     0.022 A 
BRANCH  78  82
ATOM     82  S   UNL A   1      52.659  26.833  27.096  1.00  0.00     0.124 S 
ATOM     83  O   UNL A   1      53.523  26.167  26.124  1.00  0.00    -0.237 OA
ATOM     84  O   UNL A   1      52.974  28.227  27.383  1.00  0.00    -0.237 OA
ATOM     85  O   UNL A   1      52.299  26.022  28.257  1.00  0.00    -0.744 OA
ENDBRANCH  78  82
ENDBRANCH  61  75
BRANCH  62  86
ATOM     86  C   UNL A   1      40.333  30.639  30.519  1.00  0.00     0.023 A 
ATOM     87  C   UNL A   1      39.485  31.659  30.068  1.00  0.00     0.031 A 
ATOM     88  C   UNL A   1      40.102  30.123  31.806  1.00  0.00     0.131 A 
ATOM     89  C   UNL A   1      38.432  32.103  30.892  1.00  0.00     0.055 A 
ATOM     90  C   UNL A   1      39.001  30.498  32.576  1.00  0.00     0.041 A 
ATOM     91  F   UNL A   1      41.000  29.305  32.373  1.00  0.00    -0.206 F 
ATOM     92  C   UNL A   1      38.150  31.492  32.117  1.00  0.00     0.022 A 
BRANCH  89  93
ATOM     93  S   UNL A   1      37.511  33.593  30.420  1.00  0.00     0.124 S 
ATOM     94  O   UNL A   1      38.273  34.635  31.096  1.00  0.00    -0.237 OA
ATOM     95  O   UNL A   1      37.610  33.564  28.965  1.00  0.00    -0.237 OA
ATOM     96  O   UNL A   1      36.172  33.352  30.953  1.00  0.00    -0.744 OA
ENDBRANCH  89  93
ENDBRANCH  62  86
BRANCH  74  97
ATOM     97  C   UNL A   1      46.440  33.682  29.474  1.00  0.00     0.023 A 
ATOM     98  C   UNL A   1      47.228  33.973  30.599  1.00  0.00     0.031 A 
ATOM     99  C   UNL A   1      46.034  34.749  28.652  1.00  0.00     0.131 A 
ATOM    100  C   UNL A   1      47.511  35.307  30.922  1.00  0.00     0.055 A 
ATOM    101  C   UNL A   1      46.395  36.066  28.931  1.00  0.00     0.041 A 
ATOM    102  F   UNL A   1      45.265  34.530  27.574  1.00  0.00    -0.206 F 
ATOM    103  C   UNL A   1      47.120  36.355  30.083  1.00  0.00     0.022 A 
BRANCH 100 104
ATOM    104  S   UNL A   1      48.268  35.664  32.531  1.00  0.00     0.124 S 
ATOM    105  O   UNL A   1      49.331  36.594  32.161  1.00  0.00    -0.237 OA
ATOM    106  O   UNL A   1      47.154  36.235  33.282  1.00  0.00    -0.237 OA
ATOM    107  O   UNL A   1      48.722  34.354  32.994  1.00  0.00    -0.744 OA
ENDBRANCH 100 104
ENDBRANCH  74  97
ENDBRANCH  48  49
ENDBRANCH  41  43
ENDBRANCH  40  41
ENDBRANCH  39  40
ENDBRANCH  38  39
ENDBRANCH  37  38
ENDBRANCH  36  37
ENDBRANCH  35  36
ENDBRANCH  34  35
ENDBRANCH   1  34
TORSDOF 27
ENDMDL
MODEL 3
REMARK VINA RESULT:      -9.2      3.504      8.309
REMARK SMILES CC(=O)c1ccc(N2/C(=[NH+]/C(=O)CCC(=O)OCCOCCOCCOCCOC(=O)c3ccc(-c4c5nc(c(-c6cc(S(=O)(=O)[O-])ccc6F)c6ccc([nH]6)c(-c6cc(S(=O)(=O)[O-])ccc6F)c6nc(c(-c7cc(S(=O)(=O)[O-])ccc7F)c7ccc4[nH]7)C=C6)C=C5)cc3)S[C@H]3CS(=O)(=O)C[C@@H]32)cc1
REMARK SMILES IDX 22 1 21 2 20 3 19 4 18 5 17 6 15 7 16 8 14 9 13 10 11 11
REMARK SMILES IDX 8 12 9 13 102 14 10 15 95 16 96 17 101 18 97 20 98 21 12 22
REMARK SMILES IDX 99 23 100 24 7 25 4 26 5 27 104 28 6 29 103 30 2 31 1 32
REMARK SMILES IDX 3 33 23 34 24 35 25 36 26 37 27 38 28 39 29 40 30 41 31 42
REMARK SMILES IDX 32 43 33 44 94 45 34 46 93 47 35 48 36 49 37 50 87 51 38 52
REMARK SMILES IDX 92 53 86 54 88 55 39 56 91 57 85 58 84 59 40 61 72 62 52 63
REMARK SMILES IDX 71 64 53 65 56 66 70 67 89 68 54 69 55 70 69 72 90 73 57 74
REMARK SMILES IDX 41 75 42 76 50 77 43 78 49 79 51 80 48 81 44 82 45 83 46 84
REMARK SMILES IDX 47 85 73 86 74 87 82 88 75 89 81 90 83 91 80 92 76 93 77 94
REMARK SMILES IDX 78 95 79 96 58 97 59 98 67 99 60 100 66 101 68 102 65 103
REMARK SMILES IDX 61 104 62 105 63 106 64 107
REMARK H PARENT 10 19 88 60 56 71
REMARK Flexibility Score: inf
ROOT
ATOM      1  C   UNL A   1      35.978  17.732  25.137  1.00  0.00     0.188 C 
ENDROOT
BRANCH   1   2
ATOM      2  C   UNL A   1      34.769  17.541  24.189  1.00  0.00     0.188 C 
BRANCH   2   3
ATOM      3  O   UNL A   1      33.503  17.441  24.819  1.00  0.00    -0.376 OA
BRANCH   3   4
ATOM      4  C   UNL A   1      32.360  17.920  24.132  1.00  0.00     0.202 C 
BRANCH   4   5
ATOM      5  C   UNL A   1      32.378  19.416  23.895  1.00  0.00     0.261 C 
BRANCH   5   6
ATOM      6  O   UNL A   1      32.178  20.181  25.076  1.00  0.00    -0.463 OA
BRANCH   6   7
ATOM      7  C   UNL A   1      31.820  21.465  24.982  1.00  0.00     0.306 C 
ATOM      8  O   UNL A   1      31.143  22.067  25.803  1.00  0.00    -0.252 OA
BRANCH   7   9
ATOM      9  C   UNL A   1      32.316  22.058  23.689  1.00  0.00     0.135 C 
BRANCH   9  10
ATOM     10  C   UNL A   1      32.686  23.535  23.689  1.00  0.00     0.139 C 
BRANCH  10  11
ATOM     11  C   UNL A   1      31.591  24.615  23.600  1.00  0.00     0.308 C 
ATOM     12  N   UNL A   1      31.029  28.223  24.398  1.00  0.00    -0.217 N 
ATOM     13  C   UNL A   1      30.939  26.816  24.177  1.00  0.00     0.319 C 
ATOM     14  C   UNL A   1      29.755  28.915  24.131  1.00  0.00     0.212 C 
ATOM     15  N   UNL A   1      31.859  25.908  24.050  1.00  0.00    -0.204 N 
ATOM     16  S   UNL A   1      29.183  26.467  23.875  1.00  0.00    -0.029 SA
ATOM     17  C   UNL A   1      29.077  28.049  23.071  1.00  0.00     0.120 C 
ATOM     18  C   UNL A   1      29.809  30.264  23.462  1.00  0.00     0.188 C 
ATOM     19  H   UNL A   1      32.786  26.142  24.284  1.00  0.00     0.316 HD
ATOM     20  C   UNL A   1      27.753  28.658  22.744  1.00  0.00     0.156 C 
ATOM     21  S   UNL A   1      28.141  30.391  22.807  1.00  0.00     0.155 S 
ATOM     22  O   UNL A   1      30.534  24.225  23.096  1.00  0.00    -0.247 OA
ATOM     23  O   UNL A   1      28.225  30.874  21.441  1.00  0.00    -0.229 OA
ATOM     24  O   UNL A   1      27.283  30.940  23.822  1.00  0.00    -0.229 OA
BRANCH  12  25
ATOM     25  C   UNL A   1      31.927  28.970  25.193  1.00  0.00     0.128 A 
ATOM     26  C   UNL A   1      33.759  30.392  26.886  1.00  0.00     0.018 A 
ATOM     27  C   UNL A   1      34.186  29.317  26.105  1.00  0.00     0.016 A 
ATOM     28  C   UNL A   1      32.397  30.701  26.887  1.00  0.00     0.016 A 
ATOM     29  C   UNL A   1      33.282  28.617  25.286  1.00  0.00     0.052 A 
ATOM     30  C   UNL A   1      31.493  29.983  26.062  1.00  0.00     0.052 A 
BRANCH  26  31
ATOM     31  C   UNL A   1      34.801  31.170  27.629  1.00  0.00     0.159 C 
ATOM     32  C   UNL A   1      36.116  30.526  27.980  1.00  0.00     0.093 C 
ATOM     33  O   UNL A   1      34.561  32.331  27.963  1.00  0.00    -0.295 OA
ENDBRANCH  26  31
ENDBRANCH  12  25
ENDBRANCH  10  11
ENDBRANCH   9  10
ENDBRANCH   7   9
ENDBRANCH   6   7
ENDBRANCH   5   6
ENDBRANCH   4   5
ENDBRANCH   3   4
ENDBRANCH   2   3
ENDBRANCH   1   2
BRANCH   1  34
ATOM     34  O   UNL A   1      37.021  18.676  24.975  1.00  0.00    -0.377 OA
BRANCH  34  35
ATOM     35  C   UNL A   1      36.696  20.049  25.007  1.00  0.00     0.188 C 
BRANCH  35  36
ATOM     36  C   UNL A   1      37.918  20.966  25.096  1.00  0.00     0.188 C 
BRANCH  36  37
ATOM     37  O   UNL A   1      37.568  22.273  25.537  1.00  0.00    -0.376 OA
BRANCH  37  38
ATOM     38  C   UNL A   1      38.549  22.964  26.302  1.00  0.00     0.202 C 
BRANCH  38  39
ATOM     39  C   UNL A   1      38.436  24.490  26.517  1.00  0.00     0.261 C 
BRANCH  39  40
ATOM     40  O   UNL A   1      39.444  25.140  27.320  1.00  0.00    -0.460 OA
BRANCH  40  41
ATOM     41  C   UNL A   1      40.353  25.912  26.691  1.00  0.00     0.338 C 
ATOM     42  O   UNL A   1      40.774  25.745  25.561  1.00  0.00    -0.246 OA
BRANCH  41  43
ATOM     43  C   UNL A   1      40.625  27.120  27.519  1.00  0.00     0.060 A 
ATOM     44  C   UNL A   1      40.317  28.376  26.983  1.00  0.00     0.016 A 
ATOM     45  C   UNL A   1      41.202  27.039  28.791  1.00  0.00     0.016 A 
ATOM     46  C   UNL A   1      40.629  29.550  27.685  1.00  0.00     0.010 A 
ATOM     47  C   UNL A   1      41.522  28.218  29.490  1.00  0.00     0.010 A 
ATOM     48  C   UNL A   1      41.266  29.488  28.932  1.00  0.00    -0.014 A 
BRANCH  48  49
ATOM     49  C   UNL A   1      41.864  30.726  29.525  1.00  0.00     0.031 A 
ATOM     50  C   UNL A   1      41.051  31.484  30.543  1.00  0.00     0.074 A 
ATOM     51  C   UNL A   1      43.127  31.141  29.284  1.00  0.00     0.049 A 
ATOM     52  N   UNL A   1      41.359  32.568  31.205  1.00  0.00    -0.248 NA
ATOM     53  C   UNL A   1      39.746  30.907  30.904  1.00  0.00     0.031 C 
ATOM     54  C   UNL A   1      44.127  30.413  28.512  1.00  0.00     0.029 A 
ATOM     55  N   UNL A   1      43.793  32.286  29.666  1.00  0.00    -0.354 N 
ATOM     56  C   UNL A   1      40.325  32.765  32.110  1.00  0.00     0.074 A 
ATOM     57  C   UNL A   1      39.336  31.741  31.848  1.00  0.00     0.031 C 
ATOM     58  C   UNL A   1      45.240  31.162  28.402  1.00  0.00     0.029 A 
ATOM     59  C   UNL A   1      45.023  32.439  29.058  1.00  0.00     0.049 A 
ATOM     60  H   UNL A   1      43.426  32.934  30.310  1.00  0.00     0.167 HD
ATOM     61  C   UNL A   1      40.234  33.687  33.100  1.00  0.00     0.034 A 
ATOM     62  C   UNL A   1      45.865  33.492  29.005  1.00  0.00     0.034 A 
ATOM     63  C   UNL A   1      41.207  34.729  33.325  1.00  0.00     0.049 A 
ATOM     64  C   UNL A   1      45.586  34.672  29.879  1.00  0.00     0.074 A 
ATOM     65  C   UNL A   1      41.207  35.708  34.303  1.00  0.00     0.029 A 
ATOM     66  N   UNL A   1      42.336  34.951  32.547  1.00  0.00    -0.354 N 
ATOM     67  N   UNL A   1      44.596  34.853  30.719  1.00  0.00    -0.248 NA
ATOM     68  C   UNL A   1      46.584  35.746  29.861  1.00  0.00     0.031 C 
ATOM     69  C   UNL A   1      42.276  36.576  34.059  1.00  0.00     0.029 A 
ATOM     70  C   UNL A   1      43.003  36.087  32.987  1.00  0.00     0.049 A 
ATOM     71  H   UNL A   1      42.622  34.386  31.793  1.00  0.00     0.167 HD
ATOM     72  C   UNL A   1      44.896  36.031  31.390  1.00  0.00     0.074 A 
ATOM     73  C   UNL A   1      46.140  36.526  30.833  1.00  0.00     0.031 C 
ATOM     74  C   UNL A   1      44.220  36.612  32.411  1.00  0.00     0.034 A 
BRANCH  61  75
ATOM     75  C   UNL A   1      39.008  33.628  33.977  1.00  0.00     0.023 A 
ATOM     76  C   UNL A   1      39.033  33.015  35.243  1.00  0.00     0.031 A 
ATOM     77  C   UNL A   1      37.790  34.160  33.525  1.00  0.00     0.131 A 
ATOM     78  C   UNL A   1      37.847  32.887  35.981  1.00  0.00     0.055 A 
ATOM     79  C   UNL A   1      36.630  34.103  34.300  1.00  0.00     0.041 A 
ATOM     80  F   UNL A   1      37.700  34.731  32.314  1.00  0.00    -0.206 F 
ATOM     81  C   UNL A   1      36.651  33.450  35.530  1.00  0.00     0.022 A 
BRANCH  78  82
ATOM     82  S   UNL A   1      37.852  31.840  37.463  1.00  0.00     0.124 S 
ATOM     83  O   UNL A   1      37.785  30.503  36.879  1.00  0.00    -0.237 OA
ATOM     84  O   UNL A   1      39.115  32.198  38.099  1.00  0.00    -0.237 OA
ATOM     85  O   UNL A   1      36.650  32.259  38.181  1.00  0.00    -0.744 OA
ENDBRANCH  78  82
ENDBRANCH  61  75
BRANCH  62  86
ATOM     86  C   UNL A   1      47.022  33.548  28.063  1.00  0.00     0.023 A 
ATOM     87  C   UNL A   1      48.336  33.259  28.451  1.00  0.00     0.031 A 
ATOM     88  C   UNL A   1      46.825  34.072  26.774  1.00  0.00     0.131 A 
ATOM     89  C   UNL A   1      49.393  33.471  27.543  1.00  0.00     0.055 A 
ATOM     90  C   UNL A   1      47.861  34.188  25.847  1.00  0.00     0.041 A 
ATOM     91  F   UNL A   1      45.628  34.564  26.424  1.00  0.00    -0.206 F 
ATOM     92  C   UNL A   1      49.159  33.880  26.227  1.00  0.00     0.022 A 
BRANCH  89  93
ATOM     93  S   UNL A   1      51.103  33.350  28.136  1.00  0.00     0.124 S 
ATOM     94  O   UNL A   1      51.684  32.429  27.167  1.00  0.00    -0.237 OA
ATOM     95  O   UNL A   1      51.552  34.736  28.057  1.00  0.00    -0.237 OA
ATOM     96  O   UNL A   1      50.960  32.824  29.492  1.00  0.00    -0.744 OA
ENDBRANCH  89  93
ENDBRANCH  62  86
BRANCH  74  97
ATOM     97  C   UNL A   1      44.861  37.825  33.031  1.00  0.00     0.023 A 
ATOM     98  C   UNL A   1      44.499  39.128  32.653  1.00  0.00     0.031 A 
ATOM     99  C   UNL A   1      45.908  37.669  33.957  1.00  0.00     0.131 A 
ATOM    100  C   UNL A   1      45.236  40.220  33.130  1.00  0.00     0.055 A 
ATOM    101  C   UNL A   1      46.579  38.766  34.497  1.00  0.00     0.041 A 
ATOM    102  F   UNL A   1      46.309  36.447  34.341  1.00  0.00    -0.206 F 
ATOM    103  C   UNL A   1      46.258  40.050  34.068  1.00  0.00     0.022 A 
BRANCH 100 104
ATOM    104  S   UNL A   1      44.936  41.851  32.395  1.00  0.00     0.124 S 
ATOM    105  O   UNL A   1      43.553  42.105  32.787  1.00  0.00    -0.237 OA
ATOM    106  O   UNL A   1      45.947  42.678  33.047  1.00  0.00    -0.237 OA
ATOM    107  O   UNL A   1      45.146  41.626  30.967  1.00  0.00    -0.744 OA
ENDBRANCH 100 104
ENDBRANCH  74  97
ENDBRANCH  48  49
ENDBRANCH  41  43
ENDBRANCH  40  41
ENDBRANCH  39  40
ENDBRANCH  38  39
ENDBRANCH  37  38
ENDBRANCH  36  37
ENDBRANCH  35  36
ENDBRANCH  34  35
ENDBRANCH   1  34
TORSDOF 27
ENDMDL
