MODEL 1
REMARK VINA RESULT:     -10.8      0.000      0.000
REMARK SMILES Cc1nc(-c2ccccc2Cl)nc2sc(C(=O)OCCOCCOCCOCCOC(=O)c3ccc(-c4c5nc(c(-c6cc(S(=O)(=O)[O-])ccc6F)c6ccc([nH]6)c(-c6cc(S(=O)(=O)[O-])ccc6F)c6nc(c(-c7cc(S(=O)(=O)[O-])ccc7F)c7ccc4[nH]7)C=C6)C=C5)cc3)c(N)c12
REMARK SMILES IDX 25 1 24 2 23 3 22 4 21 5 20 6 19 7 18 8 16 9 17 10 15 11
REMARK SMILES IDX 1 12 2 13 3 14 98 15 4 16 13 17 96 18 12 19 14 20 5 21 6 22
REMARK SMILES IDX 10 23 7 24 9 25 11 26 8 27 97 28 26 31 27 32 28 33 29 34
REMARK SMILES IDX 30 35 31 36 32 37 33 38 34 39 95 40 35 41 94 42 36 43 37 44
REMARK SMILES IDX 38 45 88 46 39 47 93 48 87 49 89 50 40 51 92 52 86 53 85 54
REMARK SMILES IDX 41 56 73 57 53 58 72 59 54 60 57 61 71 62 90 63 55 64 56 65
REMARK SMILES IDX 70 67 91 68 58 69 42 70 43 71 51 72 44 73 50 74 52 75 49 76
REMARK SMILES IDX 45 77 46 78 47 79 48 80 74 81 75 82 83 83 76 84 82 85 84 86
REMARK SMILES IDX 81 87 77 88 78 89 79 90 80 91 59 92 60 93 68 94 61 95 67 96
REMARK SMILES IDX 69 97 66 98 62 99 63 100 64 101 65 102
REMARK H PARENT 97 29 97 30 89 55 57 66
REMARK Flexibility Score: inf
ROOT
ATOM      1  C   UNL A   1      34.542  25.884  25.391  1.00  0.00     0.188 C 
ENDROOT
BRANCH   1   2
ATOM      2  O   UNL A   1      33.448  26.229  26.244  1.00  0.00    -0.377 OA
BRANCH   2   3
ATOM      3  C   UNL A   1      33.252  27.618  26.453  1.00  0.00     0.188 C 
BRANCH   3   4
ATOM      4  C   UNL A   1      33.462  28.495  25.197  1.00  0.00     0.188 C 
BRANCH   4   5
ATOM      5  O   UNL A   1      32.600  29.575  24.844  1.00  0.00    -0.376 OA
BRANCH   5   6
ATOM      6  C   UNL A   1      31.218  29.387  24.592  1.00  0.00     0.202 C 
BRANCH   6   7
ATOM      7  C   UNL A   1      30.723  28.936  23.215  1.00  0.00     0.261 C 
BRANCH   7   8
ATOM      8  O   UNL A   1      30.645  27.530  23.006  1.00  0.00    -0.459 OA
BRANCH   8   9
ATOM      9  C   UNL A   1      31.789  26.906  22.615  1.00  0.00     0.350 C 
ATOM     10  O   UNL A   1      32.731  27.457  22.050  1.00  0.00    -0.245 OA
BRANCH   9  11
ATOM     11  C   UNL A   1      31.787  25.541  23.095  1.00  0.00     0.138 A 
ATOM     12  C   UNL A   1      30.413  22.777  26.637  1.00  0.00     0.067 C 
ATOM     13  C   UNL A   1      31.135  22.593  25.336  1.00  0.00     0.052 A 
ATOM     14  N   UNL A   1      31.611  21.325  25.136  1.00  0.00    -0.233 NA
ATOM     15  C   UNL A   1      31.431  23.587  24.373  1.00  0.00     0.057 A 
ATOM     16  C   UNL A   1      32.302  21.037  24.020  1.00  0.00     0.162 A 
ATOM     17  C   UNL A   1      32.174  23.142  23.290  1.00  0.00     0.130 A 
ATOM     18  C   UNL A   1      31.171  25.002  24.216  1.00  0.00     0.069 A 
ATOM     19  N   UNL A   1      32.613  21.904  23.062  1.00  0.00    -0.217 NA
ATOM     20  S   UNL A   1      32.592  24.348  22.183  1.00  0.00    -0.106 S 
BRANCH  16  21
ATOM     21  C   UNL A   1      32.927  19.719  23.874  1.00  0.00     0.038 A 
ATOM     22  C   UNL A   1      32.270  18.759  23.066  1.00  0.00     0.013 A 
ATOM     23  C   UNL A   1      34.097  19.318  24.535  1.00  0.00     0.052 A 
ATOM     24  C   UNL A   1      32.743  17.456  22.933  1.00  0.00     0.001 A 
ATOM     25  C   UNL A   1      34.574  18.005  24.400  1.00  0.00     0.021 A 
ATOM     26  Cl  UNL A   1      34.979  20.364  25.594  1.00  0.00    -0.084 Cl
ATOM     27  C   UNL A   1      33.897  17.077  23.606  1.00  0.00     0.002 A 
ENDBRANCH  16  21
BRANCH  18  28
ATOM     28  N   UNL A   1      30.393  25.750  25.033  1.00  0.00    -0.397 N 
ATOM     29  H   UNL A   1      29.808  25.311  25.693  1.00  0.00     0.156 HD
ATOM     30  H   UNL A   1      30.412  26.732  24.969  1.00  0.00     0.156 HD
ENDBRANCH  18  28
ENDBRANCH   9  11
ENDBRANCH   8   9
ENDBRANCH   7   8
ENDBRANCH   6   7
ENDBRANCH   5   6
ENDBRANCH   4   5
ENDBRANCH   3   4
ENDBRANCH   2   3
ENDBRANCH   1   2
BRANCH   1  31
ATOM     31  C   UNL A   1      34.990  24.398  25.359  1.00  0.00     0.188 C 
BRANCH  31  32
ATOM     32  O   UNL A   1      36.381  24.200  25.590  1.00  0.00    -0.376 OA
BRANCH  32  33
ATOM     33  C   UNL A   1      36.944  22.912  25.762  1.00  0.00     0.202 C 
BRANCH  33  34
ATOM     34  C   UNL A   1      38.446  22.839  26.007  1.00  0.00     0.261 C 
BRANCH  34  35
ATOM     35  O   UNL A   1      38.906  23.787  26.949  1.00  0.00    -0.460 OA
BRANCH  35  36
ATOM     36  C   UNL A   1      40.145  23.557  27.412  1.00  0.00     0.338 C 
ATOM     37  O   UNL A   1      40.605  22.489  27.812  1.00  0.00    -0.246 OA
BRANCH  36  38
ATOM     38  C   UNL A   1      40.849  24.826  27.456  1.00  0.00     0.060 A 
ATOM     39  C   UNL A   1      41.732  25.030  28.517  1.00  0.00     0.016 A 
ATOM     40  C   UNL A   1      40.321  25.869  26.683  1.00  0.00     0.016 A 
ATOM     41  C   UNL A   1      41.882  26.313  28.976  1.00  0.00     0.010 A 
ATOM     42  C   UNL A   1      40.437  27.137  27.168  1.00  0.00     0.010 A 
ATOM     43  C   UNL A   1      41.134  27.319  28.360  1.00  0.00    -0.014 A 
BRANCH  43  44
ATOM     44  C   UNL A   1      41.119  28.633  28.946  1.00  0.00     0.031 A 
ATOM     45  C   UNL A   1      42.248  29.452  28.469  1.00  0.00     0.074 A 
ATOM     46  C   UNL A   1      40.088  29.046  29.705  1.00  0.00     0.049 A 
ATOM     47  N   UNL A   1      43.310  29.772  29.127  1.00  0.00    -0.248 NA
ATOM     48  C   UNL A   1      42.334  29.730  27.023  1.00  0.00     0.031 C 
ATOM     49  C   UNL A   1      38.825  28.357  29.987  1.00  0.00     0.029 A 
ATOM     50  N   UNL A   1      39.917  30.242  30.316  1.00  0.00    -0.354 N 
ATOM     51  C   UNL A   1      44.060  30.531  28.241  1.00  0.00     0.074 A 
ATOM     52  C   UNL A   1      43.571  30.216  26.930  1.00  0.00     0.031 C 
ATOM     53  C   UNL A   1      37.944  29.242  30.513  1.00  0.00     0.029 A 
ATOM     54  C   UNL A   1      38.612  30.518  30.709  1.00  0.00     0.049 A 
ATOM     55  H   UNL A   1      40.660  30.869  30.470  1.00  0.00     0.167 HD
ATOM     56  C   UNL A   1      44.782  31.596  28.676  1.00  0.00     0.034 A 
ATOM     57  C   UNL A   1      38.129  31.738  31.079  1.00  0.00     0.034 A 
ATOM     58  C   UNL A   1      44.983  31.533  30.106  1.00  0.00     0.049 A 
ATOM     59  C   UNL A   1      39.320  32.537  31.494  1.00  0.00     0.074 A 
ATOM     60  C   UNL A   1      45.563  30.604  30.950  1.00  0.00     0.029 A 
ATOM     61  N   UNL A   1      44.172  32.309  30.905  1.00  0.00    -0.354 N 
ATOM     62  N   UNL A   1      40.074  32.215  32.514  1.00  0.00    -0.248 NA
ATOM     63  C   UNL A   1      39.976  33.352  30.479  1.00  0.00     0.031 C 
ATOM     64  C   UNL A   1      44.707  30.555  32.088  1.00  0.00     0.029 A 
ATOM     65  C   UNL A   1      43.706  31.516  31.928  1.00  0.00     0.049 A 
ATOM     66  H   UNL A   1      43.963  33.261  30.768  1.00  0.00     0.167 HD
ATOM     67  C   UNL A   1      41.379  32.415  32.082  1.00  0.00     0.074 A 
ATOM     68  C   UNL A   1      41.252  33.186  30.845  1.00  0.00     0.031 C 
ATOM     69  C   UNL A   1      42.420  31.684  32.585  1.00  0.00     0.034 A 
BRANCH  56  70
ATOM     70  C   UNL A   1      44.971  32.859  27.873  1.00  0.00     0.023 A 
ATOM     71  C   UNL A   1      44.171  33.961  28.211  1.00  0.00     0.031 A 
ATOM     72  C   UNL A   1      45.692  32.970  26.658  1.00  0.00     0.131 A 
ATOM     73  C   UNL A   1      44.063  35.063  27.346  1.00  0.00     0.055 A 
ATOM     74  C   UNL A   1      45.636  34.095  25.837  1.00  0.00     0.041 A 
ATOM     75  F   UNL A   1      46.415  31.970  26.141  1.00  0.00    -0.206 F 
ATOM     76  C   UNL A   1      44.796  35.142  26.164  1.00  0.00     0.022 A 
BRANCH  73  77
ATOM     77  S   UNL A   1      42.841  36.338  27.729  1.00  0.00     0.124 S 
ATOM     78  O   UNL A   1      41.713  35.537  28.188  1.00  0.00    -0.237 OA
ATOM     79  O   UNL A   1      43.534  37.120  28.748  1.00  0.00    -0.237 OA
ATOM     80  O   UNL A   1      42.648  37.016  26.450  1.00  0.00    -0.744 OA
ENDBRANCH  73  77
ENDBRANCH  56  70
BRANCH  57  81
ATOM     81  C   UNL A   1      36.800  32.330  30.718  1.00  0.00     0.023 A 
ATOM     82  C   UNL A   1      35.949  32.956  31.660  1.00  0.00     0.031 A 
ATOM     83  C   UNL A   1      36.440  32.492  29.358  1.00  0.00     0.131 A 
ATOM     84  C   UNL A   1      34.807  33.685  31.229  1.00  0.00     0.055 A 
ATOM     85  C   UNL A   1      35.312  33.203  28.941  1.00  0.00     0.041 A 
ATOM     86  F   UNL A   1      37.221  32.036  28.368  1.00  0.00    -0.206 F 
ATOM     87  C   UNL A   1      34.493  33.810  29.875  1.00  0.00     0.022 A 
BRANCH  84  88
ATOM     88  S   UNL A   1      33.755  34.578  32.424  1.00  0.00     0.124 S 
ATOM     89  O   UNL A   1      32.770  35.211  31.554  1.00  0.00    -0.237 OA
ATOM     90  O   UNL A   1      33.268  33.503  33.281  1.00  0.00    -0.237 OA
ATOM     91  O   UNL A   1      34.685  35.502  33.074  1.00  0.00    -0.744 OA
ENDBRANCH  84  88
ENDBRANCH  57  81
BRANCH  69  92
ATOM     92  C   UNL A   1      42.189  30.823  33.814  1.00  0.00     0.023 A 
ATOM     93  C   UNL A   1      41.873  29.443  33.792  1.00  0.00     0.031 A 
ATOM     94  C   UNL A   1      42.510  31.400  35.055  1.00  0.00     0.131 A 
ATOM     95  C   UNL A   1      41.902  28.697  34.992  1.00  0.00     0.055 A 
ATOM     96  C   UNL A   1      42.560  30.654  36.232  1.00  0.00     0.041 A 
ATOM     97  F   UNL A   1      42.852  32.696  35.130  1.00  0.00    -0.206 F 
ATOM     98  C   UNL A   1      42.258  29.298  36.204  1.00  0.00     0.022 A 
BRANCH  95  99
ATOM     99  S   UNL A   1      41.528  26.911  34.991  1.00  0.00     0.124 S 
ATOM    100  O   UNL A   1      41.214  26.637  36.389  1.00  0.00    -0.237 OA
ATOM    101  O   UNL A   1      40.414  26.815  34.051  1.00  0.00    -0.237 OA
ATOM    102  O   UNL A   1      42.771  26.298  34.517  1.00  0.00    -0.744 OA
ENDBRANCH  95  99
ENDBRANCH  69  92
ENDBRANCH  43  44
ENDBRANCH  36  38
ENDBRANCH  35  36
ENDBRANCH  34  35
ENDBRANCH  33  34
ENDBRANCH  32  33
ENDBRANCH  31  32
ENDBRANCH   1  31
TORSDOF 25
ENDMDL
MODEL 2
REMARK VINA RESULT:     -10.3      1.847      2.139
REMARK SMILES Cc1nc(-c2ccccc2Cl)nc2sc(C(=O)OCCOCCOCCOCCOC(=O)c3ccc(-c4c5nc(c(-c6cc(S(=O)(=O)[O-])ccc6F)c6ccc([nH]6)c(-c6cc(S(=O)(=O)[O-])ccc6F)c6nc(c(-c7cc(S(=O)(=O)[O-])ccc7F)c7ccc4[nH]7)C=C6)C=C5)cc3)c(N)c12
REMARK SMILES IDX 25 1 24 2 23 3 22 4 21 5 20 6 19 7 18 8 16 9 17 10 15 11
REMARK SMILES IDX 1 12 2 13 3 14 98 15 4 16 13 17 96 18 12 19 14 20 5 21 6 22
REMARK SMILES IDX 10 23 7 24 9 25 11 26 8 27 97 28 26 31 27 32 28 33 29 34
REMARK SMILES IDX 30 35 31 36 32 37 33 38 34 39 95 40 35 41 94 42 36 43 37 44
REMARK SMILES IDX 38 45 88 46 39 47 93 48 87 49 89 50 40 51 92 52 86 53 85 54
REMARK SMILES IDX 41 56 73 57 53 58 72 59 54 60 57 61 71 62 90 63 55 64 56 65
REMARK SMILES IDX 70 67 91 68 58 69 42 70 43 71 51 72 44 73 50 74 52 75 49 76
REMARK SMILES IDX 45 77 46 78 47 79 48 80 74 81 75 82 83 83 76 84 82 85 84 86
REMARK SMILES IDX 81 87 77 88 78 89 79 90 80 91 59 92 60 93 68 94 61 95 67 96
REMARK SMILES IDX 69 97 66 98 62 99 63 100 64 101 65 102
REMARK H PARENT 97 29 97 30 89 55 57 66
REMARK Flexibility Score: inf
ROOT
ATOM      1  C   UNL A   1      34.162  25.897  25.600  1.00  0.00     0.188 C 
ENDROOT
BRANCH   1   2
ATOM      2  O   UNL A   1      32.999  26.314  26.321  1.00  0.00    -0.377 OA
BRANCH   2   3
ATOM      3  C   UNL A   1      32.778  27.714  26.364  1.00  0.00     0.188 C 
BRANCH   3   4
ATOM      4  C   UNL A   1      33.307  28.489  25.135  1.00  0.00     0.188 C 
BRANCH   4   5
ATOM      5  O   UNL A   1      32.476  29.292  24.299  1.00  0.00    -0.376 OA
BRANCH   5   6
ATOM      6  C   UNL A   1      31.153  28.914  23.964  1.00  0.00     0.202 C 
BRANCH   6   7
ATOM      7  C   UNL A   1      30.833  28.286  22.604  1.00  0.00     0.261 C 
BRANCH   7   8
ATOM      8  O   UNL A   1      30.825  26.863  22.556  1.00  0.00    -0.459 OA
BRANCH   8   9
ATOM      9  C   UNL A   1      32.019  26.253  22.327  1.00  0.00     0.350 C 
ATOM     10  O   UNL A   1      33.000  26.796  21.824  1.00  0.00    -0.245 OA
BRANCH   9  11
ATOM     11  C   UNL A   1      32.002  24.922  22.896  1.00  0.00     0.138 A 
ATOM     12  C   UNL A   1      30.435  22.376  26.520  1.00  0.00     0.067 C 
ATOM     13  C   UNL A   1      31.243  22.119  25.284  1.00  0.00     0.052 A 
ATOM     14  N   UNL A   1      31.746  20.849  25.200  1.00  0.00    -0.233 NA
ATOM     15  C   UNL A   1      31.588  23.052  24.278  1.00  0.00     0.057 A 
ATOM     16  C   UNL A   1      32.513  20.499  24.153  1.00  0.00     0.162 A 
ATOM     17  C   UNL A   1      32.407  22.549  23.277  1.00  0.00     0.130 A 
ATOM     18  C   UNL A   1      31.321  24.449  24.009  1.00  0.00     0.069 A 
ATOM     19  N   UNL A   1      32.875  21.306  23.161  1.00  0.00    -0.217 NA
ATOM     20  S   UNL A   1      32.880  23.685  22.120  1.00  0.00    -0.106 S 
BRANCH  16  21
ATOM     21  C   UNL A   1      33.162  19.186  24.136  1.00  0.00     0.038 A 
ATOM     22  C   UNL A   1      32.372  18.059  23.799  1.00  0.00     0.013 A 
ATOM     23  C   UNL A   1      34.497  18.955  24.499  1.00  0.00     0.052 A 
ATOM     24  C   UNL A   1      32.880  16.762  23.835  1.00  0.00     0.001 A 
ATOM     25  C   UNL A   1      35.007  17.649  24.535  1.00  0.00     0.021 A 
ATOM     26  Cl  UNL A   1      35.567  20.226  24.985  1.00  0.00    -0.084 Cl
ATOM     27  C   UNL A   1      34.201  16.557  24.208  1.00  0.00     0.002 A 
ENDBRANCH  16  21
BRANCH  18  28
ATOM     28  N   UNL A   1      30.482  25.236  24.722  1.00  0.00    -0.397 N 
ATOM     29  H   UNL A   1      30.050  26.010  24.293  1.00  0.00     0.156 HD
ATOM     30  H   UNL A   1      30.304  25.035  25.669  1.00  0.00     0.156 HD
ENDBRANCH  18  28
ENDBRANCH   9  11
ENDBRANCH   8   9
ENDBRANCH   7   8
ENDBRANCH   6   7
ENDBRANCH   5   6
ENDBRANCH   4   5
ENDBRANCH   3   4
ENDBRANCH   2   3
ENDBRANCH   1   2
BRANCH   1  31
ATOM     31  C   UNL A   1      34.616  24.422  25.756  1.00  0.00     0.188 C 
BRANCH  31  32
ATOM     32  O   UNL A   1      36.022  24.228  25.655  1.00  0.00    -0.376 OA
BRANCH  32  33
ATOM     33  C   UNL A   1      36.633  22.973  25.897  1.00  0.00     0.202 C 
BRANCH  33  34
ATOM     34  C   UNL A   1      38.156  22.935  25.919  1.00  0.00     0.261 C 
BRANCH  34  35
ATOM     35  O   UNL A   1      38.725  23.856  26.828  1.00  0.00    -0.460 OA
BRANCH  35  36
ATOM     36  C   UNL A   1      39.927  23.499  27.305  1.00  0.00     0.338 C 
ATOM     37  O   UNL A   1      40.282  22.379  27.670  1.00  0.00    -0.246 OA
BRANCH  36  38
ATOM     38  C   UNL A   1      40.740  24.697  27.412  1.00  0.00     0.060 A 
ATOM     39  C   UNL A   1      41.621  24.776  28.492  1.00  0.00     0.016 A 
ATOM     40  C   UNL A   1      40.320  25.814  26.678  1.00  0.00     0.016 A 
ATOM     41  C   UNL A   1      41.876  26.022  29.007  1.00  0.00     0.010 A 
ATOM     42  C   UNL A   1      40.540  27.045  27.218  1.00  0.00     0.010 A 
ATOM     43  C   UNL A   1      41.231  27.115  28.425  1.00  0.00    -0.014 A 
BRANCH  43  44
ATOM     44  C   UNL A   1      41.322  28.400  29.067  1.00  0.00     0.031 A 
ATOM     45  C   UNL A   1      42.427  29.203  28.514  1.00  0.00     0.074 A 
ATOM     46  C   UNL A   1      40.387  28.809  29.943  1.00  0.00     0.049 A 
ATOM     47  N   UNL A   1      43.560  29.458  29.075  1.00  0.00    -0.248 NA
ATOM     48  C   UNL A   1      42.379  29.546  27.081  1.00  0.00     0.031 C 
ATOM     49  C   UNL A   1      39.135  28.149  30.321  1.00  0.00     0.029 A 
ATOM     50  N   UNL A   1      40.322  29.980  30.620  1.00  0.00    -0.354 N 
ATOM     51  C   UNL A   1      44.246  30.232  28.152  1.00  0.00     0.074 A 
ATOM     52  C   UNL A   1      43.617  29.996  26.884  1.00  0.00     0.031 C 
ATOM     53  C   UNL A   1      38.343  29.035  30.972  1.00  0.00     0.029 A 
ATOM     54  C   UNL A   1      39.074  30.279  31.155  1.00  0.00     0.049 A 
ATOM     55  H   UNL A   1      41.100  30.574  30.725  1.00  0.00     0.167 HD
ATOM     56  C   UNL A   1      45.046  31.252  28.558  1.00  0.00     0.034 A 
ATOM     57  C   UNL A   1      38.676  31.495  31.625  1.00  0.00     0.034 A 
ATOM     58  C   UNL A   1      45.387  31.116  29.955  1.00  0.00     0.049 A 
ATOM     59  C   UNL A   1      39.930  32.235  31.952  1.00  0.00     0.074 A 
ATOM     60  C   UNL A   1      46.013  30.129  30.695  1.00  0.00     0.029 A 
ATOM     61  N   UNL A   1      44.688  31.879  30.866  1.00  0.00    -0.354 N 
ATOM     62  N   UNL A   1      40.771  31.840  32.876  1.00  0.00    -0.248 NA
ATOM     63  C   UNL A   1      40.512  33.075  30.912  1.00  0.00     0.031 C 
ATOM     64  C   UNL A   1      45.274  30.055  31.910  1.00  0.00     0.029 A 
ATOM     65  C   UNL A   1      44.298  31.054  31.895  1.00  0.00     0.049 A 
ATOM     66  H   UNL A   1      44.502  32.842  30.793  1.00  0.00     0.167 HD
ATOM     67  C   UNL A   1      42.032  32.018  32.323  1.00  0.00     0.074 A 
ATOM     68  C   UNL A   1      41.811  32.851  31.140  1.00  0.00     0.031 C 
ATOM     69  C   UNL A   1      43.091  31.232  32.686  1.00  0.00     0.034 A 
BRANCH  56  70
ATOM     70  C   UNL A   1      45.201  32.545  27.796  1.00  0.00     0.023 A 
ATOM     71  C   UNL A   1      46.454  32.807  27.221  1.00  0.00     0.031 A 
ATOM     72  C   UNL A   1      44.291  33.632  27.812  1.00  0.00     0.131 A 
ATOM     73  C   UNL A   1      46.777  34.094  26.757  1.00  0.00     0.055 A 
ATOM     74  C   UNL A   1      44.592  34.888  27.288  1.00  0.00     0.041 A 
ATOM     75  F   UNL A   1      43.098  33.580  28.417  1.00  0.00    -0.206 F 
ATOM     76  C   UNL A   1      45.853  35.135  26.780  1.00  0.00     0.022 A 
BRANCH  73  77
ATOM     77  S   UNL A   1      48.480  34.417  26.245  1.00  0.00     0.124 S 
ATOM     78  O   UNL A   1      49.014  33.066  26.126  1.00  0.00    -0.237 OA
ATOM     79  O   UNL A   1      48.283  35.146  24.996  1.00  0.00    -0.237 OA
ATOM     80  O   UNL A   1      49.019  35.209  27.348  1.00  0.00    -0.744 OA
ENDBRANCH  73  77
ENDBRANCH  56  70
BRANCH  57  81
ATOM     81  C   UNL A   1      37.340  32.146  31.426  1.00  0.00     0.023 A 
ATOM     82  C   UNL A   1      36.745  32.319  30.154  1.00  0.00     0.031 A 
ATOM     83  C   UNL A   1      36.506  32.412  32.538  1.00  0.00     0.131 A 
ATOM     84  C   UNL A   1      35.394  32.744  30.041  1.00  0.00     0.055 A 
ATOM     85  C   UNL A   1      35.180  32.837  32.421  1.00  0.00     0.041 A 
ATOM     86  F   UNL A   1      36.920  32.185  33.794  1.00  0.00    -0.206 F 
ATOM     87  C   UNL A   1      34.614  32.998  31.170  1.00  0.00     0.022 A 
BRANCH  84  88
ATOM     88  S   UNL A   1      34.583  32.879  28.410  1.00  0.00     0.124 S 
ATOM     89  O   UNL A   1      33.534  33.858  28.668  1.00  0.00    -0.237 OA
ATOM     90  O   UNL A   1      35.676  33.311  27.548  1.00  0.00    -0.237 OA
ATOM     91  O   UNL A   1      34.105  31.520  28.153  1.00  0.00    -0.744 OA
ENDBRANCH  84  88
ENDBRANCH  57  81
BRANCH  69  92
ATOM     92  C   UNL A   1      42.951  30.321  33.892  1.00  0.00     0.023 A 
ATOM     93  C   UNL A   1      42.584  28.955  33.843  1.00  0.00     0.031 A 
ATOM     94  C   UNL A   1      43.416  30.828  35.118  1.00  0.00     0.131 A 
ATOM     95  C   UNL A   1      42.705  28.152  35.000  1.00  0.00     0.055 A 
ATOM     96  C   UNL A   1      43.555  30.027  36.250  1.00  0.00     0.041 A 
ATOM     97  F   UNL A   1      43.811  32.108  35.216  1.00  0.00    -0.206 F 
ATOM     98  C   UNL A   1      43.202  28.684  36.194  1.00  0.00     0.022 A 
BRANCH  95  99
ATOM     99  S   UNL A   1      42.266  26.382  34.959  1.00  0.00     0.124 S 
ATOM    100  O   UNL A   1      40.838  26.401  34.664  1.00  0.00    -0.237 OA
ATOM    101  O   UNL A   1      43.134  25.858  33.907  1.00  0.00    -0.237 OA
ATOM    102  O   UNL A   1      42.601  25.912  36.306  1.00  0.00    -0.744 OA
ENDBRANCH  95  99
ENDBRANCH  69  92
ENDBRANCH  43  44
ENDBRANCH  36  38
ENDBRANCH  35  36
ENDBRANCH  34  35
ENDBRANCH  33  34
ENDBRANCH  32  33
ENDBRANCH  31  32
ENDBRANCH   1  31
TORSDOF 25
ENDMDL
MODEL 3
REMARK VINA RESULT:     -10.2      3.039      8.600
REMARK SMILES Cc1nc(-c2ccccc2Cl)nc2sc(C(=O)OCCOCCOCCOCCOC(=O)c3ccc(-c4c5nc(c(-c6cc(S(=O)(=O)[O-])ccc6F)c6ccc([nH]6)c(-c6cc(S(=O)(=O)[O-])ccc6F)c6nc(c(-c7cc(S(=O)(=O)[O-])ccc7F)c7ccc4[nH]7)C=C6)C=C5)cc3)c(N)c12
REMARK SMILES IDX 25 1 24 2 23 3 22 4 21 5 20 6 19 7 18 8 16 9 17 10 15 11
REMARK SMILES IDX 1 12 2 13 3 14 98 15 4 16 13 17 96 18 12 19 14 20 5 21 6 22
REMARK SMILES IDX 10 23 7 24 9 25 11 26 8 27 97 28 26 31 27 32 28 33 29 34
REMARK SMILES IDX 30 35 31 36 32 37 33 38 34 39 95 40 35 41 94 42 36 43 37 44
REMARK SMILES IDX 38 45 88 46 39 47 93 48 87 49 89 50 40 51 92 52 86 53 85 54
REMARK SMILES IDX 41 56 73 57 53 58 72 59 54 60 57 61 71 62 90 63 55 64 56 65
REMARK SMILES IDX 70 67 91 68 58 69 42 70 43 71 51 72 44 73 50 74 52 75 49 76
REMARK SMILES IDX 45 77 46 78 47 79 48 80 74 81 75 82 83 83 76 84 82 85 84 86
REMARK SMILES IDX 81 87 77 88 78 89 79 90 80 91 59 92 60 93 68 94 61 95 67 96
REMARK SMILES IDX 69 97 66 98 62 99 63 100 64 101 65 102
REMARK H PARENT 97 29 97 30 89 55 57 66
REMARK Flexibility Score: inf
ROOT
ATOM      1  C   UNL A   1      31.050  30.390  24.741  1.00  0.00     0.188 C 
ENDROOT
BRANCH   1   2
ATOM      2  O   UNL A   1      29.766  30.917  24.398  1.00  0.00    -0.377 OA
BRANCH   2   3
ATOM      3  C   UNL A   1      29.425  30.849  23.024  1.00  0.00     0.188 C 
BRANCH   3   4
ATOM      4  C   UNL A   1      28.926  29.463  22.551  1.00  0.00     0.188 C 
BRANCH   4   5
ATOM      5  O   UNL A   1      29.795  28.445  22.061  1.00  0.00    -0.376 OA
BRANCH   5   6
ATOM      6  C   UNL A   1      30.257  27.386  22.881  1.00  0.00     0.202 C 
BRANCH   6   7
ATOM      7  C   UNL A   1      29.521  27.011  24.171  1.00  0.00     0.261 C 
BRANCH   7   8
ATOM      8  O   UNL A   1      29.858  25.751  24.743  1.00  0.00    -0.459 OA
BRANCH   8   9
ATOM      9  C   UNL A   1      30.800  25.758  25.724  1.00  0.00     0.350 C 
ATOM     10  O   UNL A   1      30.824  26.545  26.667  1.00  0.00    -0.245 OA
BRANCH   9  11
ATOM     11  C   UNL A   1      31.674  24.616  25.567  1.00  0.00     0.138 A 
ATOM     12  C   UNL A   1      36.148  23.335  24.919  1.00  0.00     0.067 C 
ATOM     13  C   UNL A   1      34.832  22.634  25.076  1.00  0.00     0.052 A 
ATOM     14  N   UNL A   1      34.897  21.278  24.903  1.00  0.00    -0.233 NA
ATOM     15  C   UNL A   1      33.566  23.229  25.296  1.00  0.00     0.057 A 
ATOM     16  C   UNL A   1      33.780  20.536  24.990  1.00  0.00     0.162 A 
ATOM     17  C   UNL A   1      32.505  22.336  25.334  1.00  0.00     0.130 A 
ATOM     18  C   UNL A   1      33.059  24.571  25.483  1.00  0.00     0.069 A 
ATOM     19  N   UNL A   1      32.557  21.010  25.205  1.00  0.00    -0.217 NA
ATOM     20  S   UNL A   1      30.989  23.056  25.519  1.00  0.00    -0.106 S 
BRANCH  16  21
ATOM     21  C   UNL A   1      33.831  19.108  24.667  1.00  0.00     0.038 A 
ATOM     22  C   UNL A   1      32.603  18.424  24.489  1.00  0.00     0.013 A 
ATOM     23  C   UNL A   1      35.010  18.353  24.590  1.00  0.00     0.052 A 
ATOM     24  C   UNL A   1      32.549  17.050  24.261  1.00  0.00     0.001 A 
ATOM     25  C   UNL A   1      34.954  16.970  24.359  1.00  0.00     0.021 A 
ATOM     26  Cl  UNL A   1      36.579  19.041  24.836  1.00  0.00    -0.084 Cl
ATOM     27  C   UNL A   1      33.728  16.321  24.200  1.00  0.00     0.002 A 
ENDBRANCH  16  21
BRANCH  18  28
ATOM     28  N   UNL A   1      33.818  25.685  25.599  1.00  0.00    -0.397 N 
ATOM     29  H   UNL A   1      33.591  26.492  25.080  1.00  0.00     0.156 HD
ATOM     30  H   UNL A   1      34.597  25.690  26.200  1.00  0.00     0.156 HD
ENDBRANCH  18  28
ENDBRANCH   9  11
ENDBRANCH   8   9
ENDBRANCH   7   8
ENDBRANCH   6   7
ENDBRANCH   5   6
ENDBRANCH   4   5
ENDBRANCH   3   4
ENDBRANCH   2   3
ENDBRANCH   1   2
BRANCH   1  31
ATOM     31  C   UNL A   1      31.664  30.814  26.102  1.00  0.00     0.188 C 
BRANCH  31  32
ATOM     32  O   UNL A   1      32.626  29.902  26.620  1.00  0.00    -0.376 OA
BRANCH  32  33
ATOM     33  C   UNL A   1      33.742  30.330  27.379  1.00  0.00     0.202 C 
BRANCH  33  34
ATOM     34  C   UNL A   1      33.702  31.750  27.933  1.00  0.00     0.261 C 
BRANCH  34  35
ATOM     35  O   UNL A   1      34.984  32.297  28.162  1.00  0.00    -0.460 OA
BRANCH  35  36
ATOM     36  C   UNL A   1      35.665  31.723  29.166  1.00  0.00     0.338 C 
ATOM     37  O   UNL A   1      35.296  31.578  30.330  1.00  0.00    -0.246 OA
BRANCH  36  38
ATOM     38  C   UNL A   1      36.984  31.373  28.670  1.00  0.00     0.060 A 
ATOM     39  C   UNL A   1      37.117  30.145  28.021  1.00  0.00     0.016 A 
ATOM     40  C   UNL A   1      38.069  32.084  29.201  1.00  0.00     0.016 A 
ATOM     41  C   UNL A   1      38.319  29.496  28.140  1.00  0.00     0.010 A 
ATOM     42  C   UNL A   1      39.247  31.419  29.355  1.00  0.00     0.010 A 
ATOM     43  C   UNL A   1      39.316  30.102  28.907  1.00  0.00    -0.014 A 
BRANCH  43  44
ATOM     44  C   UNL A   1      40.509  29.357  29.212  1.00  0.00     0.031 A 
ATOM     45  C   UNL A   1      40.730  29.261  30.666  1.00  0.00     0.074 A 
ATOM     46  C   UNL A   1      41.201  28.723  28.247  1.00  0.00     0.049 A 
ATOM     47  N   UNL A   1      41.611  29.895  31.362  1.00  0.00    -0.248 NA
ATOM     48  C   UNL A   1      39.698  28.589  31.476  1.00  0.00     0.031 C 
ATOM     49  C   UNL A   1      40.868  28.576  26.828  1.00  0.00     0.029 A 
ATOM     50  N   UNL A   1      42.327  27.981  28.368  1.00  0.00    -0.354 N 
ATOM     51  C   UNL A   1      41.404  29.472  32.666  1.00  0.00     0.074 A 
ATOM     52  C   UNL A   1      40.073  28.936  32.707  1.00  0.00     0.031 C 
ATOM     53  C   UNL A   1      41.646  27.607  26.287  1.00  0.00     0.029 A 
ATOM     54  C   UNL A   1      42.600  27.152  27.285  1.00  0.00     0.049 A 
ATOM     55  H   UNL A   1      42.907  28.024  29.162  1.00  0.00     0.167 HD
ATOM     56  C   UNL A   1      42.450  29.288  33.512  1.00  0.00     0.034 A 
ATOM     57  C   UNL A   1      43.492  26.121  27.272  1.00  0.00     0.034 A 
ATOM     58  C   UNL A   1      43.630  29.968  33.029  1.00  0.00     0.049 A 
ATOM     59  C   UNL A   1      44.450  26.398  28.382  1.00  0.00     0.074 A 
ATOM     60  C   UNL A   1      43.915  31.286  32.723  1.00  0.00     0.029 A 
ATOM     61  N   UNL A   1      44.585  29.218  32.379  1.00  0.00    -0.354 N 
ATOM     62  N   UNL A   1      45.236  27.445  28.401  1.00  0.00    -0.248 NA
ATOM     63  C   UNL A   1      44.151  25.831  29.693  1.00  0.00     0.031 C 
ATOM     64  C   UNL A   1      44.699  31.226  31.534  1.00  0.00     0.029 A 
ATOM     65  C   UNL A   1      44.931  29.884  31.227  1.00  0.00     0.049 A 
ATOM     66  H   UNL A   1      44.955  28.358  32.685  1.00  0.00     0.167 HD
ATOM     67  C   UNL A   1      45.187  27.916  29.707  1.00  0.00     0.074 A 
ATOM     68  C   UNL A   1      44.561  26.838  30.473  1.00  0.00     0.031 C 
ATOM     69  C   UNL A   1      45.369  29.240  29.998  1.00  0.00     0.034 A 
BRANCH  56  70
ATOM     70  C   UNL A   1      42.498  28.198  34.555  1.00  0.00     0.023 A 
ATOM     71  C   UNL A   1      43.194  27.024  34.227  1.00  0.00     0.031 A 
ATOM     72  C   UNL A   1      41.706  28.137  35.729  1.00  0.00     0.131 A 
ATOM     73  C   UNL A   1      43.043  25.860  35.000  1.00  0.00     0.055 A 
ATOM     74  C   UNL A   1      41.614  27.001  36.531  1.00  0.00     0.041 A 
ATOM     75  F   UNL A   1      40.900  29.131  36.121  1.00  0.00    -0.206 F 
ATOM     76  C   UNL A   1      42.265  25.842  36.154  1.00  0.00     0.022 A 
BRANCH  73  77
ATOM     77  S   UNL A   1      43.782  24.327  34.391  1.00  0.00     0.124 S 
ATOM     78  O   UNL A   1      42.723  23.361  34.664  1.00  0.00    -0.237 OA
ATOM     79  O   UNL A   1      44.019  24.645  32.987  1.00  0.00    -0.237 OA
ATOM     80  O   UNL A   1      44.985  24.184  35.208  1.00  0.00    -0.744 OA
ENDBRANCH  73  77
ENDBRANCH  56  70
BRANCH  57  81
ATOM     81  C   UNL A   1      43.308  24.778  26.632  1.00  0.00     0.023 A 
ATOM     82  C   UNL A   1      44.285  24.174  25.804  1.00  0.00     0.031 A 
ATOM     83  C   UNL A   1      42.230  23.947  27.020  1.00  0.00     0.131 A 
ATOM     84  C   UNL A   1      44.151  22.818  25.400  1.00  0.00     0.055 A 
ATOM     85  C   UNL A   1      42.100  22.616  26.614  1.00  0.00     0.041 A 
ATOM     86  F   UNL A   1      41.296  24.369  27.885  1.00  0.00    -0.206 F 
ATOM     87  C   UNL A   1      43.065  22.042  25.807  1.00  0.00     0.022 A 
BRANCH  84  88
ATOM     88  S   UNL A   1      45.450  21.998  24.413  1.00  0.00     0.124 S 
ATOM     89  O   UNL A   1      44.667  21.217  23.463  1.00  0.00    -0.237 OA
ATOM     90  O   UNL A   1      46.193  23.127  23.868  1.00  0.00    -0.237 OA
ATOM     91  O   UNL A   1      46.182  21.207  25.403  1.00  0.00    -0.744 OA
ENDBRANCH  84  88
ENDBRANCH  57  81
BRANCH  69  92
ATOM     92  C   UNL A   1      45.883  30.168  28.913  1.00  0.00     0.023 A 
ATOM     93  C   UNL A   1      45.083  31.055  28.153  1.00  0.00     0.031 A 
ATOM     94  C   UNL A   1      47.279  30.292  28.804  1.00  0.00     0.131 A 
ATOM     95  C   UNL A   1      45.698  32.028  27.333  1.00  0.00     0.055 A 
ATOM     96  C   UNL A   1      47.880  31.269  28.010  1.00  0.00     0.041 A 
ATOM     97  F   UNL A   1      48.088  29.501  29.527  1.00  0.00    -0.206 F 
ATOM     98  C   UNL A   1      47.090  32.143  27.273  1.00  0.00     0.022 A 
BRANCH  95  99
ATOM     99  S   UNL A   1      44.692  33.203  26.364  1.00  0.00     0.124 S 
ATOM    100  O   UNL A   1      44.077  32.354  25.349  1.00  0.00    -0.237 OA
ATOM    101  O   UNL A   1      43.791  33.762  27.368  1.00  0.00    -0.237 OA
ATOM    102  O   UNL A   1      45.678  34.153  25.844  1.00  0.00    -0.744 OA
ENDBRANCH  95  99
ENDBRANCH  69  92
ENDBRANCH  43  44
ENDBRANCH  36  38
ENDBRANCH  35  36
ENDBRANCH  34  35
ENDBRANCH  33  34
ENDBRANCH  32  33
ENDBRANCH  31  32
ENDBRANCH   1  31
TORSDOF 25
ENDMDL
