MODEL 1
REMARK VINA RESULT:      -7.6      0.000      0.000
REMARK SMILES CCCc1cc(N2CCC(C(=O)OCCOCCOCCOCCOC(=O)c3ccc(-c4c5nc(c(-c6cc(S(=O)(=O)[O-])ccc6F)c6ccc([nH]6)c(-c6cc(S(=O)(=O)[O-])ccc6F)c6nc(c(-c7cc(S(=O)(=O)[O-])ccc7F)c7ccc4[nH]7)C=C6)C=C5)cc3)CC2)nc(CC)n1
REMARK SMILES IDX 19 1 18 2 17 3 16 4 15 5 14 6 13 7 11 8 12 9 10 10 7 11 8 12
REMARK SMILES IDX 92 13 9 14 91 15 6 16 4 17 5 18 97 19 94 20 93 21 3 22 2 23
REMARK SMILES IDX 1 24 95 25 96 26 20 27 21 28 22 29 23 30 24 31 25 32 26 33
REMARK SMILES IDX 27 34 28 35 29 36 90 37 30 38 89 39 31 40 32 41 33 42 83 43
REMARK SMILES IDX 34 44 88 45 82 46 84 47 35 48 87 49 81 50 80 51 36 53 68 54
REMARK SMILES IDX 48 55 67 56 49 57 52 58 66 59 85 60 50 61 51 62 65 64 86 65
REMARK SMILES IDX 53 66 37 67 38 68 46 69 39 70 45 71 47 72 44 73 40 74 41 75
REMARK SMILES IDX 42 76 43 77 69 78 70 79 78 80 71 81 77 82 79 83 76 84 72 85
REMARK SMILES IDX 73 86 74 87 75 88 54 89 55 90 63 91 56 92 62 93 64 94 61 95
REMARK SMILES IDX 57 96 58 97 59 98 60 99
REMARK H PARENT 84 52 52 63
REMARK Flexibility Score: inf
ROOT
ATOM      1  O   UNL A   1      40.972  21.200  27.571  1.00  0.00    -0.377 OA
ENDROOT
BRANCH   1   2
ATOM      2  C   UNL A   1      40.123  20.851  26.498  1.00  0.00     0.188 C 
BRANCH   2   3
ATOM      3  C   UNL A   1      39.073  21.900  26.116  1.00  0.00     0.188 C 
BRANCH   3   4
ATOM      4  O   UNL A   1      37.748  21.538  25.764  1.00  0.00    -0.376 OA
BRANCH   4   5
ATOM      5  C   UNL A   1      37.067  22.144  24.674  1.00  0.00     0.202 C 
BRANCH   5   6
ATOM      6  C   UNL A   1      35.628  21.779  24.276  1.00  0.00     0.261 C 
BRANCH   6   7
ATOM      7  O   UNL A   1      34.824  21.129  25.272  1.00  0.00    -0.463 OA
BRANCH   7   8
ATOM      8  C   UNL A   1      33.562  20.835  24.903  1.00  0.00     0.309 C 
ATOM      9  O   UNL A   1      33.239  19.845  24.254  1.00  0.00    -0.252 OA
BRANCH   8  10
ATOM     10  C   UNL A   1      32.526  21.849  25.340  1.00  0.00     0.103 C 
ATOM     11  N   UNL A   1      31.170  24.331  25.645  1.00  0.00    -0.356 N 
ATOM     12  C   UNL A   1      31.569  23.616  26.842  1.00  0.00     0.119 C 
ATOM     13  C   UNL A   1      31.029  23.605  24.390  1.00  0.00     0.119 C 
ATOM     14  C   UNL A   1      32.782  22.729  26.572  1.00  0.00     0.037 C 
ATOM     15  C   UNL A   1      32.265  22.758  24.138  1.00  0.00     0.037 C 
BRANCH  11  16
ATOM     16  C   UNL A   1      31.348  25.701  25.604  1.00  0.00     0.132 A 
ATOM     17  C   UNL A   1      30.703  27.805  24.769  1.00  0.00     0.046 A 
ATOM     18  C   UNL A   1      30.505  26.447  24.810  1.00  0.00     0.070 A 
ATOM     19  N   UNL A   1      31.674  28.409  25.474  1.00  0.00    -0.238 NA
ATOM     20  C   UNL A   1      32.470  27.610  26.213  1.00  0.00     0.130 A 
ATOM     21  N   UNL A   1      32.323  26.276  26.324  1.00  0.00    -0.216 NA
BRANCH  17  22
ATOM     22  C   UNL A   1      29.877  28.646  23.835  1.00  0.00     0.056 C 
BRANCH  22  23
ATOM     23  C   UNL A   1      30.319  28.494  22.378  1.00  0.00     0.003 C 
ATOM     24  C   UNL A   1      31.750  28.957  22.125  1.00  0.00     0.004 C 
ENDBRANCH  22  23
ENDBRANCH  17  22
BRANCH  20  25
ATOM     25  C   UNL A   1      33.639  28.255  26.906  1.00  0.00     0.074 C 
ATOM     26  C   UNL A   1      33.374  29.727  27.197  1.00  0.00     0.012 C 
ENDBRANCH  20  25
ENDBRANCH  11  16
ENDBRANCH   8  10
ENDBRANCH   7   8
ENDBRANCH   6   7
ENDBRANCH   5   6
ENDBRANCH   4   5
ENDBRANCH   3   4
ENDBRANCH   2   3
ENDBRANCH   1   2
BRANCH   1  27
ATOM     27  C   UNL A   1      42.147  21.949  27.278  1.00  0.00     0.188 C 
BRANCH  27  28
ATOM     28  C   UNL A   1      42.086  23.487  27.377  1.00  0.00     0.188 C 
BRANCH  28  29
ATOM     29  O   UNL A   1      43.256  24.148  26.916  1.00  0.00    -0.376 OA
BRANCH  29  30
ATOM     30  C   UNL A   1      43.458  24.294  25.518  1.00  0.00     0.202 C 
BRANCH  30  31
ATOM     31  C   UNL A   1      44.890  24.508  24.997  1.00  0.00     0.261 C 
BRANCH  31  32
ATOM     32  O   UNL A   1      45.289  25.860  24.717  1.00  0.00    -0.460 OA
BRANCH  32  33
ATOM     33  C   UNL A   1      46.463  26.296  25.219  1.00  0.00     0.338 C 
ATOM     34  O   UNL A   1      47.572  26.108  24.746  1.00  0.00    -0.246 OA
BRANCH  33  35
ATOM     35  C   UNL A   1      46.167  27.225  26.331  1.00  0.00     0.060 A 
ATOM     36  C   UNL A   1      45.917  26.698  27.605  1.00  0.00     0.016 A 
ATOM     37  C   UNL A   1      46.124  28.605  26.119  1.00  0.00     0.016 A 
ATOM     38  C   UNL A   1      45.583  27.545  28.661  1.00  0.00     0.010 A 
ATOM     39  C   UNL A   1      45.763  29.451  27.173  1.00  0.00     0.010 A 
ATOM     40  C   UNL A   1      45.454  28.922  28.440  1.00  0.00    -0.014 A 
BRANCH  40  41
ATOM     41  C   UNL A   1      44.793  29.768  29.466  1.00  0.00     0.031 A 
ATOM     42  C   UNL A   1      45.659  30.399  30.527  1.00  0.00     0.074 A 
ATOM     43  C   UNL A   1      43.467  29.998  29.444  1.00  0.00     0.049 A 
ATOM     44  N   UNL A   1      45.313  31.122  31.560  1.00  0.00    -0.248 NA
ATOM     45  C   UNL A   1      47.110  30.181  30.405  1.00  0.00     0.031 C 
ATOM     46  C   UNL A   1      42.538  29.491  28.435  1.00  0.00     0.029 A 
ATOM     47  N   UNL A   1      42.668  30.712  30.304  1.00  0.00    -0.354 N 
ATOM     48  C   UNL A   1      46.498  31.429  32.220  1.00  0.00     0.074 A 
ATOM     49  C   UNL A   1      47.571  30.800  31.481  1.00  0.00     0.031 C 
ATOM     50  C   UNL A   1      41.294  29.895  28.745  1.00  0.00     0.029 A 
ATOM     51  C   UNL A   1      41.328  30.649  29.998  1.00  0.00     0.049 A 
ATOM     52  H   UNL A   1      43.023  31.222  31.069  1.00  0.00     0.167 HD
ATOM     53  C   UNL A   1      46.673  32.166  33.342  1.00  0.00     0.034 A 
ATOM     54  C   UNL A   1      40.254  31.112  30.673  1.00  0.00     0.034 A 
ATOM     55  C   UNL A   1      45.594  32.792  34.064  1.00  0.00     0.049 A 
ATOM     56  C   UNL A   1      40.474  31.864  31.971  1.00  0.00     0.074 A 
ATOM     57  C   UNL A   1      45.669  33.593  35.190  1.00  0.00     0.029 A 
ATOM     58  N   UNL A   1      44.248  32.676  33.746  1.00  0.00    -0.354 N 
ATOM     59  N   UNL A   1      41.604  32.171  32.568  1.00  0.00    -0.248 NA
ATOM     60  C   UNL A   1      39.278  32.342  32.678  1.00  0.00     0.031 C 
ATOM     61  C   UNL A   1      44.366  33.882  35.606  1.00  0.00     0.029 A 
ATOM     62  C   UNL A   1      43.481  33.350  34.682  1.00  0.00     0.049 A 
ATOM     63  H   UNL A   1      43.892  32.186  32.970  1.00  0.00     0.167 HD
ATOM     64  C   UNL A   1      41.250  32.911  33.696  1.00  0.00     0.074 A 
ATOM     65  C   UNL A   1      39.808  33.019  33.684  1.00  0.00     0.031 C 
ATOM     66  C   UNL A   1      42.042  33.456  34.654  1.00  0.00     0.034 A 
BRANCH  53  67
ATOM     67  C   UNL A   1      48.068  32.287  33.902  1.00  0.00     0.023 A 
ATOM     68  C   UNL A   1      48.590  31.365  34.825  1.00  0.00     0.031 A 
ATOM     69  C   UNL A   1      48.901  33.336  33.472  1.00  0.00     0.131 A 
ATOM     70  C   UNL A   1      49.896  31.530  35.312  1.00  0.00     0.055 A 
ATOM     71  C   UNL A   1      50.222  33.454  33.906  1.00  0.00     0.041 A 
ATOM     72  F   UNL A   1      48.445  34.262  32.614  1.00  0.00    -0.206 F 
ATOM     73  C   UNL A   1      50.724  32.550  34.836  1.00  0.00     0.022 A 
BRANCH  70  74
ATOM     74  S   UNL A   1      50.471  30.449  36.650  1.00  0.00     0.124 S 
ATOM     75  O   UNL A   1      51.835  30.929  36.852  1.00  0.00    -0.237 OA
ATOM     76  O   UNL A   1      49.526  30.741  37.722  1.00  0.00    -0.237 OA
ATOM     77  O   UNL A   1      50.368  29.109  36.076  1.00  0.00    -0.744 OA
ENDBRANCH  70  74
ENDBRANCH  53  67
BRANCH  54  78
ATOM     78  C   UNL A   1      38.863  30.831  30.200  1.00  0.00     0.023 A 
ATOM     79  C   UNL A   1      38.073  31.837  29.620  1.00  0.00     0.031 A 
ATOM     80  C   UNL A   1      38.263  29.580  30.428  1.00  0.00     0.131 A 
ATOM     81  C   UNL A   1      36.712  31.601  29.366  1.00  0.00     0.055 A 
ATOM     82  C   UNL A   1      36.929  29.326  30.101  1.00  0.00     0.041 A 
ATOM     83  F   UNL A   1      38.963  28.580  30.988  1.00  0.00    -0.206 F 
ATOM     84  C   UNL A   1      36.138  30.348  29.587  1.00  0.00     0.022 A 
BRANCH  81  85
ATOM     85  S   UNL A   1      35.663  33.005  28.889  1.00  0.00     0.124 S 
ATOM     86  O   UNL A   1      35.391  32.705  27.488  1.00  0.00    -0.237 OA
ATOM     87  O   UNL A   1      34.538  32.866  29.805  1.00  0.00    -0.237 OA
ATOM     88  O   UNL A   1      36.521  34.165  29.125  1.00  0.00    -0.744 OA
ENDBRANCH  81  85
ENDBRANCH  54  78
BRANCH  66  89
ATOM     89  C   UNL A   1      41.371  34.277  35.731  1.00  0.00     0.023 A 
ATOM     90  C   UNL A   1      40.963  33.714  36.953  1.00  0.00     0.031 A 
ATOM     91  C   UNL A   1      41.137  35.649  35.526  1.00  0.00     0.131 A 
ATOM     92  C   UNL A   1      40.289  34.507  37.896  1.00  0.00     0.055 A 
ATOM     93  C   UNL A   1      40.532  36.447  36.497  1.00  0.00     0.041 A 
ATOM     94  F   UNL A   1      41.502  36.240  34.376  1.00  0.00    -0.206 F 
ATOM     95  C   UNL A   1      40.091  35.873  37.684  1.00  0.00     0.022 A 
BRANCH  92  96
ATOM     96  S   UNL A   1      39.581  33.705  39.361  1.00  0.00     0.124 S 
ATOM     97  O   UNL A   1      38.152  33.923  39.165  1.00  0.00    -0.237 OA
ATOM     98  O   UNL A   1      40.042  32.328  39.217  1.00  0.00    -0.237 OA
ATOM     99  O   UNL A   1      40.173  34.442  40.476  1.00  0.00    -0.744 OA
ENDBRANCH  92  96
ENDBRANCH  66  89
ENDBRANCH  40  41
ENDBRANCH  33  35
ENDBRANCH  32  33
ENDBRANCH  31  32
ENDBRANCH  30  31
ENDBRANCH  29  30
ENDBRANCH  28  29
ENDBRANCH  27  28
ENDBRANCH   1  27
TORSDOF 27
ENDMDL
MODEL 2
REMARK VINA RESULT:      -7.6      4.494      7.801
REMARK SMILES CCCc1cc(N2CCC(C(=O)OCCOCCOCCOCCOC(=O)c3ccc(-c4c5nc(c(-c6cc(S(=O)(=O)[O-])ccc6F)c6ccc([nH]6)c(-c6cc(S(=O)(=O)[O-])ccc6F)c6nc(c(-c7cc(S(=O)(=O)[O-])ccc7F)c7ccc4[nH]7)C=C6)C=C5)cc3)CC2)nc(CC)n1
REMARK SMILES IDX 19 1 18 2 17 3 16 4 15 5 14 6 13 7 11 8 12 9 10 10 7 11 8 12
REMARK SMILES IDX 92 13 9 14 91 15 6 16 4 17 5 18 97 19 94 20 93 21 3 22 2 23
REMARK SMILES IDX 1 24 95 25 96 26 20 27 21 28 22 29 23 30 24 31 25 32 26 33
REMARK SMILES IDX 27 34 28 35 29 36 90 37 30 38 89 39 31 40 32 41 33 42 83 43
REMARK SMILES IDX 34 44 88 45 82 46 84 47 35 48 87 49 81 50 80 51 36 53 68 54
REMARK SMILES IDX 48 55 67 56 49 57 52 58 66 59 85 60 50 61 51 62 65 64 86 65
REMARK SMILES IDX 53 66 37 67 38 68 46 69 39 70 45 71 47 72 44 73 40 74 41 75
REMARK SMILES IDX 42 76 43 77 69 78 70 79 78 80 71 81 77 82 79 83 76 84 72 85
REMARK SMILES IDX 73 86 74 87 75 88 54 89 55 90 63 91 56 92 62 93 64 94 61 95
REMARK SMILES IDX 57 96 58 97 59 98 60 99
REMARK H PARENT 84 52 52 63
REMARK Flexibility Score: inf
ROOT
ATOM      1  O   UNL A   1      40.459  21.523  26.964  1.00  0.00    -0.377 OA
ENDROOT
BRANCH   1   2
ATOM      2  C   UNL A   1      39.414  20.969  26.194  1.00  0.00     0.188 C 
BRANCH   2   3
ATOM      3  C   UNL A   1      38.302  21.943  25.787  1.00  0.00     0.188 C 
BRANCH   3   4
ATOM      4  O   UNL A   1      36.957  21.522  25.639  1.00  0.00    -0.376 OA
BRANCH   4   5
ATOM      5  C   UNL A   1      36.188  21.851  24.491  1.00  0.00     0.202 C 
BRANCH   5   6
ATOM      6  C   UNL A   1      34.736  21.387  24.292  1.00  0.00     0.261 C 
BRANCH   6   7
ATOM      7  O   UNL A   1      33.987  21.074  25.475  1.00  0.00    -0.463 OA
BRANCH   7   8
ATOM      8  C   UNL A   1      32.673  20.838  25.289  1.00  0.00     0.309 C 
ATOM      9  O   UNL A   1      32.201  19.756  24.951  1.00  0.00    -0.252 OA
BRANCH   8  10
ATOM     10  C   UNL A   1      31.779  22.039  25.514  1.00  0.00     0.103 C 
ATOM     11  N   UNL A   1      30.873  24.735  25.541  1.00  0.00    -0.356 N 
ATOM     12  C   UNL A   1      30.902  24.008  26.795  1.00  0.00     0.119 C 
ATOM     13  C   UNL A   1      30.838  23.996  24.285  1.00  0.00     0.119 C 
ATOM     14  C   UNL A   1      31.958  22.908  26.767  1.00  0.00     0.037 C 
ATOM     15  C   UNL A   1      31.921  22.930  24.280  1.00  0.00     0.037 C 
BRANCH  11  16
ATOM     16  C   UNL A   1      31.306  26.047  25.526  1.00  0.00     0.132 A 
ATOM     17  C   UNL A   1      31.020  28.269  24.803  1.00  0.00     0.046 A 
ATOM     18  C   UNL A   1      30.570  26.972  24.818  1.00  0.00     0.070 A 
ATOM     19  N   UNL A   1      32.133  28.649  25.453  1.00  0.00    -0.238 NA
ATOM     20  C   UNL A   1      32.808  27.684  26.108  1.00  0.00     0.130 A 
ATOM     21  N   UNL A   1      32.418  26.397  26.191  1.00  0.00    -0.216 NA
BRANCH  17  22
ATOM     22  C   UNL A   1      30.310  29.289  23.957  1.00  0.00     0.056 C 
BRANCH  22  23
ATOM     23  C   UNL A   1      30.372  28.947  22.467  1.00  0.00     0.003 C 
ATOM     24  C   UNL A   1      31.782  29.004  21.887  1.00  0.00     0.004 C 
ENDBRANCH  22  23
ENDBRANCH  17  22
BRANCH  20  25
ATOM     25  C   UNL A   1      34.123  28.066  26.733  1.00  0.00     0.074 C 
ATOM     26  C   UNL A   1      34.080  29.480  27.301  1.00  0.00     0.012 C 
ENDBRANCH  20  25
ENDBRANCH  11  16
ENDBRANCH   8  10
ENDBRANCH   7   8
ENDBRANCH   6   7
ENDBRANCH   5   6
ENDBRANCH   4   5
ENDBRANCH   3   4
ENDBRANCH   2   3
ENDBRANCH   1   2
BRANCH   1  27
ATOM     27  C   UNL A   1      41.236  22.567  26.385  1.00  0.00     0.188 C 
BRANCH  27  28
ATOM     28  C   UNL A   1      42.438  22.187  25.497  1.00  0.00     0.188 C 
BRANCH  28  29
ATOM     29  O   UNL A   1      43.703  22.507  26.061  1.00  0.00    -0.376 OA
BRANCH  29  30
ATOM     30  C   UNL A   1      43.823  23.674  26.863  1.00  0.00     0.202 C 
BRANCH  30  31
ATOM     31  C   UNL A   1      44.658  24.852  26.329  1.00  0.00     0.261 C 
BRANCH  31  32
ATOM     32  O   UNL A   1      44.089  25.625  25.260  1.00  0.00    -0.460 OA
BRANCH  32  33
ATOM     33  C   UNL A   1      42.837  26.100  25.412  1.00  0.00     0.338 C 
ATOM     34  O   UNL A   1      41.805  25.573  25.030  1.00  0.00    -0.246 OA
BRANCH  33  35
ATOM     35  C   UNL A   1      42.901  27.273  26.312  1.00  0.00     0.060 A 
ATOM     36  C   UNL A   1      42.358  28.489  25.877  1.00  0.00     0.016 A 
ATOM     37  C   UNL A   1      43.500  27.179  27.570  1.00  0.00     0.016 A 
ATOM     38  C   UNL A   1      42.451  29.626  26.681  1.00  0.00     0.010 A 
ATOM     39  C   UNL A   1      43.615  28.325  28.364  1.00  0.00     0.010 A 
ATOM     40  C   UNL A   1      43.124  29.562  27.907  1.00  0.00    -0.014 A 
BRANCH  40  41
ATOM     41  C   UNL A   1      43.500  30.820  28.601  1.00  0.00     0.031 A 
ATOM     42  C   UNL A   1      42.652  31.267  29.764  1.00  0.00     0.074 A 
ATOM     43  C   UNL A   1      44.580  31.534  28.232  1.00  0.00     0.049 A 
ATOM     44  N   UNL A   1      42.737  32.354  30.485  1.00  0.00    -0.248 NA
ATOM     45  C   UNL A   1      41.559  30.365  30.165  1.00  0.00     0.031 C 
ATOM     46  C   UNL A   1      45.507  31.171  27.161  1.00  0.00     0.029 A 
ATOM     47  N   UNL A   1      45.074  32.723  28.712  1.00  0.00    -0.354 N 
ATOM     48  C   UNL A   1      41.701  32.276  31.410  1.00  0.00     0.074 A 
ATOM     49  C   UNL A   1      40.990  31.044  31.149  1.00  0.00     0.031 C 
ATOM     50  C   UNL A   1      46.447  32.128  27.054  1.00  0.00     0.029 A 
ATOM     51  C   UNL A   1      46.163  33.194  28.015  1.00  0.00     0.049 A 
ATOM     52  H   UNL A   1      44.684  33.194  29.485  1.00  0.00     0.167 HD
ATOM     53  C   UNL A   1      41.373  33.155  32.387  1.00  0.00     0.034 A 
ATOM     54  C   UNL A   1      46.827  34.365  28.117  1.00  0.00     0.034 A 
ATOM     55  C   UNL A   1      42.096  34.377  32.639  1.00  0.00     0.049 A 
ATOM     56  C   UNL A   1      46.386  35.367  29.166  1.00  0.00     0.074 A 
ATOM     57  C   UNL A   1      41.869  35.316  33.629  1.00  0.00     0.029 A 
ATOM     58  N   UNL A   1      43.169  34.837  31.891  1.00  0.00    -0.354 N 
ATOM     59  N   UNL A   1      45.421  35.266  30.052  1.00  0.00    -0.248 NA
ATOM     60  C   UNL A   1      47.129  36.632  29.235  1.00  0.00     0.031 C 
ATOM     61  C   UNL A   1      42.742  36.387  33.421  1.00  0.00     0.029 A 
ATOM     62  C   UNL A   1      43.584  36.070  32.368  1.00  0.00     0.049 A 
ATOM     63  H   UNL A   1      43.576  34.358  31.132  1.00  0.00     0.167 HD
ATOM     64  C   UNL A   1      45.474  36.439  30.806  1.00  0.00     0.074 A 
ATOM     65  C   UNL A   1      46.574  37.218  30.284  1.00  0.00     0.031 C 
ATOM     66  C   UNL A   1      44.688  36.835  31.840  1.00  0.00     0.034 A 
BRANCH  53  67
ATOM     67  C   UNL A   1      40.145  32.871  33.215  1.00  0.00     0.023 A 
ATOM     68  C   UNL A   1      38.861  33.282  32.821  1.00  0.00     0.031 A 
ATOM     69  C   UNL A   1      40.268  32.142  34.412  1.00  0.00     0.131 A 
ATOM     70  C   UNL A   1      37.755  32.988  33.634  1.00  0.00     0.055 A 
ATOM     71  C   UNL A   1      39.157  31.792  35.180  1.00  0.00     0.041 A 
ATOM     72  F   UNL A   1      41.475  31.750  34.851  1.00  0.00    -0.206 F 
ATOM     73  C   UNL A   1      37.891  32.221  34.795  1.00  0.00     0.022 A 
BRANCH  70  74
ATOM     74  S   UNL A   1      36.145  33.703  33.208  1.00  0.00     0.124 S 
ATOM     75  O   UNL A   1      35.292  33.162  34.263  1.00  0.00    -0.237 OA
ATOM     76  O   UNL A   1      36.407  35.137  33.272  1.00  0.00    -0.237 OA
ATOM     77  O   UNL A   1      35.879  33.178  31.870  1.00  0.00    -0.744 OA
ENDBRANCH  70  74
ENDBRANCH  53  67
BRANCH  54  78
ATOM     78  C   UNL A   1      47.932  34.712  27.170  1.00  0.00     0.023 A 
ATOM     79  C   UNL A   1      49.277  34.491  27.506  1.00  0.00     0.031 A 
ATOM     80  C   UNL A   1      47.662  35.379  25.961  1.00  0.00     0.131 A 
ATOM     81  C   UNL A   1      50.298  35.004  26.689  1.00  0.00     0.055 A 
ATOM     82  C   UNL A   1      48.680  35.819  25.113  1.00  0.00     0.041 A 
ATOM     83  F   UNL A   1      46.396  35.630  25.589  1.00  0.00    -0.206 F 
ATOM     84  C   UNL A   1      50.010  35.652  25.486  1.00  0.00     0.022 A 
BRANCH  81  85
ATOM     85  S   UNL A   1      52.007  34.949  27.300  1.00  0.00     0.124 S 
ATOM     86  O   UNL A   1      51.876  34.075  28.460  1.00  0.00    -0.237 OA
ATOM     87  O   UNL A   1      52.719  34.394  26.155  1.00  0.00    -0.237 OA
ATOM     88  O   UNL A   1      52.305  36.348  27.601  1.00  0.00    -0.744 OA
ENDBRANCH  81  85
ENDBRANCH  54  78
BRANCH  66  89
ATOM     89  C   UNL A   1      45.034  38.141  32.518  1.00  0.00     0.023 A 
ATOM     90  C   UNL A   1      44.561  39.377  32.044  1.00  0.00     0.031 A 
ATOM     91  C   UNL A   1      45.853  38.144  33.662  1.00  0.00     0.131 A 
ATOM     92  C   UNL A   1      44.961  40.566  32.674  1.00  0.00     0.055 A 
ATOM     93  C   UNL A   1      46.187  39.324  34.328  1.00  0.00     0.041 A 
ATOM     94  F   UNL A   1      46.337  36.993  34.159  1.00  0.00    -0.206 F 
ATOM     95  C   UNL A   1      45.753  40.545  33.825  1.00  0.00     0.022 A 
BRANCH  92  96
ATOM     96  S   UNL A   1      44.517  42.150  31.909  1.00  0.00     0.124 S 
ATOM     97  O   UNL A   1      45.820  42.788  31.755  1.00  0.00    -0.237 OA
ATOM     98  O   UNL A   1      43.864  41.728  30.674  1.00  0.00    -0.237 OA
ATOM     99  O   UNL A   1      43.635  42.771  32.894  1.00  0.00    -0.744 OA
ENDBRANCH  92  96
ENDBRANCH  66  89
ENDBRANCH  40  41
ENDBRANCH  33  35
ENDBRANCH  32  33
ENDBRANCH  31  32
ENDBRANCH  30  31
ENDBRANCH  29  30
ENDBRANCH  28  29
ENDBRANCH  27  28
ENDBRANCH   1  27
TORSDOF 27
ENDMDL
MODEL 3
REMARK VINA RESULT:      -7.4      5.080     10.491
REMARK SMILES CCCc1cc(N2CCC(C(=O)OCCOCCOCCOCCOC(=O)c3ccc(-c4c5nc(c(-c6cc(S(=O)(=O)[O-])ccc6F)c6ccc([nH]6)c(-c6cc(S(=O)(=O)[O-])ccc6F)c6nc(c(-c7cc(S(=O)(=O)[O-])ccc7F)c7ccc4[nH]7)C=C6)C=C5)cc3)CC2)nc(CC)n1
REMARK SMILES IDX 19 1 18 2 17 3 16 4 15 5 14 6 13 7 11 8 12 9 10 10 7 11 8 12
REMARK SMILES IDX 92 13 9 14 91 15 6 16 4 17 5 18 97 19 94 20 93 21 3 22 2 23
REMARK SMILES IDX 1 24 95 25 96 26 20 27 21 28 22 29 23 30 24 31 25 32 26 33
REMARK SMILES IDX 27 34 28 35 29 36 90 37 30 38 89 39 31 40 32 41 33 42 83 43
REMARK SMILES IDX 34 44 88 45 82 46 84 47 35 48 87 49 81 50 80 51 36 53 68 54
REMARK SMILES IDX 48 55 67 56 49 57 52 58 66 59 85 60 50 61 51 62 65 64 86 65
REMARK SMILES IDX 53 66 37 67 38 68 46 69 39 70 45 71 47 72 44 73 40 74 41 75
REMARK SMILES IDX 42 76 43 77 69 78 70 79 78 80 71 81 77 82 79 83 76 84 72 85
REMARK SMILES IDX 73 86 74 87 75 88 54 89 55 90 63 91 56 92 62 93 64 94 61 95
REMARK SMILES IDX 57 96 58 97 59 98 60 99
REMARK H PARENT 84 52 52 63
REMARK Flexibility Score: inf
ROOT
ATOM      1  O   UNL A   1      32.923  37.134  30.915  1.00  0.00    -0.377 OA
ENDROOT
BRANCH   1   2
ATOM      2  C   UNL A   1      33.140  36.580  29.635  1.00  0.00     0.188 C 
BRANCH   2   3
ATOM      3  C   UNL A   1      33.272  35.055  29.586  1.00  0.00     0.188 C 
BRANCH   3   4
ATOM      4  O   UNL A   1      34.325  34.374  30.248  1.00  0.00    -0.376 OA
BRANCH   4   5
ATOM      5  C   UNL A   1      35.607  34.214  29.657  1.00  0.00     0.202 C 
BRANCH   5   6
ATOM      6  C   UNL A   1      35.920  33.133  28.610  1.00  0.00     0.261 C 
BRANCH   6   7
ATOM      7  O   UNL A   1      35.097  31.958  28.625  1.00  0.00    -0.463 OA
BRANCH   7   8
ATOM      8  C   UNL A   1      34.078  31.947  27.743  1.00  0.00     0.309 C 
ATOM      9  O   UNL A   1      33.737  32.910  27.061  1.00  0.00    -0.252 OA
BRANCH   8  10
ATOM     10  C   UNL A   1      33.338  30.630  27.651  1.00  0.00     0.103 C 
ATOM     11  N   UNL A   1      32.434  28.131  26.637  1.00  0.00    -0.356 N 
ATOM     12  C   UNL A   1      31.442  29.132  26.978  1.00  0.00     0.119 C 
ATOM     13  C   UNL A   1      33.762  28.207  27.230  1.00  0.00     0.119 C 
ATOM     14  C   UNL A   1      32.022  30.539  26.866  1.00  0.00     0.037 C 
ATOM     15  C   UNL A   1      34.321  29.612  27.073  1.00  0.00     0.037 C 
BRANCH  11  16
ATOM     16  C   UNL A   1      32.268  27.405  25.473  1.00  0.00     0.132 A 
ATOM     17  C   UNL A   1      31.370  25.534  24.360  1.00  0.00     0.046 A 
ATOM     18  C   UNL A   1      31.515  26.251  25.523  1.00  0.00     0.070 A 
ATOM     19  N   UNL A   1      31.928  25.926  23.202  1.00  0.00    -0.238 NA
ATOM     20  C   UNL A   1      32.664  27.055  23.238  1.00  0.00     0.130 A 
ATOM     21  N   UNL A   1      32.831  27.826  24.330  1.00  0.00    -0.216 NA
BRANCH  17  22
ATOM     22  C   UNL A   1      30.649  24.216  24.390  1.00  0.00     0.056 C 
BRANCH  22  23
ATOM     23  C   UNL A   1      31.540  23.082  24.903  1.00  0.00     0.003 C 
ATOM     24  C   UNL A   1      30.960  22.350  26.109  1.00  0.00     0.004 C 
ENDBRANCH  22  23
ENDBRANCH  17  22
BRANCH  20  25
ATOM     25  C   UNL A   1      33.398  27.438  21.982  1.00  0.00     0.074 C 
ATOM     26  C   UNL A   1      34.398  28.559  22.239  1.00  0.00     0.012 C 
ENDBRANCH  20  25
ENDBRANCH  11  16
ENDBRANCH   8  10
ENDBRANCH   7   8
ENDBRANCH   6   7
ENDBRANCH   5   6
ENDBRANCH   4   5
ENDBRANCH   3   4
ENDBRANCH   2   3
ENDBRANCH   1   2
BRANCH   1  27
ATOM     27  C   UNL A   1      33.231  36.333  32.052  1.00  0.00     0.188 C 
BRANCH  27  28
ATOM     28  C   UNL A   1      34.030  36.969  33.207  1.00  0.00     0.188 C 
BRANCH  28  29
ATOM     29  O   UNL A   1      34.698  36.030  34.040  1.00  0.00    -0.376 OA
BRANCH  29  30
ATOM     30  C   UNL A   1      35.405  34.957  33.436  1.00  0.00     0.202 C 
BRANCH  30  31
ATOM     31  C   UNL A   1      34.978  33.515  33.764  1.00  0.00     0.261 C 
BRANCH  31  32
ATOM     32  O   UNL A   1      35.958  32.667  34.385  1.00  0.00    -0.460 OA
BRANCH  32  33
ATOM     33  C   UNL A   1      37.017  33.249  34.983  1.00  0.00     0.338 C 
ATOM     34  O   UNL A   1      37.015  33.849  36.046  1.00  0.00    -0.246 OA
BRANCH  33  35
ATOM     35  C   UNL A   1      38.234  32.857  34.239  1.00  0.00     0.060 A 
ATOM     36  C   UNL A   1      38.094  32.128  33.051  1.00  0.00     0.016 A 
ATOM     37  C   UNL A   1      39.504  33.196  34.712  1.00  0.00     0.016 A 
ATOM     38  C   UNL A   1      39.224  31.698  32.355  1.00  0.00     0.010 A 
ATOM     39  C   UNL A   1      40.636  32.742  34.027  1.00  0.00     0.010 A 
ATOM     40  C   UNL A   1      40.502  31.959  32.865  1.00  0.00    -0.014 A 
BRANCH  40  41
ATOM     41  C   UNL A   1      41.673  31.236  32.308  1.00  0.00     0.031 A 
ATOM     42  C   UNL A   1      42.178  30.027  33.054  1.00  0.00     0.074 A 
ATOM     43  C   UNL A   1      42.257  31.620  31.158  1.00  0.00     0.049 A 
ATOM     44  N   UNL A   1      43.215  29.271  32.805  1.00  0.00    -0.248 NA
ATOM     45  C   UNL A   1      41.407  29.618  34.240  1.00  0.00     0.031 C 
ATOM     46  C   UNL A   1      41.822  32.736  30.321  1.00  0.00     0.029 A 
ATOM     47  N   UNL A   1      43.353  31.116  30.499  1.00  0.00    -0.354 N 
ATOM     48  C   UNL A   1      43.233  28.312  33.812  1.00  0.00     0.074 A 
ATOM     49  C   UNL A   1      42.113  28.590  34.684  1.00  0.00     0.031 C 
ATOM     50  C   UNL A   1      42.654  32.844  29.269  1.00  0.00     0.029 A 
ATOM     51  C   UNL A   1      43.708  31.836  29.382  1.00  0.00     0.049 A 
ATOM     52  H   UNL A   1      43.839  30.314  30.800  1.00  0.00     0.167 HD
ATOM     53  C   UNL A   1      44.107  27.293  33.992  1.00  0.00     0.034 A 
ATOM     54  C   UNL A   1      44.780  31.719  28.569  1.00  0.00     0.034 A 
ATOM     55  C   UNL A   1      45.216  27.025  33.110  1.00  0.00     0.049 A 
ATOM     56  C   UNL A   1      45.787  30.619  28.843  1.00  0.00     0.074 A 
ATOM     57  C   UNL A   1      46.136  25.995  33.181  1.00  0.00     0.029 A 
ATOM     58  N   UNL A   1      45.565  27.796  32.010  1.00  0.00    -0.354 N 
ATOM     59  N   UNL A   1      45.776  29.701  29.783  1.00  0.00    -0.248 NA
ATOM     60  C   UNL A   1      46.944  30.533  27.941  1.00  0.00     0.031 C 
ATOM     61  C   UNL A   1      47.094  26.197  32.184  1.00  0.00     0.029 A 
ATOM     62  C   UNL A   1      46.715  27.292  31.425  1.00  0.00     0.049 A 
ATOM     63  H   UNL A   1      45.068  28.586  31.694  1.00  0.00     0.167 HD
ATOM     64  C   UNL A   1      46.901  28.909  29.555  1.00  0.00     0.074 A 
ATOM     65  C   UNL A   1      47.554  29.444  28.381  1.00  0.00     0.031 C 
ATOM     66  C   UNL A   1      47.352  27.833  30.249  1.00  0.00     0.034 A 
BRANCH  53  67
ATOM     67  C   UNL A   1      43.949  26.430  35.218  1.00  0.00     0.023 A 
ATOM     68  C   UNL A   1      44.517  26.773  36.457  1.00  0.00     0.031 A 
ATOM     69  C   UNL A   1      43.183  25.253  35.145  1.00  0.00     0.131 A 
ATOM     70  C   UNL A   1      44.336  25.929  37.563  1.00  0.00     0.055 A 
ATOM     71  C   UNL A   1      42.947  24.455  36.265  1.00  0.00     0.041 A 
ATOM     72  F   UNL A   1      42.641  24.862  33.980  1.00  0.00    -0.206 F 
ATOM     73  C   UNL A   1      43.531  24.789  37.483  1.00  0.00     0.022 A 
BRANCH  70  74
ATOM     74  S   UNL A   1      45.245  26.287  39.091  1.00  0.00     0.124 S 
ATOM     75  O   UNL A   1      46.588  26.550  38.582  1.00  0.00    -0.237 OA
ATOM     76  O   UNL A   1      44.527  27.439  39.625  1.00  0.00    -0.237 OA
ATOM     77  O   UNL A   1      45.111  25.055  39.867  1.00  0.00    -0.744 OA
ENDBRANCH  70  74
ENDBRANCH  53  67
BRANCH  54  78
ATOM     78  C   UNL A   1      45.021  32.693  27.460  1.00  0.00     0.023 A 
ATOM     79  C   UNL A   1      45.813  33.837  27.653  1.00  0.00     0.031 A 
ATOM     80  C   UNL A   1      44.365  32.554  26.223  1.00  0.00     0.131 A 
ATOM     81  C   UNL A   1      45.862  34.831  26.662  1.00  0.00     0.055 A 
ATOM     82  C   UNL A   1      44.480  33.509  25.211  1.00  0.00     0.041 A 
ATOM     83  F   UNL A   1      43.585  31.487  25.982  1.00  0.00    -0.206 F 
ATOM     84  C   UNL A   1      45.214  34.668  25.436  1.00  0.00     0.022 A 
BRANCH  81  85
ATOM     85  S   UNL A   1      46.657  36.414  27.062  1.00  0.00     0.124 S 
ATOM     86  O   UNL A   1      47.750  35.983  27.926  1.00  0.00    -0.237 OA
ATOM     87  O   UNL A   1      47.037  36.903  25.741  1.00  0.00    -0.237 OA
ATOM     88  O   UNL A   1      45.596  37.169  27.725  1.00  0.00    -0.744 OA
ENDBRANCH  81  85
ENDBRANCH  54  78
BRANCH  66  89
ATOM     89  C   UNL A   1      48.576  27.122  29.715  1.00  0.00     0.023 A 
ATOM     90  C   UNL A   1      49.879  27.510  30.071  1.00  0.00     0.031 A 
ATOM     91  C   UNL A   1      48.428  26.035  28.835  1.00  0.00     0.131 A 
ATOM     92  C   UNL A   1      50.983  26.856  29.500  1.00  0.00     0.055 A 
ATOM     93  C   UNL A   1      49.528  25.342  28.328  1.00  0.00     0.041 A 
ATOM     94  F   UNL A   1      47.207  25.621  28.456  1.00  0.00    -0.206 F 
ATOM     95  C   UNL A   1      50.814  25.762  28.649  1.00  0.00     0.022 A 
BRANCH  92  96
ATOM     96  S   UNL A   1      52.643  27.521  29.805  1.00  0.00     0.124 S 
ATOM     97  O   UNL A   1      52.583  27.845  31.227  1.00  0.00    -0.237 OA
ATOM     98  O   UNL A   1      53.500  26.397  29.443  1.00  0.00    -0.237 OA
ATOM     99  O   UNL A   1      52.721  28.673  28.909  1.00  0.00    -0.744 OA
ENDBRANCH  92  96
ENDBRANCH  66  89
ENDBRANCH  40  41
ENDBRANCH  33  35
ENDBRANCH  32  33
ENDBRANCH  31  32
ENDBRANCH  30  31
ENDBRANCH  29  30
ENDBRANCH  28  29
ENDBRANCH  27  28
ENDBRANCH   1  27
TORSDOF 27
ENDMDL
