MODEL 1
REMARK VINA RESULT:     -10.1      0.000      0.000
REMARK SMILES Nc1c(C(=O)NCc2ccc3c(c2)OCO3)nsc1C(=O)OCCOCCOCCOCCOC(=O)c1ccc(-c2c3nc(c(-c4cc(S(=O)(=O)[O-])ccc4F)c4ccc([nH]4)c(-c4cc(S(=O)(=O)[O-])ccc4F)c4nc(c(-c5cc(S(=O)(=O)[O-])ccc5F)c5ccc2[nH]5)C=C4)C=C3)cc1
REMARK SMILES IDX 28 1 27 2 26 3 25 4 24 5 23 6 22 7 20 8 21 9 19 10 2 11 3 12
REMARK SMILES IDX 17 13 18 14 1 15 4 18 5 19 6 20 7 22 8 23 9 24 13 25 10 26
REMARK SMILES IDX 12 27 11 28 14 29 16 30 15 31 29 32 30 33 31 34 32 35 33 36
REMARK SMILES IDX 34 37 35 38 36 39 37 40 38 41 99 42 39 43 98 44 40 45 41 46
REMARK SMILES IDX 42 47 92 48 43 49 97 50 91 51 93 52 44 53 96 54 90 55 89 56
REMARK SMILES IDX 45 58 77 59 57 60 76 61 58 62 61 63 75 64 94 65 59 66 60 67
REMARK SMILES IDX 74 69 95 70 62 71 46 72 47 73 55 74 48 75 54 76 56 77 53 78
REMARK SMILES IDX 49 79 50 80 51 81 52 82 78 83 79 84 87 85 80 86 86 87 88 88
REMARK SMILES IDX 85 89 81 90 82 91 83 92 84 93 63 94 64 95 72 96 65 97 71 98
REMARK SMILES IDX 73 99 70 100 66 101 67 102 68 103 69 104
REMARK H PARENT 1 16 1 17 6 21 93 57 61 68
REMARK Flexibility Score: inf
ROOT
ATOM      1  O   UNL A   1      36.217  18.787  24.637  1.00  0.00    -0.377 OA
ENDROOT
BRANCH   1   2
ATOM      2  C   UNL A   1      34.919  19.349  24.724  1.00  0.00     0.188 C 
BRANCH   2   3
ATOM      3  C   UNL A   1      33.776  18.313  24.680  1.00  0.00     0.188 C 
BRANCH   3   4
ATOM      4  O   UNL A   1      32.501  18.597  24.114  1.00  0.00    -0.376 OA
BRANCH   4   5
ATOM      5  C   UNL A   1      32.309  19.510  23.047  1.00  0.00     0.202 C 
BRANCH   5   6
ATOM      6  C   UNL A   1      32.362  21.030  23.247  1.00  0.00     0.261 C 
BRANCH   6   7
ATOM      7  O   UNL A   1      31.757  21.525  24.439  1.00  0.00    -0.459 OA
BRANCH   7   8
ATOM      8  C   UNL A   1      32.398  22.566  25.036  1.00  0.00     0.352 C 
ATOM      9  O   UNL A   1      33.552  22.506  25.464  1.00  0.00    -0.245 OA
BRANCH   8  10
ATOM     10  C   UNL A   1      31.566  23.743  25.009  1.00  0.00     0.156 A 
ATOM     11  C   UNL A   1      31.142  24.602  23.998  1.00  0.00     0.091 A 
ATOM     12  C   UNL A   1      30.288  25.655  24.533  1.00  0.00     0.165 A 
ATOM     13  N   UNL A   1      30.258  25.666  25.878  1.00  0.00    -0.184 NA
ATOM     14  S   UNL A   1      31.059  24.385  26.500  1.00  0.00    -0.026 S 
BRANCH  11  15
ATOM     15  N   UNL A   1      31.573  24.449  22.721  1.00  0.00    -0.395 N 
ATOM     16  H   UNL A   1      31.816  23.554  22.387  1.00  0.00     0.156 HD
ATOM     17  H   UNL A   1      31.644  25.231  22.128  1.00  0.00     0.156 HD
ENDBRANCH  11  15
BRANCH  12  18
ATOM     18  C   UNL A   1      29.466  26.720  23.911  1.00  0.00     0.273 C 
ATOM     19  O   UNL A   1      28.229  26.657  23.917  1.00  0.00    -0.267 OA
ATOM     20  N   UNL A   1      29.956  27.771  23.181  1.00  0.00    -0.347 N 
ATOM     21  H   UNL A   1      29.267  28.187  22.613  1.00  0.00     0.164 HD
BRANCH  20  22
ATOM     22  C   UNL A   1      31.239  28.409  23.046  1.00  0.00     0.152 C 
BRANCH  22  23
ATOM     23  C   UNL A   1      31.873  28.974  24.286  1.00  0.00    -0.025 A 
ATOM     24  C   UNL A   1      31.156  29.999  24.960  1.00  0.00     0.009 A 
ATOM     25  C   UNL A   1      33.113  28.562  24.797  1.00  0.00     0.056 A 
ATOM     26  C   UNL A   1      31.661  30.621  26.103  1.00  0.00     0.051 A 
ATOM     27  C   UNL A   1      33.592  29.200  25.925  1.00  0.00     0.166 A 
ATOM     28  C   UNL A   1      32.889  30.201  26.556  1.00  0.00     0.165 A 
ATOM     29  O   UNL A   1      34.783  28.949  26.535  1.00  0.00    -0.454 OA
ATOM     30  O   UNL A   1      33.545  30.704  27.635  1.00  0.00    -0.454 OA
ATOM     31  C   UNL A   1      34.769  29.945  27.580  1.00  0.00     0.468 C 
ENDBRANCH  22  23
ENDBRANCH  20  22
ENDBRANCH  12  18
ENDBRANCH   8  10
ENDBRANCH   7   8
ENDBRANCH   6   7
ENDBRANCH   5   6
ENDBRANCH   4   5
ENDBRANCH   3   4
ENDBRANCH   2   3
ENDBRANCH   1   2
BRANCH   1  32
ATOM     32  C   UNL A   1      37.279  19.675  24.999  1.00  0.00     0.188 C 
BRANCH  32  33
ATOM     33  C   UNL A   1      36.930  21.143  25.386  1.00  0.00     0.188 C 
BRANCH  33  34
ATOM     34  O   UNL A   1      38.056  21.969  25.665  1.00  0.00    -0.376 OA
BRANCH  34  35
ATOM     35  C   UNL A   1      39.319  21.434  26.031  1.00  0.00     0.202 C 
BRANCH  35  36
ATOM     36  C   UNL A   1      40.023  22.064  27.230  1.00  0.00     0.261 C 
BRANCH  36  37
ATOM     37  O   UNL A   1      40.652  23.286  26.907  1.00  0.00    -0.460 OA
BRANCH  37  38
ATOM     38  C   UNL A   1      40.088  24.366  27.476  1.00  0.00     0.338 C 
ATOM     39  O   UNL A   1      38.974  24.444  27.976  1.00  0.00    -0.246 OA
BRANCH  38  40
ATOM     40  C   UNL A   1      41.023  25.480  27.340  1.00  0.00     0.060 A 
ATOM     41  C   UNL A   1      41.904  25.640  28.406  1.00  0.00     0.016 A 
ATOM     42  C   UNL A   1      40.640  26.530  26.490  1.00  0.00     0.016 A 
ATOM     43  C   UNL A   1      42.082  26.915  28.867  1.00  0.00     0.010 A 
ATOM     44  C   UNL A   1      40.779  27.793  26.975  1.00  0.00     0.010 A 
ATOM     45  C   UNL A   1      41.396  27.942  28.214  1.00  0.00    -0.014 A 
BRANCH  45  46
ATOM     46  C   UNL A   1      41.392  29.250  28.816  1.00  0.00     0.031 A 
ATOM     47  C   UNL A   1      42.542  30.045  28.343  1.00  0.00     0.074 A 
ATOM     48  C   UNL A   1      40.355  29.645  29.578  1.00  0.00     0.049 A 
ATOM     49  N   UNL A   1      43.544  30.476  29.031  1.00  0.00    -0.248 NA
ATOM     50  C   UNL A   1      42.736  30.150  26.882  1.00  0.00     0.031 C 
ATOM     51  C   UNL A   1      39.091  28.941  29.832  1.00  0.00     0.029 A 
ATOM     52  N   UNL A   1      40.158  30.831  30.199  1.00  0.00    -0.354 N 
ATOM     53  C   UNL A   1      44.345  31.146  28.115  1.00  0.00     0.074 A 
ATOM     54  C   UNL A   1      43.957  30.675  26.820  1.00  0.00     0.031 C 
ATOM     55  C   UNL A   1      38.185  29.816  30.327  1.00  0.00     0.029 A 
ATOM     56  C   UNL A   1      38.835  31.101  30.533  1.00  0.00     0.049 A 
ATOM     57  H   UNL A   1      40.892  31.455  30.399  1.00  0.00     0.167 HD
ATOM     58  C   UNL A   1      45.014  32.270  28.478  1.00  0.00     0.034 A 
ATOM     59  C   UNL A   1      38.315  32.321  30.845  1.00  0.00     0.034 A 
ATOM     60  C   UNL A   1      45.186  32.312  29.915  1.00  0.00     0.049 A 
ATOM     61  C   UNL A   1      39.473  33.193  31.194  1.00  0.00     0.074 A 
ATOM     62  C   UNL A   1      45.798  31.471  30.826  1.00  0.00     0.029 A 
ATOM     63  N   UNL A   1      44.331  33.103  30.653  1.00  0.00    -0.354 N 
ATOM     64  N   UNL A   1      40.234  32.983  32.236  1.00  0.00    -0.248 NA
ATOM     65  C   UNL A   1      40.107  33.943  30.116  1.00  0.00     0.031 C 
ATOM     66  C   UNL A   1      44.931  31.462  31.957  1.00  0.00     0.029 A 
ATOM     67  C   UNL A   1      43.889  32.364  31.724  1.00  0.00     0.049 A 
ATOM     68  H   UNL A   1      44.082  34.033  30.448  1.00  0.00     0.167 HD
ATOM     69  C   UNL A   1      41.533  33.189  31.792  1.00  0.00     0.074 A 
ATOM     70  C   UNL A   1      41.387  33.855  30.496  1.00  0.00     0.031 C 
ATOM     71  C   UNL A   1      42.592  32.534  32.358  1.00  0.00     0.034 A 
BRANCH  58  72
ATOM     72  C   UNL A   1      45.120  33.494  27.594  1.00  0.00     0.023 A 
ATOM     73  C   UNL A   1      46.390  33.771  27.065  1.00  0.00     0.031 A 
ATOM     74  C   UNL A   1      44.168  34.538  27.472  1.00  0.00     0.131 A 
ATOM     75  C   UNL A   1      46.707  35.049  26.582  1.00  0.00     0.055 A 
ATOM     76  C   UNL A   1      44.472  35.789  26.931  1.00  0.00     0.041 A 
ATOM     77  F   UNL A   1      42.916  34.457  27.934  1.00  0.00    -0.206 F 
ATOM     78  C   UNL A   1      45.758  36.065  26.516  1.00  0.00     0.022 A 
BRANCH  75  79
ATOM     79  S   UNL A   1      48.441  35.411  26.221  1.00  0.00     0.124 S 
ATOM     80  O   UNL A   1      49.097  34.922  27.429  1.00  0.00    -0.237 OA
ATOM     81  O   UNL A   1      48.658  34.631  25.007  1.00  0.00    -0.237 OA
ATOM     82  O   UNL A   1      48.453  36.861  26.044  1.00  0.00    -0.744 OA
ENDBRANCH  75  79
ENDBRANCH  58  72
BRANCH  59  83
ATOM     83  C   UNL A   1      36.975  32.842  30.435  1.00  0.00     0.023 A 
ATOM     84  C   UNL A   1      36.048  33.416  31.334  1.00  0.00     0.031 A 
ATOM     85  C   UNL A   1      36.673  32.970  29.058  1.00  0.00     0.131 A 
ATOM     86  C   UNL A   1      34.883  34.063  30.845  1.00  0.00     0.055 A 
ATOM     87  C   UNL A   1      35.522  33.602  28.583  1.00  0.00     0.041 A 
ATOM     88  F   UNL A   1      37.533  32.550  28.117  1.00  0.00    -0.206 F 
ATOM     89  C   UNL A   1      34.624  34.159  29.476  1.00  0.00     0.022 A 
BRANCH  86  90
ATOM     90  S   UNL A   1      33.702  34.858  31.988  1.00  0.00     0.124 S 
ATOM     91  O   UNL A   1      32.547  35.096  31.129  1.00  0.00    -0.237 OA
ATOM     92  O   UNL A   1      33.542  33.846  33.025  1.00  0.00    -0.237 OA
ATOM     93  O   UNL A   1      34.403  36.068  32.419  1.00  0.00    -0.744 OA
ENDBRANCH  86  90
ENDBRANCH  59  83
BRANCH  71  94
ATOM     94  C   UNL A   1      42.356  31.766  33.649  1.00  0.00     0.023 A 
ATOM     95  C   UNL A   1      42.107  30.375  33.739  1.00  0.00     0.031 A 
ATOM     96  C   UNL A   1      42.525  32.473  34.852  1.00  0.00     0.131 A 
ATOM     97  C   UNL A   1      42.030  29.752  35.003  1.00  0.00     0.055 A 
ATOM     98  C   UNL A   1      42.471  31.849  36.097  1.00  0.00     0.041 A 
ATOM     99  F   UNL A   1      42.791  33.789  34.836  1.00  0.00    -0.206 F 
ATOM    100  C   UNL A   1      42.217  30.485  36.178  1.00  0.00     0.022 A 
BRANCH  97 101
ATOM    101  S   UNL A   1      41.666  27.970  35.149  1.00  0.00     0.124 S 
ATOM    102  O   UNL A   1      40.675  27.737  34.104  1.00  0.00    -0.237 OA
ATOM    103  O   UNL A   1      42.977  27.362  34.934  1.00  0.00    -0.237 OA
ATOM    104  O   UNL A   1      41.154  27.837  36.515  1.00  0.00    -0.744 OA
ENDBRANCH  97 101
ENDBRANCH  71  94
ENDBRANCH  45  46
ENDBRANCH  38  40
ENDBRANCH  37  38
ENDBRANCH  36  37
ENDBRANCH  35  36
ENDBRANCH  34  35
ENDBRANCH  33  34
ENDBRANCH  32  33
ENDBRANCH   1  32
TORSDOF 27
ENDMDL
MODEL 2
REMARK VINA RESULT:      -9.4      2.687      7.546
REMARK SMILES Nc1c(C(=O)NCc2ccc3c(c2)OCO3)nsc1C(=O)OCCOCCOCCOCCOC(=O)c1ccc(-c2c3nc(c(-c4cc(S(=O)(=O)[O-])ccc4F)c4ccc([nH]4)c(-c4cc(S(=O)(=O)[O-])ccc4F)c4nc(c(-c5cc(S(=O)(=O)[O-])ccc5F)c5ccc2[nH]5)C=C4)C=C3)cc1
REMARK SMILES IDX 28 1 27 2 26 3 25 4 24 5 23 6 22 7 20 8 21 9 19 10 2 11 3 12
REMARK SMILES IDX 17 13 18 14 1 15 4 18 5 19 6 20 7 22 8 23 9 24 13 25 10 26
REMARK SMILES IDX 12 27 11 28 14 29 16 30 15 31 29 32 30 33 31 34 32 35 33 36
REMARK SMILES IDX 34 37 35 38 36 39 37 40 38 41 99 42 39 43 98 44 40 45 41 46
REMARK SMILES IDX 42 47 92 48 43 49 97 50 91 51 93 52 44 53 96 54 90 55 89 56
REMARK SMILES IDX 45 58 77 59 57 60 76 61 58 62 61 63 75 64 94 65 59 66 60 67
REMARK SMILES IDX 74 69 95 70 62 71 46 72 47 73 55 74 48 75 54 76 56 77 53 78
REMARK SMILES IDX 49 79 50 80 51 81 52 82 78 83 79 84 87 85 80 86 86 87 88 88
REMARK SMILES IDX 85 89 81 90 82 91 83 92 84 93 63 94 64 95 72 96 65 97 71 98
REMARK SMILES IDX 73 99 70 100 66 101 67 102 68 103 69 104
REMARK H PARENT 1 16 1 17 6 21 93 57 61 68
REMARK Flexibility Score: inf
ROOT
ATOM      1  O   UNL A   1      34.378  21.545  26.295  1.00  0.00    -0.377 OA
ENDROOT
BRANCH   1   2
ATOM      2  C   UNL A   1      33.535  22.564  25.787  1.00  0.00     0.188 C 
BRANCH   2   3
ATOM      3  C   UNL A   1      32.242  22.043  25.123  1.00  0.00     0.188 C 
BRANCH   3   4
ATOM      4  O   UNL A   1      32.198  21.591  23.774  1.00  0.00    -0.376 OA
BRANCH   4   5
ATOM      5  C   UNL A   1      32.773  22.306  22.694  1.00  0.00     0.202 C 
BRANCH   5   6
ATOM      6  C   UNL A   1      33.255  23.756  22.832  1.00  0.00     0.261 C 
BRANCH   6   7
ATOM      7  O   UNL A   1      32.345  24.761  22.393  1.00  0.00    -0.459 OA
BRANCH   7   8
ATOM      8  C   UNL A   1      31.276  24.982  23.204  1.00  0.00     0.352 C 
ATOM      9  O   UNL A   1      30.243  24.313  23.175  1.00  0.00    -0.245 OA
BRANCH   8  10
ATOM     10  C   UNL A   1      31.574  26.039  24.140  1.00  0.00     0.156 A 
ATOM     11  C   UNL A   1      31.189  26.303  25.452  1.00  0.00     0.091 A 
ATOM     12  C   UNL A   1      31.800  27.535  25.936  1.00  0.00     0.165 A 
ATOM     13  N   UNL A   1      32.431  28.219  24.964  1.00  0.00    -0.184 NA
ATOM     14  S   UNL A   1      32.462  27.372  23.567  1.00  0.00    -0.026 S 
BRANCH  11  15
ATOM     15  N   UNL A   1      30.302  25.505  26.096  1.00  0.00    -0.395 N 
ATOM     16  H   UNL A   1      30.620  24.714  26.590  1.00  0.00     0.156 HD
ATOM     17  H   UNL A   1      29.342  25.716  26.071  1.00  0.00     0.156 HD
ENDBRANCH  11  15
BRANCH  12  18
ATOM     18  C   UNL A   1      31.856  28.197  27.260  1.00  0.00     0.273 C 
ATOM     19  O   UNL A   1      31.328  27.681  28.255  1.00  0.00    -0.267 OA
ATOM     20  N   UNL A   1      32.353  29.452  27.496  1.00  0.00    -0.347 N 
ATOM     21  H   UNL A   1      32.038  29.827  28.350  1.00  0.00     0.164 HD
BRANCH  20  22
ATOM     22  C   UNL A   1      33.227  30.351  26.790  1.00  0.00     0.152 C 
BRANCH  22  23
ATOM     23  C   UNL A   1      33.586  31.648  27.461  1.00  0.00    -0.025 A 
ATOM     24  C   UNL A   1      34.848  31.702  28.113  1.00  0.00     0.009 A 
ATOM     25  C   UNL A   1      32.756  32.779  27.489  1.00  0.00     0.056 A 
ATOM     26  C   UNL A   1      35.274  32.841  28.797  1.00  0.00     0.051 A 
ATOM     27  C   UNL A   1      33.201  33.890  28.181  1.00  0.00     0.166 A 
ATOM     28  C   UNL A   1      34.420  33.918  28.818  1.00  0.00     0.165 A 
ATOM     29  O   UNL A   1      32.516  35.057  28.335  1.00  0.00    -0.454 OA
ATOM     30  O   UNL A   1      34.656  35.099  29.449  1.00  0.00    -0.454 OA
ATOM     31  C   UNL A   1      33.419  35.792  29.186  1.00  0.00     0.468 C 
ENDBRANCH  22  23
ENDBRANCH  20  22
ENDBRANCH  12  18
ENDBRANCH   8  10
ENDBRANCH   7   8
ENDBRANCH   6   7
ENDBRANCH   5   6
ENDBRANCH   4   5
ENDBRANCH   3   4
ENDBRANCH   2   3
ENDBRANCH   1   2
BRANCH   1  32
ATOM     32  C   UNL A   1      35.776  21.852  26.257  1.00  0.00     0.188 C 
BRANCH  32  33
ATOM     33  C   UNL A   1      36.537  21.712  24.905  1.00  0.00     0.188 C 
BRANCH  33  34
ATOM     34  O   UNL A   1      37.952  21.837  25.003  1.00  0.00    -0.376 OA
BRANCH  34  35
ATOM     35  C   UNL A   1      38.590  22.365  26.156  1.00  0.00     0.202 C 
BRANCH  35  36
ATOM     36  C   UNL A   1      38.468  23.867  26.395  1.00  0.00     0.261 C 
BRANCH  36  37
ATOM     37  O   UNL A   1      39.274  24.312  27.466  1.00  0.00    -0.460 OA
BRANCH  37  38
ATOM     38  C   UNL A   1      39.994  25.415  27.196  1.00  0.00     0.338 C 
ATOM     39  O   UNL A   1      41.030  25.485  26.550  1.00  0.00    -0.246 OA
BRANCH  38  40
ATOM     40  C   UNL A   1      39.353  26.542  27.871  1.00  0.00     0.060 A 
ATOM     41  C   UNL A   1      39.499  27.770  27.230  1.00  0.00     0.016 A 
ATOM     42  C   UNL A   1      39.132  26.412  29.251  1.00  0.00     0.016 A 
ATOM     43  C   UNL A   1      39.828  28.836  28.020  1.00  0.00     0.010 A 
ATOM     44  C   UNL A   1      39.503  27.461  30.033  1.00  0.00     0.010 A 
ATOM     45  C   UNL A   1      39.956  28.612  29.393  1.00  0.00    -0.014 A 
BRANCH  45  46
ATOM     46  C   UNL A   1      40.515  29.660  30.206  1.00  0.00     0.031 A 
ATOM     47  C   UNL A   1      39.459  30.585  30.662  1.00  0.00     0.074 A 
ATOM     48  C   UNL A   1      41.813  29.626  30.562  1.00  0.00     0.049 A 
ATOM     49  N   UNL A   1      39.309  31.830  30.358  1.00  0.00    -0.248 NA
ATOM     50  C   UNL A   1      38.280  29.990  31.326  1.00  0.00     0.031 C 
ATOM     51  C   UNL A   1      42.796  28.564  30.318  1.00  0.00     0.029 A 
ATOM     52  N   UNL A   1      42.506  30.494  31.335  1.00  0.00    -0.354 N 
ATOM     53  C   UNL A   1      38.161  32.226  31.032  1.00  0.00     0.074 A 
ATOM     54  C   UNL A   1      37.448  31.027  31.353  1.00  0.00     0.031 C 
ATOM     55  C   UNL A   1      43.856  28.739  31.141  1.00  0.00     0.029 A 
ATOM     56  C   UNL A   1      43.679  29.980  31.879  1.00  0.00     0.049 A 
ATOM     57  H   UNL A   1      42.205  31.416  31.501  1.00  0.00     0.167 HD
ATOM     58  C   UNL A   1      38.069  33.473  31.560  1.00  0.00     0.034 A 
ATOM     59  C   UNL A   1      44.374  30.497  32.931  1.00  0.00     0.034 A 
ATOM     60  C   UNL A   1      38.993  34.370  30.900  1.00  0.00     0.049 A 
ATOM     61  C   UNL A   1      43.914  31.906  33.085  1.00  0.00     0.074 A 
ATOM     62  C   UNL A   1      39.154  34.774  29.587  1.00  0.00     0.029 A 
ATOM     63  N   UNL A   1      40.185  34.661  31.528  1.00  0.00    -0.354 N 
ATOM     64  N   UNL A   1      44.126  32.828  32.181  1.00  0.00    -0.248 NA
ATOM     65  C   UNL A   1      42.770  32.156  33.955  1.00  0.00     0.031 C 
ATOM     66  C   UNL A   1      40.565  34.819  29.387  1.00  0.00     0.029 A 
ATOM     67  C   UNL A   1      41.194  34.536  30.602  1.00  0.00     0.049 A 
ATOM     68  H   UNL A   1      40.295  34.913  32.473  1.00  0.00     0.167 HD
ATOM     69  C   UNL A   1      42.934  33.533  32.088  1.00  0.00     0.074 A 
ATOM     70  C   UNL A   1      42.160  33.123  33.260  1.00  0.00     0.031 C 
ATOM     71  C   UNL A   1      42.556  34.143  30.922  1.00  0.00     0.034 A 
BRANCH  58  72
ATOM     72  C   UNL A   1      37.472  33.754  32.923  1.00  0.00     0.023 A 
ATOM     73  C   UNL A   1      38.218  33.322  34.029  1.00  0.00     0.031 A 
ATOM     74  C   UNL A   1      36.135  34.139  33.201  1.00  0.00     0.131 A 
ATOM     75  C   UNL A   1      37.616  33.158  35.286  1.00  0.00     0.055 A 
ATOM     76  C   UNL A   1      35.560  34.035  34.469  1.00  0.00     0.041 A 
ATOM     77  F   UNL A   1      35.276  34.561  32.268  1.00  0.00    -0.206 F 
ATOM     78  C   UNL A   1      36.288  33.506  35.515  1.00  0.00     0.022 A 
BRANCH  75  79
ATOM     79  S   UNL A   1      38.556  32.298  36.569  1.00  0.00     0.124 S 
ATOM     80  O   UNL A   1      39.755  31.906  35.836  1.00  0.00    -0.237 OA
ATOM     81  O   UNL A   1      38.723  33.350  37.567  1.00  0.00    -0.237 OA
ATOM     82  O   UNL A   1      37.671  31.202  36.956  1.00  0.00    -0.744 OA
ENDBRANCH  75  79
ENDBRANCH  58  72
BRANCH  59  83
ATOM     83  C   UNL A   1      45.044  29.717  34.016  1.00  0.00     0.023 A 
ATOM     84  C   UNL A   1      44.349  29.083  35.070  1.00  0.00     0.031 A 
ATOM     85  C   UNL A   1      46.420  29.405  33.896  1.00  0.00     0.131 A 
ATOM     86  C   UNL A   1      45.031  28.201  35.948  1.00  0.00     0.055 A 
ATOM     87  C   UNL A   1      47.087  28.540  34.767  1.00  0.00     0.041 A 
ATOM     88  F   UNL A   1      47.151  29.872  32.872  1.00  0.00    -0.206 F 
ATOM     89  C   UNL A   1      46.392  27.928  35.795  1.00  0.00     0.022 A 
BRANCH  86  90
ATOM     90  S   UNL A   1      44.138  27.332  37.283  1.00  0.00     0.124 S 
ATOM     91  O   UNL A   1      44.525  25.942  37.065  1.00  0.00    -0.237 OA
ATOM     92  O   UNL A   1      44.666  27.973  38.481  1.00  0.00    -0.237 OA
ATOM     93  O   UNL A   1      42.732  27.625  37.002  1.00  0.00    -0.744 OA
ENDBRANCH  86  90
ENDBRANCH  59  83
BRANCH  71  94
ATOM     94  C   UNL A   1      43.580  34.250  29.802  1.00  0.00     0.023 A 
ATOM     95  C   UNL A   1      44.022  33.175  28.993  1.00  0.00     0.031 A 
ATOM     96  C   UNL A   1      44.023  35.540  29.464  1.00  0.00     0.131 A 
ATOM     97  C   UNL A   1      44.881  33.420  27.901  1.00  0.00     0.055 A 
ATOM     98  C   UNL A   1      44.852  35.780  28.370  1.00  0.00     0.041 A 
ATOM     99  F   UNL A   1      43.618  36.606  30.174  1.00  0.00    -0.206 F 
ATOM    100  C   UNL A   1      45.289  34.720  27.586  1.00  0.00     0.022 A 
BRANCH  97 101
ATOM    101  S   UNL A   1      45.502  32.049  26.869  1.00  0.00     0.124 S 
ATOM    102  O   UNL A   1      46.325  32.720  25.869  1.00  0.00    -0.237 OA
ATOM    103  O   UNL A   1      46.218  31.224  27.839  1.00  0.00    -0.237 OA
ATOM    104  O   UNL A   1      44.279  31.439  26.342  1.00  0.00    -0.744 OA
ENDBRANCH  97 101
ENDBRANCH  71  94
ENDBRANCH  45  46
ENDBRANCH  38  40
ENDBRANCH  37  38
ENDBRANCH  36  37
ENDBRANCH  35  36
ENDBRANCH  34  35
ENDBRANCH  33  34
ENDBRANCH  32  33
ENDBRANCH   1  32
TORSDOF 27
ENDMDL
MODEL 3
REMARK VINA RESULT:      -8.8      5.882     12.057
REMARK SMILES Nc1c(C(=O)NCc2ccc3c(c2)OCO3)nsc1C(=O)OCCOCCOCCOCCOC(=O)c1ccc(-c2c3nc(c(-c4cc(S(=O)(=O)[O-])ccc4F)c4ccc([nH]4)c(-c4cc(S(=O)(=O)[O-])ccc4F)c4nc(c(-c5cc(S(=O)(=O)[O-])ccc5F)c5ccc2[nH]5)C=C4)C=C3)cc1
REMARK SMILES IDX 28 1 27 2 26 3 25 4 24 5 23 6 22 7 20 8 21 9 19 10 2 11 3 12
REMARK SMILES IDX 17 13 18 14 1 15 4 18 5 19 6 20 7 22 8 23 9 24 13 25 10 26
REMARK SMILES IDX 12 27 11 28 14 29 16 30 15 31 29 32 30 33 31 34 32 35 33 36
REMARK SMILES IDX 34 37 35 38 36 39 37 40 38 41 99 42 39 43 98 44 40 45 41 46
REMARK SMILES IDX 42 47 92 48 43 49 97 50 91 51 93 52 44 53 96 54 90 55 89 56
REMARK SMILES IDX 45 58 77 59 57 60 76 61 58 62 61 63 75 64 94 65 59 66 60 67
REMARK SMILES IDX 74 69 95 70 62 71 46 72 47 73 55 74 48 75 54 76 56 77 53 78
REMARK SMILES IDX 49 79 50 80 51 81 52 82 78 83 79 84 87 85 80 86 86 87 88 88
REMARK SMILES IDX 85 89 81 90 82 91 83 92 84 93 63 94 64 95 72 96 65 97 71 98
REMARK SMILES IDX 73 99 70 100 66 101 67 102 68 103 69 104
REMARK H PARENT 1 16 1 17 6 21 93 57 61 68
REMARK Flexibility Score: inf
ROOT
ATOM      1  O   UNL A   1      39.976  33.462  30.949  1.00  0.00    -0.377 OA
ENDROOT
BRANCH   1   2
ATOM      2  C   UNL A   1      41.198  33.461  30.232  1.00  0.00     0.188 C 
BRANCH   2   3
ATOM      3  C   UNL A   1      42.018  34.761  30.377  1.00  0.00     0.188 C 
BRANCH   3   4
ATOM      4  O   UNL A   1      42.474  35.246  31.635  1.00  0.00    -0.376 OA
BRANCH   4   5
ATOM      5  C   UNL A   1      43.831  35.206  32.040  1.00  0.00     0.202 C 
BRANCH   5   6
ATOM      6  C   UNL A   1      44.496  33.924  32.559  1.00  0.00     0.261 C 
BRANCH   6   7
ATOM      7  O   UNL A   1      43.947  33.376  33.755  1.00  0.00    -0.459 OA
BRANCH   7   8
ATOM      8  C   UNL A   1      43.826  34.241  34.797  1.00  0.00     0.352 C 
ATOM      9  O   UNL A   1      44.662  35.102  35.074  1.00  0.00    -0.245 OA
BRANCH   8  10
ATOM     10  C   UNL A   1      42.556  34.053  35.454  1.00  0.00     0.156 A 
ATOM     11  C   UNL A   1      41.241  33.967  35.005  1.00  0.00     0.091 A 
ATOM     12  C   UNL A   1      40.322  33.764  36.118  1.00  0.00     0.165 A 
ATOM     13  N   UNL A   1      40.922  33.891  37.316  1.00  0.00    -0.184 NA
ATOM     14  S   UNL A   1      42.538  34.070  37.155  1.00  0.00    -0.026 S 
BRANCH  11  15
ATOM     15  N   UNL A   1      40.935  34.135  33.694  1.00  0.00    -0.395 N 
ATOM     16  H   UNL A   1      40.683  33.357  33.144  1.00  0.00     0.156 HD
ATOM     17  H   UNL A   1      40.965  35.032  33.292  1.00  0.00     0.156 HD
ENDBRANCH  11  15
BRANCH  12  18
ATOM     18  C   UNL A   1      38.873  33.468  36.208  1.00  0.00     0.273 C 
ATOM     19  O   UNL A   1      38.155  34.037  37.042  1.00  0.00    -0.267 OA
ATOM     20  N   UNL A   1      38.223  32.486  35.507  1.00  0.00    -0.347 N 
ATOM     21  H   UNL A   1      37.357  32.248  35.910  1.00  0.00     0.164 HD
BRANCH  20  22
ATOM     22  C   UNL A   1      38.507  31.720  34.322  1.00  0.00     0.152 C 
BRANCH  22  23
ATOM     23  C   UNL A   1      39.518  30.613  34.431  1.00  0.00    -0.025 A 
ATOM     24  C   UNL A   1      39.868  29.946  33.226  1.00  0.00     0.009 A 
ATOM     25  C   UNL A   1      40.112  30.202  35.634  1.00  0.00     0.056 A 
ATOM     26  C   UNL A   1      40.770  28.882  33.210  1.00  0.00     0.051 A 
ATOM     27  C   UNL A   1      40.995  29.140  35.589  1.00  0.00     0.166 A 
ATOM     28  C   UNL A   1      41.311  28.498  34.413  1.00  0.00     0.165 A 
ATOM     29  O   UNL A   1      41.638  28.594  36.658  1.00  0.00    -0.454 OA
ATOM     30  O   UNL A   1      42.187  27.473  34.594  1.00  0.00    -0.454 OA
ATOM     31  C   UNL A   1      42.342  27.505  36.026  1.00  0.00     0.468 C 
ENDBRANCH  22  23
ENDBRANCH  20  22
ENDBRANCH  12  18
ENDBRANCH   8  10
ENDBRANCH   7   8
ENDBRANCH   6   7
ENDBRANCH   5   6
ENDBRANCH   4   5
ENDBRANCH   3   4
ENDBRANCH   2   3
ENDBRANCH   1   2
BRANCH   1  32
ATOM     32  C   UNL A   1      39.065  34.501  30.577  1.00  0.00     0.188 C 
BRANCH  32  33
ATOM     33  C   UNL A   1      38.449  34.483  29.146  1.00  0.00     0.188 C 
BRANCH  33  34
ATOM     34  O   UNL A   1      37.772  33.277  28.805  1.00  0.00    -0.376 OA
BRANCH  34  35
ATOM     35  C   UNL A   1      36.460  32.987  29.262  1.00  0.00     0.202 C 
BRANCH  35  36
ATOM     36  C   UNL A   1      36.317  31.916  30.340  1.00  0.00     0.261 C 
BRANCH  36  37
ATOM     37  O   UNL A   1      37.455  31.085  30.431  1.00  0.00    -0.460 OA
BRANCH  37  38
ATOM     38  C   UNL A   1      37.202  29.847  30.889  1.00  0.00     0.338 C 
ATOM     39  O   UNL A   1      36.615  29.543  31.918  1.00  0.00    -0.246 OA
BRANCH  38  40
ATOM     40  C   UNL A   1      37.813  28.896  29.964  1.00  0.00     0.060 A 
ATOM     41  C   UNL A   1      38.237  27.703  30.545  1.00  0.00     0.016 A 
ATOM     42  C   UNL A   1      38.367  29.422  28.787  1.00  0.00     0.016 A 
ATOM     43  C   UNL A   1      39.475  27.251  30.179  1.00  0.00     0.010 A 
ATOM     44  C   UNL A   1      39.617  29.000  28.455  1.00  0.00     0.010 A 
ATOM     45  C   UNL A   1      40.187  28.000  29.239  1.00  0.00    -0.014 A 
BRANCH  45  46
ATOM     46  C   UNL A   1      41.569  27.669  29.010  1.00  0.00     0.031 A 
ATOM     47  C   UNL A   1      41.688  26.355  28.347  1.00  0.00     0.074 A 
ATOM     48  C   UNL A   1      42.536  28.570  29.269  1.00  0.00     0.049 A 
ATOM     49  N   UNL A   1      42.212  25.275  28.817  1.00  0.00    -0.248 NA
ATOM     50  C   UNL A   1      40.895  26.145  27.117  1.00  0.00     0.031 C 
ATOM     51  C   UNL A   1      42.389  29.970  29.684  1.00  0.00     0.029 A 
ATOM     52  N   UNL A   1      43.873  28.456  29.093  1.00  0.00    -0.354 N 
ATOM     53  C   UNL A   1      42.051  24.332  27.809  1.00  0.00     0.074 A 
ATOM     54  C   UNL A   1      41.020  24.831  26.952  1.00  0.00     0.031 C 
ATOM     55  C   UNL A   1      43.557  30.622  29.477  1.00  0.00     0.029 A 
ATOM     56  C   UNL A   1      44.557  29.666  29.029  1.00  0.00     0.049 A 
ATOM     57  H   UNL A   1      44.328  27.586  29.018  1.00  0.00     0.167 HD
ATOM     58  C   UNL A   1      43.009  23.398  27.583  1.00  0.00     0.034 A 
ATOM     59  C   UNL A   1      45.813  29.857  28.535  1.00  0.00     0.034 A 
ATOM     60  C   UNL A   1      43.828  23.217  28.763  1.00  0.00     0.049 A 
ATOM     61  C   UNL A   1      46.460  28.515  28.506  1.00  0.00     0.074 A 
ATOM     62  C   UNL A   1      43.552  22.838  30.063  1.00  0.00     0.029 A 
ATOM     63  N   UNL A   1      45.057  23.840  28.808  1.00  0.00    -0.354 N 
ATOM     64  N   UNL A   1      46.728  27.830  29.587  1.00  0.00    -0.248 NA
ATOM     65  C   UNL A   1      46.306  27.713  27.297  1.00  0.00     0.031 C 
ATOM     66  C   UNL A   1      44.373  23.675  30.873  1.00  0.00     0.029 A 
ATOM     67  C   UNL A   1      45.175  24.454  30.033  1.00  0.00     0.049 A 
ATOM     68  H   UNL A   1      45.730  23.845  28.091  1.00  0.00     0.167 HD
ATOM     69  C   UNL A   1      46.365  26.522  29.294  1.00  0.00     0.074 A 
ATOM     70  C   UNL A   1      46.183  26.497  27.842  1.00  0.00     0.031 C 
ATOM     71  C   UNL A   1      45.945  25.663  30.273  1.00  0.00     0.034 A 
BRANCH  58  72
ATOM     72  C   UNL A   1      43.453  22.986  26.195  1.00  0.00     0.023 A 
ATOM     73  C   UNL A   1      43.444  21.609  25.923  1.00  0.00     0.031 A 
ATOM     74  C   UNL A   1      44.139  23.790  25.249  1.00  0.00     0.131 A 
ATOM     75  C   UNL A   1      44.189  21.080  24.858  1.00  0.00     0.055 A 
ATOM     76  C   UNL A   1      44.826  23.263  24.154  1.00  0.00     0.041 A 
ATOM     77  F   UNL A   1      44.264  25.117  25.357  1.00  0.00    -0.206 F 
ATOM     78  C   UNL A   1      44.887  21.896  23.973  1.00  0.00     0.022 A 
BRANCH  75  79
ATOM     79  S   UNL A   1      44.383  19.285  24.772  1.00  0.00     0.124 S 
ATOM     80  O   UNL A   1      45.022  19.123  23.472  1.00  0.00    -0.237 OA
ATOM     81  O   UNL A   1      45.217  19.023  25.940  1.00  0.00    -0.237 OA
ATOM     82  O   UNL A   1      43.010  18.794  24.861  1.00  0.00    -0.744 OA
ENDBRANCH  75  79
ENDBRANCH  58  72
BRANCH  59  83
ATOM     83  C   UNL A   1      46.273  31.022  27.719  1.00  0.00     0.023 A 
ATOM     84  C   UNL A   1      45.431  31.752  26.851  1.00  0.00     0.031 A 
ATOM     85  C   UNL A   1      47.555  31.573  27.960  1.00  0.00     0.131 A 
ATOM     86  C   UNL A   1      45.887  32.960  26.261  1.00  0.00     0.055 A 
ATOM     87  C   UNL A   1      48.000  32.759  27.371  1.00  0.00     0.041 A 
ATOM     88  F   UNL A   1      48.396  31.015  28.844  1.00  0.00    -0.206 F 
ATOM     89  C   UNL A   1      47.164  33.462  26.522  1.00  0.00     0.022 A 
BRANCH  86  90
ATOM     90  S   UNL A   1      44.795  33.946  25.179  1.00  0.00     0.124 S 
ATOM     91  O   UNL A   1      44.042  34.745  26.140  1.00  0.00    -0.237 OA
ATOM     92  O   UNL A   1      45.749  34.664  24.343  1.00  0.00    -0.237 OA
ATOM     93  O   UNL A   1      44.006  32.934  24.476  1.00  0.00    -0.744 OA
ENDBRANCH  86  90
ENDBRANCH  59  83
BRANCH  71  94
ATOM     94  C   UNL A   1      46.123  26.084  31.724  1.00  0.00     0.023 A 
ATOM     95  C   UNL A   1      47.322  25.966  32.469  1.00  0.00     0.031 A 
ATOM     96  C   UNL A   1      45.048  26.758  32.329  1.00  0.00     0.131 A 
ATOM     97  C   UNL A   1      47.402  26.508  33.769  1.00  0.00     0.055 A 
ATOM     98  C   UNL A   1      45.140  27.312  33.604  1.00  0.00     0.041 A 
ATOM     99  F   UNL A   1      43.893  26.928  31.666  1.00  0.00    -0.206 F 
ATOM    100  C   UNL A   1      46.316  27.185  34.332  1.00  0.00     0.022 A 
BRANCH  97 101
ATOM    101  S   UNL A   1      48.919  26.332  34.767  1.00  0.00     0.124 S 
ATOM    102  O   UNL A   1      48.496  25.500  35.887  1.00  0.00    -0.237 OA
ATOM    103  O   UNL A   1      49.847  25.712  33.824  1.00  0.00    -0.237 OA
ATOM    104  O   UNL A   1      49.253  27.712  35.126  1.00  0.00    -0.744 OA
ENDBRANCH  97 101
ENDBRANCH  71  94
ENDBRANCH  45  46
ENDBRANCH  38  40
ENDBRANCH  37  38
ENDBRANCH  36  37
ENDBRANCH  35  36
ENDBRANCH  34  35
ENDBRANCH  33  34
ENDBRANCH  32  33
ENDBRANCH   1  32
TORSDOF 27
ENDMDL
