MODEL 1
REMARK VINA RESULT:      -8.5      0.000      0.000
REMARK SMILES O=C(OCCOCCOCCOCCOC(=O)c1ccc(S(=O)(=O)NC[C@H]2CCCCO2)c(F)c1)c1ccc(-c2c3nc(c(-c4cc(S(=O)(=O)[O-])ccc4F)c4ccc([nH]4)c(-c4cc(S(=O)(=O)[O-])ccc4F)c4nc(c(-c5cc(S(=O)(=O)[O-])ccc5F)c5ccc2[nH]5)C=C4)C=C3)cc1
REMARK SMILES IDX 10 1 9 2 8 3 7 4 6 5 5 6 4 7 3 8 2 9 1 10 36 11 37 12 98 13
REMARK SMILES IDX 38 14 97 15 39 16 40 17 41 18 91 19 42 20 96 21 90 22 92 23
REMARK SMILES IDX 43 24 95 25 89 26 88 27 44 29 76 30 56 31 75 32 57 33 60 34
REMARK SMILES IDX 74 35 93 36 58 37 59 38 73 40 94 41 61 42 45 43 46 44 54 45
REMARK SMILES IDX 47 46 53 47 55 48 52 49 48 50 49 51 50 52 51 53 77 54 78 55
REMARK SMILES IDX 86 56 79 57 85 58 87 59 84 60 80 61 81 62 82 63 83 64 62 65
REMARK SMILES IDX 63 66 71 67 64 68 70 69 72 70 69 71 65 72 66 73 67 74 68 75
REMARK SMILES IDX 11 76 12 77 13 78 14 79 15 80 16 81 17 82 18 83 19 84 35 85
REMARK SMILES IDX 20 86 33 87 21 88 34 89 22 90 23 91 24 92 25 93 26 95 27 96
REMARK SMILES IDX 28 97 32 98 29 99 31 100 30 101
REMARK H PARENT 92 28 60 39 25 94
REMARK Flexibility Score: inf
ROOT
ATOM      1  C   UNL A   1      31.437  29.332  24.655  1.00  0.00     0.188 C 
ENDROOT
BRANCH   1   2
ATOM      2  O   UNL A   1      32.807  29.052  24.389  1.00  0.00    -0.377 OA
BRANCH   2   3
ATOM      3  C   UNL A   1      33.558  28.501  25.471  1.00  0.00     0.188 C 
BRANCH   3   4
ATOM      4  C   UNL A   1      33.803  29.451  26.642  1.00  0.00     0.188 C 
BRANCH   4   5
ATOM      5  O   UNL A   1      34.913  29.026  27.425  1.00  0.00    -0.376 OA
BRANCH   5   6
ATOM      6  C   UNL A   1      35.525  29.988  28.277  1.00  0.00     0.202 C 
BRANCH   6   7
ATOM      7  C   UNL A   1      36.734  29.519  29.095  1.00  0.00     0.261 C 
BRANCH   7   8
ATOM      8  O   UNL A   1      36.466  29.302  30.491  1.00  0.00    -0.460 OA
BRANCH   8   9
ATOM      9  C   UNL A   1      37.111  29.818  31.568  1.00  0.00     0.338 C 
ATOM     10  O   UNL A   1      36.553  30.696  32.224  1.00  0.00    -0.246 OA
BRANCH   9  11
ATOM     11  C   UNL A   1      38.464  29.373  32.001  1.00  0.00     0.060 A 
ATOM     12  C   UNL A   1      39.538  30.225  32.233  1.00  0.00     0.016 A 
ATOM     13  C   UNL A   1      38.642  28.008  32.273  1.00  0.00     0.016 A 
ATOM     14  C   UNL A   1      40.800  29.744  32.540  1.00  0.00     0.010 A 
ATOM     15  C   UNL A   1      39.893  27.516  32.661  1.00  0.00     0.010 A 
ATOM     16  C   UNL A   1      40.995  28.381  32.723  1.00  0.00    -0.014 A 
BRANCH  16  17
ATOM     17  C   UNL A   1      42.384  27.880  32.729  1.00  0.00     0.031 A 
ATOM     18  C   UNL A   1      43.001  27.593  34.070  1.00  0.00     0.074 A 
ATOM     19  C   UNL A   1      42.994  27.521  31.584  1.00  0.00     0.049 A 
ATOM     20  N   UNL A   1      44.223  27.244  34.363  1.00  0.00    -0.248 NA
ATOM     21  C   UNL A   1      42.115  27.713  35.244  1.00  0.00     0.031 C 
ATOM     22  C   UNL A   1      42.399  27.606  30.247  1.00  0.00     0.029 A 
ATOM     23  N   UNL A   1      44.226  26.965  31.361  1.00  0.00    -0.354 N 
ATOM     24  C   UNL A   1      44.262  27.155  35.750  1.00  0.00     0.074 A 
ATOM     25  C   UNL A   1      42.950  27.493  36.246  1.00  0.00     0.031 C 
ATOM     26  C   UNL A   1      43.247  27.072  29.352  1.00  0.00     0.029 A 
ATOM     27  C   UNL A   1      44.481  26.697  30.035  1.00  0.00     0.049 A 
ATOM     28  H   UNL A   1      44.867  26.773  32.082  1.00  0.00     0.167 HD
ATOM     29  C   UNL A   1      45.310  26.818  36.533  1.00  0.00     0.034 A 
ATOM     30  C   UNL A   1      45.603  26.242  29.445  1.00  0.00     0.034 A 
ATOM     31  C   UNL A   1      46.589  26.448  35.996  1.00  0.00     0.049 A 
ATOM     32  C   UNL A   1      46.795  25.980  30.329  1.00  0.00     0.074 A 
ATOM     33  C   UNL A   1      47.760  26.158  36.668  1.00  0.00     0.029 A 
ATOM     34  N   UNL A   1      46.851  26.301  34.639  1.00  0.00    -0.354 N 
ATOM     35  N   UNL A   1      46.873  26.042  31.642  1.00  0.00    -0.248 NA
ATOM     36  C   UNL A   1      48.056  25.626  29.666  1.00  0.00     0.031 C 
ATOM     37  C   UNL A   1      48.743  25.882  35.713  1.00  0.00     0.029 A 
ATOM     38  C   UNL A   1      48.170  25.943  34.450  1.00  0.00     0.049 A 
ATOM     39  H   UNL A   1      46.193  26.432  33.919  1.00  0.00     0.167 HD
ATOM     40  C   UNL A   1      48.191  25.740  31.960  1.00  0.00     0.074 A 
ATOM     41  C   UNL A   1      48.868  25.475  30.705  1.00  0.00     0.031 C 
ATOM     42  C   UNL A   1      48.795  25.695  33.173  1.00  0.00     0.034 A 
BRANCH  29  43
ATOM     43  C   UNL A   1      45.123  26.919  38.021  1.00  0.00     0.023 A 
ATOM     44  C   UNL A   1      45.300  28.129  38.715  1.00  0.00     0.031 A 
ATOM     45  C   UNL A   1      44.814  25.767  38.764  1.00  0.00     0.131 A 
ATOM     46  C   UNL A   1      45.215  28.146  40.115  1.00  0.00     0.055 A 
ATOM     47  C   UNL A   1      44.668  25.804  40.151  1.00  0.00     0.041 A 
ATOM     48  F   UNL A   1      44.668  24.580  38.152  1.00  0.00    -0.206 F 
ATOM     49  C   UNL A   1      44.876  26.997  40.836  1.00  0.00     0.022 A 
BRANCH  46  50
ATOM     50  S   UNL A   1      45.639  29.672  40.999  1.00  0.00     0.124 S 
ATOM     51  O   UNL A   1      47.027  29.872  40.590  1.00  0.00    -0.237 OA
ATOM     52  O   UNL A   1      44.676  30.629  40.467  1.00  0.00    -0.237 OA
ATOM     53  O   UNL A   1      45.452  29.317  42.405  1.00  0.00    -0.744 OA
ENDBRANCH  46  50
ENDBRANCH  29  43
BRANCH  30  54
ATOM     54  C   UNL A   1      45.681  26.103  27.960  1.00  0.00     0.023 A 
ATOM     55  C   UNL A   1      46.399  27.017  27.171  1.00  0.00     0.031 A 
ATOM     56  C   UNL A   1      45.023  25.046  27.302  1.00  0.00     0.131 A 
ATOM     57  C   UNL A   1      46.429  26.863  25.774  1.00  0.00     0.055 A 
ATOM     58  C   UNL A   1      45.094  24.872  25.920  1.00  0.00     0.041 A 
ATOM     59  F   UNL A   1      44.314  24.147  28.003  1.00  0.00    -0.206 F 
ATOM     60  C   UNL A   1      45.797  25.787  25.146  1.00  0.00     0.022 A 
BRANCH  57  61
ATOM     61  S   UNL A   1      47.281  28.114  24.772  1.00  0.00     0.124 S 
ATOM     62  O   UNL A   1      47.571  27.369  23.552  1.00  0.00    -0.237 OA
ATOM     63  O   UNL A   1      46.268  29.159  24.663  1.00  0.00    -0.237 OA
ATOM     64  O   UNL A   1      48.447  28.464  25.581  1.00  0.00    -0.744 OA
ENDBRANCH  57  61
ENDBRANCH  30  54
BRANCH  42  65
ATOM     65  C   UNL A   1      50.252  25.338  33.199  1.00  0.00     0.023 A 
ATOM     66  C   UNL A   1      50.663  23.997  33.215  1.00  0.00     0.031 A 
ATOM     67  C   UNL A   1      51.227  26.345  33.108  1.00  0.00     0.131 A 
ATOM     68  C   UNL A   1      52.028  23.694  33.152  1.00  0.00     0.055 A 
ATOM     69  C   UNL A   1      52.582  26.036  33.004  1.00  0.00     0.041 A 
ATOM     70  F   UNL A   1      50.872  27.639  33.079  1.00  0.00    -0.206 F 
ATOM     71  C   UNL A   1      52.988  24.704  33.027  1.00  0.00     0.022 A 
BRANCH  68  72
ATOM     72  S   UNL A   1      52.537  21.957  33.235  1.00  0.00     0.124 S 
ATOM     73  O   UNL A   1      53.706  21.946  32.361  1.00  0.00    -0.237 OA
ATOM     74  O   UNL A   1      52.804  21.771  34.657  1.00  0.00    -0.237 OA
ATOM     75  O   UNL A   1      51.373  21.236  32.725  1.00  0.00    -0.744 OA
ENDBRANCH  68  72
ENDBRANCH  42  65
ENDBRANCH  16  17
ENDBRANCH   9  11
ENDBRANCH   8   9
ENDBRANCH   7   8
ENDBRANCH   6   7
ENDBRANCH   5   6
ENDBRANCH   4   5
ENDBRANCH   3   4
ENDBRANCH   2   3
ENDBRANCH   1   2
BRANCH   1  76
ATOM     76  C   UNL A   1      30.434  29.380  23.478  1.00  0.00     0.188 C 
BRANCH  76  77
ATOM     77  O   UNL A   1      30.098  28.112  22.936  1.00  0.00    -0.376 OA
BRANCH  77  78
ATOM     78  C   UNL A   1      29.524  27.188  23.856  1.00  0.00     0.202 C 
BRANCH  78  79
ATOM     79  C   UNL A   1      30.337  25.900  24.047  1.00  0.00     0.261 C 
BRANCH  79  80
ATOM     80  O   UNL A   1      30.988  25.777  25.325  1.00  0.00    -0.460 OA
BRANCH  80  81
ATOM     81  C   UNL A   1      31.223  24.534  25.808  1.00  0.00     0.338 C 
ATOM     82  O   UNL A   1      30.419  23.772  26.299  1.00  0.00    -0.246 OA
BRANCH  81  83
ATOM     83  C   UNL A   1      32.615  24.178  25.428  1.00  0.00     0.063 A 
ATOM     84  C   UNL A   1      33.004  24.190  24.085  1.00  0.00     0.017 A 
ATOM     85  C   UNL A   1      33.490  23.681  26.409  1.00  0.00     0.056 A 
ATOM     86  C   UNL A   1      34.264  23.707  23.727  1.00  0.00     0.026 A 
ATOM     87  C   UNL A   1      34.742  23.180  26.038  1.00  0.00     0.144 A 
ATOM     88  C   UNL A   1      35.134  23.201  24.708  1.00  0.00     0.118 A 
ATOM     89  F   UNL A   1      35.527  22.652  26.985  1.00  0.00    -0.205 F 
BRANCH  88  90
ATOM     90  S   UNL A   1      36.752  22.699  24.212  1.00  0.00     0.243 S 
ATOM     91  O   UNL A   1      36.835  21.286  24.511  1.00  0.00    -0.207 OA
ATOM     92  O   UNL A   1      36.921  23.157  22.849  1.00  0.00    -0.207 OA
BRANCH  90  93
ATOM     93  N   UNL A   1      37.874  23.551  25.125  1.00  0.00    -0.208 NA
ATOM     94  H   UNL A   1      37.360  24.328  25.537  1.00  0.00     0.141 HD
BRANCH  93  95
ATOM     95  C   UNL A   1      38.654  22.963  26.219  1.00  0.00     0.130 C 
BRANCH  95  96
ATOM     96  C   UNL A   1      39.514  23.958  27.048  1.00  0.00     0.133 C 
ATOM     97  C   UNL A   1      40.760  24.322  26.216  1.00  0.00     0.033 C 
ATOM     98  O   UNL A   1      38.725  25.082  27.411  1.00  0.00    -0.377 OA
ATOM     99  C   UNL A   1      41.462  25.586  26.688  1.00  0.00     0.005 C 
ATOM    100  C   UNL A   1      39.410  26.225  27.892  1.00  0.00     0.160 C 
ATOM    101  C   UNL A   1      40.439  26.693  26.881  1.00  0.00     0.029 C 
ENDBRANCH  95  96
ENDBRANCH  93  95
ENDBRANCH  90  93
ENDBRANCH  88  90
ENDBRANCH  81  83
ENDBRANCH  80  81
ENDBRANCH  79  80
ENDBRANCH  78  79
ENDBRANCH  77  78
ENDBRANCH  76  77
ENDBRANCH   1  76
TORSDOF 27
ENDMDL
MODEL 2
REMARK VINA RESULT:      -8.2      1.902      3.049
REMARK SMILES O=C(OCCOCCOCCOCCOC(=O)c1ccc(S(=O)(=O)NC[C@H]2CCCCO2)c(F)c1)c1ccc(-c2c3nc(c(-c4cc(S(=O)(=O)[O-])ccc4F)c4ccc([nH]4)c(-c4cc(S(=O)(=O)[O-])ccc4F)c4nc(c(-c5cc(S(=O)(=O)[O-])ccc5F)c5ccc2[nH]5)C=C4)C=C3)cc1
REMARK SMILES IDX 10 1 9 2 8 3 7 4 6 5 5 6 4 7 3 8 2 9 1 10 36 11 37 12 98 13
REMARK SMILES IDX 38 14 97 15 39 16 40 17 41 18 91 19 42 20 96 21 90 22 92 23
REMARK SMILES IDX 43 24 95 25 89 26 88 27 44 29 76 30 56 31 75 32 57 33 60 34
REMARK SMILES IDX 74 35 93 36 58 37 59 38 73 40 94 41 61 42 45 43 46 44 54 45
REMARK SMILES IDX 47 46 53 47 55 48 52 49 48 50 49 51 50 52 51 53 77 54 78 55
REMARK SMILES IDX 86 56 79 57 85 58 87 59 84 60 80 61 81 62 82 63 83 64 62 65
REMARK SMILES IDX 63 66 71 67 64 68 70 69 72 70 69 71 65 72 66 73 67 74 68 75
REMARK SMILES IDX 11 76 12 77 13 78 14 79 15 80 16 81 17 82 18 83 19 84 35 85
REMARK SMILES IDX 20 86 33 87 21 88 34 89 22 90 23 91 24 92 25 93 26 95 27 96
REMARK SMILES IDX 28 97 32 98 29 99 31 100 30 101
REMARK H PARENT 92 28 60 39 25 94
REMARK Flexibility Score: inf
ROOT
ATOM      1  C   UNL A   1      31.548  29.436  24.403  1.00  0.00     0.188 C 
ENDROOT
BRANCH   1   2
ATOM      2  O   UNL A   1      32.928  29.145  24.203  1.00  0.00    -0.377 OA
BRANCH   2   3
ATOM      3  C   UNL A   1      33.628  28.612  25.326  1.00  0.00     0.188 C 
BRANCH   3   4
ATOM      4  C   UNL A   1      33.738  29.550  26.527  1.00  0.00     0.188 C 
BRANCH   4   5
ATOM      5  O   UNL A   1      34.771  29.131  27.413  1.00  0.00    -0.376 OA
BRANCH   5   6
ATOM      6  C   UNL A   1      35.275  30.091  28.336  1.00  0.00     0.202 C 
BRANCH   6   7
ATOM      7  C   UNL A   1      36.559  29.719  29.087  1.00  0.00     0.261 C 
BRANCH   7   8
ATOM      8  O   UNL A   1      36.371  29.396  30.475  1.00  0.00    -0.460 OA
BRANCH   8   9
ATOM      9  C   UNL A   1      37.027  29.887  31.556  1.00  0.00     0.338 C 
ATOM     10  O   UNL A   1      36.481  30.758  32.232  1.00  0.00    -0.246 OA
BRANCH   9  11
ATOM     11  C   UNL A   1      38.379  29.422  31.972  1.00  0.00     0.060 A 
ATOM     12  C   UNL A   1      39.452  30.263  32.250  1.00  0.00     0.016 A 
ATOM     13  C   UNL A   1      38.557  28.046  32.179  1.00  0.00     0.016 A 
ATOM     14  C   UNL A   1      40.713  29.768  32.538  1.00  0.00     0.010 A 
ATOM     15  C   UNL A   1      39.807  27.536  32.546  1.00  0.00     0.010 A 
ATOM     16  C   UNL A   1      40.908  28.398  32.655  1.00  0.00    -0.014 A 
BRANCH  16  17
ATOM     17  C   UNL A   1      42.298  27.898  32.642  1.00  0.00     0.031 A 
ATOM     18  C   UNL A   1      42.916  27.564  33.971  1.00  0.00     0.074 A 
ATOM     19  C   UNL A   1      42.907  27.581  31.484  1.00  0.00     0.049 A 
ATOM     20  N   UNL A   1      44.138  27.205  34.250  1.00  0.00    -0.248 NA
ATOM     21  C   UNL A   1      42.031  27.640  35.150  1.00  0.00     0.031 C 
ATOM     22  C   UNL A   1      42.310  27.714  30.151  1.00  0.00     0.029 A 
ATOM     23  N   UNL A   1      44.139  27.034  31.240  1.00  0.00    -0.354 N 
ATOM     24  C   UNL A   1      44.178  27.066  35.633  1.00  0.00     0.074 A 
ATOM     25  C   UNL A   1      42.867  27.385  36.142  1.00  0.00     0.031 C 
ATOM     26  C   UNL A   1      43.158  27.213  29.238  1.00  0.00     0.029 A 
ATOM     27  C   UNL A   1      44.393  26.814  29.905  1.00  0.00     0.049 A 
ATOM     28  H   UNL A   1      44.781  26.817  31.954  1.00  0.00     0.167 HD
ATOM     29  C   UNL A   1      45.228  26.702  36.403  1.00  0.00     0.034 A 
ATOM     30  C   UNL A   1      45.515  26.382  29.298  1.00  0.00     0.034 A 
ATOM     31  C   UNL A   1      46.506  26.352  35.852  1.00  0.00     0.049 A 
ATOM     32  C   UNL A   1      46.708  26.089  30.172  1.00  0.00     0.074 A 
ATOM     33  C   UNL A   1      47.678  26.040  36.512  1.00  0.00     0.029 A 
ATOM     34  N   UNL A   1      46.767  26.255  34.490  1.00  0.00    -0.354 N 
ATOM     35  N   UNL A   1      46.787  26.104  31.486  1.00  0.00    -0.248 NA
ATOM     36  C   UNL A   1      47.968  25.760  29.496  1.00  0.00     0.031 C 
ATOM     37  C   UNL A   1      48.660  25.799  35.547  1.00  0.00     0.029 A 
ATOM     38  C   UNL A   1      48.087  25.905  34.287  1.00  0.00     0.049 A 
ATOM     39  H   UNL A   1      46.109  26.411  33.776  1.00  0.00     0.167 HD
ATOM     40  C   UNL A   1      48.106  25.791  31.792  1.00  0.00     0.074 A 
ATOM     41  C   UNL A   1      48.782  25.572  30.528  1.00  0.00     0.031 C 
ATOM     42  C   UNL A   1      48.711  25.703  33.002  1.00  0.00     0.034 A 
BRANCH  29  43
ATOM     43  C   UNL A   1      45.041  26.749  37.894  1.00  0.00     0.023 A 
ATOM     44  C   UNL A   1      45.273  27.919  38.638  1.00  0.00     0.031 A 
ATOM     45  C   UNL A   1      44.676  25.583  38.587  1.00  0.00     0.131 A 
ATOM     46  C   UNL A   1      45.185  27.882  40.038  1.00  0.00     0.055 A 
ATOM     47  C   UNL A   1      44.529  25.568  39.975  1.00  0.00     0.041 A 
ATOM     48  F   UNL A   1      44.477  24.431  37.927  1.00  0.00    -0.206 F 
ATOM     49  C   UNL A   1      44.791  26.721  40.709  1.00  0.00     0.022 A 
BRANCH  46  50
ATOM     50  S   UNL A   1      45.678  29.348  40.985  1.00  0.00     0.124 S 
ATOM     51  O   UNL A   1      46.218  30.208  39.935  1.00  0.00    -0.237 OA
ATOM     52  O   UNL A   1      44.420  29.783  41.579  1.00  0.00    -0.237 OA
ATOM     53  O   UNL A   1      46.667  28.829  41.929  1.00  0.00    -0.744 OA
ENDBRANCH  46  50
ENDBRANCH  29  43
BRANCH  30  54
ATOM     54  C   UNL A   1      45.592  26.297  27.809  1.00  0.00     0.023 A 
ATOM     55  C   UNL A   1      45.506  25.067  27.136  1.00  0.00     0.031 A 
ATOM     56  C   UNL A   1      45.764  27.458  27.032  1.00  0.00     0.131 A 
ATOM     57  C   UNL A   1      45.604  25.029  25.734  1.00  0.00     0.055 A 
ATOM     58  C   UNL A   1      45.815  27.420  25.638  1.00  0.00     0.041 A 
ATOM     59  F   UNL A   1      45.862  28.661  27.621  1.00  0.00    -0.206 F 
ATOM     60  C   UNL A   1      45.740  26.198  24.981  1.00  0.00     0.022 A 
BRANCH  57  61
ATOM     61  S   UNL A   1      45.589  23.418  24.897  1.00  0.00     0.124 S 
ATOM     62  O   UNL A   1      45.916  22.513  25.992  1.00  0.00    -0.237 OA
ATOM     63  O   UNL A   1      44.222  23.349  24.392  1.00  0.00    -0.237 OA
ATOM     64  O   UNL A   1      46.621  23.557  23.872  1.00  0.00    -0.744 OA
ENDBRANCH  57  61
ENDBRANCH  30  54
BRANCH  42  65
ATOM     65  C   UNL A   1      50.168  25.347  33.014  1.00  0.00     0.023 A 
ATOM     66  C   UNL A   1      50.580  24.009  33.105  1.00  0.00     0.031 A 
ATOM     67  C   UNL A   1      51.140  26.344  32.835  1.00  0.00     0.131 A 
ATOM     68  C   UNL A   1      51.943  23.701  33.027  1.00  0.00     0.055 A 
ATOM     69  C   UNL A   1      52.492  26.028  32.717  1.00  0.00     0.041 A 
ATOM     70  F   UNL A   1      50.784  27.634  32.733  1.00  0.00    -0.206 F 
ATOM     71  C   UNL A   1      52.899  24.699  32.814  1.00  0.00     0.022 A 
BRANCH  68  72
ATOM     72  S   UNL A   1      52.454  21.972  33.207  1.00  0.00     0.124 S 
ATOM     73  O   UNL A   1      52.605  21.853  34.654  1.00  0.00    -0.237 OA
ATOM     74  O   UNL A   1      51.333  21.246  32.622  1.00  0.00    -0.237 OA
ATOM     75  O   UNL A   1      53.699  21.904  32.444  1.00  0.00    -0.744 OA
ENDBRANCH  68  72
ENDBRANCH  42  65
ENDBRANCH  16  17
ENDBRANCH   9  11
ENDBRANCH   8   9
ENDBRANCH   7   8
ENDBRANCH   6   7
ENDBRANCH   5   6
ENDBRANCH   4   5
ENDBRANCH   3   4
ENDBRANCH   2   3
ENDBRANCH   1   2
BRANCH   1  76
ATOM     76  C   UNL A   1      30.589  29.422  23.189  1.00  0.00     0.188 C 
BRANCH  76  77
ATOM     77  O   UNL A   1      30.361  28.136  22.632  1.00  0.00    -0.376 OA
BRANCH  77  78
ATOM     78  C   UNL A   1      29.858  27.159  23.538  1.00  0.00     0.202 C 
BRANCH  78  79
ATOM     79  C   UNL A   1      30.914  26.170  24.050  1.00  0.00     0.261 C 
BRANCH  79  80
ATOM     80  O   UNL A   1      30.946  26.002  25.480  1.00  0.00    -0.460 OA
BRANCH  80  81
ATOM     81  C   UNL A   1      30.822  24.751  25.981  1.00  0.00     0.338 C 
ATOM     82  O   UNL A   1      29.807  24.204  26.354  1.00  0.00    -0.246 OA
BRANCH  81  83
ATOM     83  C   UNL A   1      32.133  24.076  25.790  1.00  0.00     0.063 A 
ATOM     84  C   UNL A   1      33.271  24.546  26.454  1.00  0.00     0.017 A 
ATOM     85  C   UNL A   1      32.251  23.064  24.823  1.00  0.00     0.056 A 
ATOM     86  C   UNL A   1      34.520  24.003  26.150  1.00  0.00     0.026 A 
ATOM     87  C   UNL A   1      33.510  22.540  24.510  1.00  0.00     0.144 A 
ATOM     88  C   UNL A   1      34.638  22.997  25.175  1.00  0.00     0.118 A 
ATOM     89  F   UNL A   1      33.600  21.625  23.538  1.00  0.00    -0.205 F 
BRANCH  88  90
ATOM     90  S   UNL A   1      36.227  22.277  24.906  1.00  0.00     0.243 S 
ATOM     91  O   UNL A   1      36.412  22.257  23.471  1.00  0.00    -0.207 OA
ATOM     92  O   UNL A   1      37.154  23.010  25.740  1.00  0.00    -0.207 OA
BRANCH  90  93
ATOM     93  N   UNL A   1      36.207  20.710  25.508  1.00  0.00    -0.208 NA
ATOM     94  H   UNL A   1      35.349  20.636  26.054  1.00  0.00     0.141 HD
BRANCH  93  95
ATOM     95  C   UNL A   1      36.249  19.510  24.667  1.00  0.00     0.130 C 
BRANCH  95  96
ATOM     96  C   UNL A   1      35.103  18.485  24.892  1.00  0.00     0.133 C 
ATOM     97  C   UNL A   1      33.836  19.263  25.299  1.00  0.00     0.033 C 
ATOM     98  O   UNL A   1      34.933  17.695  23.723  1.00  0.00    -0.377 OA
ATOM     99  C   UNL A   1      32.550  18.469  25.134  1.00  0.00     0.005 C 
ATOM    100  C   UNL A   1      33.745  16.931  23.626  1.00  0.00     0.160 C 
ATOM    101  C   UNL A   1      32.526  17.823  23.759  1.00  0.00     0.029 C 
ENDBRANCH  95  96
ENDBRANCH  93  95
ENDBRANCH  90  93
ENDBRANCH  88  90
ENDBRANCH  81  83
ENDBRANCH  80  81
ENDBRANCH  79  80
ENDBRANCH  78  79
ENDBRANCH  77  78
ENDBRANCH  76  77
ENDBRANCH   1  76
TORSDOF 27
ENDMDL
MODEL 3
REMARK VINA RESULT:      -8.1      7.915     11.258
REMARK SMILES O=C(OCCOCCOCCOCCOC(=O)c1ccc(S(=O)(=O)NC[C@H]2CCCCO2)c(F)c1)c1ccc(-c2c3nc(c(-c4cc(S(=O)(=O)[O-])ccc4F)c4ccc([nH]4)c(-c4cc(S(=O)(=O)[O-])ccc4F)c4nc(c(-c5cc(S(=O)(=O)[O-])ccc5F)c5ccc2[nH]5)C=C4)C=C3)cc1
REMARK SMILES IDX 10 1 9 2 8 3 7 4 6 5 5 6 4 7 3 8 2 9 1 10 36 11 37 12 98 13
REMARK SMILES IDX 38 14 97 15 39 16 40 17 41 18 91 19 42 20 96 21 90 22 92 23
REMARK SMILES IDX 43 24 95 25 89 26 88 27 44 29 76 30 56 31 75 32 57 33 60 34
REMARK SMILES IDX 74 35 93 36 58 37 59 38 73 40 94 41 61 42 45 43 46 44 54 45
REMARK SMILES IDX 47 46 53 47 55 48 52 49 48 50 49 51 50 52 51 53 77 54 78 55
REMARK SMILES IDX 86 56 79 57 85 58 87 59 84 60 80 61 81 62 82 63 83 64 62 65
REMARK SMILES IDX 63 66 71 67 64 68 70 69 72 70 69 71 65 72 66 73 67 74 68 75
REMARK SMILES IDX 11 76 12 77 13 78 14 79 15 80 16 81 17 82 18 83 19 84 35 85
REMARK SMILES IDX 20 86 33 87 21 88 34 89 22 90 23 91 24 92 25 93 26 95 27 96
REMARK SMILES IDX 28 97 32 98 29 99 31 100 30 101
REMARK H PARENT 92 28 60 39 25 94
REMARK Flexibility Score: inf
ROOT
ATOM      1  C   UNL A   1      39.907  27.794  27.871  1.00  0.00     0.188 C 
ENDROOT
BRANCH   1   2
ATOM      2  O   UNL A   1      40.128  27.298  29.188  1.00  0.00    -0.377 OA
BRANCH   2   3
ATOM      3  C   UNL A   1      41.013  28.061  30.006  1.00  0.00     0.188 C 
BRANCH   3   4
ATOM      4  C   UNL A   1      40.415  28.557  31.322  1.00  0.00     0.188 C 
BRANCH   4   5
ATOM      5  O   UNL A   1      40.666  29.946  31.509  1.00  0.00    -0.376 OA
BRANCH   5   6
ATOM      6  C   UNL A   1      39.783  30.665  32.363  1.00  0.00     0.202 C 
BRANCH   6   7
ATOM      7  C   UNL A   1      38.397  31.001  31.800  1.00  0.00     0.261 C 
BRANCH   7   8
ATOM      8  O   UNL A   1      38.033  32.389  31.891  1.00  0.00    -0.460 OA
BRANCH   8   9
ATOM      9  C   UNL A   1      38.023  33.329  30.912  1.00  0.00     0.338 C 
ATOM     10  O   UNL A   1      36.943  33.663  30.426  1.00  0.00    -0.246 OA
BRANCH   9  11
ATOM     11  C   UNL A   1      39.257  33.982  30.394  1.00  0.00     0.060 A 
ATOM     12  C   UNL A   1      39.383  34.536  29.123  1.00  0.00     0.016 A 
ATOM     13  C   UNL A   1      40.336  34.124  31.278  1.00  0.00     0.016 A 
ATOM     14  C   UNL A   1      40.586  35.043  28.664  1.00  0.00     0.010 A 
ATOM     15  C   UNL A   1      41.535  34.706  30.851  1.00  0.00     0.010 A 
ATOM     16  C   UNL A   1      41.683  35.101  29.514  1.00  0.00    -0.014 A 
BRANCH  16  17
ATOM     17  C   UNL A   1      43.009  35.342  28.910  1.00  0.00     0.031 A 
ATOM     18  C   UNL A   1      43.816  34.133  28.527  1.00  0.00     0.074 A 
ATOM     19  C   UNL A   1      43.387  36.583  28.548  1.00  0.00     0.049 A 
ATOM     20  N   UNL A   1      45.037  34.059  28.076  1.00  0.00    -0.248 NA
ATOM     21  C   UNL A   1      43.152  32.823  28.670  1.00  0.00     0.031 C 
ATOM     22  C   UNL A   1      42.585  37.797  28.728  1.00  0.00     0.029 A 
ATOM     23  N   UNL A   1      44.515  37.024  27.909  1.00  0.00    -0.354 N 
ATOM     24  C   UNL A   1      45.300  32.702  27.933  1.00  0.00     0.074 A 
ATOM     25  C   UNL A   1      44.122  31.983  28.351  1.00  0.00     0.031 C 
ATOM     26  C   UNL A   1      43.225  38.834  28.164  1.00  0.00     0.029 A 
ATOM     27  C   UNL A   1      44.522  38.380  27.671  1.00  0.00     0.049 A 
ATOM     28  H   UNL A   1      45.250  36.427  27.642  1.00  0.00     0.167 HD
ATOM     29  C   UNL A   1      46.434  32.116  27.488  1.00  0.00     0.034 A 
ATOM     30  C   UNL A   1      45.489  39.163  27.154  1.00  0.00     0.034 A 
ATOM     31  C   UNL A   1      47.571  32.871  27.042  1.00  0.00     0.049 A 
ATOM     32  C   UNL A   1      46.787  38.500  26.770  1.00  0.00     0.074 A 
ATOM     33  C   UNL A   1      48.810  32.415  26.640  1.00  0.00     0.029 A 
ATOM     34  N   UNL A   1      47.589  34.256  26.926  1.00  0.00    -0.354 N 
ATOM     35  N   UNL A   1      47.088  37.219  26.778  1.00  0.00    -0.248 NA
ATOM     36  C   UNL A   1      47.886  39.375  26.346  1.00  0.00     0.031 C 
ATOM     37  C   UNL A   1      49.594  33.529  26.325  1.00  0.00     0.029 A 
ATOM     38  C   UNL A   1      48.825  34.675  26.477  1.00  0.00     0.049 A 
ATOM     39  H   UNL A   1      46.833  34.851  27.133  1.00  0.00     0.167 HD
ATOM     40  C   UNL A   1      48.412  37.136  26.365  1.00  0.00     0.074 A 
ATOM     41  C   UNL A   1      48.846  38.494  26.096  1.00  0.00     0.031 C 
ATOM     42  C   UNL A   1      49.205  36.044  26.229  1.00  0.00     0.034 A 
BRANCH  29  43
ATOM     43  C   UNL A   1      46.507  30.616  27.548  1.00  0.00     0.023 A 
ATOM     44  C   UNL A   1      46.124  29.807  26.465  1.00  0.00     0.031 A 
ATOM     45  C   UNL A   1      46.918  29.986  28.735  1.00  0.00     0.131 A 
ATOM     46  C   UNL A   1      46.113  28.411  26.609  1.00  0.00     0.055 A 
ATOM     47  C   UNL A   1      46.965  28.596  28.852  1.00  0.00     0.041 A 
ATOM     48  F   UNL A   1      47.261  30.713  29.810  1.00  0.00    -0.206 F 
ATOM     49  C   UNL A   1      46.554  27.800  27.787  1.00  0.00     0.022 A 
BRANCH  46  50
ATOM     50  S   UNL A   1      45.431  27.398  25.269  1.00  0.00     0.124 S 
ATOM     51  O   UNL A   1      44.030  27.815  25.269  1.00  0.00    -0.237 OA
ATOM     52  O   UNL A   1      46.218  27.818  24.116  1.00  0.00    -0.237 OA
ATOM     53  O   UNL A   1      45.669  26.028  25.719  1.00  0.00    -0.744 OA
ENDBRANCH  46  50
ENDBRANCH  29  43
BRANCH  30  54
ATOM     54  C   UNL A   1      45.306  40.642  27.065  1.00  0.00     0.023 A 
ATOM     55  C   UNL A   1      44.969  41.272  25.856  1.00  0.00     0.031 A 
ATOM     56  C   UNL A   1      45.476  41.456  28.202  1.00  0.00     0.131 A 
ATOM     57  C   UNL A   1      44.826  42.670  25.811  1.00  0.00     0.055 A 
ATOM     58  C   UNL A   1      45.289  42.838  28.162  1.00  0.00     0.041 A 
ATOM     59  F   UNL A   1      45.807  40.911  29.384  1.00  0.00    -0.206 F 
ATOM     60  C   UNL A   1      44.967  43.454  26.958  1.00  0.00     0.022 A 
BRANCH  57  61
ATOM     61  S   UNL A   1      44.489  43.466  24.214  1.00  0.00     0.124 S 
ATOM     62  O   UNL A   1      44.941  42.447  23.274  1.00  0.00    -0.237 OA
ATOM     63  O   UNL A   1      43.048  43.687  24.281  1.00  0.00    -0.237 OA
ATOM     64  O   UNL A   1      45.304  44.678  24.259  1.00  0.00    -0.744 OA
ENDBRANCH  57  61
ENDBRANCH  30  54
BRANCH  42  65
ATOM     65  C   UNL A   1      50.612  36.275  25.762  1.00  0.00     0.023 A 
ATOM     66  C   UNL A   1      51.687  36.207  26.661  1.00  0.00     0.031 A 
ATOM     67  C   UNL A   1      50.881  36.466  24.398  1.00  0.00     0.131 A 
ATOM     68  C   UNL A   1      52.995  36.341  26.181  1.00  0.00     0.055 A 
ATOM     69  C   UNL A   1      52.187  36.558  23.921  1.00  0.00     0.041 A 
ATOM     70  F   UNL A   1      49.879  36.525  23.506  1.00  0.00    -0.206 F 
ATOM     71  C   UNL A   1      53.253  36.496  24.816  1.00  0.00     0.022 A 
BRANCH  68  72
ATOM     72  S   UNL A   1      54.363  36.309  27.369  1.00  0.00     0.124 S 
ATOM     73  O   UNL A   1      54.872  34.951  27.204  1.00  0.00    -0.237 OA
ATOM     74  O   UNL A   1      55.231  37.377  26.885  1.00  0.00    -0.237 OA
ATOM     75  O   UNL A   1      53.710  36.576  28.649  1.00  0.00    -0.744 OA
ENDBRANCH  68  72
ENDBRANCH  42  65
ENDBRANCH  16  17
ENDBRANCH   9  11
ENDBRANCH   8   9
ENDBRANCH   7   8
ENDBRANCH   6   7
ENDBRANCH   5   6
ENDBRANCH   4   5
ENDBRANCH   3   4
ENDBRANCH   2   3
ENDBRANCH   1   2
BRANCH   1  76
ATOM     76  C   UNL A   1      39.371  29.233  27.686  1.00  0.00     0.188 C 
BRANCH  76  77
ATOM     77  O   UNL A   1      38.459  29.657  28.689  1.00  0.00    -0.376 OA
BRANCH  77  78
ATOM     78  C   UNL A   1      37.108  29.250  28.496  1.00  0.00     0.202 C 
BRANCH  78  79
ATOM     79  C   UNL A   1      36.094  30.403  28.499  1.00  0.00     0.261 C 
BRANCH  79  80
ATOM     80  O   UNL A   1      35.352  30.562  27.275  1.00  0.00    -0.460 OA
BRANCH  80  81
ATOM     81  C   UNL A   1      34.039  30.880  27.359  1.00  0.00     0.338 C 
ATOM     82  O   UNL A   1      33.553  31.876  27.852  1.00  0.00    -0.246 OA
BRANCH  81  83
ATOM     83  C   UNL A   1      33.298  29.887  26.539  1.00  0.00     0.063 A 
ATOM     84  C   UNL A   1      33.872  28.644  26.249  1.00  0.00     0.017 A 
ATOM     85  C   UNL A   1      32.089  30.261  25.931  1.00  0.00     0.056 A 
ATOM     86  C   UNL A   1      33.236  27.783  25.355  1.00  0.00     0.026 A 
ATOM     87  C   UNL A   1      31.469  29.400  25.020  1.00  0.00     0.144 A 
ATOM     88  C   UNL A   1      32.030  28.162  24.740  1.00  0.00     0.118 A 
ATOM     89  F   UNL A   1      30.353  29.811  24.406  1.00  0.00    -0.205 F 
BRANCH  88  90
ATOM     90  S   UNL A   1      31.219  26.992  23.697  1.00  0.00     0.243 S 
ATOM     91  O   UNL A   1      30.048  26.559  24.427  1.00  0.00    -0.207 OA
ATOM     92  O   UNL A   1      31.065  27.632  22.408  1.00  0.00    -0.207 OA
BRANCH  90  93
ATOM     93  N   UNL A   1      32.257  25.698  23.446  1.00  0.00    -0.208 NA
ATOM     94  H   UNL A   1      33.155  25.985  23.834  1.00  0.00     0.141 HD
BRANCH  93  95
ATOM     95  C   UNL A   1      32.017  24.345  23.958  1.00  0.00     0.130 C 
BRANCH  95  96
ATOM     96  C   UNL A   1      33.071  23.274  23.563  1.00  0.00     0.133 C 
ATOM     97  C   UNL A   1      34.423  23.985  23.355  1.00  0.00     0.033 C 
ATOM     98  O   UNL A   1      33.112  22.257  24.555  1.00  0.00    -0.377 OA
ATOM     99  C   UNL A   1      35.621  23.049  23.392  1.00  0.00     0.005 C 
ATOM    100  C   UNL A   1      34.219  21.372  24.529  1.00  0.00     0.160 C 
ATOM    101  C   UNL A   1      35.520  22.146  24.611  1.00  0.00     0.029 C 
ENDBRANCH  95  96
ENDBRANCH  93  95
ENDBRANCH  90  93
ENDBRANCH  88  90
ENDBRANCH  81  83
ENDBRANCH  80  81
ENDBRANCH  79  80
ENDBRANCH  78  79
ENDBRANCH  77  78
ENDBRANCH  76  77
ENDBRANCH   1  76
TORSDOF 27
ENDMDL
