MODEL 1
REMARK VINA RESULT:      -7.8      0.000      0.000
REMARK SMILES Cc1cc(C(=O)N2CCC[C@@H]2C(C)C)sc1/C=C/C(=O)OCCOCCOCCOCCOC(=O)c1ccc(-c2c3nc(c(-c4cc(S(=O)(=O)[O-])ccc4F)c4ccc([nH]4)c(-c4cc(S(=O)(=O)[O-])ccc4F)c4nc(c(-c5cc(S(=O)(=O)[O-])ccc5F)c5ccc2[nH]5)C=C4)C=C3)cc1
REMARK SMILES IDX 26 1 25 2 24 3 23 4 22 5 21 6 19 7 20 8 18 9 17 10 16 11
REMARK SMILES IDX 1 12 2 13 3 14 4 15 15 16 5 17 6 18 7 19 8 20 11 21 9 22
REMARK SMILES IDX 10 23 12 24 13 25 14 26 27 27 28 28 29 29 30 30 31 31 32 32
REMARK SMILES IDX 33 33 34 34 35 35 36 36 37 37 98 38 38 39 97 40 39 41 40 42
REMARK SMILES IDX 41 43 91 44 42 45 96 46 90 47 92 48 43 49 95 50 89 51 88 52
REMARK SMILES IDX 44 54 76 55 56 56 75 57 57 58 60 59 74 60 93 61 58 62 59 63
REMARK SMILES IDX 73 65 94 66 61 67 45 68 46 69 54 70 47 71 53 72 55 73 52 74
REMARK SMILES IDX 48 75 49 76 50 77 51 78 77 79 78 80 86 81 79 82 85 83 87 84
REMARK SMILES IDX 84 85 80 86 81 87 82 88 83 89 62 90 63 91 71 92 64 93 70 94
REMARK SMILES IDX 72 95 69 96 65 97 66 98 67 99 68 100
REMARK H PARENT 92 53 60 64
REMARK Flexibility Score: inf
ROOT
ATOM      1  C   UNL A   1      44.977  19.289  23.980  1.00  0.00     0.188 C 
ENDROOT
BRANCH   1   2
ATOM      2  C   UNL A   1      44.077  18.806  25.133  1.00  0.00     0.188 C 
BRANCH   2   3
ATOM      3  O   UNL A   1      42.731  19.222  25.016  1.00  0.00    -0.376 OA
BRANCH   3   4
ATOM      4  C   UNL A   1      41.874  19.252  26.143  1.00  0.00     0.202 C 
BRANCH   4   5
ATOM      5  C   UNL A   1      41.564  20.527  26.947  1.00  0.00     0.261 C 
BRANCH   5   6
ATOM      6  O   UNL A   1      41.226  21.706  26.214  1.00  0.00    -0.460 OA
BRANCH   6   7
ATOM      7  C   UNL A   1      39.986  22.205  26.367  1.00  0.00     0.330 C 
ATOM      8  O   UNL A   1      38.937  21.615  26.164  1.00  0.00    -0.247 OA
BRANCH   7   9
ATOM      9  C   UNL A   1      40.040  23.551  26.982  1.00  0.00     0.095 C 
ATOM     10  C   UNL A   1      41.141  24.083  27.542  1.00  0.00     0.027 C 
BRANCH  10  11
ATOM     11  C   UNL A   1      41.164  25.374  28.168  1.00  0.00     0.031 A 
ATOM     12  C   UNL A   1      43.653  25.555  28.822  1.00  0.00     0.046 C 
ATOM     13  C   UNL A   1      42.239  26.042  28.752  1.00  0.00    -0.032 A 
ATOM     14  C   UNL A   1      41.856  27.340  29.247  1.00  0.00     0.029 A 
ATOM     15  C   UNL A   1      40.525  27.639  29.041  1.00  0.00     0.093 A 
ATOM     16  S   UNL A   1      39.732  26.318  28.313  1.00  0.00    -0.130 S 
BRANCH  15  17
ATOM     17  C   UNL A   1      39.866  28.926  29.275  1.00  0.00     0.264 C 
ATOM     18  O   UNL A   1      40.004  29.891  28.523  1.00  0.00    -0.268 OA
BRANCH  17  19
ATOM     19  N   UNL A   1      38.957  28.971  30.321  1.00  0.00    -0.335 N 
ATOM     20  C   UNL A   1      37.542  29.094  30.043  1.00  0.00     0.120 C 
ATOM     21  C   UNL A   1      39.176  28.304  31.611  1.00  0.00     0.088 C 
ATOM     22  C   UNL A   1      36.952  29.328  31.411  1.00  0.00     0.024 C 
ATOM     23  C   UNL A   1      37.793  28.416  32.302  1.00  0.00     0.027 C 
BRANCH  21  24
ATOM     24  C   UNL A   1      40.346  28.914  32.440  1.00  0.00     0.005 C 
ATOM     25  C   UNL A   1      39.855  29.652  33.695  1.00  0.00     0.009 C 
ATOM     26  C   UNL A   1      41.352  27.852  32.910  1.00  0.00     0.009 C 
ENDBRANCH  21  24
ENDBRANCH  17  19
ENDBRANCH  15  17
ENDBRANCH  10  11
ENDBRANCH   7   9
ENDBRANCH   6   7
ENDBRANCH   5   6
ENDBRANCH   4   5
ENDBRANCH   3   4
ENDBRANCH   2   3
ENDBRANCH   1   2
BRANCH   1  27
ATOM     27  O   UNL A   1      46.063  20.113  24.368  1.00  0.00    -0.377 OA
BRANCH  27  28
ATOM     28  C   UNL A   1      45.803  21.404  24.922  1.00  0.00     0.188 C 
BRANCH  28  29
ATOM     29  C   UNL A   1      44.939  22.476  24.211  1.00  0.00     0.188 C 
BRANCH  29  30
ATOM     30  O   UNL A   1      45.456  23.798  24.273  1.00  0.00    -0.376 OA
BRANCH  30  31
ATOM     31  C   UNL A   1      45.006  24.632  25.327  1.00  0.00     0.202 C 
BRANCH  31  32
ATOM     32  C   UNL A   1      43.632  25.285  25.122  1.00  0.00     0.261 C 
BRANCH  32  33
ATOM     33  O   UNL A   1      43.526  26.655  25.535  1.00  0.00    -0.460 OA
BRANCH  33  34
ATOM     34  C   UNL A   1      44.654  27.398  25.492  1.00  0.00     0.338 C 
ATOM     35  O   UNL A   1      45.577  27.280  24.702  1.00  0.00    -0.246 OA
BRANCH  34  36
ATOM     36  C   UNL A   1      44.498  28.506  26.456  1.00  0.00     0.060 A 
ATOM     37  C   UNL A   1      43.388  29.355  26.348  1.00  0.00     0.016 A 
ATOM     38  C   UNL A   1      45.439  28.698  27.470  1.00  0.00     0.016 A 
ATOM     39  C   UNL A   1      43.236  30.420  27.237  1.00  0.00     0.010 A 
ATOM     40  C   UNL A   1      45.294  29.774  28.349  1.00  0.00     0.010 A 
ATOM     41  C   UNL A   1      44.209  30.660  28.218  1.00  0.00    -0.014 A 
BRANCH  41  42
ATOM     42  C   UNL A   1      44.205  31.938  28.974  1.00  0.00     0.031 A 
ATOM     43  C   UNL A   1      45.162  33.019  28.548  1.00  0.00     0.074 A 
ATOM     44  C   UNL A   1      43.363  32.146  30.002  1.00  0.00     0.049 A 
ATOM     45  N   UNL A   1      45.398  34.185  29.089  1.00  0.00    -0.248 NA
ATOM     46  C   UNL A   1      45.968  32.735  27.350  1.00  0.00     0.031 C 
ATOM     47  C   UNL A   1      42.356  31.197  30.475  1.00  0.00     0.029 A 
ATOM     48  N   UNL A   1      43.230  33.224  30.842  1.00  0.00    -0.354 N 
ATOM     49  C   UNL A   1      46.382  34.774  28.302  1.00  0.00     0.074 A 
ATOM     50  C   UNL A   1      46.727  33.816  27.273  1.00  0.00     0.031 C 
ATOM     51  C   UNL A   1      41.715  31.734  31.529  1.00  0.00     0.029 A 
ATOM     52  C   UNL A   1      42.296  33.041  31.834  1.00  0.00     0.049 A 
ATOM     53  H   UNL A   1      43.755  34.051  30.743  1.00  0.00     0.167 HD
ATOM     54  C   UNL A   1      46.940  36.004  28.421  1.00  0.00     0.034 A 
ATOM     55  C   UNL A   1      41.970  33.824  32.884  1.00  0.00     0.034 A 
ATOM     56  C   UNL A   1      46.596  36.940  29.463  1.00  0.00     0.049 A 
ATOM     57  C   UNL A   1      42.679  35.149  33.060  1.00  0.00     0.074 A 
ATOM     58  C   UNL A   1      47.094  38.215  29.674  1.00  0.00     0.029 A 
ATOM     59  N   UNL A   1      45.682  36.700  30.480  1.00  0.00    -0.354 N 
ATOM     60  N   UNL A   1      43.606  35.698  32.307  1.00  0.00    -0.248 NA
ATOM     61  C   UNL A   1      42.294  35.960  34.222  1.00  0.00     0.031 C 
ATOM     62  C   UNL A   1      46.545  38.709  30.861  1.00  0.00     0.029 A 
ATOM     63  C   UNL A   1      45.630  37.784  31.342  1.00  0.00     0.049 A 
ATOM     64  H   UNL A   1      45.147  35.877  30.576  1.00  0.00     0.167 HD
ATOM     65  C   UNL A   1      43.883  36.935  32.887  1.00  0.00     0.074 A 
ATOM     66  C   UNL A   1      43.017  37.054  34.041  1.00  0.00     0.031 C 
ATOM     67  C   UNL A   1      44.768  37.890  32.496  1.00  0.00     0.034 A 
BRANCH  54  68
ATOM     68  C   UNL A   1      48.018  36.375  27.430  1.00  0.00     0.023 A 
ATOM     69  C   UNL A   1      49.373  36.077  27.660  1.00  0.00     0.031 A 
ATOM     70  C   UNL A   1      47.688  37.067  26.251  1.00  0.00     0.131 A 
ATOM     71  C   UNL A   1      50.351  36.534  26.766  1.00  0.00     0.055 A 
ATOM     72  C   UNL A   1      48.660  37.442  25.321  1.00  0.00     0.041 A 
ATOM     73  F   UNL A   1      46.417  37.404  25.988  1.00  0.00    -0.206 F 
ATOM     74  C   UNL A   1      50.003  37.190  25.584  1.00  0.00     0.022 A 
BRANCH  71  75
ATOM     75  S   UNL A   1      52.096  36.396  27.247  1.00  0.00     0.124 S 
ATOM     76  O   UNL A   1      52.718  35.997  25.986  1.00  0.00    -0.237 OA
ATOM     77  O   UNL A   1      52.402  37.743  27.712  1.00  0.00    -0.237 OA
ATOM     78  O   UNL A   1      52.086  35.364  28.281  1.00  0.00    -0.744 OA
ENDBRANCH  71  75
ENDBRANCH  54  68
BRANCH  55  79
ATOM     79  C   UNL A   1      40.960  33.369  33.886  1.00  0.00     0.023 A 
ATOM     80  C   UNL A   1      39.584  33.527  33.658  1.00  0.00     0.031 A 
ATOM     81  C   UNL A   1      41.363  32.831  35.123  1.00  0.00     0.131 A 
ATOM     82  C   UNL A   1      38.664  33.196  34.666  1.00  0.00     0.055 A 
ATOM     83  C   UNL A   1      40.440  32.447  36.098  1.00  0.00     0.041 A 
ATOM     84  F   UNL A   1      42.666  32.665  35.400  1.00  0.00    -0.206 F 
ATOM     85  C   UNL A   1      39.081  32.642  35.878  1.00  0.00     0.022 A 
BRANCH  82  86
ATOM     86  S   UNL A   1      36.912  33.597  34.410  1.00  0.00     0.124 S 
ATOM     87  O   UNL A   1      36.378  33.464  35.760  1.00  0.00    -0.237 OA
ATOM     88  O   UNL A   1      36.987  34.952  33.878  1.00  0.00    -0.237 OA
ATOM     89  O   UNL A   1      36.466  32.580  33.459  1.00  0.00    -0.744 OA
ENDBRANCH  82  86
ENDBRANCH  55  79
BRANCH  67  90
ATOM     90  C   UNL A   1      44.801  39.174  33.294  1.00  0.00     0.023 A 
ATOM     91  C   UNL A   1      43.832  40.180  33.131  1.00  0.00     0.031 A 
ATOM     92  C   UNL A   1      45.824  39.393  34.234  1.00  0.00     0.131 A 
ATOM     93  C   UNL A   1      43.939  41.379  33.853  1.00  0.00     0.055 A 
ATOM     94  C   UNL A   1      45.887  40.558  35.000  1.00  0.00     0.041 A 
ATOM     95  F   UNL A   1      46.782  38.472  34.431  1.00  0.00    -0.206 F 
ATOM     96  C   UNL A   1      44.948  41.566  34.802  1.00  0.00     0.022 A 
BRANCH  93  97
ATOM     97  S   UNL A   1      42.802  42.737  33.462  1.00  0.00     0.124 S 
ATOM     98  O   UNL A   1      42.916  42.819  32.010  1.00  0.00    -0.237 OA
ATOM     99  O   UNL A   1      41.530  42.238  33.975  1.00  0.00    -0.237 OA
ATOM    100  O   UNL A   1      43.360  43.873  34.193  1.00  0.00    -0.744 OA
ENDBRANCH  93  97
ENDBRANCH  67  90
ENDBRANCH  41  42
ENDBRANCH  34  36
ENDBRANCH  33  34
ENDBRANCH  32  33
ENDBRANCH  31  32
ENDBRANCH  30  31
ENDBRANCH  29  30
ENDBRANCH  28  29
ENDBRANCH  27  28
ENDBRANCH   1  27
TORSDOF 27
ENDMDL
MODEL 2
REMARK VINA RESULT:      -7.4      3.389     11.978
REMARK SMILES Cc1cc(C(=O)N2CCC[C@@H]2C(C)C)sc1/C=C/C(=O)OCCOCCOCCOCCOC(=O)c1ccc(-c2c3nc(c(-c4cc(S(=O)(=O)[O-])ccc4F)c4ccc([nH]4)c(-c4cc(S(=O)(=O)[O-])ccc4F)c4nc(c(-c5cc(S(=O)(=O)[O-])ccc5F)c5ccc2[nH]5)C=C4)C=C3)cc1
REMARK SMILES IDX 26 1 25 2 24 3 23 4 22 5 21 6 19 7 20 8 18 9 17 10 16 11
REMARK SMILES IDX 1 12 2 13 3 14 4 15 15 16 5 17 6 18 7 19 8 20 11 21 9 22
REMARK SMILES IDX 10 23 12 24 13 25 14 26 27 27 28 28 29 29 30 30 31 31 32 32
REMARK SMILES IDX 33 33 34 34 35 35 36 36 37 37 98 38 38 39 97 40 39 41 40 42
REMARK SMILES IDX 41 43 91 44 42 45 96 46 90 47 92 48 43 49 95 50 89 51 88 52
REMARK SMILES IDX 44 54 76 55 56 56 75 57 57 58 60 59 74 60 93 61 58 62 59 63
REMARK SMILES IDX 73 65 94 66 61 67 45 68 46 69 54 70 47 71 53 72 55 73 52 74
REMARK SMILES IDX 48 75 49 76 50 77 51 78 77 79 78 80 86 81 79 82 85 83 87 84
REMARK SMILES IDX 84 85 80 86 81 87 82 88 83 89 62 90 63 91 71 92 64 93 70 94
REMARK SMILES IDX 72 95 69 96 65 97 66 98 67 99 68 100
REMARK H PARENT 92 53 60 64
REMARK Flexibility Score: inf
ROOT
ATOM      1  C   UNL A   1      42.440  39.917  27.177  1.00  0.00     0.188 C 
ENDROOT
BRANCH   1   2
ATOM      2  C   UNL A   1      42.772  38.445  26.872  1.00  0.00     0.188 C 
BRANCH   2   3
ATOM      3  O   UNL A   1      42.103  37.525  27.712  1.00  0.00    -0.376 OA
BRANCH   3   4
ATOM      4  C   UNL A   1      42.035  36.149  27.384  1.00  0.00     0.202 C 
BRANCH   4   5
ATOM      5  C   UNL A   1      42.671  35.538  26.121  1.00  0.00     0.261 C 
BRANCH   5   6
ATOM      6  O   UNL A   1      43.131  34.188  26.199  1.00  0.00    -0.460 OA
BRANCH   6   7
ATOM      7  C   UNL A   1      44.356  33.916  25.713  1.00  0.00     0.330 C 
ATOM      8  O   UNL A   1      44.617  33.180  24.775  1.00  0.00    -0.247 OA
BRANCH   7   9
ATOM      9  C   UNL A   1      45.376  34.763  26.372  1.00  0.00     0.095 C 
ATOM     10  C   UNL A   1      46.220  35.579  25.717  1.00  0.00     0.027 C 
BRANCH  10  11
ATOM     11  C   UNL A   1      47.228  36.364  26.370  1.00  0.00     0.031 A 
ATOM     12  C   UNL A   1      49.310  35.739  24.981  1.00  0.00     0.046 C 
ATOM     13  C   UNL A   1      48.590  36.448  26.087  1.00  0.00    -0.032 A 
ATOM     14  C   UNL A   1      49.261  37.377  26.959  1.00  0.00     0.029 A 
ATOM     15  C   UNL A   1      48.424  37.977  27.876  1.00  0.00     0.093 A 
ATOM     16  S   UNL A   1      46.844  37.358  27.722  1.00  0.00    -0.130 S 
BRANCH  15  17
ATOM     17  C   UNL A   1      48.757  39.077  28.784  1.00  0.00     0.264 C 
ATOM     18  O   UNL A   1      49.274  40.126  28.397  1.00  0.00    -0.268 OA
BRANCH  17  19
ATOM     19  N   UNL A   1      48.334  38.941  30.097  1.00  0.00    -0.335 N 
ATOM     20  C   UNL A   1      47.273  39.785  30.605  1.00  0.00     0.120 C 
ATOM     21  C   UNL A   1      48.387  37.673  30.836  1.00  0.00     0.088 C 
ATOM     22  C   UNL A   1      47.281  39.479  32.081  1.00  0.00     0.024 C 
ATOM     23  C   UNL A   1      47.564  37.978  32.114  1.00  0.00     0.027 C 
BRANCH  21  24
ATOM     24  C   UNL A   1      49.836  37.177  31.123  1.00  0.00     0.005 C 
ATOM     25  C   UNL A   1      50.132  37.066  32.626  1.00  0.00     0.009 C 
ATOM     26  C   UNL A   1      50.118  35.797  30.507  1.00  0.00     0.009 C 
ENDBRANCH  21  24
ENDBRANCH  17  19
ENDBRANCH  15  17
ENDBRANCH  10  11
ENDBRANCH   7   9
ENDBRANCH   6   7
ENDBRANCH   5   6
ENDBRANCH   4   5
ENDBRANCH   3   4
ENDBRANCH   2   3
ENDBRANCH   1   2
BRANCH   1  27
ATOM     27  O   UNL A   1      43.019  40.432  28.363  1.00  0.00    -0.377 OA
BRANCH  27  28
ATOM     28  C   UNL A   1      44.387  40.848  28.355  1.00  0.00     0.188 C 
BRANCH  28  29
ATOM     29  C   UNL A   1      44.830  42.317  28.569  1.00  0.00     0.188 C 
BRANCH  29  30
ATOM     30  O   UNL A   1      45.020  42.692  29.926  1.00  0.00    -0.376 OA
BRANCH  30  31
ATOM     31  C   UNL A   1      43.874  42.763  30.756  1.00  0.00     0.202 C 
BRANCH  31  32
ATOM     32  C   UNL A   1      43.960  41.994  32.081  1.00  0.00     0.261 C 
BRANCH  32  33
ATOM     33  O   UNL A   1      43.317  40.711  32.100  1.00  0.00    -0.460 OA
BRANCH  33  34
ATOM     34  C   UNL A   1      43.634  39.882  33.120  1.00  0.00     0.338 C 
ATOM     35  O   UNL A   1      43.662  40.162  34.308  1.00  0.00    -0.246 OA
BRANCH  34  36
ATOM     36  C   UNL A   1      43.760  38.519  32.566  1.00  0.00     0.060 A 
ATOM     37  C   UNL A   1      43.814  38.347  31.176  1.00  0.00     0.016 A 
ATOM     38  C   UNL A   1      43.840  37.415  33.418  1.00  0.00     0.016 A 
ATOM     39  C   UNL A   1      43.913  37.064  30.635  1.00  0.00     0.010 A 
ATOM     40  C   UNL A   1      43.922  36.130  32.875  1.00  0.00     0.010 A 
ATOM     41  C   UNL A   1      43.926  35.946  31.481  1.00  0.00    -0.014 A 
BRANCH  41  42
ATOM     42  C   UNL A   1      43.745  34.584  30.916  1.00  0.00     0.031 A 
ATOM     43  C   UNL A   1      44.930  33.922  30.263  1.00  0.00     0.074 A 
ATOM     44  C   UNL A   1      42.566  33.941  30.990  1.00  0.00     0.049 A 
ATOM     45  N   UNL A   1      45.004  32.777  29.637  1.00  0.00    -0.248 NA
ATOM     46  C   UNL A   1      46.199  34.663  30.322  1.00  0.00     0.031 C 
ATOM     47  C   UNL A   1      41.363  34.456  31.642  1.00  0.00     0.029 A 
ATOM     48  N   UNL A   1      42.186  32.714  30.504  1.00  0.00    -0.354 N 
ATOM     49  C   UNL A   1      46.327  32.661  29.222  1.00  0.00     0.074 A 
ATOM     50  C   UNL A   1      47.005  33.872  29.632  1.00  0.00     0.031 C 
ATOM     51  C   UNL A   1      40.375  33.554  31.504  1.00  0.00     0.029 A 
ATOM     52  C   UNL A   1      40.860  32.421  30.717  1.00  0.00     0.049 A 
ATOM     53  H   UNL A   1      42.806  32.103  30.044  1.00  0.00     0.167 HD
ATOM     54  C   UNL A   1      46.923  31.633  28.569  1.00  0.00     0.034 A 
ATOM     55  C   UNL A   1      40.118  31.374  30.298  1.00  0.00     0.034 A 
ATOM     56  C   UNL A   1      46.228  30.440  28.153  1.00  0.00     0.049 A 
ATOM     57  C   UNL A   1      40.778  30.287  29.479  1.00  0.00     0.074 A 
ATOM     58  C   UNL A   1      46.735  29.334  27.490  1.00  0.00     0.029 A 
ATOM     59  N   UNL A   1      44.873  30.199  28.342  1.00  0.00    -0.354 N 
ATOM     60  N   UNL A   1      42.031  30.185  29.096  1.00  0.00    -0.248 NA
ATOM     61  C   UNL A   1      39.925  29.174  29.042  1.00  0.00     0.031 C 
ATOM     62  C   UNL A   1      45.674  28.469  27.206  1.00  0.00     0.029 A 
ATOM     63  C   UNL A   1      44.520  28.985  27.775  1.00  0.00     0.049 A 
ATOM     64  H   UNL A   1      44.253  30.805  28.811  1.00  0.00     0.167 HD
ATOM     65  C   UNL A   1      42.120  28.976  28.406  1.00  0.00     0.074 A 
ATOM     66  C   UNL A   1      40.799  28.383  28.439  1.00  0.00     0.031 C 
ATOM     67  C   UNL A   1      43.197  28.405  27.807  1.00  0.00     0.034 A 
BRANCH  54  68
ATOM     68  C   UNL A   1      48.384  31.789  28.217  1.00  0.00     0.023 A 
ATOM     69  C   UNL A   1      49.406  31.385  29.093  1.00  0.00     0.031 A 
ATOM     70  C   UNL A   1      48.759  32.381  26.997  1.00  0.00     0.131 A 
ATOM     71  C   UNL A   1      50.746  31.647  28.773  1.00  0.00     0.055 A 
ATOM     72  C   UNL A   1      50.098  32.559  26.646  1.00  0.00     0.041 A 
ATOM     73  F   UNL A   1      47.829  32.812  26.131  1.00  0.00    -0.206 F 
ATOM     74  C   UNL A   1      51.102  32.205  27.543  1.00  0.00     0.022 A 
BRANCH  71  75
ATOM     75  S   UNL A   1      52.008  31.390  30.051  1.00  0.00     0.124 S 
ATOM     76  O   UNL A   1      52.445  32.760  30.313  1.00  0.00    -0.237 OA
ATOM     77  O   UNL A   1      51.251  30.746  31.117  1.00  0.00    -0.237 OA
ATOM     78  O   UNL A   1      53.000  30.544  29.389  1.00  0.00    -0.744 OA
ENDBRANCH  71  75
ENDBRANCH  54  68
BRANCH  55  79
ATOM     79  C   UNL A   1      38.655  31.312  30.598  1.00  0.00     0.023 A 
ATOM     80  C   UNL A   1      37.718  31.986  29.799  1.00  0.00     0.031 A 
ATOM     81  C   UNL A   1      38.181  30.631  31.734  1.00  0.00     0.131 A 
ATOM     82  C   UNL A   1      36.365  32.004  30.171  1.00  0.00     0.055 A 
ATOM     83  C   UNL A   1      36.825  30.602  32.066  1.00  0.00     0.041 A 
ATOM     84  F   UNL A   1      39.032  29.977  32.540  1.00  0.00    -0.206 F 
ATOM     85  C   UNL A   1      35.909  31.304  31.289  1.00  0.00     0.022 A 
BRANCH  82  86
ATOM     86  S   UNL A   1      35.217  33.045  29.226  1.00  0.00     0.124 S 
ATOM     87  O   UNL A   1      36.082  34.147  28.819  1.00  0.00    -0.237 OA
ATOM     88  O   UNL A   1      34.790  32.139  28.166  1.00  0.00    -0.237 OA
ATOM     89  O   UNL A   1      34.186  33.388  30.203  1.00  0.00    -0.744 OA
ENDBRANCH  82  86
ENDBRANCH  55  79
BRANCH  67  90
ATOM     90  C   UNL A   1      43.004  27.039  27.186  1.00  0.00     0.023 A 
ATOM     91  C   UNL A   1      43.185  25.854  27.919  1.00  0.00     0.031 A 
ATOM     92  C   UNL A   1      42.631  26.926  25.834  1.00  0.00     0.131 A 
ATOM     93  C   UNL A   1      43.050  24.610  27.284  1.00  0.00     0.055 A 
ATOM     94  C   UNL A   1      42.430  25.687  25.225  1.00  0.00     0.041 A 
ATOM     95  F   UNL A   1      42.448  28.023  25.080  1.00  0.00    -0.206 F 
ATOM     96  C   UNL A   1      42.654  24.519  25.946  1.00  0.00     0.022 A 
BRANCH  93  97
ATOM     97  S   UNL A   1      43.502  23.109  28.197  1.00  0.00     0.124 S 
ATOM     98  O   UNL A   1      43.284  22.069  27.197  1.00  0.00    -0.237 OA
ATOM     99  O   UNL A   1      44.893  23.368  28.556  1.00  0.00    -0.237 OA
ATOM    100  O   UNL A   1      42.565  23.095  29.320  1.00  0.00    -0.744 OA
ENDBRANCH  93  97
ENDBRANCH  67  90
ENDBRANCH  41  42
ENDBRANCH  34  36
ENDBRANCH  33  34
ENDBRANCH  32  33
ENDBRANCH  31  32
ENDBRANCH  30  31
ENDBRANCH  29  30
ENDBRANCH  28  29
ENDBRANCH  27  28
ENDBRANCH   1  27
TORSDOF 27
ENDMDL
MODEL 3
REMARK VINA RESULT:      -7.0      3.467     12.273
REMARK SMILES Cc1cc(C(=O)N2CCC[C@@H]2C(C)C)sc1/C=C/C(=O)OCCOCCOCCOCCOC(=O)c1ccc(-c2c3nc(c(-c4cc(S(=O)(=O)[O-])ccc4F)c4ccc([nH]4)c(-c4cc(S(=O)(=O)[O-])ccc4F)c4nc(c(-c5cc(S(=O)(=O)[O-])ccc5F)c5ccc2[nH]5)C=C4)C=C3)cc1
REMARK SMILES IDX 26 1 25 2 24 3 23 4 22 5 21 6 19 7 20 8 18 9 17 10 16 11
REMARK SMILES IDX 1 12 2 13 3 14 4 15 15 16 5 17 6 18 7 19 8 20 11 21 9 22
REMARK SMILES IDX 10 23 12 24 13 25 14 26 27 27 28 28 29 29 30 30 31 31 32 32
REMARK SMILES IDX 33 33 34 34 35 35 36 36 37 37 98 38 38 39 97 40 39 41 40 42
REMARK SMILES IDX 41 43 91 44 42 45 96 46 90 47 92 48 43 49 95 50 89 51 88 52
REMARK SMILES IDX 44 54 76 55 56 56 75 57 57 58 60 59 74 60 93 61 58 62 59 63
REMARK SMILES IDX 73 65 94 66 61 67 45 68 46 69 54 70 47 71 53 72 55 73 52 74
REMARK SMILES IDX 48 75 49 76 50 77 51 78 77 79 78 80 86 81 79 82 85 83 87 84
REMARK SMILES IDX 84 85 80 86 81 87 82 88 83 89 62 90 63 91 71 92 64 93 70 94
REMARK SMILES IDX 72 95 69 96 65 97 66 98 67 99 68 100
REMARK H PARENT 92 53 60 64
REMARK Flexibility Score: inf
ROOT
ATOM      1  C   UNL A   1      42.236  39.932  27.571  1.00  0.00     0.188 C 
ENDROOT
BRANCH   1   2
ATOM      2  C   UNL A   1      42.569  38.496  27.124  1.00  0.00     0.188 C 
BRANCH   2   3
ATOM      3  O   UNL A   1      41.924  37.498  27.889  1.00  0.00    -0.376 OA
BRANCH   3   4
ATOM      4  C   UNL A   1      41.903  36.147  27.462  1.00  0.00     0.202 C 
BRANCH   4   5
ATOM      5  C   UNL A   1      42.780  35.597  26.323  1.00  0.00     0.261 C 
BRANCH   5   6
ATOM      6  O   UNL A   1      43.292  34.270  26.464  1.00  0.00    -0.460 OA
BRANCH   6   7
ATOM      7  C   UNL A   1      44.477  33.993  25.891  1.00  0.00     0.330 C 
ATOM      8  O   UNL A   1      44.680  33.183  25.000  1.00  0.00    -0.247 OA
BRANCH   7   9
ATOM      9  C   UNL A   1      45.518  34.927  26.374  1.00  0.00     0.095 C 
ATOM     10  C   UNL A   1      46.574  35.328  25.644  1.00  0.00     0.027 C 
BRANCH  10  11
ATOM     11  C   UNL A   1      47.595  36.204  26.142  1.00  0.00     0.031 A 
ATOM     12  C   UNL A   1      46.219  37.704  27.728  1.00  0.00     0.046 C 
ATOM     13  C   UNL A   1      47.475  37.262  27.041  1.00  0.00    -0.032 A 
ATOM     14  C   UNL A   1      48.748  37.880  27.312  1.00  0.00     0.029 A 
ATOM     15  C   UNL A   1      49.799  37.301  26.632  1.00  0.00     0.093 A 
ATOM     16  S   UNL A   1      49.228  36.057  25.617  1.00  0.00    -0.130 S 
BRANCH  15  17
ATOM     17  C   UNL A   1      51.225  37.583  26.811  1.00  0.00     0.264 C 
ATOM     18  O   UNL A   1      51.710  38.701  26.635  1.00  0.00    -0.268 OA
BRANCH  17  19
ATOM     19  N   UNL A   1      51.996  36.553  27.330  1.00  0.00    -0.335 N 
ATOM     20  C   UNL A   1      52.974  35.892  26.493  1.00  0.00     0.120 C 
ATOM     21  C   UNL A   1      52.379  36.464  28.745  1.00  0.00     0.088 C 
ATOM     22  C   UNL A   1      53.411  34.728  27.347  1.00  0.00     0.024 C 
ATOM     23  C   UNL A   1      53.435  35.329  28.751  1.00  0.00     0.027 C 
BRANCH  21  24
ATOM     24  C   UNL A   1      51.177  36.210  29.703  1.00  0.00     0.005 C 
ATOM     25  C   UNL A   1      50.305  35.028  29.253  1.00  0.00     0.009 C 
ATOM     26  C   UNL A   1      51.624  35.914  31.144  1.00  0.00     0.009 C 
ENDBRANCH  21  24
ENDBRANCH  17  19
ENDBRANCH  15  17
ENDBRANCH  10  11
ENDBRANCH   7   9
ENDBRANCH   6   7
ENDBRANCH   5   6
ENDBRANCH   4   5
ENDBRANCH   3   4
ENDBRANCH   2   3
ENDBRANCH   1   2
BRANCH   1  27
ATOM     27  O   UNL A   1      43.105  40.475  28.549  1.00  0.00    -0.377 OA
BRANCH  27  28
ATOM     28  C   UNL A   1      44.316  41.113  28.137  1.00  0.00     0.188 C 
BRANCH  28  29
ATOM     29  C   UNL A   1      44.615  42.612  28.390  1.00  0.00     0.188 C 
BRANCH  29  30
ATOM     30  O   UNL A   1      44.788  42.966  29.755  1.00  0.00    -0.376 OA
BRANCH  30  31
ATOM     31  C   UNL A   1      43.678  42.808  30.622  1.00  0.00     0.202 C 
BRANCH  31  32
ATOM     32  C   UNL A   1      43.935  41.992  31.895  1.00  0.00     0.261 C 
BRANCH  32  33
ATOM     33  O   UNL A   1      43.330  40.691  31.935  1.00  0.00    -0.460 OA
BRANCH  33  34
ATOM     34  C   UNL A   1      43.692  39.878  32.953  1.00  0.00     0.338 C 
ATOM     35  O   UNL A   1      43.781  40.179  34.132  1.00  0.00    -0.246 OA
BRANCH  34  36
ATOM     36  C   UNL A   1      43.782  38.505  32.418  1.00  0.00     0.060 A 
ATOM     37  C   UNL A   1      43.798  38.310  31.030  1.00  0.00     0.016 A 
ATOM     38  C   UNL A   1      43.866  37.413  33.285  1.00  0.00     0.016 A 
ATOM     39  C   UNL A   1      43.862  37.018  30.508  1.00  0.00     0.010 A 
ATOM     40  C   UNL A   1      43.913  36.119  32.762  1.00  0.00     0.010 A 
ATOM     41  C   UNL A   1      43.879  35.912  31.371  1.00  0.00    -0.014 A 
BRANCH  41  42
ATOM     42  C   UNL A   1      43.661  34.545  30.832  1.00  0.00     0.031 A 
ATOM     43  C   UNL A   1      44.830  33.835  30.202  1.00  0.00     0.074 A 
ATOM     44  C   UNL A   1      42.463  33.939  30.912  1.00  0.00     0.049 A 
ATOM     45  N   UNL A   1      44.875  32.675  29.600  1.00  0.00    -0.248 NA
ATOM     46  C   UNL A   1      46.120  34.539  30.254  1.00  0.00     0.031 C 
ATOM     47  C   UNL A   1      41.272  34.502  31.545  1.00  0.00     0.029 A 
ATOM     48  N   UNL A   1      42.050  32.714  30.448  1.00  0.00    -0.354 N 
ATOM     49  C   UNL A   1      46.196  32.512  29.197  1.00  0.00     0.074 A 
ATOM     50  C   UNL A   1      46.907  33.711  29.587  1.00  0.00     0.031 C 
ATOM     51  C   UNL A   1      40.259  33.627  31.419  1.00  0.00     0.029 A 
ATOM     52  C   UNL A   1      40.715  32.464  30.659  1.00  0.00     0.049 A 
ATOM     53  H   UNL A   1      42.655  32.075  30.006  1.00  0.00     0.167 HD
ATOM     54  C   UNL A   1      46.766  31.454  28.569  1.00  0.00     0.034 A 
ATOM     55  C   UNL A   1      39.945  31.431  30.256  1.00  0.00     0.034 A 
ATOM     56  C   UNL A   1      46.039  30.273  28.173  1.00  0.00     0.049 A 
ATOM     57  C   UNL A   1      40.578  30.308  29.464  1.00  0.00     0.074 A 
ATOM     58  C   UNL A   1      46.517  29.140  27.537  1.00  0.00     0.029 A 
ATOM     59  N   UNL A   1      44.676  30.077  28.358  1.00  0.00    -0.354 N 
ATOM     60  N   UNL A   1      41.829  30.161  29.092  1.00  0.00    -0.248 NA
ATOM     61  C   UNL A   1      39.696  29.212  29.045  1.00  0.00     0.031 C 
ATOM     62  C   UNL A   1      45.433  28.300  27.263  1.00  0.00     0.029 A 
ATOM     63  C   UNL A   1      44.291  28.861  27.814  1.00  0.00     0.049 A 
ATOM     64  H   UNL A   1      44.071  30.710  28.809  1.00  0.00     0.167 HD
ATOM     65  C   UNL A   1      41.887  28.936  28.428  1.00  0.00     0.074 A 
ATOM     66  C   UNL A   1      40.550  28.383  28.464  1.00  0.00     0.031 C 
ATOM     67  C   UNL A   1      42.951  28.321  27.848  1.00  0.00     0.034 A 
BRANCH  54  68
ATOM     68  C   UNL A   1      48.233  31.560  28.224  1.00  0.00     0.023 A 
ATOM     69  C   UNL A   1      49.235  31.096  29.094  1.00  0.00     0.031 A 
ATOM     70  C   UNL A   1      48.635  32.164  27.019  1.00  0.00     0.131 A 
ATOM     71  C   UNL A   1      50.586  31.311  28.782  1.00  0.00     0.055 A 
ATOM     72  C   UNL A   1      49.981  32.296  26.675  1.00  0.00     0.041 A 
ATOM     73  F   UNL A   1      47.726  32.651  26.161  1.00  0.00    -0.206 F 
ATOM     74  C   UNL A   1      50.967  31.883  27.567  1.00  0.00     0.022 A 
BRANCH  71  75
ATOM     75  S   UNL A   1      51.833  30.976  30.057  1.00  0.00     0.124 S 
ATOM     76  O   UNL A   1      52.855  30.267  29.291  1.00  0.00    -0.237 OA
ATOM     77  O   UNL A   1      52.189  32.316  30.510  1.00  0.00    -0.237 OA
ATOM     78  O   UNL A   1      51.115  30.157  31.032  1.00  0.00    -0.744 OA
ENDBRANCH  71  75
ENDBRANCH  54  68
BRANCH  55  79
ATOM     79  C   UNL A   1      38.479  31.418  30.546  1.00  0.00     0.023 A 
ATOM     80  C   UNL A   1      37.565  32.080  29.712  1.00  0.00     0.031 A 
ATOM     81  C   UNL A   1      37.980  30.798  31.707  1.00  0.00     0.131 A 
ATOM     82  C   UNL A   1      36.210  32.148  30.073  1.00  0.00     0.055 A 
ATOM     83  C   UNL A   1      36.622  30.817  32.029  1.00  0.00     0.041 A 
ATOM     84  F   UNL A   1      38.809  30.158  32.547  1.00  0.00    -0.206 F 
ATOM     85  C   UNL A   1      35.729  31.507  31.217  1.00  0.00     0.022 A 
BRANCH  82  86
ATOM     86  S   UNL A   1      35.095  33.176  29.076  1.00  0.00     0.124 S 
ATOM     87  O   UNL A   1      34.787  32.285  27.962  1.00  0.00    -0.237 OA
ATOM     88  O   UNL A   1      34.006  33.435  30.010  1.00  0.00    -0.237 OA
ATOM     89  O   UNL A   1      35.914  34.338  28.738  1.00  0.00    -0.744 OA
ENDBRANCH  82  86
ENDBRANCH  55  79
BRANCH  67  90
ATOM     90  C   UNL A   1      42.722  26.950  27.255  1.00  0.00     0.023 A 
ATOM     91  C   UNL A   1      43.018  25.771  27.961  1.00  0.00     0.031 A 
ATOM     92  C   UNL A   1      42.196  26.823  25.955  1.00  0.00     0.131 A 
ATOM     93  C   UNL A   1      42.842  24.522  27.346  1.00  0.00     0.055 A 
ATOM     94  C   UNL A   1      41.957  25.577  25.374  1.00  0.00     0.041 A 
ATOM     95  F   UNL A   1      41.898  27.912  25.228  1.00  0.00    -0.206 F 
ATOM     96  C   UNL A   1      42.294  24.417  26.064  1.00  0.00     0.022 A 
BRANCH  93  97
ATOM     97  S   UNL A   1      43.436  23.036  28.200  1.00  0.00     0.124 S 
ATOM     98  O   UNL A   1      42.653  23.061  29.431  1.00  0.00    -0.237 OA
ATOM     99  O   UNL A   1      43.103  21.977  27.253  1.00  0.00    -0.237 OA
ATOM    100  O   UNL A   1      44.866  23.286  28.370  1.00  0.00    -0.744 OA
ENDBRANCH  93  97
ENDBRANCH  67  90
ENDBRANCH  41  42
ENDBRANCH  34  36
ENDBRANCH  33  34
ENDBRANCH  32  33
ENDBRANCH  31  32
ENDBRANCH  30  31
ENDBRANCH  29  30
ENDBRANCH  28  29
ENDBRANCH  27  28
ENDBRANCH   1  27
TORSDOF 27
ENDMDL
