MODEL 1
REMARK VINA RESULT:      -8.4      0.000      0.000
REMARK SMILES O=C(OCCOCCOCCOCCOC(=O)[C@@H](Cc1cccc(F)c1)[C@H]1CCOC2(CCC2)C1)c1ccc(-c2c3nc(c(-c4cc(S(=O)(=O)[O-])ccc4F)c4ccc([nH]4)c(-c4cc(S(=O)(=O)[O-])ccc4F)c4nc(c(-c5cc(S(=O)(=O)[O-])ccc5F)c5ccc2[nH]5)C=C4)C=C3)cc1
REMARK SMILES IDX 8 1 7 2 6 3 5 4 4 5 3 6 2 7 1 8 36 9 37 10 98 11 38 12 97 13
REMARK SMILES IDX 39 14 40 15 41 16 91 17 42 18 96 19 90 20 92 21 43 22 95 23
REMARK SMILES IDX 89 24 88 25 44 27 76 28 56 29 75 30 57 31 60 32 74 33 93 34
REMARK SMILES IDX 58 35 59 36 73 38 94 39 61 40 45 41 46 42 54 43 47 44 53 45
REMARK SMILES IDX 55 46 52 47 48 48 49 49 50 50 51 51 77 52 78 53 86 54 79 55
REMARK SMILES IDX 85 56 87 57 84 58 80 59 81 60 82 61 83 62 62 63 63 64 71 65
REMARK SMILES IDX 64 66 70 67 72 68 69 69 65 70 66 71 67 72 68 73 9 74 10 75
REMARK SMILES IDX 11 76 12 77 13 78 14 79 15 80 16 81 17 82 18 83 19 84 20 85
REMARK SMILES IDX 21 86 26 87 22 88 24 89 23 90 25 91 27 92 28 93 35 94 29 95
REMARK SMILES IDX 31 96 30 97 32 98 34 99 33 100
REMARK H PARENT 92 26 60 37
REMARK Flexibility Score: inf
ROOT
ATOM      1  C   UNL A   1      41.188  20.431  26.012  1.00  0.00     0.188 C 
ENDROOT
BRANCH   1   2
ATOM      2  C   UNL A   1      41.080  20.771  27.492  1.00  0.00     0.188 C 
BRANCH   2   3
ATOM      3  O   UNL A   1      41.154  22.180  27.588  1.00  0.00    -0.376 OA
BRANCH   3   4
ATOM      4  C   UNL A   1      39.960  22.912  27.403  1.00  0.00     0.202 C 
BRANCH   4   5
ATOM      5  C   UNL A   1      40.170  24.169  26.577  1.00  0.00     0.261 C 
BRANCH   5   6
ATOM      6  O   UNL A   1      41.542  24.598  26.501  1.00  0.00    -0.460 OA
BRANCH   6   7
ATOM      7  C   UNL A   1      42.095  25.677  25.899  1.00  0.00     0.338 C 
ATOM      8  O   UNL A   1      42.378  25.590  24.702  1.00  0.00    -0.246 OA
BRANCH   7   9
ATOM      9  C   UNL A   1      42.318  27.004  26.543  1.00  0.00     0.060 A 
ATOM     10  C   UNL A   1      41.760  28.208  26.119  1.00  0.00     0.016 A 
ATOM     11  C   UNL A   1      42.975  26.996  27.785  1.00  0.00     0.016 A 
ATOM     12  C   UNL A   1      41.839  29.369  26.877  1.00  0.00     0.010 A 
ATOM     13  C   UNL A   1      43.057  28.155  28.564  1.00  0.00     0.010 A 
ATOM     14  C   UNL A   1      42.484  29.348  28.106  1.00  0.00    -0.014 A 
BRANCH  14  15
ATOM     15  C   UNL A   1      42.685  30.626  28.809  1.00  0.00     0.031 A 
ATOM     16  C   UNL A   1      43.764  31.525  28.298  1.00  0.00     0.074 A 
ATOM     17  C   UNL A   1      41.831  31.026  29.767  1.00  0.00     0.049 A 
ATOM     18  N   UNL A   1      44.256  32.613  28.816  1.00  0.00    -0.248 NA
ATOM     19  C   UNL A   1      44.359  31.141  27.006  1.00  0.00     0.031 C 
ATOM     20  C   UNL A   1      40.622  30.306  30.177  1.00  0.00     0.029 A 
ATOM     21  N   UNL A   1      41.824  32.155  30.541  1.00  0.00    -0.354 N 
ATOM     22  C   UNL A   1      45.246  33.028  27.933  1.00  0.00     0.074 A 
ATOM     23  C   UNL A   1      45.283  32.074  26.848  1.00  0.00     0.031 C 
ATOM     24  C   UNL A   1      39.978  31.028  31.109  1.00  0.00     0.029 A 
ATOM     25  C   UNL A   1      40.774  32.208  31.426  1.00  0.00     0.049 A 
ATOM     26  H   UNL A   1      42.507  32.861  30.469  1.00  0.00     0.167 HD
ATOM     27  C   UNL A   1      46.058  34.106  28.044  1.00  0.00     0.034 A 
ATOM     28  C   UNL A   1      40.524  33.092  32.411  1.00  0.00     0.034 A 
ATOM     29  C   UNL A   1      45.993  35.001  29.169  1.00  0.00     0.049 A 
ATOM     30  C   UNL A   1      41.531  34.191  32.626  1.00  0.00     0.074 A 
ATOM     31  C   UNL A   1      46.845  36.029  29.524  1.00  0.00     0.029 A 
ATOM     32  N   UNL A   1      44.987  34.965  30.134  1.00  0.00    -0.354 N 
ATOM     33  N   UNL A   1      42.609  34.465  31.925  1.00  0.00    -0.248 NA
ATOM     34  C   UNL A   1      41.314  35.075  33.775  1.00  0.00     0.031 C 
ATOM     35  C   UNL A   1      46.381  36.579  30.726  1.00  0.00     0.029 A 
ATOM     36  C   UNL A   1      45.199  35.946  31.085  1.00  0.00     0.049 A 
ATOM     37  H   UNL A   1      44.234  34.331  30.138  1.00  0.00     0.167 HD
ATOM     38  C   UNL A   1      43.196  35.565  32.537  1.00  0.00     0.074 A 
ATOM     39  C   UNL A   1      42.347  35.904  33.667  1.00  0.00     0.031 C 
ATOM     40  C   UNL A   1      44.326  36.240  32.199  1.00  0.00     0.034 A 
BRANCH  27  41
ATOM     41  C   UNL A   1      47.128  34.251  26.991  1.00  0.00     0.023 A 
ATOM     42  C   UNL A   1      48.264  33.420  26.971  1.00  0.00     0.031 A 
ATOM     43  C   UNL A   1      47.081  35.326  26.087  1.00  0.00     0.131 A 
ATOM     44  C   UNL A   1      49.344  33.735  26.129  1.00  0.00     0.055 A 
ATOM     45  C   UNL A   1      48.126  35.585  25.196  1.00  0.00     0.041 A 
ATOM     46  F   UNL A   1      46.042  36.175  26.088  1.00  0.00    -0.206 F 
ATOM     47  C   UNL A   1      49.272  34.798  25.226  1.00  0.00     0.022 A 
BRANCH  44  48
ATOM     48  S   UNL A   1      50.905  32.834  26.345  1.00  0.00     0.124 S 
ATOM     49  O   UNL A   1      51.787  33.893  26.840  1.00  0.00    -0.237 OA
ATOM     50  O   UNL A   1      50.552  31.800  27.298  1.00  0.00    -0.237 OA
ATOM     51  O   UNL A   1      51.217  32.362  24.991  1.00  0.00    -0.744 OA
ENDBRANCH  44  48
ENDBRANCH  27  41
BRANCH  28  52
ATOM     52  C   UNL A   1      39.334  32.921  33.290  1.00  0.00     0.023 A 
ATOM     53  C   UNL A   1      38.092  33.484  32.958  1.00  0.00     0.031 A 
ATOM     54  C   UNL A   1      39.412  32.144  34.463  1.00  0.00     0.131 A 
ATOM     55  C   UNL A   1      36.978  33.260  33.785  1.00  0.00     0.055 A 
ATOM     56  C   UNL A   1      38.296  31.898  35.264  1.00  0.00     0.041 A 
ATOM     57  F   UNL A   1      40.574  31.577  34.824  1.00  0.00    -0.206 F 
ATOM     58  C   UNL A   1      37.069  32.459  34.927  1.00  0.00     0.022 A 
BRANCH  55  59
ATOM     59  S   UNL A   1      35.389  34.019  33.346  1.00  0.00     0.124 S 
ATOM     60  O   UNL A   1      34.521  32.852  33.239  1.00  0.00    -0.237 OA
ATOM     61  O   UNL A   1      35.147  34.901  34.482  1.00  0.00    -0.237 OA
ATOM     62  O   UNL A   1      35.677  34.702  32.085  1.00  0.00    -0.744 OA
ENDBRANCH  55  59
ENDBRANCH  28  52
BRANCH  40  63
ATOM     63  C   UNL A   1      44.670  37.442  33.033  1.00  0.00     0.023 A 
ATOM     64  C   UNL A   1      44.027  38.677  32.848  1.00  0.00     0.031 A 
ATOM     65  C   UNL A   1      45.631  37.330  34.052  1.00  0.00     0.131 A 
ATOM     66  C   UNL A   1      44.386  39.767  33.652  1.00  0.00     0.055 A 
ATOM     67  C   UNL A   1      45.945  38.404  34.881  1.00  0.00     0.041 A 
ATOM     68  F   UNL A   1      46.267  36.166  34.265  1.00  0.00    -0.206 F 
ATOM     69  C   UNL A   1      45.325  39.634  34.678  1.00  0.00     0.022 A 
BRANCH  66  70
ATOM     70  S   UNL A   1      43.643  41.384  33.303  1.00  0.00     0.124 S 
ATOM     71  O   UNL A   1      44.055  42.162  34.467  1.00  0.00    -0.237 OA
ATOM     72  O   UNL A   1      44.267  41.751  32.036  1.00  0.00    -0.237 OA
ATOM     73  O   UNL A   1      42.212  41.094  33.226  1.00  0.00    -0.744 OA
ENDBRANCH  66  70
ENDBRANCH  40  63
ENDBRANCH  14  15
ENDBRANCH   7   9
ENDBRANCH   6   7
ENDBRANCH   5   6
ENDBRANCH   4   5
ENDBRANCH   3   4
ENDBRANCH   2   3
ENDBRANCH   1   2
BRANCH   1  74
ATOM     74  O   UNL A   1      41.566  19.072  25.765  1.00  0.00    -0.377 OA
BRANCH  74  75
ATOM     75  C   UNL A   1      42.949  18.730  25.784  1.00  0.00     0.188 C 
BRANCH  75  76
ATOM     76  C   UNL A   1      43.991  19.831  25.522  1.00  0.00     0.188 C 
BRANCH  76  77
ATOM     77  O   UNL A   1      44.098  20.232  24.163  1.00  0.00    -0.376 OA
BRANCH  77  78
ATOM     78  C   UNL A   1      45.197  21.084  23.887  1.00  0.00     0.202 C 
BRANCH  78  79
ATOM     79  C   UNL A   1      44.868  22.577  23.788  1.00  0.00     0.261 C 
BRANCH  79  80
ATOM     80  O   UNL A   1      44.671  23.332  24.995  1.00  0.00    -0.463 OA
BRANCH  80  81
ATOM     81  C   UNL A   1      45.761  23.643  25.725  1.00  0.00     0.309 C 
ATOM     82  O   UNL A   1      46.608  22.835  26.094  1.00  0.00    -0.252 OA
BRANCH  81  83
ATOM     83  C   UNL A   1      45.714  25.055  26.286  1.00  0.00     0.107 C 
BRANCH  83  84
ATOM     84  C   UNL A   1      46.007  25.241  27.801  1.00  0.00     0.051 C 
BRANCH  84  85
ATOM     85  C   UNL A   1      45.266  24.572  28.943  1.00  0.00    -0.044 A 
ATOM     86  C   UNL A   1      44.312  23.560  28.800  1.00  0.00     0.004 A 
ATOM     87  C   UNL A   1      45.550  25.015  30.255  1.00  0.00     0.043 A 
ATOM     88  C   UNL A   1      43.621  23.052  29.911  1.00  0.00     0.003 A 
ATOM     89  C   UNL A   1      44.857  24.508  31.353  1.00  0.00     0.123 A 
ATOM     90  C   UNL A   1      43.887  23.532  31.191  1.00  0.00     0.039 A 
ATOM     91  F   UNL A   1      45.104  24.997  32.577  1.00  0.00    -0.207 F 
ENDBRANCH  84  85
ENDBRANCH  83  84
BRANCH  83  92
ATOM     92  C   UNL A   1      46.447  25.994  25.299  1.00  0.00     0.009 C 
ATOM     93  C   UNL A   1      45.786  27.397  25.219  1.00  0.00     0.033 C 
ATOM     94  C   UNL A   1      47.925  26.206  25.678  1.00  0.00     0.040 C 
ATOM     95  C   UNL A   1      46.490  28.285  24.214  1.00  0.00     0.161 C 
ATOM     96  C   UNL A   1      48.573  27.081  24.608  1.00  0.00     0.069 C 
ATOM     97  O   UNL A   1      47.876  28.349  24.513  1.00  0.00    -0.375 OA
ATOM     98  C   UNL A   1      50.115  27.250  24.712  1.00  0.00     0.035 C 
ATOM     99  C   UNL A   1      48.844  26.335  23.268  1.00  0.00     0.035 C 
ATOM    100  C   UNL A   1      50.153  27.134  23.173  1.00  0.00     0.006 C 
ENDBRANCH  83  92
ENDBRANCH  81  83
ENDBRANCH  80  81
ENDBRANCH  79  80
ENDBRANCH  78  79
ENDBRANCH  77  78
ENDBRANCH  76  77
ENDBRANCH  75  76
ENDBRANCH  74  75
ENDBRANCH   1  74
TORSDOF 26
ENDMDL
MODEL 2
REMARK VINA RESULT:      -8.2      1.774      2.073
REMARK SMILES O=C(OCCOCCOCCOCCOC(=O)[C@@H](Cc1cccc(F)c1)[C@H]1CCOC2(CCC2)C1)c1ccc(-c2c3nc(c(-c4cc(S(=O)(=O)[O-])ccc4F)c4ccc([nH]4)c(-c4cc(S(=O)(=O)[O-])ccc4F)c4nc(c(-c5cc(S(=O)(=O)[O-])ccc5F)c5ccc2[nH]5)C=C4)C=C3)cc1
REMARK SMILES IDX 8 1 7 2 6 3 5 4 4 5 3 6 2 7 1 8 36 9 37 10 98 11 38 12 97 13
REMARK SMILES IDX 39 14 40 15 41 16 91 17 42 18 96 19 90 20 92 21 43 22 95 23
REMARK SMILES IDX 89 24 88 25 44 27 76 28 56 29 75 30 57 31 60 32 74 33 93 34
REMARK SMILES IDX 58 35 59 36 73 38 94 39 61 40 45 41 46 42 54 43 47 44 53 45
REMARK SMILES IDX 55 46 52 47 48 48 49 49 50 50 51 51 77 52 78 53 86 54 79 55
REMARK SMILES IDX 85 56 87 57 84 58 80 59 81 60 82 61 83 62 62 63 63 64 71 65
REMARK SMILES IDX 64 66 70 67 72 68 69 69 65 70 66 71 67 72 68 73 9 74 10 75
REMARK SMILES IDX 11 76 12 77 13 78 14 79 15 80 16 81 17 82 18 83 19 84 20 85
REMARK SMILES IDX 21 86 26 87 22 88 24 89 23 90 25 91 27 92 28 93 35 94 29 95
REMARK SMILES IDX 31 96 30 97 32 98 34 99 33 100
REMARK H PARENT 92 26 60 37
REMARK Flexibility Score: inf
ROOT
ATOM      1  C   UNL A   1      41.226  20.466  26.105  1.00  0.00     0.188 C 
ENDROOT
BRANCH   1   2
ATOM      2  C   UNL A   1      41.130  20.797  27.587  1.00  0.00     0.188 C 
BRANCH   2   3
ATOM      3  O   UNL A   1      41.243  22.203  27.694  1.00  0.00    -0.376 OA
BRANCH   3   4
ATOM      4  C   UNL A   1      40.059  22.965  27.585  1.00  0.00     0.202 C 
BRANCH   4   5
ATOM      5  C   UNL A   1      40.244  24.209  26.732  1.00  0.00     0.261 C 
BRANCH   5   6
ATOM      6  O   UNL A   1      41.616  24.610  26.573  1.00  0.00    -0.460 OA
BRANCH   6   7
ATOM      7  C   UNL A   1      42.152  25.679  25.938  1.00  0.00     0.338 C 
ATOM      8  O   UNL A   1      42.380  25.580  24.731  1.00  0.00    -0.246 OA
BRANCH   7   9
ATOM      9  C   UNL A   1      42.417  27.009  26.560  1.00  0.00     0.060 A 
ATOM     10  C   UNL A   1      41.880  28.220  26.129  1.00  0.00     0.016 A 
ATOM     11  C   UNL A   1      43.094  27.002  27.791  1.00  0.00     0.016 A 
ATOM     12  C   UNL A   1      41.999  29.389  26.870  1.00  0.00     0.010 A 
ATOM     13  C   UNL A   1      43.215  28.169  28.553  1.00  0.00     0.010 A 
ATOM     14  C   UNL A   1      42.663  29.369  28.089  1.00  0.00    -0.014 A 
BRANCH  14  15
ATOM     15  C   UNL A   1      42.905  30.650  28.771  1.00  0.00     0.031 A 
ATOM     16  C   UNL A   1      44.033  31.491  28.267  1.00  0.00     0.074 A 
ATOM     17  C   UNL A   1      42.049  31.107  29.702  1.00  0.00     0.049 A 
ATOM     18  N   UNL A   1      44.562  32.567  28.775  1.00  0.00    -0.248 NA
ATOM     19  C   UNL A   1      44.639  31.056  26.996  1.00  0.00     0.031 C 
ATOM     20  C   UNL A   1      40.802  30.449  30.100  1.00  0.00     0.029 A 
ATOM     21  N   UNL A   1      42.076  32.251  30.454  1.00  0.00    -0.354 N 
ATOM     22  C   UNL A   1      45.588  32.920  27.906  1.00  0.00     0.074 A 
ATOM     23  C   UNL A   1      45.606  31.944  26.841  1.00  0.00     0.031 C 
ATOM     24  C   UNL A   1      40.170  31.217  31.003  1.00  0.00     0.029 A 
ATOM     25  C   UNL A   1      41.011  32.368  31.315  1.00  0.00     0.049 A 
ATOM     26  H   UNL A   1      42.791  32.925  30.384  1.00  0.00     0.167 HD
ATOM     27  C   UNL A   1      46.444  33.964  28.013  1.00  0.00     0.034 A 
ATOM     28  C   UNL A   1      40.779  33.282  32.276  1.00  0.00     0.034 A 
ATOM     29  C   UNL A   1      46.395  34.884  29.120  1.00  0.00     0.049 A 
ATOM     30  C   UNL A   1      41.829  34.340  32.493  1.00  0.00     0.074 A 
ATOM     31  C   UNL A   1      47.284  35.880  29.473  1.00  0.00     0.029 A 
ATOM     32  N   UNL A   1      45.368  34.911  30.063  1.00  0.00    -0.354 N 
ATOM     33  N   UNL A   1      42.933  34.552  31.810  1.00  0.00    -0.248 NA
ATOM     34  C   UNL A   1      41.627  35.255  33.619  1.00  0.00     0.031 C 
ATOM     35  C   UNL A   1      46.819  36.475  30.654  1.00  0.00     0.029 A 
ATOM     36  C   UNL A   1      45.603  35.900  30.999  1.00  0.00     0.049 A 
ATOM     37  H   UNL A   1      44.588  34.310  30.063  1.00  0.00     0.167 HD
ATOM     38  C   UNL A   1      43.555  35.638  32.414  1.00  0.00     0.074 A 
ATOM     39  C   UNL A   1      42.697  36.036  33.518  1.00  0.00     0.031 C 
ATOM     40  C   UNL A   1      44.720  36.255  32.088  1.00  0.00     0.034 A 
BRANCH  27  41
ATOM     41  C   UNL A   1      47.541  34.040  26.982  1.00  0.00     0.023 A 
ATOM     42  C   UNL A   1      48.677  33.210  27.046  1.00  0.00     0.031 A 
ATOM     43  C   UNL A   1      47.520  35.055  26.010  1.00  0.00     0.131 A 
ATOM     44  C   UNL A   1      49.778  33.470  26.214  1.00  0.00     0.055 A 
ATOM     45  C   UNL A   1      48.588  35.255  25.131  1.00  0.00     0.041 A 
ATOM     46  F   UNL A   1      46.482  35.902  25.928  1.00  0.00    -0.206 F 
ATOM     47  C   UNL A   1      49.732  34.472  25.242  1.00  0.00     0.022 A 
BRANCH  44  48
ATOM     48  S   UNL A   1      51.332  32.586  26.529  1.00  0.00     0.124 S 
ATOM     49  O   UNL A   1      51.074  31.301  25.875  1.00  0.00    -0.237 OA
ATOM     50  O   UNL A   1      52.321  33.437  25.896  1.00  0.00    -0.237 OA
ATOM     51  O   UNL A   1      51.399  32.524  27.992  1.00  0.00    -0.744 OA
ENDBRANCH  44  48
ENDBRANCH  27  41
BRANCH  28  52
ATOM     52  C   UNL A   1      39.564  33.180  33.132  1.00  0.00     0.023 A 
ATOM     53  C   UNL A   1      39.584  32.481  34.348  1.00  0.00     0.031 A 
ATOM     54  C   UNL A   1      38.368  33.828  32.764  1.00  0.00     0.131 A 
ATOM     55  C   UNL A   1      38.433  32.447  35.155  1.00  0.00     0.055 A 
ATOM     56  C   UNL A   1      37.238  33.818  33.583  1.00  0.00     0.041 A 
ATOM     57  F   UNL A   1      38.297  34.516  31.614  1.00  0.00    -0.206 F 
ATOM     58  C   UNL A   1      37.266  33.123  34.788  1.00  0.00     0.022 A 
BRANCH  55  59
ATOM     59  S   UNL A   1      38.478  31.515  36.713  1.00  0.00     0.124 S 
ATOM     60  O   UNL A   1      38.568  30.141  36.235  1.00  0.00    -0.237 OA
ATOM     61  O   UNL A   1      39.670  32.054  37.357  1.00  0.00    -0.237 OA
ATOM     62  O   UNL A   1      37.214  31.872  37.357  1.00  0.00    -0.744 OA
ENDBRANCH  55  59
ENDBRANCH  28  52
BRANCH  40  63
ATOM     63  C   UNL A   1      45.099  37.458  32.906  1.00  0.00     0.023 A 
ATOM     64  C   UNL A   1      45.950  37.356  34.018  1.00  0.00     0.031 A 
ATOM     65  C   UNL A   1      44.624  38.727  32.536  1.00  0.00     0.131 A 
ATOM     66  C   UNL A   1      46.271  38.508  34.748  1.00  0.00     0.055 A 
ATOM     67  C   UNL A   1      44.989  39.875  33.236  1.00  0.00     0.041 A 
ATOM     68  F   UNL A   1      43.809  38.869  31.477  1.00  0.00    -0.206 F 
ATOM     69  C   UNL A   1      45.812  39.768  34.353  1.00  0.00     0.022 A 
BRANCH  66  70
ATOM     70  S   UNL A   1      47.259  38.333  36.258  1.00  0.00     0.124 S 
ATOM     71  O   UNL A   1      47.422  39.722  36.674  1.00  0.00    -0.237 OA
ATOM     72  O   UNL A   1      46.399  37.509  37.102  1.00  0.00    -0.237 OA
ATOM     73  O   UNL A   1      48.480  37.676  35.794  1.00  0.00    -0.744 OA
ENDBRANCH  66  70
ENDBRANCH  40  63
ENDBRANCH  14  15
ENDBRANCH   7   9
ENDBRANCH   6   7
ENDBRANCH   5   6
ENDBRANCH   4   5
ENDBRANCH   3   4
ENDBRANCH   2   3
ENDBRANCH   1   2
BRANCH   1  74
ATOM     74  O   UNL A   1      41.615  19.113  25.847  1.00  0.00    -0.377 OA
BRANCH  74  75
ATOM     75  C   UNL A   1      43.001  18.783  25.855  1.00  0.00     0.188 C 
BRANCH  75  76
ATOM     76  C   UNL A   1      44.029  19.883  25.539  1.00  0.00     0.188 C 
BRANCH  76  77
ATOM     77  O   UNL A   1      44.095  20.254  24.168  1.00  0.00    -0.376 OA
BRANCH  77  78
ATOM     78  C   UNL A   1      45.198  21.080  23.837  1.00  0.00     0.202 C 
BRANCH  78  79
ATOM     79  C   UNL A   1      44.887  22.574  23.699  1.00  0.00     0.261 C 
BRANCH  79  80
ATOM     80  O   UNL A   1      44.715  23.365  24.886  1.00  0.00    -0.463 OA
BRANCH  80  81
ATOM     81  C   UNL A   1      45.796  23.569  25.666  1.00  0.00     0.309 C 
ATOM     82  O   UNL A   1      46.571  22.689  26.027  1.00  0.00    -0.252 OA
BRANCH  81  83
ATOM     83  C   UNL A   1      45.824  24.956  26.288  1.00  0.00     0.107 C 
BRANCH  83  84
ATOM     84  C   UNL A   1      46.257  25.073  27.776  1.00  0.00     0.051 C 
BRANCH  84  85
ATOM     85  C   UNL A   1      45.477  24.567  28.975  1.00  0.00    -0.044 A 
ATOM     86  C   UNL A   1      44.665  23.430  28.986  1.00  0.00     0.004 A 
ATOM     87  C   UNL A   1      45.566  25.312  30.174  1.00  0.00     0.043 A 
ATOM     88  C   UNL A   1      43.920  23.081  30.123  1.00  0.00     0.003 A 
ATOM     89  C   UNL A   1      44.821  24.961  31.298  1.00  0.00     0.123 A 
ATOM     90  C   UNL A   1      43.990  23.852  31.280  1.00  0.00     0.039 A 
ATOM     91  F   UNL A   1      44.877  25.726  32.397  1.00  0.00    -0.207 F 
ENDBRANCH  84  85
ENDBRANCH  83  84
BRANCH  83  92
ATOM     92  C   UNL A   1      46.481  25.927  25.278  1.00  0.00     0.009 C 
ATOM     93  C   UNL A   1      45.823  27.333  25.299  1.00  0.00     0.033 C 
ATOM     94  C   UNL A   1      47.985  26.122  25.545  1.00  0.00     0.040 C 
ATOM     95  C   UNL A   1      46.448  28.254  24.272  1.00  0.00     0.161 C 
ATOM     96  C   UNL A   1      48.550  27.032  24.457  1.00  0.00     0.069 C 
ATOM     97  O   UNL A   1      47.854  28.305  24.461  1.00  0.00    -0.375 OA
ATOM     98  C   UNL A   1      50.096  27.194  24.443  1.00  0.00     0.035 C 
ATOM     99  C   UNL A   1      48.709  26.332  23.074  1.00  0.00     0.035 C 
ATOM    100  C   UNL A   1      50.010  27.131  22.902  1.00  0.00     0.006 C 
ENDBRANCH  83  92
ENDBRANCH  81  83
ENDBRANCH  80  81
ENDBRANCH  79  80
ENDBRANCH  78  79
ENDBRANCH  77  78
ENDBRANCH  76  77
ENDBRANCH  75  76
ENDBRANCH  74  75
ENDBRANCH   1  74
TORSDOF 26
ENDMDL
MODEL 3
REMARK VINA RESULT:      -8.1      5.952     10.608
REMARK SMILES O=C(OCCOCCOCCOCCOC(=O)[C@@H](Cc1cccc(F)c1)[C@H]1CCOC2(CCC2)C1)c1ccc(-c2c3nc(c(-c4cc(S(=O)(=O)[O-])ccc4F)c4ccc([nH]4)c(-c4cc(S(=O)(=O)[O-])ccc4F)c4nc(c(-c5cc(S(=O)(=O)[O-])ccc5F)c5ccc2[nH]5)C=C4)C=C3)cc1
REMARK SMILES IDX 8 1 7 2 6 3 5 4 4 5 3 6 2 7 1 8 36 9 37 10 98 11 38 12 97 13
REMARK SMILES IDX 39 14 40 15 41 16 91 17 42 18 96 19 90 20 92 21 43 22 95 23
REMARK SMILES IDX 89 24 88 25 44 27 76 28 56 29 75 30 57 31 60 32 74 33 93 34
REMARK SMILES IDX 58 35 59 36 73 38 94 39 61 40 45 41 46 42 54 43 47 44 53 45
REMARK SMILES IDX 55 46 52 47 48 48 49 49 50 50 51 51 77 52 78 53 86 54 79 55
REMARK SMILES IDX 85 56 87 57 84 58 80 59 81 60 82 61 83 62 62 63 63 64 71 65
REMARK SMILES IDX 64 66 70 67 72 68 69 69 65 70 66 71 67 72 68 73 9 74 10 75
REMARK SMILES IDX 11 76 12 77 13 78 14 79 15 80 16 81 17 82 18 83 19 84 20 85
REMARK SMILES IDX 21 86 26 87 22 88 24 89 23 90 25 91 27 92 28 93 35 94 29 95
REMARK SMILES IDX 31 96 30 97 32 98 34 99 33 100
REMARK H PARENT 92 26 60 37
REMARK Flexibility Score: inf
ROOT
ATOM      1  C   UNL A   1      42.411  19.236  26.162  1.00  0.00     0.188 C 
ENDROOT
BRANCH   1   2
ATOM      2  C   UNL A   1      42.735  20.721  26.093  1.00  0.00     0.188 C 
BRANCH   2   3
ATOM      3  O   UNL A   1      43.500  20.913  24.918  1.00  0.00    -0.376 OA
BRANCH   3   4
ATOM      4  C   UNL A   1      44.626  21.761  25.002  1.00  0.00     0.202 C 
BRANCH   4   5
ATOM      5  C   UNL A   1      44.308  23.193  24.608  1.00  0.00     0.261 C 
BRANCH   5   6
ATOM      6  O   UNL A   1      43.312  23.820  25.435  1.00  0.00    -0.460 OA
BRANCH   6   7
ATOM      7  C   UNL A   1      43.036  25.129  25.641  1.00  0.00     0.338 C 
ATOM      8  O   UNL A   1      42.673  25.803  24.676  1.00  0.00    -0.246 OA
BRANCH   7   9
ATOM      9  C   UNL A   1      43.053  25.816  26.967  1.00  0.00     0.060 A 
ATOM     10  C   UNL A   1      43.983  26.773  27.365  1.00  0.00     0.016 A 
ATOM     11  C   UNL A   1      41.928  25.624  27.786  1.00  0.00     0.016 A 
ATOM     12  C   UNL A   1      43.826  27.522  28.524  1.00  0.00     0.010 A 
ATOM     13  C   UNL A   1      41.751  26.375  28.953  1.00  0.00     0.010 A 
ATOM     14  C   UNL A   1      42.706  27.330  29.323  1.00  0.00    -0.014 A 
BRANCH  14  15
ATOM     15  C   UNL A   1      42.649  28.025  30.619  1.00  0.00     0.031 A 
ATOM     16  C   UNL A   1      41.714  29.185  30.733  1.00  0.00     0.074 A 
ATOM     17  C   UNL A   1      43.295  27.534  31.691  1.00  0.00     0.049 A 
ATOM     18  N   UNL A   1      41.586  30.061  31.688  1.00  0.00    -0.248 NA
ATOM     19  C   UNL A   1      40.781  29.369  29.608  1.00  0.00     0.031 C 
ATOM     20  C   UNL A   1      44.057  26.283  31.721  1.00  0.00     0.029 A 
ATOM     21  N   UNL A   1      43.383  28.007  32.973  1.00  0.00    -0.354 N 
ATOM     22  C   UNL A   1      40.582  30.924  31.264  1.00  0.00     0.074 A 
ATOM     23  C   UNL A   1      40.137  30.466  29.968  1.00  0.00     0.031 C 
ATOM     24  C   UNL A   1      44.510  26.075  32.969  1.00  0.00     0.029 A 
ATOM     25  C   UNL A   1      44.151  27.220  33.797  1.00  0.00     0.049 A 
ATOM     26  H   UNL A   1      42.937  28.832  33.275  1.00  0.00     0.167 HD
ATOM     27  C   UNL A   1      40.098  32.013  31.908  1.00  0.00     0.034 A 
ATOM     28  C   UNL A   1      44.552  27.439  35.064  1.00  0.00     0.034 A 
ATOM     29  C   UNL A   1      40.609  32.437  33.186  1.00  0.00     0.049 A 
ATOM     30  C   UNL A   1      44.142  28.738  35.706  1.00  0.00     0.074 A 
ATOM     31  C   UNL A   1      40.359  33.599  33.889  1.00  0.00     0.029 A 
ATOM     32  N   UNL A   1      41.490  31.682  33.959  1.00  0.00    -0.354 N 
ATOM     33  N   UNL A   1      43.363  29.681  35.224  1.00  0.00    -0.248 NA
ATOM     34  C   UNL A   1      44.683  29.021  37.039  1.00  0.00     0.031 C 
ATOM     35  C   UNL A   1      41.125  33.567  35.062  1.00  0.00     0.029 A 
ATOM     36  C   UNL A   1      41.797  32.354  35.128  1.00  0.00     0.049 A 
ATOM     37  H   UNL A   1      41.843  30.798  33.710  1.00  0.00     0.167 HD
ATOM     38  C   UNL A   1      43.306  30.668  36.200  1.00  0.00     0.074 A 
ATOM     39  C   UNL A   1      44.132  30.201  37.300  1.00  0.00     0.031 C 
ATOM     40  C   UNL A   1      42.633  31.849  36.195  1.00  0.00     0.034 A 
BRANCH  27  41
ATOM     41  C   UNL A   1      39.084  32.840  31.159  1.00  0.00     0.023 A 
ATOM     42  C   UNL A   1      37.704  32.575  31.244  1.00  0.00     0.031 A 
ATOM     43  C   UNL A   1      39.514  33.809  30.236  1.00  0.00     0.131 A 
ATOM     44  C   UNL A   1      36.817  33.207  30.356  1.00  0.00     0.055 A 
ATOM     45  C   UNL A   1      38.616  34.492  29.413  1.00  0.00     0.041 A 
ATOM     46  F   UNL A   1      40.821  34.075  30.083  1.00  0.00    -0.206 F 
ATOM     47  C   UNL A   1      37.261  34.179  29.458  1.00  0.00     0.022 A 
BRANCH  44  48
ATOM     48  S   UNL A   1      35.100  32.623  30.282  1.00  0.00     0.124 S 
ATOM     49  O   UNL A   1      34.387  33.855  29.940  1.00  0.00    -0.237 OA
ATOM     50  O   UNL A   1      35.149  31.606  29.250  1.00  0.00    -0.237 OA
ATOM     51  O   UNL A   1      34.849  32.129  31.640  1.00  0.00    -0.744 OA
ENDBRANCH  44  48
ENDBRANCH  27  41
BRANCH  28  52
ATOM     52  C   UNL A   1      45.436  26.456  35.753  1.00  0.00     0.023 A 
ATOM     53  C   UNL A   1      46.833  26.542  35.664  1.00  0.00     0.031 A 
ATOM     54  C   UNL A   1      44.888  25.435  36.554  1.00  0.00     0.131 A 
ATOM     55  C   UNL A   1      47.637  25.628  36.367  1.00  0.00     0.055 A 
ATOM     56  C   UNL A   1      45.690  24.549  37.275  1.00  0.00     0.041 A 
ATOM     57  F   UNL A   1      43.558  25.311  36.678  1.00  0.00    -0.206 F 
ATOM     58  C   UNL A   1      47.075  24.642  37.183  1.00  0.00     0.022 A 
BRANCH  55  59
ATOM     59  S   UNL A   1      49.442  25.747  36.218  1.00  0.00     0.124 S 
ATOM     60  O   UNL A   1      49.853  25.813  37.615  1.00  0.00    -0.237 OA
ATOM     61  O   UNL A   1      49.771  24.517  35.506  1.00  0.00    -0.237 OA
ATOM     62  O   UNL A   1      49.638  26.975  35.449  1.00  0.00    -0.744 OA
ENDBRANCH  55  59
ENDBRANCH  28  52
BRANCH  40  63
ATOM     63  C   UNL A   1      42.723  32.682  37.442  1.00  0.00     0.023 A 
ATOM     64  C   UNL A   1      41.800  32.542  38.491  1.00  0.00     0.031 A 
ATOM     65  C   UNL A   1      43.773  33.603  37.588  1.00  0.00     0.131 A 
ATOM     66  C   UNL A   1      41.928  33.345  39.632  1.00  0.00     0.055 A 
ATOM     67  C   UNL A   1      43.924  34.361  38.747  1.00  0.00     0.041 A 
ATOM     68  F   UNL A   1      44.679  33.766  36.609  1.00  0.00    -0.206 F 
ATOM     69  C   UNL A   1      42.993  34.239  39.775  1.00  0.00     0.022 A 
BRANCH  66  70
ATOM     70  S   UNL A   1      40.648  33.244  40.912  1.00  0.00     0.124 S 
ATOM     71  O   UNL A   1      39.997  34.545  40.791  1.00  0.00    -0.237 OA
ATOM     72  O   UNL A   1      39.861  32.093  40.480  1.00  0.00    -0.237 OA
ATOM     73  O   UNL A   1      41.409  33.044  42.143  1.00  0.00    -0.744 OA
ENDBRANCH  66  70
ENDBRANCH  40  63
ENDBRANCH  14  15
ENDBRANCH   7   9
ENDBRANCH   6   7
ENDBRANCH   5   6
ENDBRANCH   4   5
ENDBRANCH   3   4
ENDBRANCH   2   3
ENDBRANCH   1   2
BRANCH   1  74
ATOM     74  O   UNL A   1      41.085  18.920  25.724  1.00  0.00    -0.377 OA
BRANCH  74  75
ATOM     75  C   UNL A   1      40.041  19.859  25.962  1.00  0.00     0.188 C 
BRANCH  75  76
ATOM     76  C   UNL A   1      38.744  19.752  25.141  1.00  0.00     0.188 C 
BRANCH  76  77
ATOM     77  O   UNL A   1      37.738  20.690  25.501  1.00  0.00    -0.376 OA
BRANCH  77  78
ATOM     78  C   UNL A   1      37.548  21.736  24.562  1.00  0.00     0.202 C 
BRANCH  78  79
ATOM     79  C   UNL A   1      36.272  22.564  24.745  1.00  0.00     0.261 C 
BRANCH  79  80
ATOM     80  O   UNL A   1      35.013  22.012  24.323  1.00  0.00    -0.463 OA
BRANCH  80  81
ATOM     81  C   UNL A   1      34.086  21.769  25.271  1.00  0.00     0.309 C 
ATOM     82  O   UNL A   1      34.333  21.602  26.462  1.00  0.00    -0.252 OA
BRANCH  81  83
ATOM     83  C   UNL A   1      32.717  21.451  24.692  1.00  0.00     0.107 C 
BRANCH  83  84
ATOM     84  C   UNL A   1      32.187  19.998  24.845  1.00  0.00     0.051 C 
BRANCH  84  85
ATOM     85  C   UNL A   1      33.026  18.734  24.813  1.00  0.00    -0.044 A 
ATOM     86  C   UNL A   1      34.374  18.671  24.450  1.00  0.00     0.004 A 
ATOM     87  C   UNL A   1      32.391  17.520  25.165  1.00  0.00     0.043 A 
ATOM     88  C   UNL A   1      35.050  17.444  24.377  1.00  0.00     0.003 A 
ATOM     89  C   UNL A   1      33.068  16.305  25.087  1.00  0.00     0.123 A 
ATOM     90  C   UNL A   1      34.394  16.255  24.688  1.00  0.00     0.039 A 
ATOM     91  F   UNL A   1      32.419  15.165  25.364  1.00  0.00    -0.207 F 
ENDBRANCH  84  85
ENDBRANCH  83  84
BRANCH  83  92
ATOM     92  C   UNL A   1      31.753  22.602  25.066  1.00  0.00     0.009 C 
ATOM     93  C   UNL A   1      31.108  22.400  26.464  1.00  0.00     0.033 C 
ATOM     94  C   UNL A   1      32.454  23.973  25.080  1.00  0.00     0.040 C 
ATOM     95  C   UNL A   1      30.133  23.512  26.792  1.00  0.00     0.161 C 
ATOM     96  C   UNL A   1      31.407  25.043  25.385  1.00  0.00     0.069 C 
ATOM     97  O   UNL A   1      30.776  24.771  26.662  1.00  0.00    -0.375 OA
ATOM     98  C   UNL A   1      31.885  26.517  25.253  1.00  0.00     0.035 C 
ATOM     99  C   UNL A   1      30.455  25.347  24.190  1.00  0.00     0.035 C 
ATOM    100  C   UNL A   1      30.510  26.822  24.618  1.00  0.00     0.006 C 
ENDBRANCH  83  92
ENDBRANCH  81  83
ENDBRANCH  80  81
ENDBRANCH  79  80
ENDBRANCH  78  79
ENDBRANCH  77  78
ENDBRANCH  76  77
ENDBRANCH  75  76
ENDBRANCH  74  75
ENDBRANCH   1  74
TORSDOF 26
ENDMDL
