MODEL 1
REMARK VINA RESULT:      -8.7      0.000      0.000
REMARK SMILES CC(C)(C)OC(=O)N1CCC[C@H]1C(=O)N[C@@H](Cc1ccccc1)C(=O)OCCOCCOCCOCCOC(=O)c1ccc(-c2c3nc(c(-c4cc(S(=O)(=O)[O-])ccc4F)c4ccc([nH]4)c(-c4cc(S(=O)(=O)[O-])ccc4F)c4nc(c(-c5cc(S(=O)(=O)[O-])ccc5F)c5ccc2[nH]5)C=C4)C=C3)cc1
REMARK SMILES IDX 31 1 30 2 29 3 28 4 27 5 26 6 24 7 25 8 16 9 15 10 13 11
REMARK SMILES IDX 14 12 12 14 8 15 9 16 10 17 11 18 6 19 7 20 5 21 2 22 1 23
REMARK SMILES IDX 3 24 4 25 17 26 18 27 19 28 23 29 20 30 22 31 21 32 32 33
REMARK SMILES IDX 33 34 34 35 35 36 36 37 37 38 38 39 39 40 40 41 41 42 42 43
REMARK SMILES IDX 103 44 43 45 102 46 44 47 45 48 46 49 96 50 47 51 101 52
REMARK SMILES IDX 95 53 97 54 48 55 100 56 94 57 93 58 49 60 81 61 61 62 80 63
REMARK SMILES IDX 62 64 65 65 79 66 98 67 63 68 64 69 78 71 99 72 66 73 50 74
REMARK SMILES IDX 51 75 59 76 52 77 58 78 60 79 57 80 53 81 54 82 55 83 56 84
REMARK SMILES IDX 82 85 83 86 91 87 84 88 90 89 92 90 89 91 85 92 86 93 87 94
REMARK SMILES IDX 88 95 67 96 68 97 76 98 69 99 75 100 77 101 74 102 70 103
REMARK SMILES IDX 71 104 72 105 73 106
REMARK H PARENT 15 13 97 59 65 70
REMARK Flexibility Score: inf
ROOT
ATOM      1  C   UNL A   1      33.021  21.936  25.699  1.00  0.00     0.188 C 
ENDROOT
BRANCH   1   2
ATOM      2  C   UNL A   1      32.136  23.114  26.166  1.00  0.00     0.188 C 
BRANCH   2   3
ATOM      3  O   UNL A   1      31.521  23.987  25.228  1.00  0.00    -0.376 OA
BRANCH   3   4
ATOM      4  C   UNL A   1      30.756  25.078  25.713  1.00  0.00     0.202 C 
BRANCH   4   5
ATOM      5  C   UNL A   1      31.321  25.923  26.864  1.00  0.00     0.261 C 
BRANCH   5   6
ATOM      6  O   UNL A   1      32.465  26.731  26.513  1.00  0.00    -0.462 OA
BRANCH   6   7
ATOM      7  C   UNL A   1      32.455  28.051  26.807  1.00  0.00     0.329 C 
ATOM      8  O   UNL A   1      31.560  28.605  27.442  1.00  0.00    -0.250 OA
BRANCH   7   9
ATOM      9  C   UNL A   1      33.583  28.867  26.098  1.00  0.00     0.196 C 
BRANCH   9  10
ATOM     10  N   UNL A   1      33.559  29.290  24.677  1.00  0.00    -0.341 N 
ATOM     11  C   UNL A   1      33.120  28.698  23.520  1.00  0.00     0.243 C 
ATOM     12  O   UNL A   1      33.280  29.329  22.470  1.00  0.00    -0.273 OA
ATOM     13  H   UNL A   1      33.939  30.187  24.533  1.00  0.00     0.164 HD
BRANCH  11  14
ATOM     14  C   UNL A   1      32.536  27.267  23.498  1.00  0.00     0.178 C 
ATOM     15  N   UNL A   1      31.422  27.099  22.545  1.00  0.00    -0.296 N 
ATOM     16  C   UNL A   1      31.782  26.271  21.419  1.00  0.00     0.124 C 
ATOM     17  C   UNL A   1      32.858  25.374  21.995  1.00  0.00     0.024 C 
ATOM     18  C   UNL A   1      33.601  26.287  22.973  1.00  0.00     0.037 C 
BRANCH  15  19
ATOM     19  C   UNL A   1      30.172  27.596  22.823  1.00  0.00     0.410 C 
ATOM     20  O   UNL A   1      29.499  27.134  23.717  1.00  0.00    -0.224 OA
BRANCH  19  21
ATOM     21  O   UNL A   1      29.772  28.580  21.965  1.00  0.00    -0.444 OA
BRANCH  21  22
ATOM     22  C   UNL A   1      28.997  29.731  22.426  1.00  0.00     0.106 C 
ATOM     23  C   UNL A   1      29.689  30.240  23.700  1.00  0.00     0.056 C 
ATOM     24  C   UNL A   1      27.597  29.231  22.786  1.00  0.00     0.056 C 
ATOM     25  C   UNL A   1      28.927  30.918  21.453  1.00  0.00     0.056 C 
ENDBRANCH  21  22
ENDBRANCH  19  21
ENDBRANCH  15  19
ENDBRANCH  11  14
ENDBRANCH   9  10
BRANCH   9  26
ATOM     26  C   UNL A   1      33.804  30.114  26.992  1.00  0.00     0.072 C 
BRANCH  26  27
ATOM     27  C   UNL A   1      35.160  30.378  27.640  1.00  0.00    -0.045 A 
ATOM     28  C   UNL A   1      35.413  31.692  28.071  1.00  0.00     0.004 A 
ATOM     29  C   UNL A   1      36.181  29.432  27.823  1.00  0.00     0.004 A 
ATOM     30  C   UNL A   1      36.646  32.051  28.622  1.00  0.00     0.000 A 
ATOM     31  C   UNL A   1      37.422  29.795  28.356  1.00  0.00     0.000 A 
ATOM     32  C   UNL A   1      37.657  31.106  28.751  1.00  0.00     0.000 A 
ENDBRANCH  26  27
ENDBRANCH   9  26
ENDBRANCH   7   9
ENDBRANCH   6   7
ENDBRANCH   5   6
ENDBRANCH   4   5
ENDBRANCH   3   4
ENDBRANCH   2   3
ENDBRANCH   1   2
BRANCH   1  33
ATOM     33  O   UNL A   1      34.278  21.810  26.338  1.00  0.00    -0.377 OA
BRANCH  33  34
ATOM     34  C   UNL A   1      35.250  21.046  25.634  1.00  0.00     0.188 C 
BRANCH  34  35
ATOM     35  C   UNL A   1      36.669  21.638  25.530  1.00  0.00     0.188 C 
BRANCH  35  36
ATOM     36  O   UNL A   1      36.750  23.045  25.708  1.00  0.00    -0.376 OA
BRANCH  36  37
ATOM     37  C   UNL A   1      38.012  23.688  25.640  1.00  0.00     0.202 C 
BRANCH  37  38
ATOM     38  C   UNL A   1      38.508  24.447  26.884  1.00  0.00     0.261 C 
BRANCH  38  39
ATOM     39  O   UNL A   1      39.553  25.392  26.631  1.00  0.00    -0.460 OA
BRANCH  39  40
ATOM     40  C   UNL A   1      40.701  25.207  27.318  1.00  0.00     0.338 C 
ATOM     41  O   UNL A   1      41.279  24.156  27.519  1.00  0.00    -0.246 OA
BRANCH  40  42
ATOM     42  C   UNL A   1      41.260  26.542  27.586  1.00  0.00     0.060 A 
ATOM     43  C   UNL A   1      42.455  26.627  28.311  1.00  0.00     0.016 A 
ATOM     44  C   UNL A   1      40.626  27.692  27.108  1.00  0.00     0.016 A 
ATOM     45  C   UNL A   1      43.018  27.869  28.574  1.00  0.00     0.010 A 
ATOM     46  C   UNL A   1      41.168  28.939  27.411  1.00  0.00     0.010 A 
ATOM     47  C   UNL A   1      42.349  29.029  28.170  1.00  0.00    -0.014 A 
BRANCH  47  48
ATOM     48  C   UNL A   1      42.758  30.319  28.765  1.00  0.00     0.031 A 
ATOM     49  C   UNL A   1      41.918  30.863  29.886  1.00  0.00     0.074 A 
ATOM     50  C   UNL A   1      43.873  30.950  28.355  1.00  0.00     0.049 A 
ATOM     51  N   UNL A   1      42.042  31.981  30.547  1.00  0.00    -0.248 NA
ATOM     52  C   UNL A   1      40.783  30.029  30.319  1.00  0.00     0.031 C 
ATOM     53  C   UNL A   1      44.786  30.464  27.322  1.00  0.00     0.029 A 
ATOM     54  N   UNL A   1      44.420  32.140  28.760  1.00  0.00    -0.354 N 
ATOM     55  C   UNL A   1      40.994  31.994  31.461  1.00  0.00     0.074 A 
ATOM     56  C   UNL A   1      40.234  30.782  31.259  1.00  0.00     0.031 C 
ATOM     57  C   UNL A   1      45.773  31.364  27.157  1.00  0.00     0.029 A 
ATOM     58  C   UNL A   1      45.534  32.505  28.041  1.00  0.00     0.049 A 
ATOM     59  H   UNL A   1      44.051  32.682  29.494  1.00  0.00     0.167 HD
ATOM     60  C   UNL A   1      40.697  32.940  32.382  1.00  0.00     0.034 A 
ATOM     61  C   UNL A   1      46.249  33.649  28.073  1.00  0.00     0.034 A 
ATOM     62  C   UNL A   1      41.470  34.141  32.560  1.00  0.00     0.049 A 
ATOM     63  C   UNL A   1      45.847  34.724  29.058  1.00  0.00     0.074 A 
ATOM     64  C   UNL A   1      41.281  35.157  33.480  1.00  0.00     0.029 A 
ATOM     65  N   UNL A   1      42.570  34.501  31.790  1.00  0.00    -0.354 N 
ATOM     66  N   UNL A   1      44.866  34.718  29.935  1.00  0.00    -0.248 NA
ATOM     67  C   UNL A   1      46.651  35.952  29.068  1.00  0.00     0.031 C 
ATOM     68  C   UNL A   1      42.205  36.168  33.206  1.00  0.00     0.029 A 
ATOM     69  C   UNL A   1      43.038  35.742  32.184  1.00  0.00     0.049 A 
ATOM     70  H   UNL A   1      42.958  33.952  31.070  1.00  0.00     0.167 HD
ATOM     71  C   UNL A   1      44.962  35.927  30.621  1.00  0.00     0.074 A 
ATOM     72  C   UNL A   1      46.105  36.624  30.071  1.00  0.00     0.031 C 
ATOM     73  C   UNL A   1      44.182  36.420  31.618  1.00  0.00     0.034 A 
BRANCH  60  74
ATOM     74  C   UNL A   1      39.450  32.751  33.208  1.00  0.00     0.023 A 
ATOM     75  C   UNL A   1      39.494  32.388  34.565  1.00  0.00     0.031 A 
ATOM     76  C   UNL A   1      38.189  32.948  32.617  1.00  0.00     0.131 A 
ATOM     77  C   UNL A   1      38.297  32.191  35.273  1.00  0.00     0.055 A 
ATOM     78  C   UNL A   1      37.006  32.822  33.345  1.00  0.00     0.041 A 
ATOM     79  F   UNL A   1      38.087  33.262  31.316  1.00  0.00    -0.206 F 
ATOM     80  C   UNL A   1      37.056  32.434  34.679  1.00  0.00     0.022 A 
BRANCH  77  81
ATOM     81  S   UNL A   1      38.378  31.508  36.951  1.00  0.00     0.124 S 
ATOM     82  O   UNL A   1      39.737  31.867  37.350  1.00  0.00    -0.237 OA
ATOM     83  O   UNL A   1      37.304  32.217  37.634  1.00  0.00    -0.237 OA
ATOM     84  O   UNL A   1      38.153  30.078  36.751  1.00  0.00    -0.744 OA
ENDBRANCH  77  81
ENDBRANCH  60  74
BRANCH  61  85
ATOM     85  C   UNL A   1      47.366  33.880  27.108  1.00  0.00     0.023 A 
ATOM     86  C   UNL A   1      48.657  33.382  27.348  1.00  0.00     0.031 A 
ATOM     87  C   UNL A   1      47.177  34.686  25.970  1.00  0.00     0.131 A 
ATOM     88  C   UNL A   1      49.719  33.751  26.506  1.00  0.00     0.055 A 
ATOM     89  C   UNL A   1      48.222  34.993  25.096  1.00  0.00     0.041 A 
ATOM     90  F   UNL A   1      45.967  35.198  25.691  1.00  0.00    -0.206 F 
ATOM     91  C   UNL A   1      49.507  34.540  25.373  1.00  0.00     0.022 A 
BRANCH  88  92
ATOM     92  S   UNL A   1      51.407  33.297  26.989  1.00  0.00     0.124 S 
ATOM     93  O   UNL A   1      51.739  32.287  25.990  1.00  0.00    -0.237 OA
ATOM     94  O   UNL A   1      52.108  34.571  26.871  1.00  0.00    -0.237 OA
ATOM     95  O   UNL A   1      51.247  32.798  28.353  1.00  0.00    -0.744 OA
ENDBRANCH  88  92
ENDBRANCH  61  85
BRANCH  73  96
ATOM     96  C   UNL A   1      44.579  37.749  32.215  1.00  0.00     0.023 A 
ATOM     97  C   UNL A   1      44.018  38.960  31.774  1.00  0.00     0.031 A 
ATOM     98  C   UNL A   1      45.535  37.800  33.246  1.00  0.00     0.131 A 
ATOM     99  C   UNL A   1      44.464  40.174  32.317  1.00  0.00     0.055 A 
ATOM    100  C   UNL A   1      45.920  39.005  33.834  1.00  0.00     0.041 A 
ATOM    101  F   UNL A   1      46.106  36.675  33.705  1.00  0.00    -0.206 F 
ATOM    102  C   UNL A   1      45.394  40.203  33.360  1.00  0.00     0.022 A 
BRANCH  99 103
ATOM    103  S   UNL A   1      43.891  41.724  31.570  1.00  0.00     0.124 S 
ATOM    104  O   UNL A   1      45.098  42.543  31.609  1.00  0.00    -0.237 OA
ATOM    105  O   UNL A   1      43.456  41.290  30.246  1.00  0.00    -0.237 OA
ATOM    106  O   UNL A   1      42.817  42.158  32.463  1.00  0.00    -0.744 OA
ENDBRANCH  99 103
ENDBRANCH  73  96
ENDBRANCH  47  48
ENDBRANCH  40  42
ENDBRANCH  39  40
ENDBRANCH  38  39
ENDBRANCH  37  38
ENDBRANCH  36  37
ENDBRANCH  35  36
ENDBRANCH  34  35
ENDBRANCH  33  34
ENDBRANCH   1  33
TORSDOF 30
ENDMDL
MODEL 2
REMARK VINA RESULT:      -7.9      6.918      9.601
REMARK SMILES CC(C)(C)OC(=O)N1CCC[C@H]1C(=O)N[C@@H](Cc1ccccc1)C(=O)OCCOCCOCCOCCOC(=O)c1ccc(-c2c3nc(c(-c4cc(S(=O)(=O)[O-])ccc4F)c4ccc([nH]4)c(-c4cc(S(=O)(=O)[O-])ccc4F)c4nc(c(-c5cc(S(=O)(=O)[O-])ccc5F)c5ccc2[nH]5)C=C4)C=C3)cc1
REMARK SMILES IDX 31 1 30 2 29 3 28 4 27 5 26 6 24 7 25 8 16 9 15 10 13 11
REMARK SMILES IDX 14 12 12 14 8 15 9 16 10 17 11 18 6 19 7 20 5 21 2 22 1 23
REMARK SMILES IDX 3 24 4 25 17 26 18 27 19 28 23 29 20 30 22 31 21 32 32 33
REMARK SMILES IDX 33 34 34 35 35 36 36 37 37 38 38 39 39 40 40 41 41 42 42 43
REMARK SMILES IDX 103 44 43 45 102 46 44 47 45 48 46 49 96 50 47 51 101 52
REMARK SMILES IDX 95 53 97 54 48 55 100 56 94 57 93 58 49 60 81 61 61 62 80 63
REMARK SMILES IDX 62 64 65 65 79 66 98 67 63 68 64 69 78 71 99 72 66 73 50 74
REMARK SMILES IDX 51 75 59 76 52 77 58 78 60 79 57 80 53 81 54 82 55 83 56 84
REMARK SMILES IDX 82 85 83 86 91 87 84 88 90 89 92 90 89 91 85 92 86 93 87 94
REMARK SMILES IDX 88 95 67 96 68 97 76 98 69 99 75 100 77 101 74 102 70 103
REMARK SMILES IDX 71 104 72 105 73 106
REMARK H PARENT 15 13 97 59 65 70
REMARK Flexibility Score: inf
ROOT
ATOM      1  C   UNL A   1      34.478  21.581  26.341  1.00  0.00     0.188 C 
ENDROOT
BRANCH   1   2
ATOM      2  C   UNL A   1      33.420  22.283  27.223  1.00  0.00     0.188 C 
BRANCH   2   3
ATOM      3  O   UNL A   1      32.044  22.277  26.863  1.00  0.00    -0.376 OA
BRANCH   3   4
ATOM      4  C   UNL A   1      31.351  23.512  26.804  1.00  0.00     0.202 C 
BRANCH   4   5
ATOM      5  C   UNL A   1      31.892  24.619  25.888  1.00  0.00     0.261 C 
BRANCH   5   6
ATOM      6  O   UNL A   1      32.784  25.554  26.533  1.00  0.00    -0.462 OA
BRANCH   6   7
ATOM      7  C   UNL A   1      33.951  25.875  25.930  1.00  0.00     0.329 C 
ATOM      8  O   UNL A   1      34.830  25.059  25.661  1.00  0.00    -0.250 OA
BRANCH   7   9
ATOM      9  C   UNL A   1      34.186  27.412  25.780  1.00  0.00     0.196 C 
BRANCH   9  10
ATOM     10  N   UNL A   1      34.011  28.178  24.523  1.00  0.00    -0.341 N 
ATOM     11  C   UNL A   1      33.389  27.913  23.330  1.00  0.00     0.243 C 
ATOM     12  O   UNL A   1      33.459  28.781  22.454  1.00  0.00    -0.273 OA
ATOM     13  H   UNL A   1      34.432  29.069  24.550  1.00  0.00     0.164 HD
BRANCH  11  14
ATOM     14  C   UNL A   1      32.708  26.556  23.042  1.00  0.00     0.178 C 
ATOM     15  N   UNL A   1      31.514  26.666  22.181  1.00  0.00    -0.296 N 
ATOM     16  C   UNL A   1      31.727  26.100  20.871  1.00  0.00     0.124 C 
ATOM     17  C   UNL A   1      32.780  25.043  21.130  1.00  0.00     0.024 C 
ATOM     18  C   UNL A   1      33.658  25.670  22.216  1.00  0.00     0.037 C 
BRANCH  15  19
ATOM     19  C   UNL A   1      30.327  27.148  22.677  1.00  0.00     0.410 C 
ATOM     20  O   UNL A   1      29.764  26.598  23.597  1.00  0.00    -0.224 OA
BRANCH  19  21
ATOM     21  O   UNL A   1      29.848  28.228  21.993  1.00  0.00    -0.444 OA
BRANCH  21  22
ATOM     22  C   UNL A   1      29.237  29.363  22.683  1.00  0.00     0.106 C 
ATOM     23  C   UNL A   1      29.222  30.526  21.679  1.00  0.00     0.056 C 
ATOM     24  C   UNL A   1      30.145  29.733  23.858  1.00  0.00     0.056 C 
ATOM     25  C   UNL A   1      27.787  29.158  23.148  1.00  0.00     0.056 C 
ENDBRANCH  21  22
ENDBRANCH  19  21
ENDBRANCH  15  19
ENDBRANCH  11  14
ENDBRANCH   9  10
BRANCH   9  26
ATOM     26  C   UNL A   1      33.325  28.063  26.892  1.00  0.00     0.072 C 
BRANCH  26  27
ATOM     27  C   UNL A   1      33.354  29.572  27.118  1.00  0.00    -0.045 A 
ATOM     28  C   UNL A   1      34.544  30.115  27.632  1.00  0.00     0.004 A 
ATOM     29  C   UNL A   1      32.293  30.459  26.879  1.00  0.00     0.004 A 
ATOM     30  C   UNL A   1      34.653  31.476  27.931  1.00  0.00     0.000 A 
ATOM     31  C   UNL A   1      32.393  31.817  27.196  1.00  0.00     0.000 A 
ATOM     32  C   UNL A   1      33.572  32.326  27.728  1.00  0.00     0.000 A 
ENDBRANCH  26  27
ENDBRANCH   9  26
ENDBRANCH   7   9
ENDBRANCH   6   7
ENDBRANCH   5   6
ENDBRANCH   4   5
ENDBRANCH   3   4
ENDBRANCH   2   3
ENDBRANCH   1   2
BRANCH   1  33
ATOM     33  O   UNL A   1      35.798  22.083  26.434  1.00  0.00    -0.377 OA
BRANCH  33  34
ATOM     34  C   UNL A   1      36.753  21.461  25.582  1.00  0.00     0.188 C 
BRANCH  34  35
ATOM     35  C   UNL A   1      38.149  22.109  25.500  1.00  0.00     0.188 C 
BRANCH  35  36
ATOM     36  O   UNL A   1      39.024  21.791  26.573  1.00  0.00    -0.376 OA
BRANCH  36  37
ATOM     37  C   UNL A   1      40.337  21.331  26.293  1.00  0.00     0.202 C 
BRANCH  37  38
ATOM     38  C   UNL A   1      41.449  22.377  26.106  1.00  0.00     0.261 C 
BRANCH  38  39
ATOM     39  O   UNL A   1      42.064  22.820  27.320  1.00  0.00    -0.460 OA
BRANCH  39  40
ATOM     40  C   UNL A   1      43.363  23.179  27.233  1.00  0.00     0.338 C 
ATOM     41  O   UNL A   1      44.001  23.397  26.221  1.00  0.00    -0.246 OA
BRANCH  40  42
ATOM     42  C   UNL A   1      43.815  23.488  28.599  1.00  0.00     0.060 A 
ATOM     43  C   UNL A   1      43.011  23.082  29.671  1.00  0.00     0.016 A 
ATOM     44  C   UNL A   1      45.028  24.146  28.819  1.00  0.00     0.016 A 
ATOM     45  C   UNL A   1      43.410  23.346  30.975  1.00  0.00     0.010 A 
ATOM     46  C   UNL A   1      45.406  24.449  30.126  1.00  0.00     0.010 A 
ATOM     47  C   UNL A   1      44.581  24.076  31.203  1.00  0.00    -0.014 A 
BRANCH  47  48
ATOM     48  C   UNL A   1      44.796  24.656  32.545  1.00  0.00     0.031 A 
ATOM     49  C   UNL A   1      44.412  26.095  32.748  1.00  0.00     0.074 A 
ATOM     50  C   UNL A   1      45.264  23.908  33.559  1.00  0.00     0.049 A 
ATOM     51  N   UNL A   1      44.531  26.844  33.809  1.00  0.00    -0.248 NA
ATOM     52  C   UNL A   1      43.809  26.782  31.591  1.00  0.00     0.031 C 
ATOM     53  C   UNL A   1      45.600  22.488  33.474  1.00  0.00     0.029 A 
ATOM     54  N   UNL A   1      45.541  24.245  34.858  1.00  0.00    -0.354 N 
ATOM     55  C   UNL A   1      44.036  28.092  33.447  1.00  0.00     0.074 A 
ATOM     56  C   UNL A   1      43.631  28.006  32.062  1.00  0.00     0.031 C 
ATOM     57  C   UNL A   1      46.062  22.079  34.670  1.00  0.00     0.029 A 
ATOM     58  C   UNL A   1      46.094  23.218  35.587  1.00  0.00     0.049 A 
ATOM     59  H   UNL A   1      45.362  25.136  35.235  1.00  0.00     0.167 HD
ATOM     60  C   UNL A   1      43.935  29.207  34.207  1.00  0.00     0.034 A 
ATOM     61  C   UNL A   1      46.601  23.217  36.837  1.00  0.00     0.034 A 
ATOM     62  C   UNL A   1      44.350  29.265  35.584  1.00  0.00     0.049 A 
ATOM     63  C   UNL A   1      46.548  24.499  37.638  1.00  0.00     0.074 A 
ATOM     64  C   UNL A   1      44.270  30.332  36.461  1.00  0.00     0.029 A 
ATOM     65  N   UNL A   1      44.942  28.219  36.281  1.00  0.00    -0.354 N 
ATOM     66  N   UNL A   1      46.057  25.670  37.293  1.00  0.00    -0.248 NA
ATOM     67  C   UNL A   1      47.103  24.460  38.996  1.00  0.00     0.031 C 
ATOM     68  C   UNL A   1      44.895  29.961  37.654  1.00  0.00     0.029 A 
ATOM     69  C   UNL A   1      45.273  28.631  37.561  1.00  0.00     0.049 A 
ATOM     70  H   UNL A   1      45.102  27.318  35.918  1.00  0.00     0.167 HD
ATOM     71  C   UNL A   1      46.216  26.492  38.407  1.00  0.00     0.074 A 
ATOM     72  C   UNL A   1      46.827  25.678  39.436  1.00  0.00     0.031 C 
ATOM     73  C   UNL A   1      45.886  27.800  38.571  1.00  0.00     0.034 A 
BRANCH  60  74
ATOM     74  C   UNL A   1      43.429  30.465  33.547  1.00  0.00     0.023 A 
ATOM     75  C   UNL A   1      44.268  31.319  32.812  1.00  0.00     0.031 A 
ATOM     76  C   UNL A   1      42.069  30.807  33.657  1.00  0.00     0.131 A 
ATOM     77  C   UNL A   1      43.746  32.495  32.251  1.00  0.00     0.055 A 
ATOM     78  C   UNL A   1      41.542  31.939  33.036  1.00  0.00     0.041 A 
ATOM     79  F   UNL A   1      41.229  30.045  34.376  1.00  0.00    -0.206 F 
ATOM     80  C   UNL A   1      42.383  32.795  32.333  1.00  0.00     0.022 A 
BRANCH  77  81
ATOM     81  S   UNL A   1      44.889  33.687  31.502  1.00  0.00     0.124 S 
ATOM     82  O   UNL A   1      44.313  34.959  31.930  1.00  0.00    -0.237 OA
ATOM     83  O   UNL A   1      46.165  33.327  32.109  1.00  0.00    -0.237 OA
ATOM     84  O   UNL A   1      44.782  33.412  30.070  1.00  0.00    -0.744 OA
ENDBRANCH  77  81
ENDBRANCH  60  74
BRANCH  61  85
ATOM     85  C   UNL A   1      47.266  22.000  37.392  1.00  0.00     0.023 A 
ATOM     86  C   UNL A   1      46.555  21.058  38.153  1.00  0.00     0.031 A 
ATOM     87  C   UNL A   1      48.653  21.809  37.246  1.00  0.00     0.131 A 
ATOM     88  C   UNL A   1      47.240  20.013  38.795  1.00  0.00     0.055 A 
ATOM     89  C   UNL A   1      49.318  20.728  37.828  1.00  0.00     0.041 A 
ATOM     90  F   UNL A   1      49.389  22.680  36.536  1.00  0.00    -0.206 F 
ATOM     91  C   UNL A   1      48.614  19.833  38.624  1.00  0.00     0.022 A 
BRANCH  88  92
ATOM     92  S   UNL A   1      46.329  18.970  39.967  1.00  0.00     0.124 S 
ATOM     93  O   UNL A   1      47.416  18.357  40.722  1.00  0.00    -0.237 OA
ATOM     94  O   UNL A   1      45.524  19.953  40.683  1.00  0.00    -0.237 OA
ATOM     95  O   UNL A   1      45.579  18.063  39.102  1.00  0.00    -0.744 OA
ENDBRANCH  88  92
ENDBRANCH  61  85
BRANCH  73  96
ATOM     96  C   UNL A   1      46.124  28.408  39.933  1.00  0.00     0.023 A 
ATOM     97  C   UNL A   1      45.142  28.392  40.938  1.00  0.00     0.031 A 
ATOM     98  C   UNL A   1      47.361  29.012  40.227  1.00  0.00     0.131 A 
ATOM     99  C   UNL A   1      45.389  29.024  42.165  1.00  0.00     0.055 A 
ATOM    100  C   UNL A   1      47.627  29.573  41.476  1.00  0.00     0.041 A 
ATOM    101  F   UNL A   1      48.336  29.059  39.305  1.00  0.00    -0.206 F 
ATOM    102  C   UNL A   1      46.633  29.595  42.449  1.00  0.00     0.022 A 
BRANCH  99 103
ATOM    103  S   UNL A   1      44.026  29.186  43.350  1.00  0.00     0.124 S 
ATOM    104  O   UNL A   1      43.001  29.843  42.545  1.00  0.00    -0.237 OA
ATOM    105  O   UNL A   1      43.760  27.798  43.713  1.00  0.00    -0.237 OA
ATOM    106  O   UNL A   1      44.596  30.007  44.418  1.00  0.00    -0.744 OA
ENDBRANCH  99 103
ENDBRANCH  73  96
ENDBRANCH  47  48
ENDBRANCH  40  42
ENDBRANCH  39  40
ENDBRANCH  38  39
ENDBRANCH  37  38
ENDBRANCH  36  37
ENDBRANCH  35  36
ENDBRANCH  34  35
ENDBRANCH  33  34
ENDBRANCH   1  33
TORSDOF 30
ENDMDL
MODEL 3
REMARK VINA RESULT:      -7.2      6.085     12.278
REMARK SMILES CC(C)(C)OC(=O)N1CCC[C@H]1C(=O)N[C@@H](Cc1ccccc1)C(=O)OCCOCCOCCOCCOC(=O)c1ccc(-c2c3nc(c(-c4cc(S(=O)(=O)[O-])ccc4F)c4ccc([nH]4)c(-c4cc(S(=O)(=O)[O-])ccc4F)c4nc(c(-c5cc(S(=O)(=O)[O-])ccc5F)c5ccc2[nH]5)C=C4)C=C3)cc1
REMARK SMILES IDX 31 1 30 2 29 3 28 4 27 5 26 6 24 7 25 8 16 9 15 10 13 11
REMARK SMILES IDX 14 12 12 14 8 15 9 16 10 17 11 18 6 19 7 20 5 21 2 22 1 23
REMARK SMILES IDX 3 24 4 25 17 26 18 27 19 28 23 29 20 30 22 31 21 32 32 33
REMARK SMILES IDX 33 34 34 35 35 36 36 37 37 38 38 39 39 40 40 41 41 42 42 43
REMARK SMILES IDX 103 44 43 45 102 46 44 47 45 48 46 49 96 50 47 51 101 52
REMARK SMILES IDX 95 53 97 54 48 55 100 56 94 57 93 58 49 60 81 61 61 62 80 63
REMARK SMILES IDX 62 64 65 65 79 66 98 67 63 68 64 69 78 71 99 72 66 73 50 74
REMARK SMILES IDX 51 75 59 76 52 77 58 78 60 79 57 80 53 81 54 82 55 83 56 84
REMARK SMILES IDX 82 85 83 86 91 87 84 88 90 89 92 90 89 91 85 92 86 93 87 94
REMARK SMILES IDX 88 95 67 96 68 97 76 98 69 99 75 100 77 101 74 102 70 103
REMARK SMILES IDX 71 104 72 105 73 106
REMARK H PARENT 15 13 97 59 65 70
REMARK Flexibility Score: inf
ROOT
ATOM      1  C   UNL A   1      35.877  31.651  31.962  1.00  0.00     0.188 C 
ENDROOT
BRANCH   1   2
ATOM      2  C   UNL A   1      37.303  31.492  31.385  1.00  0.00     0.188 C 
BRANCH   2   3
ATOM      3  O   UNL A   1      38.010  30.265  31.506  1.00  0.00    -0.376 OA
BRANCH   3   4
ATOM      4  C   UNL A   1      38.136  29.676  32.789  1.00  0.00     0.202 C 
BRANCH   4   5
ATOM      5  C   UNL A   1      39.543  29.412  33.346  1.00  0.00     0.261 C 
BRANCH   5   6
ATOM      6  O   UNL A   1      40.138  28.169  32.915  1.00  0.00    -0.462 OA
BRANCH   6   7
ATOM      7  C   UNL A   1      41.417  28.167  32.475  1.00  0.00     0.329 C 
ATOM      8  O   UNL A   1      42.396  28.144  33.217  1.00  0.00    -0.250 OA
BRANCH   7   9
ATOM      9  C   UNL A   1      41.559  28.402  30.938  1.00  0.00     0.196 C 
BRANCH   9  10
ATOM     10  N   UNL A   1      40.437  28.376  29.968  1.00  0.00    -0.341 N 
ATOM     11  C   UNL A   1      40.362  28.186  28.612  1.00  0.00     0.243 C 
ATOM     12  O   UNL A   1      39.241  28.258  28.096  1.00  0.00    -0.273 OA
ATOM     13  H   UNL A   1      39.558  28.526  30.387  1.00  0.00     0.164 HD
BRANCH  11  14
ATOM     14  C   UNL A   1      41.620  27.986  27.738  1.00  0.00     0.178 C 
ATOM     15  N   UNL A   1      41.750  26.620  27.194  1.00  0.00    -0.296 N 
ATOM     16  C   UNL A   1      41.546  26.575  25.766  1.00  0.00     0.124 C 
ATOM     17  C   UNL A   1      41.969  27.961  25.324  1.00  0.00     0.024 C 
ATOM     18  C   UNL A   1      41.511  28.860  26.475  1.00  0.00     0.037 C 
BRANCH  15  19
ATOM     19  C   UNL A   1      42.148  25.576  27.993  1.00  0.00     0.410 C 
ATOM     20  O   UNL A   1      41.338  24.895  28.582  1.00  0.00    -0.224 OA
BRANCH  19  21
ATOM     21  O   UNL A   1      43.503  25.450  28.093  1.00  0.00    -0.444 OA
BRANCH  21  22
ATOM     22  C   UNL A   1      44.218  24.337  27.469  1.00  0.00     0.106 C 
ATOM     23  C   UNL A   1      44.955  23.604  28.600  1.00  0.00     0.056 C 
ATOM     24  C   UNL A   1      45.250  24.932  26.508  1.00  0.00     0.056 C 
ATOM     25  C   UNL A   1      43.340  23.295  26.761  1.00  0.00     0.056 C 
ENDBRANCH  21  22
ENDBRANCH  19  21
ENDBRANCH  15  19
ENDBRANCH  11  14
ENDBRANCH   9  10
BRANCH   9  26
ATOM     26  C   UNL A   1      42.311  29.750  30.802  1.00  0.00     0.072 C 
BRANCH  26  27
ATOM     27  C   UNL A   1      43.405  29.930  29.752  1.00  0.00    -0.045 A 
ATOM     28  C   UNL A   1      43.302  31.053  28.914  1.00  0.00     0.004 A 
ATOM     29  C   UNL A   1      44.488  29.064  29.538  1.00  0.00     0.004 A 
ATOM     30  C   UNL A   1      44.218  31.276  27.881  1.00  0.00     0.000 A 
ATOM     31  C   UNL A   1      45.394  29.275  28.494  1.00  0.00     0.000 A 
ATOM     32  C   UNL A   1      45.257  30.379  27.662  1.00  0.00     0.000 A 
ENDBRANCH  26  27
ENDBRANCH   9  26
ENDBRANCH   7   9
ENDBRANCH   6   7
ENDBRANCH   5   6
ENDBRANCH   4   5
ENDBRANCH   3   4
ENDBRANCH   2   3
ENDBRANCH   1   2
BRANCH   1  33
ATOM     33  O   UNL A   1      35.361  32.969  31.990  1.00  0.00    -0.377 OA
BRANCH  33  34
ATOM     34  C   UNL A   1      34.692  33.340  33.190  1.00  0.00     0.188 C 
BRANCH  34  35
ATOM     35  C   UNL A   1      35.572  33.741  34.390  1.00  0.00     0.188 C 
BRANCH  35  36
ATOM     36  O   UNL A   1      36.918  34.064  34.069  1.00  0.00    -0.376 OA
BRANCH  36  37
ATOM     37  C   UNL A   1      37.975  33.341  34.679  1.00  0.00     0.202 C 
BRANCH  37  38
ATOM     38  C   UNL A   1      39.255  34.108  35.057  1.00  0.00     0.261 C 
BRANCH  38  39
ATOM     39  O   UNL A   1      40.468  33.523  34.571  1.00  0.00    -0.460 OA
BRANCH  39  40
ATOM     40  C   UNL A   1      41.602  33.891  35.206  1.00  0.00     0.338 C 
ATOM     41  O   UNL A   1      41.699  34.389  36.311  1.00  0.00    -0.246 OA
BRANCH  40  42
ATOM     42  C   UNL A   1      42.726  33.367  34.414  1.00  0.00     0.060 A 
ATOM     43  C   UNL A   1      42.470  32.929  33.109  1.00  0.00     0.016 A 
ATOM     44  C   UNL A   1      44.018  33.331  34.943  1.00  0.00     0.016 A 
ATOM     45  C   UNL A   1      43.508  32.438  32.327  1.00  0.00     0.010 A 
ATOM     46  C   UNL A   1      45.051  32.797  34.174  1.00  0.00     0.010 A 
ATOM     47  C   UNL A   1      44.789  32.322  32.876  1.00  0.00    -0.014 A 
BRANCH  47  48
ATOM     48  C   UNL A   1      45.778  31.476  32.177  1.00  0.00     0.031 A 
ATOM     49  C   UNL A   1      46.505  32.079  31.008  1.00  0.00     0.074 A 
ATOM     50  C   UNL A   1      46.058  30.233  32.608  1.00  0.00     0.049 A 
ATOM     51  N   UNL A   1      47.387  31.541  30.213  1.00  0.00    -0.248 NA
ATOM     52  C   UNL A   1      46.191  33.486  30.697  1.00  0.00     0.031 C 
ATOM     53  C   UNL A   1      45.453  29.588  33.773  1.00  0.00     0.029 A 
ATOM     54  N   UNL A   1      46.921  29.292  32.110  1.00  0.00    -0.354 N 
ATOM     55  C   UNL A   1      47.722  32.533  29.297  1.00  0.00     0.074 A 
ATOM     56  C   UNL A   1      46.936  33.701  29.624  1.00  0.00     0.031 C 
ATOM     57  C   UNL A   1      45.950  28.343  33.886  1.00  0.00     0.029 A 
ATOM     58  C   UNL A   1      46.871  28.091  32.777  1.00  0.00     0.049 A 
ATOM     59  H   UNL A   1      47.519  29.459  31.346  1.00  0.00     0.167 HD
ATOM     60  C   UNL A   1      48.606  32.466  28.274  1.00  0.00     0.034 A 
ATOM     61  C   UNL A   1      47.474  26.917  32.497  1.00  0.00     0.034 A 
ATOM     62  C   UNL A   1      49.375  31.288  27.969  1.00  0.00     0.049 A 
ATOM     63  C   UNL A   1      48.396  26.849  31.299  1.00  0.00     0.074 A 
ATOM     64  C   UNL A   1      50.320  31.114  26.975  1.00  0.00     0.029 A 
ATOM     65  N   UNL A   1      49.272  30.076  28.640  1.00  0.00    -0.354 N 
ATOM     66  N   UNL A   1      48.723  27.800  30.451  1.00  0.00    -0.248 NA
ATOM     67  C   UNL A   1      49.039  25.558  31.027  1.00  0.00     0.031 C 
ATOM     68  C   UNL A   1      50.720  29.775  26.987  1.00  0.00     0.029 A 
ATOM     69  C   UNL A   1      50.103  29.138  28.053  1.00  0.00     0.049 A 
ATOM     70  H   UNL A   1      48.694  29.909  29.419  1.00  0.00     0.167 HD
ATOM     71  C   UNL A   1      49.636  27.225  29.569  1.00  0.00     0.074 A 
ATOM     72  C   UNL A   1      49.821  25.856  30.001  1.00  0.00     0.031 C 
ATOM     73  C   UNL A   1      50.270  27.775  28.500  1.00  0.00     0.034 A 
BRANCH  60  74
ATOM     74  C   UNL A   1      48.731  33.668  27.372  1.00  0.00     0.023 A 
ATOM     75  C   UNL A   1      49.755  34.619  27.521  1.00  0.00     0.031 A 
ATOM     76  C   UNL A   1      47.799  33.857  26.335  1.00  0.00     0.131 A 
ATOM     77  C   UNL A   1      49.797  35.736  26.673  1.00  0.00     0.055 A 
ATOM     78  C   UNL A   1      47.890  34.931  25.450  1.00  0.00     0.041 A 
ATOM     79  F   UNL A   1      46.781  32.999  26.168  1.00  0.00    -0.206 F 
ATOM     80  C   UNL A   1      48.890  35.883  25.620  1.00  0.00     0.022 A 
BRANCH  77  81
ATOM     81  S   UNL A   1      50.990  37.056  27.027  1.00  0.00     0.124 S 
ATOM     82  O   UNL A   1      50.191  37.964  27.847  1.00  0.00    -0.237 OA
ATOM     83  O   UNL A   1      52.056  36.342  27.720  1.00  0.00    -0.237 OA
ATOM     84  O   UNL A   1      51.340  37.567  25.703  1.00  0.00    -0.744 OA
ENDBRANCH  77  81
ENDBRANCH  60  74
BRANCH  61  85
ATOM     85  C   UNL A   1      47.181  25.695  33.303  1.00  0.00     0.023 A 
ATOM     86  C   UNL A   1      45.976  24.989  33.154  1.00  0.00     0.031 A 
ATOM     87  C   UNL A   1      48.070  25.266  34.307  1.00  0.00     0.131 A 
ATOM     88  C   UNL A   1      45.663  23.942  34.036  1.00  0.00     0.055 A 
ATOM     89  C   UNL A   1      47.784  24.179  35.136  1.00  0.00     0.041 A 
ATOM     90  F   UNL A   1      49.234  25.905  34.504  1.00  0.00    -0.206 F 
ATOM     91  C   UNL A   1      46.565  23.523  35.016  1.00  0.00     0.022 A 
BRANCH  88  92
ATOM     92  S   UNL A   1      43.998  23.224  33.973  1.00  0.00     0.124 S 
ATOM     93  O   UNL A   1      44.169  22.011  34.764  1.00  0.00    -0.237 OA
ATOM     94  O   UNL A   1      43.191  24.278  34.579  1.00  0.00    -0.237 OA
ATOM     95  O   UNL A   1      43.774  23.012  32.545  1.00  0.00    -0.744 OA
ENDBRANCH  88  92
ENDBRANCH  61  85
BRANCH  73  96
ATOM     96  C   UNL A   1      51.265  26.909  27.765  1.00  0.00     0.023 A 
ATOM     97  C   UNL A   1      52.629  26.888  28.107  1.00  0.00     0.031 A 
ATOM     98  C   UNL A   1      50.838  26.089  26.705  1.00  0.00     0.131 A 
ATOM     99  C   UNL A   1      53.525  26.114  27.355  1.00  0.00     0.055 A 
ATOM    100  C   UNL A   1      51.722  25.264  26.009  1.00  0.00     0.041 A 
ATOM    101  F   UNL A   1      49.548  26.070  26.333  1.00  0.00    -0.206 F 
ATOM    102  C   UNL A   1      53.077  25.285  26.324  1.00  0.00     0.022 A 
BRANCH  99 103
ATOM    103  S   UNL A   1      55.302  26.286  27.674  1.00  0.00     0.124 S 
ATOM    104  O   UNL A   1      55.570  25.130  28.524  1.00  0.00    -0.237 OA
ATOM    105  O   UNL A   1      55.867  26.236  26.330  1.00  0.00    -0.237 OA
ATOM    106  O   UNL A   1      55.406  27.584  28.342  1.00  0.00    -0.744 OA
ENDBRANCH  99 103
ENDBRANCH  73  96
ENDBRANCH  47  48
ENDBRANCH  40  42
ENDBRANCH  39  40
ENDBRANCH  38  39
ENDBRANCH  37  38
ENDBRANCH  36  37
ENDBRANCH  35  36
ENDBRANCH  34  35
ENDBRANCH  33  34
ENDBRANCH   1  33
TORSDOF 30
ENDMDL
