MODEL 1
REMARK VINA RESULT:      -9.6      0.000      0.000
REMARK SMILES CN(C(=O)CC(=O)OCCOCCOCCOCCOC(=O)c1ccc(-c2c3nc(c(-c4cc(S(=O)(=O)[O-])ccc4F)c4ccc([nH]4)c(-c4cc(S(=O)(=O)[O-])ccc4F)c4nc(c(-c5cc(S(=O)(=O)[O-])ccc5F)c5ccc2[nH]5)C=C4)C=C3)cc1)C1CCC(C)(C)CC1
REMARK SMILES IDX 14 1 13 2 12 3 11 4 10 5 9 6 8 7 6 8 7 9 5 10 3 11 4 12 2 13
REMARK SMILES IDX 1 14 86 15 87 16 93 17 88 18 92 19 89 20 90 21 91 22 15 23
REMARK SMILES IDX 16 24 17 25 18 26 19 27 20 28 21 29 22 30 23 31 24 32 85 33
REMARK SMILES IDX 25 34 84 35 26 36 27 37 28 38 78 39 29 40 83 41 77 42 79 43
REMARK SMILES IDX 30 44 82 45 76 46 75 47 31 49 63 50 43 51 62 52 44 53 47 54
REMARK SMILES IDX 61 55 80 56 45 57 46 58 60 60 81 61 48 62 32 63 33 64 41 65
REMARK SMILES IDX 34 66 40 67 42 68 39 69 35 70 36 71 37 72 38 73 64 74 65 75
REMARK SMILES IDX 73 76 66 77 72 78 74 79 71 80 67 81 68 82 69 83 70 84 49 85
REMARK SMILES IDX 50 86 58 87 51 88 57 89 59 90 56 91 52 92 53 93 54 94 55 95
REMARK H PARENT 79 48 47 59
REMARK Flexibility Score: inf
ROOT
ATOM      1  O   UNL A   1      31.893  25.109  27.344  1.00  0.00    -0.377 OA
ENDROOT
BRANCH   1   2
ATOM      2  C   UNL A   1      31.512  23.833  26.848  1.00  0.00     0.188 C 
BRANCH   2   3
ATOM      3  C   UNL A   1      32.566  22.730  26.924  1.00  0.00     0.188 C 
BRANCH   3   4
ATOM      4  O   UNL A   1      33.915  23.079  26.608  1.00  0.00    -0.376 OA
BRANCH   4   5
ATOM      5  C   UNL A   1      34.829  22.002  26.431  1.00  0.00     0.202 C 
BRANCH   5   6
ATOM      6  C   UNL A   1      34.757  21.401  25.018  1.00  0.00     0.261 C 
BRANCH   6   7
ATOM      7  O   UNL A   1      34.205  20.066  24.974  1.00  0.00    -0.463 OA
BRANCH   7   8
ATOM      8  C   UNL A   1      33.115  19.887  24.189  1.00  0.00     0.315 C 
ATOM      9  O   UNL A   1      32.860  18.843  23.591  1.00  0.00    -0.252 OA
BRANCH   8  10
ATOM     10  C   UNL A   1      32.175  21.063  24.110  1.00  0.00     0.222 C 
BRANCH  10  11
ATOM     11  C   UNL A   1      32.130  21.899  22.841  1.00  0.00     0.233 C 
ATOM     12  O   UNL A   1      32.036  21.278  21.782  1.00  0.00    -0.274 OA
BRANCH  11  13
ATOM     13  N   UNL A   1      32.095  23.306  22.911  1.00  0.00    -0.342 N 
ATOM     14  C   UNL A   1      30.889  24.026  23.329  1.00  0.00     0.147 C 
BRANCH  13  15
ATOM     15  C   UNL A   1      33.185  24.197  22.370  1.00  0.00     0.084 C 
ATOM     16  C   UNL A   1      32.726  25.134  21.232  1.00  0.00     0.025 C 
ATOM     17  C   UNL A   1      34.071  25.005  23.337  1.00  0.00     0.025 C 
ATOM     18  C   UNL A   1      32.035  26.391  21.741  1.00  0.00     0.008 C 
ATOM     19  C   UNL A   1      33.470  26.331  23.824  1.00  0.00     0.008 C 
ATOM     20  C   UNL A   1      32.876  27.226  22.719  1.00  0.00    -0.035 C 
ATOM     21  C   UNL A   1      31.950  28.268  23.380  1.00  0.00     0.011 C 
ATOM     22  C   UNL A   1      33.995  27.974  21.975  1.00  0.00     0.011 C 
ENDBRANCH  13  15
ENDBRANCH  11  13
ENDBRANCH  10  11
ENDBRANCH   8  10
ENDBRANCH   7   8
ENDBRANCH   6   7
ENDBRANCH   5   6
ENDBRANCH   4   5
ENDBRANCH   3   4
ENDBRANCH   2   3
ENDBRANCH   1   2
BRANCH   1  23
ATOM     23  C   UNL A   1      31.832  26.185  26.413  1.00  0.00     0.188 C 
BRANCH  23  24
ATOM     24  C   UNL A   1      30.993  27.349  26.911  1.00  0.00     0.188 C 
BRANCH  24  25
ATOM     25  O   UNL A   1      31.733  28.374  27.574  1.00  0.00    -0.376 OA
BRANCH  25  26
ATOM     26  C   UNL A   1      32.983  28.706  26.954  1.00  0.00     0.202 C 
BRANCH  26  27
ATOM     27  C   UNL A   1      33.296  30.180  26.630  1.00  0.00     0.261 C 
BRANCH  27  28
ATOM     28  O   UNL A   1      33.654  30.958  27.792  1.00  0.00    -0.460 OA
BRANCH  28  29
ATOM     29  C   UNL A   1      34.856  31.592  27.708  1.00  0.00     0.338 C 
ATOM     30  O   UNL A   1      35.023  32.802  27.685  1.00  0.00    -0.246 OA
BRANCH  29  31
ATOM     31  C   UNL A   1      35.973  30.638  27.935  1.00  0.00     0.060 A 
ATOM     32  C   UNL A   1      35.867  29.768  29.033  1.00  0.00     0.016 A 
ATOM     33  C   UNL A   1      37.106  30.592  27.124  1.00  0.00     0.016 A 
ATOM     34  C   UNL A   1      36.900  28.886  29.350  1.00  0.00     0.010 A 
ATOM     35  C   UNL A   1      38.160  29.728  27.462  1.00  0.00     0.010 A 
ATOM     36  C   UNL A   1      38.081  28.902  28.601  1.00  0.00    -0.014 A 
BRANCH  36  37
ATOM     37  C   UNL A   1      39.312  28.317  29.201  1.00  0.00     0.031 A 
ATOM     38  C   UNL A   1      39.781  28.905  30.510  1.00  0.00     0.074 A 
ATOM     39  C   UNL A   1      39.961  27.264  28.673  1.00  0.00     0.049 A 
ATOM     40  N   UNL A   1      40.829  28.611  31.234  1.00  0.00    -0.248 NA
ATOM     41  C   UNL A   1      38.946  29.980  31.069  1.00  0.00     0.031 C 
ATOM     42  C   UNL A   1      39.579  26.551  27.456  1.00  0.00     0.029 A 
ATOM     43  N   UNL A   1      41.089  26.605  29.105  1.00  0.00    -0.354 N 
ATOM     44  C   UNL A   1      40.782  29.469  32.327  1.00  0.00     0.074 A 
ATOM     45  C   UNL A   1      39.632  30.327  32.143  1.00  0.00     0.031 C 
ATOM     46  C   UNL A   1      40.463  25.559  27.237  1.00  0.00     0.029 A 
ATOM     47  C   UNL A   1      41.493  25.584  28.276  1.00  0.00     0.049 A 
ATOM     48  H   UNL A   1      41.565  26.844  29.934  1.00  0.00     0.167 HD
ATOM     49  C   UNL A   1      41.609  29.534  33.398  1.00  0.00     0.034 A 
ATOM     50  C   UNL A   1      42.577  24.781  28.340  1.00  0.00     0.034 A 
ATOM     51  C   UNL A   1      42.758  28.684  33.577  1.00  0.00     0.049 A 
ATOM     52  C   UNL A   1      43.553  24.940  29.489  1.00  0.00     0.074 A 
ATOM     53  C   UNL A   1      43.665  28.670  34.622  1.00  0.00     0.029 A 
ATOM     54  N   UNL A   1      43.166  27.703  32.683  1.00  0.00    -0.354 N 
ATOM     55  N   UNL A   1      43.502  25.763  30.512  1.00  0.00    -0.248 NA
ATOM     56  C   UNL A   1      44.728  24.057  29.493  1.00  0.00     0.031 C 
ATOM     57  C   UNL A   1      44.660  27.734  34.325  1.00  0.00     0.029 A 
ATOM     58  C   UNL A   1      44.329  27.102  33.137  1.00  0.00     0.049 A 
ATOM     59  H   UNL A   1      42.698  27.470  31.849  1.00  0.00     0.167 HD
ATOM     60  C   UNL A   1      44.616  25.462  31.299  1.00  0.00     0.074 A 
ATOM     61  C   UNL A   1      45.315  24.385  30.634  1.00  0.00     0.031 C 
ATOM     62  C   UNL A   1      45.018  26.023  32.469  1.00  0.00     0.034 A 
BRANCH  49  63
ATOM     63  C   UNL A   1      41.321  30.605  34.421  1.00  0.00     0.023 A 
ATOM     64  C   UNL A   1      40.228  30.510  35.302  1.00  0.00     0.031 A 
ATOM     65  C   UNL A   1      42.109  31.767  34.471  1.00  0.00     0.131 A 
ATOM     66  C   UNL A   1      39.903  31.596  36.129  1.00  0.00     0.055 A 
ATOM     67  C   UNL A   1      41.834  32.804  35.361  1.00  0.00     0.041 A 
ATOM     68  F   UNL A   1      43.148  31.923  33.635  1.00  0.00    -0.206 F 
ATOM     69  C   UNL A   1      40.714  32.731  36.185  1.00  0.00     0.022 A 
BRANCH  66  70
ATOM     70  S   UNL A   1      38.313  31.572  37.002  1.00  0.00     0.124 S 
ATOM     71  O   UNL A   1      37.504  32.453  36.162  1.00  0.00    -0.237 OA
ATOM     72  O   UNL A   1      37.959  30.158  36.974  1.00  0.00    -0.237 OA
ATOM     73  O   UNL A   1      38.638  32.110  38.321  1.00  0.00    -0.744 OA
ENDBRANCH  66  70
ENDBRANCH  49  63
BRANCH  50  74
ATOM     74  C   UNL A   1      42.851  23.778  27.267  1.00  0.00     0.023 A 
ATOM     75  C   UNL A   1      42.172  22.548  27.223  1.00  0.00     0.031 A 
ATOM     76  C   UNL A   1      43.866  23.999  26.319  1.00  0.00     0.131 A 
ATOM     77  C   UNL A   1      42.550  21.570  26.289  1.00  0.00     0.055 A 
ATOM     78  C   UNL A   1      44.201  23.044  25.356  1.00  0.00     0.041 A 
ATOM     79  F   UNL A   1      44.556  25.150  26.320  1.00  0.00    -0.206 F 
ATOM     80  C   UNL A   1      43.551  21.815  25.347  1.00  0.00     0.022 A 
BRANCH  77  81
ATOM     81  S   UNL A   1      41.782  19.927  26.385  1.00  0.00     0.124 S 
ATOM     82  O   UNL A   1      42.162  19.501  27.728  1.00  0.00    -0.237 OA
ATOM     83  O   UNL A   1      40.371  20.241  26.187  1.00  0.00    -0.237 OA
ATOM     84  O   UNL A   1      42.414  19.190  25.294  1.00  0.00    -0.744 OA
ENDBRANCH  77  81
ENDBRANCH  50  74
BRANCH  62  85
ATOM     85  C   UNL A   1      46.234  25.435  33.147  1.00  0.00     0.023 A 
ATOM     86  C   UNL A   1      46.146  24.352  34.038  1.00  0.00     0.031 A 
ATOM     87  C   UNL A   1      47.511  25.962  32.873  1.00  0.00     0.131 A 
ATOM     88  C   UNL A   1      47.307  23.859  34.657  1.00  0.00     0.055 A 
ATOM     89  C   UNL A   1      48.667  25.431  33.446  1.00  0.00     0.041 A 
ATOM     90  F   UNL A   1      47.656  26.997  32.029  1.00  0.00    -0.206 F 
ATOM     91  C   UNL A   1      48.567  24.380  34.352  1.00  0.00     0.022 A 
BRANCH  88  92
ATOM     92  S   UNL A   1      47.144  22.572  35.925  1.00  0.00     0.124 S 
ATOM     93  O   UNL A   1      47.786  23.197  37.077  1.00  0.00    -0.237 OA
ATOM     94  O   UNL A   1      45.697  22.404  36.016  1.00  0.00    -0.237 OA
ATOM     95  O   UNL A   1      47.864  21.434  35.356  1.00  0.00    -0.744 OA
ENDBRANCH  88  92
ENDBRANCH  62  85
ENDBRANCH  36  37
ENDBRANCH  29  31
ENDBRANCH  28  29
ENDBRANCH  27  28
ENDBRANCH  26  27
ENDBRANCH  25  26
ENDBRANCH  24  25
ENDBRANCH  23  24
ENDBRANCH   1  23
TORSDOF 26
ENDMDL
MODEL 2
REMARK VINA RESULT:      -9.3      5.104     10.388
REMARK SMILES CN(C(=O)CC(=O)OCCOCCOCCOCCOC(=O)c1ccc(-c2c3nc(c(-c4cc(S(=O)(=O)[O-])ccc4F)c4ccc([nH]4)c(-c4cc(S(=O)(=O)[O-])ccc4F)c4nc(c(-c5cc(S(=O)(=O)[O-])ccc5F)c5ccc2[nH]5)C=C4)C=C3)cc1)C1CCC(C)(C)CC1
REMARK SMILES IDX 14 1 13 2 12 3 11 4 10 5 9 6 8 7 6 8 7 9 5 10 3 11 4 12 2 13
REMARK SMILES IDX 1 14 86 15 87 16 93 17 88 18 92 19 89 20 90 21 91 22 15 23
REMARK SMILES IDX 16 24 17 25 18 26 19 27 20 28 21 29 22 30 23 31 24 32 85 33
REMARK SMILES IDX 25 34 84 35 26 36 27 37 28 38 78 39 29 40 83 41 77 42 79 43
REMARK SMILES IDX 30 44 82 45 76 46 75 47 31 49 63 50 43 51 62 52 44 53 47 54
REMARK SMILES IDX 61 55 80 56 45 57 46 58 60 60 81 61 48 62 32 63 33 64 41 65
REMARK SMILES IDX 34 66 40 67 42 68 39 69 35 70 36 71 37 72 38 73 64 74 65 75
REMARK SMILES IDX 73 76 66 77 72 78 74 79 71 80 67 81 68 82 69 83 70 84 49 85
REMARK SMILES IDX 50 86 58 87 51 88 57 89 59 90 56 91 52 92 53 93 54 94 55 95
REMARK H PARENT 79 48 47 59
REMARK Flexibility Score: inf
ROOT
ATOM      1  O   UNL A   1      42.149  20.308  25.775  1.00  0.00    -0.377 OA
ENDROOT
BRANCH   1   2
ATOM      2  C   UNL A   1      41.712  21.456  26.489  1.00  0.00     0.188 C 
BRANCH   2   3
ATOM      3  C   UNL A   1      40.498  22.190  25.922  1.00  0.00     0.188 C 
BRANCH   3   4
ATOM      4  O   UNL A   1      39.376  22.383  26.784  1.00  0.00    -0.376 OA
BRANCH   4   5
ATOM      5  C   UNL A   1      39.004  23.729  27.058  1.00  0.00     0.202 C 
BRANCH   5   6
ATOM      6  C   UNL A   1      37.802  24.186  26.214  1.00  0.00     0.261 C 
BRANCH   6   7
ATOM      7  O   UNL A   1      36.690  23.263  26.226  1.00  0.00    -0.463 OA
BRANCH   7   8
ATOM      8  C   UNL A   1      36.192  22.899  25.020  1.00  0.00     0.315 C 
ATOM      9  O   UNL A   1      35.787  23.693  24.173  1.00  0.00    -0.252 OA
BRANCH   8  10
ATOM     10  C   UNL A   1      36.192  21.417  24.742  1.00  0.00     0.222 C 
BRANCH  10  11
ATOM     11  C   UNL A   1      34.951  20.598  25.061  1.00  0.00     0.233 C 
ATOM     12  O   UNL A   1      34.984  19.410  24.738  1.00  0.00    -0.274 OA
BRANCH  11  13
ATOM     13  N   UNL A   1      33.882  21.167  25.781  1.00  0.00    -0.342 N 
ATOM     14  C   UNL A   1      33.958  21.386  27.227  1.00  0.00     0.147 C 
BRANCH  13  15
ATOM     15  C   UNL A   1      32.512  21.401  25.195  1.00  0.00     0.084 C 
ATOM     16  C   UNL A   1      31.767  22.611  25.799  1.00  0.00     0.025 C 
ATOM     17  C   UNL A   1      32.320  21.426  23.667  1.00  0.00     0.025 C 
ATOM     18  C   UNL A   1      32.190  23.936  25.182  1.00  0.00     0.008 C 
ATOM     19  C   UNL A   1      32.647  22.763  22.987  1.00  0.00     0.008 C 
ATOM     20  C   UNL A   1      32.029  24.006  23.655  1.00  0.00    -0.035 C 
ATOM     21  C   UNL A   1      32.779  25.256  23.149  1.00  0.00     0.011 C 
ATOM     22  C   UNL A   1      30.546  24.141  23.269  1.00  0.00     0.011 C 
ENDBRANCH  13  15
ENDBRANCH  11  13
ENDBRANCH  10  11
ENDBRANCH   8  10
ENDBRANCH   7   8
ENDBRANCH   6   7
ENDBRANCH   5   6
ENDBRANCH   4   5
ENDBRANCH   3   4
ENDBRANCH   2   3
ENDBRANCH   1   2
BRANCH   1  23
ATOM     23  C   UNL A   1      42.973  19.398  26.499  1.00  0.00     0.188 C 
BRANCH  23  24
ATOM     24  C   UNL A   1      43.272  18.128  25.722  1.00  0.00     0.188 C 
BRANCH  24  25
ATOM     25  O   UNL A   1      44.406  18.213  24.859  1.00  0.00    -0.376 OA
BRANCH  25  26
ATOM     26  C   UNL A   1      45.601  18.698  25.487  1.00  0.00     0.202 C 
BRANCH  26  27
ATOM     27  C   UNL A   1      46.401  19.830  24.812  1.00  0.00     0.261 C 
BRANCH  27  28
ATOM     28  O   UNL A   1      46.150  21.130  25.387  1.00  0.00    -0.460 OA
BRANCH  28  29
ATOM     29  C   UNL A   1      45.285  21.910  24.681  1.00  0.00     0.338 C 
ATOM     30  O   UNL A   1      44.790  21.626  23.601  1.00  0.00    -0.246 OA
BRANCH  29  31
ATOM     31  C   UNL A   1      44.786  23.034  25.515  1.00  0.00     0.060 A 
ATOM     32  C   UNL A   1      44.201  24.124  24.848  1.00  0.00     0.016 A 
ATOM     33  C   UNL A   1      44.893  23.051  26.905  1.00  0.00     0.016 A 
ATOM     34  C   UNL A   1      43.764  25.244  25.554  1.00  0.00     0.010 A 
ATOM     35  C   UNL A   1      44.483  24.193  27.613  1.00  0.00     0.010 A 
ATOM     36  C   UNL A   1      43.957  25.312  26.938  1.00  0.00    -0.014 A 
BRANCH  36  37
ATOM     37  C   UNL A   1      43.919  26.647  27.597  1.00  0.00     0.031 A 
ATOM     38  C   UNL A   1      45.235  27.370  27.752  1.00  0.00     0.074 A 
ATOM     39  C   UNL A   1      42.778  27.248  27.981  1.00  0.00     0.049 A 
ATOM     40  N   UNL A   1      45.497  28.524  28.310  1.00  0.00    -0.248 NA
ATOM     41  C   UNL A   1      46.416  26.686  27.203  1.00  0.00     0.031 C 
ATOM     42  C   UNL A   1      41.433  26.699  27.826  1.00  0.00     0.029 A 
ATOM     43  N   UNL A   1      42.574  28.468  28.584  1.00  0.00    -0.354 N 
ATOM     44  C   UNL A   1      46.871  28.696  28.185  1.00  0.00     0.074 A 
ATOM     45  C   UNL A   1      47.391  27.507  27.546  1.00  0.00     0.031 C 
ATOM     46  C   UNL A   1      40.544  27.578  28.328  1.00  0.00     0.029 A 
ATOM     47  C   UNL A   1      41.255  28.736  28.870  1.00  0.00     0.049 A 
ATOM     48  H   UNL A   1      43.306  29.093  28.791  1.00  0.00     0.167 HD
ATOM     49  C   UNL A   1      47.636  29.752  28.553  1.00  0.00     0.034 A 
ATOM     50  C   UNL A   1      40.694  29.783  29.513  1.00  0.00     0.034 A 
ATOM     51  C   UNL A   1      47.119  30.932  29.196  1.00  0.00     0.049 A 
ATOM     52  C   UNL A   1      41.579  30.907  30.016  1.00  0.00     0.074 A 
ATOM     53  C   UNL A   1      47.807  32.056  29.616  1.00  0.00     0.029 A 
ATOM     54  N   UNL A   1      45.785  31.137  29.523  1.00  0.00    -0.354 N 
ATOM     55  N   UNL A   1      42.880  31.054  29.900  1.00  0.00    -0.248 NA
ATOM     56  C   UNL A   1      40.917  32.007  30.731  1.00  0.00     0.031 C 
ATOM     57  C   UNL A   1      46.904  32.907  30.261  1.00  0.00     0.029 A 
ATOM     58  C   UNL A   1      45.636  32.355  30.168  1.00  0.00     0.049 A 
ATOM     59  H   UNL A   1      45.053  30.509  29.326  1.00  0.00     0.167 HD
ATOM     60  C   UNL A   1      43.179  32.282  30.491  1.00  0.00     0.074 A 
ATOM     61  C   UNL A   1      41.927  32.835  30.958  1.00  0.00     0.031 C 
ATOM     62  C   UNL A   1      44.381  32.901  30.626  1.00  0.00     0.034 A 
BRANCH  49  63
ATOM     63  C   UNL A   1      49.122  29.635  28.316  1.00  0.00     0.023 A 
ATOM     64  C   UNL A   1      49.696  29.924  27.064  1.00  0.00     0.031 A 
ATOM     65  C   UNL A   1      49.966  29.165  29.337  1.00  0.00     0.131 A 
ATOM     66  C   UNL A   1      51.054  29.654  26.842  1.00  0.00     0.055 A 
ATOM     67  C   UNL A   1      51.334  28.986  29.134  1.00  0.00     0.041 A 
ATOM     68  F   UNL A   1      49.469  28.848  30.543  1.00  0.00    -0.206 F 
ATOM     69  C   UNL A   1      51.883  29.213  27.875  1.00  0.00     0.022 A 
BRANCH  66  70
ATOM     70  S   UNL A   1      51.681  29.723  25.141  1.00  0.00     0.124 S 
ATOM     71  O   UNL A   1      51.538  31.144  24.833  1.00  0.00    -0.237 OA
ATOM     72  O   UNL A   1      53.047  29.234  25.288  1.00  0.00    -0.237 OA
ATOM     73  O   UNL A   1      50.776  28.841  24.406  1.00  0.00    -0.744 OA
ENDBRANCH  66  70
ENDBRANCH  49  63
BRANCH  50  74
ATOM     74  C   UNL A   1      39.224  29.821  29.778  1.00  0.00     0.023 A 
ATOM     75  C   UNL A   1      38.376  30.700  29.082  1.00  0.00     0.031 A 
ATOM     76  C   UNL A   1      38.658  29.037  30.800  1.00  0.00     0.131 A 
ATOM     77  C   UNL A   1      37.026  30.812  29.451  1.00  0.00     0.055 A 
ATOM     78  C   UNL A   1      37.302  29.112  31.125  1.00  0.00     0.041 A 
ATOM     79  F   UNL A   1      39.422  28.188  31.505  1.00  0.00    -0.206 F 
ATOM     80  C   UNL A   1      36.480  30.015  30.459  1.00  0.00     0.022 A 
BRANCH  77  81
ATOM     81  S   UNL A   1      36.009  32.092  28.661  1.00  0.00     0.124 S 
ATOM     82  O   UNL A   1      35.453  31.367  27.523  1.00  0.00    -0.237 OA
ATOM     83  O   UNL A   1      35.070  32.432  29.725  1.00  0.00    -0.237 OA
ATOM     84  O   UNL A   1      36.973  33.137  28.326  1.00  0.00    -0.744 OA
ENDBRANCH  77  81
ENDBRANCH  50  74
BRANCH  62  85
ATOM     85  C   UNL A   1      44.395  34.280  31.245  1.00  0.00     0.023 A 
ATOM     86  C   UNL A   1      44.333  35.450  30.469  1.00  0.00     0.031 A 
ATOM     87  C   UNL A   1      44.449  34.419  32.645  1.00  0.00     0.131 A 
ATOM     88  C   UNL A   1      44.371  36.707  31.095  1.00  0.00     0.055 A 
ATOM     89  C   UNL A   1      44.428  35.669  33.264  1.00  0.00     0.041 A 
ATOM     90  F   UNL A   1      44.509  33.335  33.437  1.00  0.00    -0.206 F 
ATOM     91  C   UNL A   1      44.399  36.822  32.486  1.00  0.00     0.022 A 
BRANCH  88  92
ATOM     92  S   UNL A   1      44.456  38.196  30.062  1.00  0.00     0.124 S 
ATOM     93  O   UNL A   1      43.519  39.089  30.738  1.00  0.00    -0.237 OA
ATOM     94  O   UNL A   1      45.866  38.562  30.155  1.00  0.00    -0.237 OA
ATOM     95  O   UNL A   1      44.025  37.728  28.746  1.00  0.00    -0.744 OA
ENDBRANCH  88  92
ENDBRANCH  62  85
ENDBRANCH  36  37
ENDBRANCH  29  31
ENDBRANCH  28  29
ENDBRANCH  27  28
ENDBRANCH  26  27
ENDBRANCH  25  26
ENDBRANCH  24  25
ENDBRANCH  23  24
ENDBRANCH   1  23
TORSDOF 26
ENDMDL
MODEL 3
REMARK VINA RESULT:      -8.7      2.016      2.227
REMARK SMILES CN(C(=O)CC(=O)OCCOCCOCCOCCOC(=O)c1ccc(-c2c3nc(c(-c4cc(S(=O)(=O)[O-])ccc4F)c4ccc([nH]4)c(-c4cc(S(=O)(=O)[O-])ccc4F)c4nc(c(-c5cc(S(=O)(=O)[O-])ccc5F)c5ccc2[nH]5)C=C4)C=C3)cc1)C1CCC(C)(C)CC1
REMARK SMILES IDX 14 1 13 2 12 3 11 4 10 5 9 6 8 7 6 8 7 9 5 10 3 11 4 12 2 13
REMARK SMILES IDX 1 14 86 15 87 16 93 17 88 18 92 19 89 20 90 21 91 22 15 23
REMARK SMILES IDX 16 24 17 25 18 26 19 27 20 28 21 29 22 30 23 31 24 32 85 33
REMARK SMILES IDX 25 34 84 35 26 36 27 37 28 38 78 39 29 40 83 41 77 42 79 43
REMARK SMILES IDX 30 44 82 45 76 46 75 47 31 49 63 50 43 51 62 52 44 53 47 54
REMARK SMILES IDX 61 55 80 56 45 57 46 58 60 60 81 61 48 62 32 63 33 64 41 65
REMARK SMILES IDX 34 66 40 67 42 68 39 69 35 70 36 71 37 72 38 73 64 74 65 75
REMARK SMILES IDX 73 76 66 77 72 78 74 79 71 80 67 81 68 82 69 83 70 84 49 85
REMARK SMILES IDX 50 86 58 87 51 88 57 89 59 90 56 91 52 92 53 93 54 94 55 95
REMARK H PARENT 79 48 47 59
REMARK Flexibility Score: inf
ROOT
ATOM      1  O   UNL A   1      31.856  25.083  27.310  1.00  0.00    -0.377 OA
ENDROOT
BRANCH   1   2
ATOM      2  C   UNL A   1      31.066  23.988  26.867  1.00  0.00     0.188 C 
BRANCH   2   3
ATOM      3  C   UNL A   1      31.805  22.678  26.602  1.00  0.00     0.188 C 
BRANCH   3   4
ATOM      4  O   UNL A   1      33.161  22.758  26.160  1.00  0.00    -0.376 OA
BRANCH   4   5
ATOM      5  C   UNL A   1      34.012  21.670  26.504  1.00  0.00     0.202 C 
BRANCH   5   6
ATOM      6  C   UNL A   1      34.437  20.850  25.274  1.00  0.00     0.261 C 
BRANCH   6   7
ATOM      7  O   UNL A   1      33.691  19.624  25.098  1.00  0.00    -0.463 OA
BRANCH   7   8
ATOM      8  C   UNL A   1      32.836  19.582  24.048  1.00  0.00     0.315 C 
ATOM      9  O   UNL A   1      32.749  18.635  23.268  1.00  0.00    -0.252 OA
BRANCH   8  10
ATOM     10  C   UNL A   1      31.936  20.783  23.897  1.00  0.00     0.222 C 
BRANCH  10  11
ATOM     11  C   UNL A   1      32.104  21.694  22.693  1.00  0.00     0.233 C 
ATOM     12  O   UNL A   1      32.162  21.142  21.594  1.00  0.00    -0.274 OA
BRANCH  11  13
ATOM     13  N   UNL A   1      32.087  23.095  22.846  1.00  0.00    -0.342 N 
ATOM     14  C   UNL A   1      30.899  23.801  23.333  1.00  0.00     0.147 C 
BRANCH  13  15
ATOM     15  C   UNL A   1      33.175  24.005  22.336  1.00  0.00     0.084 C 
ATOM     16  C   UNL A   1      32.735  24.923  21.175  1.00  0.00     0.025 C 
ATOM     17  C   UNL A   1      34.011  24.840  23.325  1.00  0.00     0.025 C 
ATOM     18  C   UNL A   1      32.001  26.169  21.649  1.00  0.00     0.008 C 
ATOM     19  C   UNL A   1      33.365  26.156  23.780  1.00  0.00     0.008 C 
ATOM     20  C   UNL A   1      32.790  27.029  22.648  1.00  0.00    -0.035 C 
ATOM     21  C   UNL A   1      31.819  28.056  23.269  1.00  0.00     0.011 C 
ATOM     22  C   UNL A   1      33.917  27.796  21.937  1.00  0.00     0.011 C 
ENDBRANCH  13  15
ENDBRANCH  11  13
ENDBRANCH  10  11
ENDBRANCH   8  10
ENDBRANCH   7   8
ENDBRANCH   6   7
ENDBRANCH   5   6
ENDBRANCH   4   5
ENDBRANCH   3   4
ENDBRANCH   2   3
ENDBRANCH   1   2
BRANCH   1  23
ATOM     23  C   UNL A   1      31.919  26.203  26.433  1.00  0.00     0.188 C 
BRANCH  23  24
ATOM     24  C   UNL A   1      31.056  27.364  26.894  1.00  0.00     0.188 C 
BRANCH  24  25
ATOM     25  O   UNL A   1      31.759  28.377  27.613  1.00  0.00    -0.376 OA
BRANCH  25  26
ATOM     26  C   UNL A   1      33.035  28.726  27.061  1.00  0.00     0.202 C 
BRANCH  26  27
ATOM     27  C   UNL A   1      33.369  30.210  26.809  1.00  0.00     0.261 C 
BRANCH  27  28
ATOM     28  O   UNL A   1      33.634  30.951  28.019  1.00  0.00    -0.460 OA
BRANCH  28  29
ATOM     29  C   UNL A   1      34.824  31.613  28.035  1.00  0.00     0.338 C 
ATOM     30  O   UNL A   1      34.964  32.823  28.127  1.00  0.00    -0.246 OA
BRANCH  29  31
ATOM     31  C   UNL A   1      35.954  30.665  28.217  1.00  0.00     0.060 A 
ATOM     32  C   UNL A   1      35.942  29.857  29.366  1.00  0.00     0.016 A 
ATOM     33  C   UNL A   1      37.012  30.566  27.314  1.00  0.00     0.016 A 
ATOM     34  C   UNL A   1      36.996  28.986  29.640  1.00  0.00     0.010 A 
ATOM     35  C   UNL A   1      38.089  29.714  27.606  1.00  0.00     0.010 A 
ATOM     36  C   UNL A   1      38.107  28.952  28.791  1.00  0.00    -0.014 A 
BRANCH  36  37
ATOM     37  C   UNL A   1      39.384  28.392  29.313  1.00  0.00     0.031 A 
ATOM     38  C   UNL A   1      39.963  29.042  30.547  1.00  0.00     0.074 A 
ATOM     39  C   UNL A   1      39.986  27.311  28.784  1.00  0.00     0.049 A 
ATOM     40  N   UNL A   1      41.068  28.778  31.194  1.00  0.00    -0.248 NA
ATOM     41  C   UNL A   1      39.178  30.146  31.122  1.00  0.00     0.031 C 
ATOM     42  C   UNL A   1      39.502  26.541  27.641  1.00  0.00     0.029 A 
ATOM     43  N   UNL A   1      41.147  26.670  29.152  1.00  0.00    -0.354 N 
ATOM     44  C   UNL A   1      41.114  29.689  32.243  1.00  0.00     0.074 A 
ATOM     45  C   UNL A   1      39.953  30.542  32.115  1.00  0.00     0.031 C 
ATOM     46  C   UNL A   1      40.364  25.536  27.396  1.00  0.00     0.029 A 
ATOM     47  C   UNL A   1      41.478  25.607  28.342  1.00  0.00     0.049 A 
ATOM     48  H   UNL A   1      41.691  26.946  29.924  1.00  0.00     0.167 HD
ATOM     49  C   UNL A   1      42.029  29.802  33.236  1.00  0.00     0.034 A 
ATOM     50  C   UNL A   1      42.564  24.804  28.354  1.00  0.00     0.034 A 
ATOM     51  C   UNL A   1      43.189  28.958  33.359  1.00  0.00     0.049 A 
ATOM     52  C   UNL A   1      43.633  25.014  29.407  1.00  0.00     0.074 A 
ATOM     53  C   UNL A   1      44.180  28.991  34.323  1.00  0.00     0.029 A 
ATOM     54  N   UNL A   1      43.519  27.932  32.483  1.00  0.00    -0.354 N 
ATOM     55  N   UNL A   1      43.670  25.886  30.390  1.00  0.00    -0.248 NA
ATOM     56  C   UNL A   1      44.805  24.127  29.355  1.00  0.00     0.031 C 
ATOM     57  C   UNL A   1      45.147  28.036  33.989  1.00  0.00     0.029 A 
ATOM     58  C   UNL A   1      44.716  27.348  32.866  1.00  0.00     0.049 A 
ATOM     59  H   UNL A   1      42.982  27.660  31.704  1.00  0.00     0.167 HD
ATOM     60  C   UNL A   1      44.846  25.620  31.093  1.00  0.00     0.074 A 
ATOM     61  C   UNL A   1      45.486  24.508  30.425  1.00  0.00     0.031 C 
ATOM     62  C   UNL A   1      45.346  26.235  32.196  1.00  0.00     0.034 A 
BRANCH  49  63
ATOM     63  C   UNL A   1      41.828  30.923  34.226  1.00  0.00     0.023 A 
ATOM     64  C   UNL A   1      42.302  32.224  33.976  1.00  0.00     0.031 A 
ATOM     65  C   UNL A   1      41.214  30.672  35.465  1.00  0.00     0.131 A 
ATOM     66  C   UNL A   1      42.234  33.197  34.984  1.00  0.00     0.055 A 
ATOM     67  C   UNL A   1      41.068  31.670  36.428  1.00  0.00     0.041 A 
ATOM     68  F   UNL A   1      40.768  29.442  35.769  1.00  0.00    -0.206 F 
ATOM     69  C   UNL A   1      41.596  32.937  36.198  1.00  0.00     0.022 A 
BRANCH  66  70
ATOM     70  S   UNL A   1      43.142  34.749  34.749  1.00  0.00     0.124 S 
ATOM     71  O   UNL A   1      42.065  35.669  34.389  1.00  0.00    -0.237 OA
ATOM     72  O   UNL A   1      43.752  34.959  36.057  1.00  0.00    -0.237 OA
ATOM     73  O   UNL A   1      44.074  34.440  33.667  1.00  0.00    -0.744 OA
ENDBRANCH  66  70
ENDBRANCH  49  63
BRANCH  50  74
ATOM     74  C   UNL A   1      42.746  23.748  27.312  1.00  0.00     0.023 A 
ATOM     75  C   UNL A   1      42.105  22.500  27.413  1.00  0.00     0.031 A 
ATOM     76  C   UNL A   1      43.639  23.940  26.243  1.00  0.00     0.131 A 
ATOM     77  C   UNL A   1      42.405  21.481  26.496  1.00  0.00     0.055 A 
ATOM     78  C   UNL A   1      43.892  22.940  25.301  1.00  0.00     0.041 A 
ATOM     79  F   UNL A   1      44.289  25.106  26.103  1.00  0.00    -0.206 F 
ATOM     80  C   UNL A   1      43.284  21.696  25.433  1.00  0.00     0.022 A 
BRANCH  77  81
ATOM     81  S   UNL A   1      41.705  19.827  26.768  1.00  0.00     0.124 S 
ATOM     82  O   UNL A   1      42.654  19.257  27.718  1.00  0.00    -0.237 OA
ATOM     83  O   UNL A   1      40.381  20.143  27.296  1.00  0.00    -0.237 OA
ATOM     84  O   UNL A   1      41.716  19.228  25.436  1.00  0.00    -0.744 OA
ENDBRANCH  77  81
ENDBRANCH  50  74
BRANCH  62  85
ATOM     85  C   UNL A   1      46.615  25.676  32.796  1.00  0.00     0.023 A 
ATOM     86  C   UNL A   1      47.889  26.028  32.319  1.00  0.00     0.031 A 
ATOM     87  C   UNL A   1      46.541  24.787  33.886  1.00  0.00     0.131 A 
ATOM     88  C   UNL A   1      49.035  25.462  32.901  1.00  0.00     0.055 A 
ATOM     89  C   UNL A   1      47.685  24.272  34.497  1.00  0.00     0.041 A 
ATOM     90  F   UNL A   1      45.351  24.414  34.384  1.00  0.00    -0.206 F 
ATOM     91  C   UNL A   1      48.941  24.601  33.997  1.00  0.00     0.022 A 
BRANCH  88  92
ATOM     92  S   UNL A   1      50.655  25.807  32.159  1.00  0.00     0.124 S 
ATOM     93  O   UNL A   1      50.722  27.262  32.239  1.00  0.00    -0.237 OA
ATOM     94  O   UNL A   1      51.563  25.076  33.037  1.00  0.00    -0.237 OA
ATOM     95  O   UNL A   1      50.536  25.266  30.806  1.00  0.00    -0.744 OA
ENDBRANCH  88  92
ENDBRANCH  62  85
ENDBRANCH  36  37
ENDBRANCH  29  31
ENDBRANCH  28  29
ENDBRANCH  27  28
ENDBRANCH  26  27
ENDBRANCH  25  26
ENDBRANCH  24  25
ENDBRANCH  23  24
ENDBRANCH   1  23
TORSDOF 26
ENDMDL
