MODEL 1
REMARK VINA RESULT:      -7.6      0.000      0.000
REMARK SMILES O=C(Cn1c(SCCc2ccccc2)nc2ccccc21)OCCOCCOCCOCCOC(=O)c1ccc(-c2c3nc(c(-c4cc(S(=O)(=O)[O-])ccc4F)c4ccc([nH]4)c(-c4cc(S(=O)(=O)[O-])ccc4F)c4nc(c(-c5cc(S(=O)(=O)[O-])ccc5F)c5ccc2[nH]5)C=C4)C=C3)cc1
REMARK SMILES IDX 27 1 26 2 25 3 24 4 23 5 22 6 2 7 1 8 3 9 4 10 5 11 21 12
REMARK SMILES IDX 15 13 16 14 20 15 17 16 19 17 18 18 6 19 7 20 8 21 9 22
REMARK SMILES IDX 10 23 14 24 11 25 13 26 12 27 28 28 29 29 30 30 31 31 32 32
REMARK SMILES IDX 33 33 34 34 35 35 36 36 37 37 38 38 99 39 39 40 98 41 40 42
REMARK SMILES IDX 41 43 42 44 92 45 43 46 97 47 91 48 93 49 44 50 96 51 90 52
REMARK SMILES IDX 89 53 45 55 77 56 57 57 76 58 58 59 61 60 75 61 94 62 59 63
REMARK SMILES IDX 60 64 74 66 95 67 62 68 46 69 47 70 55 71 48 72 54 73 56 74
REMARK SMILES IDX 53 75 49 76 50 77 51 78 52 79 78 80 79 81 87 82 80 83 86 84
REMARK SMILES IDX 88 85 85 86 81 87 82 88 83 89 84 90 63 91 64 92 72 93 65 94
REMARK SMILES IDX 71 95 73 96 70 97 66 98 67 99 68 100 69 101
REMARK H PARENT 93 54 61 65
REMARK Flexibility Score: inf
ROOT
ATOM      1  C   UNL A   1      37.548  29.615  29.523  1.00  0.00     0.188 C 
ENDROOT
BRANCH   1   2
ATOM      2  C   UNL A   1      38.723  30.367  28.917  1.00  0.00     0.188 C 
BRANCH   2   3
ATOM      3  O   UNL A   1      39.991  29.761  28.678  1.00  0.00    -0.376 OA
BRANCH   3   4
ATOM      4  C   UNL A   1      40.180  28.328  28.552  1.00  0.00     0.202 C 
BRANCH   4   5
ATOM      5  C   UNL A   1      39.829  27.396  27.352  1.00  0.00     0.261 C 
BRANCH   5   6
ATOM      6  O   UNL A   1      40.866  26.913  26.509  1.00  0.00    -0.462 OA
BRANCH   6   7
ATOM      7  C   UNL A   1      41.582  25.826  26.845  1.00  0.00     0.326 C 
ATOM      8  O   UNL A   1      42.616  25.593  26.216  1.00  0.00    -0.250 OA
BRANCH   7   9
ATOM      9  C   UNL A   1      40.934  24.776  27.680  1.00  0.00     0.247 C 
BRANCH   9  10
ATOM     10  N   UNL A   1      40.579  23.519  27.112  1.00  0.00    -0.308 N 
ATOM     11  C   UNL A   1      41.325  22.410  26.843  1.00  0.00     0.169 A 
ATOM     12  C   UNL A   1      39.322  23.350  26.536  1.00  0.00     0.069 A 
ATOM     13  N   UNL A   1      40.533  21.443  26.413  1.00  0.00    -0.222 NA
ATOM     14  C   UNL A   1      39.302  22.010  26.195  1.00  0.00     0.090 A 
ATOM     15  C   UNL A   1      38.241  24.218  26.282  1.00  0.00     0.028 A 
ATOM     16  C   UNL A   1      38.129  21.466  25.650  1.00  0.00     0.030 A 
ATOM     17  C   UNL A   1      37.101  23.671  25.687  1.00  0.00     0.002 A 
ATOM     18  C   UNL A   1      37.038  22.310  25.392  1.00  0.00     0.002 A 
BRANCH  11  19
ATOM     19  S   UNL A   1      43.041  22.158  26.866  1.00  0.00    -0.088 SA
BRANCH  19  20
ATOM     20  C   UNL A   1      43.902  22.513  28.414  1.00  0.00     0.083 C 
BRANCH  20  21
ATOM     21  C   UNL A   1      43.334  23.222  29.685  1.00  0.00     0.047 C 
BRANCH  21  22
ATOM     22  C   UNL A   1      44.221  23.748  30.791  1.00  0.00    -0.047 A 
ATOM     23  C   UNL A   1      45.097  24.812  30.558  1.00  0.00     0.004 A 
ATOM     24  C   UNL A   1      44.145  23.223  32.100  1.00  0.00     0.004 A 
ATOM     25  C   UNL A   1      45.740  25.454  31.618  1.00  0.00     0.000 A 
ATOM     26  C   UNL A   1      44.816  23.850  33.159  1.00  0.00     0.000 A 
ATOM     27  C   UNL A   1      45.584  24.987  32.920  1.00  0.00     0.000 A 
ENDBRANCH  21  22
ENDBRANCH  20  21
ENDBRANCH  19  20
ENDBRANCH  11  19
ENDBRANCH   9  10
ENDBRANCH   7   9
ENDBRANCH   6   7
ENDBRANCH   5   6
ENDBRANCH   4   5
ENDBRANCH   3   4
ENDBRANCH   2   3
ENDBRANCH   1   2
BRANCH   1  28
ATOM     28  O   UNL A   1      36.487  29.419  28.598  1.00  0.00    -0.377 OA
BRANCH  28  29
ATOM     29  C   UNL A   1      36.163  30.589  27.854  1.00  0.00     0.188 C 
BRANCH  29  30
ATOM     30  C   UNL A   1      34.714  31.094  28.057  1.00  0.00     0.188 C 
BRANCH  30  31
ATOM     31  O   UNL A   1      34.453  32.303  27.378  1.00  0.00    -0.376 OA
BRANCH  31  32
ATOM     32  C   UNL A   1      33.259  32.978  27.737  1.00  0.00     0.202 C 
BRANCH  32  33
ATOM     33  C   UNL A   1      33.239  34.363  28.445  1.00  0.00     0.261 C 
BRANCH  33  34
ATOM     34  O   UNL A   1      34.358  34.719  29.292  1.00  0.00    -0.460 OA
BRANCH  34  35
ATOM     35  C   UNL A   1      34.383  34.447  30.617  1.00  0.00     0.338 C 
ATOM     36  O   UNL A   1      33.399  34.262  31.322  1.00  0.00    -0.246 OA
BRANCH  35  37
ATOM     37  C   UNL A   1      35.793  34.039  30.966  1.00  0.00     0.060 A 
ATOM     38  C   UNL A   1      36.387  34.329  32.202  1.00  0.00     0.016 A 
ATOM     39  C   UNL A   1      36.617  33.661  29.890  1.00  0.00     0.016 A 
ATOM     40  C   UNL A   1      37.789  34.367  32.306  1.00  0.00     0.010 A 
ATOM     41  C   UNL A   1      38.016  33.715  29.995  1.00  0.00     0.010 A 
ATOM     42  C   UNL A   1      38.618  34.096  31.194  1.00  0.00    -0.014 A 
BRANCH  42  43
ATOM     43  C   UNL A   1      40.074  33.929  31.430  1.00  0.00     0.031 A 
ATOM     44  C   UNL A   1      40.353  32.776  32.343  1.00  0.00     0.074 A 
ATOM     45  C   UNL A   1      41.132  34.483  30.790  1.00  0.00     0.049 A 
ATOM     46  N   UNL A   1      40.945  32.749  33.494  1.00  0.00    -0.248 NA
ATOM     47  C   UNL A   1      39.744  31.498  31.940  1.00  0.00     0.031 C 
ATOM     48  C   UNL A   1      41.130  35.283  29.565  1.00  0.00     0.029 A 
ATOM     49  N   UNL A   1      42.475  34.358  31.064  1.00  0.00    -0.354 N 
ATOM     50  C   UNL A   1      40.912  31.411  33.895  1.00  0.00     0.074 A 
ATOM     51  C   UNL A   1      40.016  30.735  32.993  1.00  0.00     0.031 C 
ATOM     52  C   UNL A   1      42.396  35.430  29.114  1.00  0.00     0.029 A 
ATOM     53  C   UNL A   1      43.314  34.784  30.038  1.00  0.00     0.049 A 
ATOM     54  H   UNL A   1      42.814  33.997  31.915  1.00  0.00     0.167 HD
ATOM     55  C   UNL A   1      41.751  30.883  34.830  1.00  0.00     0.034 A 
ATOM     56  C   UNL A   1      44.639  34.521  29.873  1.00  0.00     0.034 A 
ATOM     57  C   UNL A   1      42.383  31.897  35.621  1.00  0.00     0.049 A 
ATOM     58  C   UNL A   1      45.199  34.017  31.146  1.00  0.00     0.074 A 
ATOM     59  C   UNL A   1      41.941  32.864  36.500  1.00  0.00     0.029 A 
ATOM     60  N   UNL A   1      43.683  32.228  35.331  1.00  0.00    -0.354 N 
ATOM     61  N   UNL A   1      45.388  34.737  32.212  1.00  0.00    -0.248 NA
ATOM     62  C   UNL A   1      45.178  32.577  31.352  1.00  0.00     0.031 C 
ATOM     63  C   UNL A   1      42.816  33.968  36.305  1.00  0.00     0.029 A 
ATOM     64  C   UNL A   1      43.759  33.595  35.345  1.00  0.00     0.049 A 
ATOM     65  H   UNL A   1      44.421  31.601  35.149  1.00  0.00     0.167 HD
ATOM     66  C   UNL A   1      45.060  33.891  33.259  1.00  0.00     0.074 A 
ATOM     67  C   UNL A   1      45.027  32.553  32.676  1.00  0.00     0.031 C 
ATOM     68  C   UNL A   1      44.571  34.376  34.437  1.00  0.00     0.034 A 
BRANCH  55  69
ATOM     69  C   UNL A   1      42.203  29.442  34.822  1.00  0.00     0.023 A 
ATOM     70  C   UNL A   1      41.742  28.496  35.759  1.00  0.00     0.031 A 
ATOM     71  C   UNL A   1      42.949  28.921  33.747  1.00  0.00     0.131 A 
ATOM     72  C   UNL A   1      42.049  27.136  35.654  1.00  0.00     0.055 A 
ATOM     73  C   UNL A   1      43.192  27.549  33.597  1.00  0.00     0.041 A 
ATOM     74  F   UNL A   1      43.419  29.723  32.779  1.00  0.00    -0.206 F 
ATOM     75  C   UNL A   1      42.747  26.648  34.556  1.00  0.00     0.022 A 
BRANCH  72  76
ATOM     76  S   UNL A   1      41.543  25.983  36.960  1.00  0.00     0.124 S 
ATOM     77  O   UNL A   1      42.766  25.867  37.746  1.00  0.00    -0.237 OA
ATOM     78  O   UNL A   1      40.448  26.714  37.593  1.00  0.00    -0.237 OA
ATOM     79  O   UNL A   1      41.140  24.789  36.222  1.00  0.00    -0.744 OA
ENDBRANCH  72  76
ENDBRANCH  55  69
BRANCH  56  80
ATOM     80  C   UNL A   1      45.312  34.213  28.582  1.00  0.00     0.023 A 
ATOM     81  C   UNL A   1      46.269  35.114  28.086  1.00  0.00     0.031 A 
ATOM     82  C   UNL A   1      44.828  33.241  27.688  1.00  0.00     0.131 A 
ATOM     83  C   UNL A   1      46.695  35.059  26.755  1.00  0.00     0.055 A 
ATOM     84  C   UNL A   1      45.263  33.177  26.354  1.00  0.00     0.041 A 
ATOM     85  F   UNL A   1      43.875  32.377  28.069  1.00  0.00    -0.206 F 
ATOM     86  C   UNL A   1      46.195  34.098  25.879  1.00  0.00     0.022 A 
BRANCH  83  87
ATOM     87  S   UNL A   1      47.857  36.303  26.135  1.00  0.00     0.124 S 
ATOM     88  O   UNL A   1      48.632  35.543  25.158  1.00  0.00    -0.237 OA
ATOM     89  O   UNL A   1      46.953  37.305  25.585  1.00  0.00    -0.237 OA
ATOM     90  O   UNL A   1      48.598  36.701  27.331  1.00  0.00    -0.744 OA
ENDBRANCH  83  87
ENDBRANCH  56  80
BRANCH  68  91
ATOM     91  C   UNL A   1      44.628  35.862  34.705  1.00  0.00     0.023 A 
ATOM     92  C   UNL A   1      45.508  36.290  35.714  1.00  0.00     0.031 A 
ATOM     93  C   UNL A   1      43.711  36.802  34.196  1.00  0.00     0.131 A 
ATOM     94  C   UNL A   1      45.423  37.589  36.224  1.00  0.00     0.055 A 
ATOM     95  C   UNL A   1      43.686  38.125  34.650  1.00  0.00     0.041 A 
ATOM     96  F   UNL A   1      42.758  36.453  33.319  1.00  0.00    -0.206 F 
ATOM     97  C   UNL A   1      44.530  38.519  35.685  1.00  0.00     0.022 A 
BRANCH  94  98
ATOM     98  S   UNL A   1      46.349  38.042  37.713  1.00  0.00     0.124 S 
ATOM     99  O   UNL A   1      47.652  37.431  37.469  1.00  0.00    -0.237 OA
ATOM    100  O   UNL A   1      46.321  39.502  37.664  1.00  0.00    -0.237 OA
ATOM    101  O   UNL A   1      45.579  37.449  38.804  1.00  0.00    -0.744 OA
ENDBRANCH  94  98
ENDBRANCH  68  91
ENDBRANCH  42  43
ENDBRANCH  35  37
ENDBRANCH  34  35
ENDBRANCH  33  34
ENDBRANCH  32  33
ENDBRANCH  31  32
ENDBRANCH  30  31
ENDBRANCH  29  30
ENDBRANCH  28  29
ENDBRANCH   1  28
TORSDOF 28
ENDMDL
MODEL 2
REMARK VINA RESULT:      -7.6      1.837      3.935
REMARK SMILES O=C(Cn1c(SCCc2ccccc2)nc2ccccc21)OCCOCCOCCOCCOC(=O)c1ccc(-c2c3nc(c(-c4cc(S(=O)(=O)[O-])ccc4F)c4ccc([nH]4)c(-c4cc(S(=O)(=O)[O-])ccc4F)c4nc(c(-c5cc(S(=O)(=O)[O-])ccc5F)c5ccc2[nH]5)C=C4)C=C3)cc1
REMARK SMILES IDX 27 1 26 2 25 3 24 4 23 5 22 6 2 7 1 8 3 9 4 10 5 11 21 12
REMARK SMILES IDX 15 13 16 14 20 15 17 16 19 17 18 18 6 19 7 20 8 21 9 22
REMARK SMILES IDX 10 23 14 24 11 25 13 26 12 27 28 28 29 29 30 30 31 31 32 32
REMARK SMILES IDX 33 33 34 34 35 35 36 36 37 37 38 38 99 39 39 40 98 41 40 42
REMARK SMILES IDX 41 43 42 44 92 45 43 46 97 47 91 48 93 49 44 50 96 51 90 52
REMARK SMILES IDX 89 53 45 55 77 56 57 57 76 58 58 59 61 60 75 61 94 62 59 63
REMARK SMILES IDX 60 64 74 66 95 67 62 68 46 69 47 70 55 71 48 72 54 73 56 74
REMARK SMILES IDX 53 75 49 76 50 77 51 78 52 79 78 80 79 81 87 82 80 83 86 84
REMARK SMILES IDX 88 85 85 86 81 87 82 88 83 89 84 90 63 91 64 92 72 93 65 94
REMARK SMILES IDX 71 95 73 96 70 97 66 98 67 99 68 100 69 101
REMARK H PARENT 93 54 61 65
REMARK Flexibility Score: inf
ROOT
ATOM      1  C   UNL A   1      37.697  29.241  29.201  1.00  0.00     0.188 C 
ENDROOT
BRANCH   1   2
ATOM      2  C   UNL A   1      38.758  30.056  28.476  1.00  0.00     0.188 C 
BRANCH   2   3
ATOM      3  O   UNL A   1      39.948  29.479  27.944  1.00  0.00    -0.376 OA
BRANCH   3   4
ATOM      4  C   UNL A   1      40.012  28.130  27.413  1.00  0.00     0.202 C 
BRANCH   4   5
ATOM      5  C   UNL A   1      41.247  27.354  26.858  1.00  0.00     0.261 C 
BRANCH   5   6
ATOM      6  O   UNL A   1      41.940  26.441  27.699  1.00  0.00    -0.462 OA
BRANCH   6   7
ATOM      7  C   UNL A   1      41.829  25.114  27.521  1.00  0.00     0.326 C 
ATOM      8  O   UNL A   1      42.092  24.375  28.472  1.00  0.00    -0.250 OA
BRANCH   7   9
ATOM      9  C   UNL A   1      41.756  24.584  26.130  1.00  0.00     0.247 C 
BRANCH   9  10
ATOM     10  N   UNL A   1      42.496  23.425  25.759  1.00  0.00    -0.308 N 
ATOM     11  C   UNL A   1      42.190  22.099  25.837  1.00  0.00     0.169 A 
ATOM     12  C   UNL A   1      43.840  23.543  25.414  1.00  0.00     0.069 A 
ATOM     13  N   UNL A   1      43.152  21.393  25.269  1.00  0.00    -0.222 NA
ATOM     14  C   UNL A   1      44.185  22.262  25.024  1.00  0.00     0.090 A 
ATOM     15  C   UNL A   1      44.757  24.614  25.413  1.00  0.00     0.028 A 
ATOM     16  C   UNL A   1      45.477  22.029  24.527  1.00  0.00     0.030 A 
ATOM     17  C   UNL A   1      46.055  24.351  24.969  1.00  0.00     0.002 A 
ATOM     18  C   UNL A   1      46.406  23.081  24.514  1.00  0.00     0.002 A 
BRANCH  11  19
ATOM     19  S   UNL A   1      40.883  21.276  26.626  1.00  0.00    -0.088 SA
BRANCH  19  20
ATOM     20  C   UNL A   1      39.240  21.457  25.896  1.00  0.00     0.083 C 
BRANCH  20  21
ATOM     21  C   UNL A   1      38.262  22.668  26.025  1.00  0.00     0.047 C 
BRANCH  21  22
ATOM     22  C   UNL A   1      36.793  22.572  25.681  1.00  0.00    -0.047 A 
ATOM     23  C   UNL A   1      36.220  21.344  25.338  1.00  0.00     0.004 A 
ATOM     24  C   UNL A   1      35.949  23.702  25.756  1.00  0.00     0.004 A 
ATOM     25  C   UNL A   1      34.834  21.201  25.251  1.00  0.00     0.000 A 
ATOM     26  C   UNL A   1      34.560  23.563  25.636  1.00  0.00     0.000 A 
ATOM     27  C   UNL A   1      34.002  22.304  25.420  1.00  0.00     0.000 A 
ENDBRANCH  21  22
ENDBRANCH  20  21
ENDBRANCH  19  20
ENDBRANCH  11  19
ENDBRANCH   9  10
ENDBRANCH   7   9
ENDBRANCH   6   7
ENDBRANCH   5   6
ENDBRANCH   4   5
ENDBRANCH   3   4
ENDBRANCH   2   3
ENDBRANCH   1   2
BRANCH   1  28
ATOM     28  O   UNL A   1      36.516  29.068  28.429  1.00  0.00    -0.377 OA
BRANCH  28  29
ATOM     29  C   UNL A   1      36.152  30.226  27.686  1.00  0.00     0.188 C 
BRANCH  29  30
ATOM     30  C   UNL A   1      34.730  30.757  27.986  1.00  0.00     0.188 C 
BRANCH  30  31
ATOM     31  O   UNL A   1      34.420  31.936  27.276  1.00  0.00    -0.376 OA
BRANCH  31  32
ATOM     32  C   UNL A   1      33.204  32.576  27.623  1.00  0.00     0.202 C 
BRANCH  32  33
ATOM     33  C   UNL A   1      33.128  34.031  28.167  1.00  0.00     0.261 C 
BRANCH  33  34
ATOM     34  O   UNL A   1      34.247  34.539  28.934  1.00  0.00    -0.460 OA
BRANCH  34  35
ATOM     35  C   UNL A   1      34.320  34.420  30.279  1.00  0.00     0.338 C 
ATOM     36  O   UNL A   1      33.361  34.357  31.039  1.00  0.00    -0.246 OA
BRANCH  35  37
ATOM     37  C   UNL A   1      35.728  33.997  30.618  1.00  0.00     0.060 A 
ATOM     38  C   UNL A   1      36.323  34.252  31.861  1.00  0.00     0.016 A 
ATOM     39  C   UNL A   1      36.551  33.643  29.533  1.00  0.00     0.016 A 
ATOM     40  C   UNL A   1      37.725  34.282  31.965  1.00  0.00     0.010 A 
ATOM     41  C   UNL A   1      37.950  33.689  29.639  1.00  0.00     0.010 A 
ATOM     42  C   UNL A   1      38.554  34.036  30.847  1.00  0.00    -0.014 A 
BRANCH  42  43
ATOM     43  C   UNL A   1      40.009  33.858  31.079  1.00  0.00     0.031 A 
ATOM     44  C   UNL A   1      40.287  32.641  31.905  1.00  0.00     0.074 A 
ATOM     45  C   UNL A   1      41.068  34.461  30.487  1.00  0.00     0.049 A 
ATOM     46  N   UNL A   1      40.873  32.531  33.054  1.00  0.00    -0.248 NA
ATOM     47  C   UNL A   1      39.685  31.394  31.405  1.00  0.00     0.031 C 
ATOM     48  C   UNL A   1      41.070  35.350  29.325  1.00  0.00     0.029 A 
ATOM     49  N   UNL A   1      42.409  34.320  30.759  1.00  0.00    -0.354 N 
ATOM     50  C   UNL A   1      40.842  31.167  33.355  1.00  0.00     0.074 A 
ATOM     51  C   UNL A   1      39.954  30.556  32.401  1.00  0.00     0.031 C 
ATOM     52  C   UNL A   1      42.338  35.534  28.894  1.00  0.00     0.029 A 
ATOM     53  C   UNL A   1      43.253  34.825  29.773  1.00  0.00     0.049 A 
ATOM     54  H   UNL A   1      42.746  33.899  31.583  1.00  0.00     0.167 HD
ATOM     55  C   UNL A   1      41.678  30.574  34.253  1.00  0.00     0.034 A 
ATOM     56  C   UNL A   1      44.580  34.578  29.597  1.00  0.00     0.034 A 
ATOM     57  C   UNL A   1      42.302  31.529  35.121  1.00  0.00     0.049 A 
ATOM     58  C   UNL A   1      45.135  33.984  30.831  1.00  0.00     0.074 A 
ATOM     59  C   UNL A   1      41.851  32.426  36.067  1.00  0.00     0.029 A 
ATOM     60  N   UNL A   1      43.602  31.884  34.864  1.00  0.00    -0.354 N 
ATOM     61  N   UNL A   1      45.315  34.624  31.950  1.00  0.00    -0.248 NA
ATOM     62  C   UNL A   1      45.118  32.533  30.931  1.00  0.00     0.031 C 
ATOM     63  C   UNL A   1      42.723  33.545  35.959  1.00  0.00     0.029 A 
ATOM     64  C   UNL A   1      43.672  33.248  34.979  1.00  0.00     0.049 A 
ATOM     65  H   UNL A   1      44.344  31.275  34.641  1.00  0.00     0.167 HD
ATOM     66  C   UNL A   1      44.984  33.702  32.929  1.00  0.00     0.074 A 
ATOM     67  C   UNL A   1      44.960  32.410  32.249  1.00  0.00     0.031 C 
ATOM     68  C   UNL A   1      44.487  34.096  34.137  1.00  0.00     0.034 A 
BRANCH  55  69
ATOM     69  C   UNL A   1      42.136  29.139  34.141  1.00  0.00     0.023 A 
ATOM     70  C   UNL A   1      43.014  28.699  33.131  1.00  0.00     0.031 A 
ATOM     71  C   UNL A   1      41.871  28.210  35.166  1.00  0.00     0.131 A 
ATOM     72  C   UNL A   1      43.548  27.406  33.123  1.00  0.00     0.055 A 
ATOM     73  C   UNL A   1      42.466  26.941  35.202  1.00  0.00     0.041 A 
ATOM     74  F   UNL A   1      41.068  28.526  36.194  1.00  0.00    -0.206 F 
ATOM     75  C   UNL A   1      43.305  26.530  34.173  1.00  0.00     0.022 A 
BRANCH  72  76
ATOM     76  S   UNL A   1      44.566  26.849  31.729  1.00  0.00     0.124 S 
ATOM     77  O   UNL A   1      45.208  25.663  32.284  1.00  0.00    -0.237 OA
ATOM     78  O   UNL A   1      43.556  26.604  30.703  1.00  0.00    -0.237 OA
ATOM     79  O   UNL A   1      45.441  27.989  31.471  1.00  0.00    -0.744 OA
ENDBRANCH  72  76
ENDBRANCH  55  69
BRANCH  56  80
ATOM     80  C   UNL A   1      45.262  34.370  28.290  1.00  0.00     0.023 A 
ATOM     81  C   UNL A   1      46.244  35.288  27.885  1.00  0.00     0.031 A 
ATOM     82  C   UNL A   1      44.767  33.491  27.310  1.00  0.00     0.131 A 
ATOM     83  C   UNL A   1      46.684  35.340  26.558  1.00  0.00     0.055 A 
ATOM     84  C   UNL A   1      45.216  33.534  25.980  1.00  0.00     0.041 A 
ATOM     85  F   UNL A   1      43.790  32.619  27.604  1.00  0.00    -0.206 F 
ATOM     86  C   UNL A   1      46.174  34.471  25.597  1.00  0.00     0.022 A 
BRANCH  83  87
ATOM     87  S   UNL A   1      47.881  36.607  26.062  1.00  0.00     0.124 S 
ATOM     88  O   UNL A   1      47.014  37.683  25.591  1.00  0.00    -0.237 OA
ATOM     89  O   UNL A   1      48.580  36.861  27.316  1.00  0.00    -0.237 OA
ATOM     90  O   UNL A   1      48.663  35.946  25.019  1.00  0.00    -0.744 OA
ENDBRANCH  83  87
ENDBRANCH  56  80
BRANCH  68  91
ATOM     91  C   UNL A   1      44.536  35.558  34.514  1.00  0.00     0.023 A 
ATOM     92  C   UNL A   1      45.490  35.932  35.478  1.00  0.00     0.031 A 
ATOM     93  C   UNL A   1      43.562  36.510  34.157  1.00  0.00     0.131 A 
ATOM     94  C   UNL A   1      45.421  37.185  36.093  1.00  0.00     0.055 A 
ATOM     95  C   UNL A   1      43.548  37.794  34.714  1.00  0.00     0.041 A 
ATOM     96  F   UNL A   1      42.545  36.204  33.337  1.00  0.00    -0.206 F 
ATOM     97  C   UNL A   1      44.468  38.129  35.703  1.00  0.00     0.022 A 
BRANCH  94  98
ATOM     98  S   UNL A   1      46.460  37.548  37.532  1.00  0.00     0.124 S 
ATOM     99  O   UNL A   1      46.684  36.221  38.099  1.00  0.00    -0.237 OA
ATOM    100  O   UNL A   1      47.630  38.175  36.920  1.00  0.00    -0.237 OA
ATOM    101  O   UNL A   1      45.639  38.441  38.346  1.00  0.00    -0.744 OA
ENDBRANCH  94  98
ENDBRANCH  68  91
ENDBRANCH  42  43
ENDBRANCH  35  37
ENDBRANCH  34  35
ENDBRANCH  33  34
ENDBRANCH  32  33
ENDBRANCH  31  32
ENDBRANCH  30  31
ENDBRANCH  29  30
ENDBRANCH  28  29
ENDBRANCH   1  28
TORSDOF 28
ENDMDL
MODEL 3
REMARK VINA RESULT:      -7.6      6.027     13.294
REMARK SMILES O=C(Cn1c(SCCc2ccccc2)nc2ccccc21)OCCOCCOCCOCCOC(=O)c1ccc(-c2c3nc(c(-c4cc(S(=O)(=O)[O-])ccc4F)c4ccc([nH]4)c(-c4cc(S(=O)(=O)[O-])ccc4F)c4nc(c(-c5cc(S(=O)(=O)[O-])ccc5F)c5ccc2[nH]5)C=C4)C=C3)cc1
REMARK SMILES IDX 27 1 26 2 25 3 24 4 23 5 22 6 2 7 1 8 3 9 4 10 5 11 21 12
REMARK SMILES IDX 15 13 16 14 20 15 17 16 19 17 18 18 6 19 7 20 8 21 9 22
REMARK SMILES IDX 10 23 14 24 11 25 13 26 12 27 28 28 29 29 30 30 31 31 32 32
REMARK SMILES IDX 33 33 34 34 35 35 36 36 37 37 38 38 99 39 39 40 98 41 40 42
REMARK SMILES IDX 41 43 42 44 92 45 43 46 97 47 91 48 93 49 44 50 96 51 90 52
REMARK SMILES IDX 89 53 45 55 77 56 57 57 76 58 58 59 61 60 75 61 94 62 59 63
REMARK SMILES IDX 60 64 74 66 95 67 62 68 46 69 47 70 55 71 48 72 54 73 56 74
REMARK SMILES IDX 53 75 49 76 50 77 51 78 52 79 78 80 79 81 87 82 80 83 86 84
REMARK SMILES IDX 88 85 85 86 81 87 82 88 83 89 84 90 63 91 64 92 72 93 65 94
REMARK SMILES IDX 71 95 73 96 70 97 66 98 67 99 68 100 69 101
REMARK H PARENT 93 54 61 65
REMARK Flexibility Score: inf
ROOT
ATOM      1  C   UNL A   1      51.162  22.262  38.881  1.00  0.00     0.188 C 
ENDROOT
BRANCH   1   2
ATOM      2  C   UNL A   1      50.935  21.491  40.172  1.00  0.00     0.188 C 
BRANCH   2   3
ATOM      3  O   UNL A   1      50.359  20.187  40.206  1.00  0.00    -0.376 OA
BRANCH   3   4
ATOM      4  C   UNL A   1      50.076  19.472  41.436  1.00  0.00     0.202 C 
BRANCH   4   5
ATOM      5  C   UNL A   1      49.054  18.320  41.685  1.00  0.00     0.261 C 
BRANCH   5   6
ATOM      6  O   UNL A   1      48.273  18.316  42.873  1.00  0.00    -0.462 OA
BRANCH   6   7
ATOM      7  C   UNL A   1      47.115  17.638  42.939  1.00  0.00     0.326 C 
ATOM      8  O   UNL A   1      47.158  16.439  43.220  1.00  0.00    -0.250 OA
BRANCH   7   9
ATOM      9  C   UNL A   1      45.898  18.244  42.330  1.00  0.00     0.247 C 
BRANCH   9  10
ATOM     10  N   UNL A   1      45.472  17.855  41.027  1.00  0.00    -0.308 N 
ATOM     11  C   UNL A   1      45.762  18.365  39.796  1.00  0.00     0.169 A 
ATOM     12  C   UNL A   1      44.447  16.923  40.883  1.00  0.00     0.069 A 
ATOM     13  N   UNL A   1      45.215  17.602  38.866  1.00  0.00    -0.222 NA
ATOM     14  C   UNL A   1      44.383  16.725  39.515  1.00  0.00     0.090 A 
ATOM     15  C   UNL A   1      43.594  16.263  41.790  1.00  0.00     0.028 A 
ATOM     16  C   UNL A   1      43.492  15.766  39.010  1.00  0.00     0.030 A 
ATOM     17  C   UNL A   1      42.674  15.353  41.264  1.00  0.00     0.002 A 
ATOM     18  C   UNL A   1      42.635  15.094  39.896  1.00  0.00     0.002 A 
BRANCH  11  19
ATOM     19  S   UNL A   1      46.575  19.824  39.330  1.00  0.00    -0.088 SA
BRANCH  19  20
ATOM     20  C   UNL A   1      47.299  19.868  37.675  1.00  0.00     0.083 C 
BRANCH  20  21
ATOM     21  C   UNL A   1      46.565  20.086  36.314  1.00  0.00     0.047 C 
BRANCH  21  22
ATOM     22  C   UNL A   1      45.827  21.363  35.979  1.00  0.00    -0.047 A 
ATOM     23  C   UNL A   1      45.158  21.500  34.759  1.00  0.00     0.004 A 
ATOM     24  C   UNL A   1      45.740  22.422  36.908  1.00  0.00     0.004 A 
ATOM     25  C   UNL A   1      44.285  22.567  34.539  1.00  0.00     0.000 A 
ATOM     26  C   UNL A   1      44.887  23.509  36.673  1.00  0.00     0.000 A 
ATOM     27  C   UNL A   1      44.133  23.560  35.502  1.00  0.00     0.000 A 
ENDBRANCH  21  22
ENDBRANCH  20  21
ENDBRANCH  19  20
ENDBRANCH  11  19
ENDBRANCH   9  10
ENDBRANCH   7   9
ENDBRANCH   6   7
ENDBRANCH   5   6
ENDBRANCH   4   5
ENDBRANCH   3   4
ENDBRANCH   2   3
ENDBRANCH   1   2
BRANCH   1  28
ATOM     28  O   UNL A   1      51.398  21.410  37.768  1.00  0.00    -0.377 OA
BRANCH  28  29
ATOM     29  C   UNL A   1      50.428  21.548  36.735  1.00  0.00     0.188 C 
BRANCH  29  30
ATOM     30  C   UNL A   1      51.014  21.928  35.354  1.00  0.00     0.188 C 
BRANCH  30  31
ATOM     31  O   UNL A   1      51.973  22.960  35.428  1.00  0.00    -0.376 OA
BRANCH  31  32
ATOM     32  C   UNL A   1      51.503  24.272  35.166  1.00  0.00     0.202 C 
BRANCH  32  33
ATOM     33  C   UNL A   1      51.210  25.314  36.283  1.00  0.00     0.261 C 
BRANCH  33  34
ATOM     34  O   UNL A   1      49.846  25.765  36.464  1.00  0.00    -0.460 OA
BRANCH  34  35
ATOM     35  C   UNL A   1      48.826  24.913  36.713  1.00  0.00     0.338 C 
ATOM     36  O   UNL A   1      48.609  24.358  37.783  1.00  0.00    -0.246 OA
BRANCH  35  37
ATOM     37  C   UNL A   1      47.823  25.073  35.597  1.00  0.00     0.060 A 
ATOM     38  C   UNL A   1      47.930  24.402  34.372  1.00  0.00     0.016 A 
ATOM     39  C   UNL A   1      46.961  26.182  35.689  1.00  0.00     0.016 A 
ATOM     40  C   UNL A   1      47.286  24.924  33.236  1.00  0.00     0.010 A 
ATOM     41  C   UNL A   1      46.332  26.708  34.549  1.00  0.00     0.010 A 
ATOM     42  C   UNL A   1      46.510  26.103  33.305  1.00  0.00    -0.014 A 
BRANCH  42  43
ATOM     43  C   UNL A   1      45.679  26.464  32.130  1.00  0.00     0.031 A 
ATOM     44  C   UNL A   1      46.119  27.760  31.524  1.00  0.00     0.074 A 
ATOM     45  C   UNL A   1      44.792  25.720  31.425  1.00  0.00     0.049 A 
ATOM     46  N   UNL A   1      45.467  28.865  31.356  1.00  0.00    -0.248 NA
ATOM     47  C   UNL A   1      47.551  27.841  31.191  1.00  0.00     0.031 C 
ATOM     48  C   UNL A   1      44.529  24.285  31.532  1.00  0.00     0.029 A 
ATOM     49  N   UNL A   1      43.990  26.094  30.371  1.00  0.00    -0.354 N 
ATOM     50  C   UNL A   1      46.373  29.743  30.755  1.00  0.00     0.074 A 
ATOM     51  C   UNL A   1      47.667  29.118  30.844  1.00  0.00     0.031 C 
ATOM     52  C   UNL A   1      43.767  23.882  30.491  1.00  0.00     0.029 A 
ATOM     53  C   UNL A   1      43.436  25.030  29.663  1.00  0.00     0.049 A 
ATOM     54  H   UNL A   1      43.821  27.035  30.137  1.00  0.00     0.167 HD
ATOM     55  C   UNL A   1      46.000  30.852  30.058  1.00  0.00     0.034 A 
ATOM     56  C   UNL A   1      42.866  25.050  28.428  1.00  0.00     0.034 A 
ATOM     57  C   UNL A   1      44.646  31.232  30.333  1.00  0.00     0.049 A 
ATOM     58  C   UNL A   1      42.554  26.447  28.056  1.00  0.00     0.074 A 
ATOM     59  C   UNL A   1      43.961  31.652  31.454  1.00  0.00     0.029 A 
ATOM     60  N   UNL A   1      43.683  30.910  29.410  1.00  0.00    -0.354 N 
ATOM     61  N   UNL A   1      41.615  27.169  28.595  1.00  0.00    -0.248 NA
ATOM     62  C   UNL A   1      43.582  27.184  27.337  1.00  0.00     0.031 C 
ATOM     63  C   UNL A   1      42.657  31.100  31.318  1.00  0.00     0.029 A 
ATOM     64  C   UNL A   1      42.616  30.406  30.107  1.00  0.00     0.049 A 
ATOM     65  H   UNL A   1      43.746  31.020  28.433  1.00  0.00     0.167 HD
ATOM     66  C   UNL A   1      42.163  28.438  28.674  1.00  0.00     0.074 A 
ATOM     67  C   UNL A   1      43.335  28.407  27.804  1.00  0.00     0.031 C 
ATOM     68  C   UNL A   1      41.784  29.316  29.647  1.00  0.00     0.034 A 
BRANCH  55  69
ATOM     69  C   UNL A   1      46.797  31.417  28.906  1.00  0.00     0.023 A 
ATOM     70  C   UNL A   1      47.499  32.636  28.994  1.00  0.00     0.031 A 
ATOM     71  C   UNL A   1      47.050  30.649  27.753  1.00  0.00     0.131 A 
ATOM     72  C   UNL A   1      48.352  33.076  27.976  1.00  0.00     0.055 A 
ATOM     73  C   UNL A   1      47.964  31.051  26.769  1.00  0.00     0.041 A 
ATOM     74  F   UNL A   1      46.458  29.459  27.572  1.00  0.00    -0.206 F 
ATOM     75  C   UNL A   1      48.617  32.273  26.874  1.00  0.00     0.022 A 
BRANCH  72  76
ATOM     76  S   UNL A   1      49.126  34.713  28.080  1.00  0.00     0.124 S 
ATOM     77  O   UNL A   1      48.257  35.508  27.219  1.00  0.00    -0.237 OA
ATOM     78  O   UNL A   1      49.033  34.995  29.510  1.00  0.00    -0.237 OA
ATOM     79  O   UNL A   1      50.480  34.481  27.585  1.00  0.00    -0.744 OA
ENDBRANCH  72  76
ENDBRANCH  55  69
BRANCH  56  80
ATOM     80  C   UNL A   1      43.031  24.012  27.375  1.00  0.00     0.023 A 
ATOM     81  C   UNL A   1      42.029  23.038  27.221  1.00  0.00     0.031 A 
ATOM     82  C   UNL A   1      44.261  23.766  26.739  1.00  0.00     0.131 A 
ATOM     83  C   UNL A   1      42.263  21.868  26.491  1.00  0.00     0.055 A 
ATOM     84  C   UNL A   1      44.493  22.597  25.997  1.00  0.00     0.041 A 
ATOM     85  F   UNL A   1      45.286  24.621  26.880  1.00  0.00    -0.206 F 
ATOM     86  C   UNL A   1      43.493  21.635  25.880  1.00  0.00     0.022 A 
BRANCH  83  87
ATOM     87  S   UNL A   1      40.974  20.598  26.403  1.00  0.00     0.124 S 
ATOM     88  O   UNL A   1      39.863  21.327  25.796  1.00  0.00    -0.237 OA
ATOM     89  O   UNL A   1      41.607  19.591  25.559  1.00  0.00    -0.237 OA
ATOM     90  O   UNL A   1      40.771  20.222  27.801  1.00  0.00    -0.744 OA
ENDBRANCH  83  87
ENDBRANCH  56  80
BRANCH  68  91
ATOM     91  C   UNL A   1      40.572  29.002  30.494  1.00  0.00     0.023 A 
ATOM     92  C   UNL A   1      39.405  29.739  30.227  1.00  0.00     0.031 A 
ATOM     93  C   UNL A   1      40.593  28.212  31.660  1.00  0.00     0.131 A 
ATOM     94  C   UNL A   1      38.337  29.725  31.129  1.00  0.00     0.055 A 
ATOM     95  C   UNL A   1      39.490  28.136  32.517  1.00  0.00     0.041 A 
ATOM     96  F   UNL A   1      41.703  27.570  32.056  1.00  0.00    -0.206 F 
ATOM     97  C   UNL A   1      38.362  28.912  32.265  1.00  0.00     0.022 A 
BRANCH  94  98
ATOM     98  S   UNL A   1      36.968  30.896  30.934  1.00  0.00     0.124 S 
ATOM     99  O   UNL A   1      35.904  30.264  31.708  1.00  0.00    -0.237 OA
ATOM    100  O   UNL A   1      37.522  32.119  31.509  1.00  0.00    -0.237 OA
ATOM    101  O   UNL A   1      36.744  30.941  29.491  1.00  0.00    -0.744 OA
ENDBRANCH  94  98
ENDBRANCH  68  91
ENDBRANCH  42  43
ENDBRANCH  35  37
ENDBRANCH  34  35
ENDBRANCH  33  34
ENDBRANCH  32  33
ENDBRANCH  31  32
ENDBRANCH  30  31
ENDBRANCH  29  30
ENDBRANCH  28  29
ENDBRANCH   1  28
TORSDOF 28
ENDMDL
