MODEL 1
REMARK VINA RESULT:      -9.6      0.000      0.000
REMARK SMILES O=C(OCCOCCOCCOCCOC(=O)c1cncc(Nc2ccc(Cl)cc2C(F)(F)F)n1)c1ccc(-c2c3nc(c(-c4cc(S(=O)(=O)[O-])ccc4F)c4ccc([nH]4)c(-c4cc(S(=O)(=O)[O-])ccc4F)c4nc(c(-c5cc(S(=O)(=O)[O-])ccc5F)c5ccc2[nH]5)C=C4)C=C3)cc1
REMARK SMILES IDX 9 1 8 2 7 3 6 4 5 5 4 6 3 7 2 8 1 9 36 10 37 11 98 12 38 13
REMARK SMILES IDX 97 14 39 15 40 16 41 17 91 18 42 19 96 20 90 21 92 22 43 23
REMARK SMILES IDX 95 24 89 25 88 26 44 28 76 29 56 30 75 31 57 32 60 33 74 34
REMARK SMILES IDX 93 35 58 36 59 37 73 39 94 40 61 41 45 42 46 43 54 44 47 45
REMARK SMILES IDX 53 46 55 47 52 48 48 49 49 50 50 51 51 52 77 53 78 54 86 55
REMARK SMILES IDX 79 56 85 57 87 58 84 59 80 60 81 61 82 62 83 63 62 64 63 65
REMARK SMILES IDX 71 66 64 67 70 68 72 69 69 70 65 71 66 72 67 73 68 74 10 75
REMARK SMILES IDX 11 76 12 77 13 78 14 79 15 80 16 81 17 82 18 83 19 84 35 85
REMARK SMILES IDX 20 86 22 87 21 88 23 89 24 91 25 92 30 93 26 94 29 95 27 96
REMARK SMILES IDX 28 97 31 98 32 99 33 100 34 101
REMARK H PARENT 92 27 60 38 23 90
REMARK Flexibility Score: inf
ROOT
ATOM      1  O   UNL A   1      34.459  31.928  29.093  1.00  0.00    -0.377 OA
ENDROOT
BRANCH   1   2
ATOM      2  C   UNL A   1      35.162  33.167  28.994  1.00  0.00     0.188 C 
BRANCH   2   3
ATOM      3  C   UNL A   1      34.615  34.124  27.935  1.00  0.00     0.188 C 
BRANCH   3   4
ATOM      4  O   UNL A   1      33.431  34.764  28.418  1.00  0.00    -0.376 OA
BRANCH   4   5
ATOM      5  C   UNL A   1      33.645  35.943  29.193  1.00  0.00     0.202 C 
BRANCH   5   6
ATOM      6  C   UNL A   1      32.426  36.384  30.008  1.00  0.00     0.261 C 
BRANCH   6   7
ATOM      7  O   UNL A   1      32.314  35.639  31.230  1.00  0.00    -0.460 OA
BRANCH   7   8
ATOM      8  C   UNL A   1      33.183  35.627  32.272  1.00  0.00     0.338 C 
ATOM      9  O   UNL A   1      32.993  36.421  33.193  1.00  0.00    -0.246 OA
BRANCH   8  10
ATOM     10  C   UNL A   1      34.352  34.695  32.385  1.00  0.00     0.060 A 
ATOM     11  C   UNL A   1      34.288  33.336  32.710  1.00  0.00     0.016 A 
ATOM     12  C   UNL A   1      35.615  35.233  32.084  1.00  0.00     0.016 A 
ATOM     13  C   UNL A   1      35.432  32.560  32.831  1.00  0.00     0.010 A 
ATOM     14  C   UNL A   1      36.773  34.452  32.171  1.00  0.00     0.010 A 
ATOM     15  C   UNL A   1      36.681  33.120  32.587  1.00  0.00    -0.014 A 
BRANCH  15  16
ATOM     16  C   UNL A   1      37.874  32.342  32.967  1.00  0.00     0.031 A 
ATOM     17  C   UNL A   1      38.480  32.615  34.312  1.00  0.00     0.074 A 
ATOM     18  C   UNL A   1      38.307  31.337  32.187  1.00  0.00     0.049 A 
ATOM     19  N   UNL A   1      39.558  32.123  34.857  1.00  0.00    -0.248 NA
ATOM     20  C   UNL A   1      37.756  33.576  35.163  1.00  0.00     0.031 C 
ATOM     21  C   UNL A   1      37.683  30.921  30.930  1.00  0.00     0.029 A 
ATOM     22  N   UNL A   1      39.357  30.472  32.343  1.00  0.00    -0.354 N 
ATOM     23  C   UNL A   1      39.658  32.733  36.102  1.00  0.00     0.074 A 
ATOM     24  C   UNL A   1      38.540  33.641  36.224  1.00  0.00     0.031 C 
ATOM     25  C   UNL A   1      38.363  29.876  30.431  1.00  0.00     0.029 A 
ATOM     26  C   UNL A   1      39.507  29.597  31.293  1.00  0.00     0.049 A 
ATOM     27  H   UNL A   1      39.948  30.477  33.130  1.00  0.00     0.167 HD
ATOM     28  C   UNL A   1      40.610  32.551  37.049  1.00  0.00     0.034 A 
ATOM     29  C   UNL A   1      40.490  28.710  31.044  1.00  0.00     0.034 A 
ATOM     30  C   UNL A   1      41.719  31.650  36.868  1.00  0.00     0.049 A 
ATOM     31  C   UNL A   1      41.603  28.601  32.058  1.00  0.00     0.074 A 
ATOM     32  C   UNL A   1      42.803  31.424  37.695  1.00  0.00     0.029 A 
ATOM     33  N   UNL A   1      41.884  30.823  35.759  1.00  0.00    -0.354 N 
ATOM     34  N   UNL A   1      41.744  29.241  33.200  1.00  0.00    -0.248 NA
ATOM     35  C   UNL A   1      42.689  27.665  31.754  1.00  0.00     0.031 C 
ATOM     36  C   UNL A   1      43.651  30.509  37.059  1.00  0.00     0.029 A 
ATOM     37  C   UNL A   1      43.063  30.107  35.867  1.00  0.00     0.049 A 
ATOM     38  H   UNL A   1      41.253  30.758  35.006  1.00  0.00     0.167 HD
ATOM     39  C   UNL A   1      42.931  28.777  33.754  1.00  0.00     0.074 A 
ATOM     40  C   UNL A   1      43.452  27.784  32.832  1.00  0.00     0.031 C 
ATOM     41  C   UNL A   1      43.546  29.134  34.912  1.00  0.00     0.034 A 
BRANCH  28  42
ATOM     42  C   UNL A   1      40.524  33.431  38.273  1.00  0.00     0.023 A 
ATOM     43  C   UNL A   1      39.617  33.169  39.318  1.00  0.00     0.031 A 
ATOM     44  C   UNL A   1      41.266  34.624  38.333  1.00  0.00     0.131 A 
ATOM     45  C   UNL A   1      39.403  34.132  40.317  1.00  0.00     0.055 A 
ATOM     46  C   UNL A   1      41.111  35.538  39.378  1.00  0.00     0.041 A 
ATOM     47  F   UNL A   1      42.122  34.946  37.351  1.00  0.00    -0.206 F 
ATOM     48  C   UNL A   1      40.159  35.305  40.366  1.00  0.00     0.022 A 
BRANCH  45  49
ATOM     49  S   UNL A   1      37.990  33.919  41.440  1.00  0.00     0.124 S 
ATOM     50  O   UNL A   1      38.571  33.086  42.491  1.00  0.00    -0.237 OA
ATOM     51  O   UNL A   1      37.676  35.292  41.815  1.00  0.00    -0.237 OA
ATOM     52  O   UNL A   1      36.990  33.253  40.609  1.00  0.00    -0.744 OA
ENDBRANCH  45  49
ENDBRANCH  28  42
BRANCH  29  53
ATOM     53  C   UNL A   1      40.513  27.938  29.765  1.00  0.00     0.023 A 
ATOM     54  C   UNL A   1      41.437  28.219  28.745  1.00  0.00     0.031 A 
ATOM     55  C   UNL A   1      39.574  26.915  29.530  1.00  0.00     0.131 A 
ATOM     56  C   UNL A   1      41.382  27.508  27.534  1.00  0.00     0.055 A 
ATOM     57  C   UNL A   1      39.557  26.176  28.347  1.00  0.00     0.041 A 
ATOM     58  F   UNL A   1      38.658  26.607  30.463  1.00  0.00    -0.206 F 
ATOM     59  C   UNL A   1      40.459  26.479  27.334  1.00  0.00     0.022 A 
BRANCH  56  60
ATOM     60  S   UNL A   1      42.488  27.998  26.181  1.00  0.00     0.124 S 
ATOM     61  O   UNL A   1      43.802  27.744  26.761  1.00  0.00    -0.237 OA
ATOM     62  O   UNL A   1      42.074  27.099  25.109  1.00  0.00    -0.237 OA
ATOM     63  O   UNL A   1      42.163  29.408  25.968  1.00  0.00    -0.744 OA
ENDBRANCH  56  60
ENDBRANCH  29  53
BRANCH  41  64
ATOM     64  C   UNL A   1      44.828  28.415  35.242  1.00  0.00     0.023 A 
ATOM     65  C   UNL A   1      46.075  28.912  34.832  1.00  0.00     0.031 A 
ATOM     66  C   UNL A   1      44.795  27.220  35.981  1.00  0.00     0.131 A 
ATOM     67  C   UNL A   1      47.240  28.189  35.119  1.00  0.00     0.055 A 
ATOM     68  C   UNL A   1      45.962  26.534  36.314  1.00  0.00     0.041 A 
ATOM     69  F   UNL A   1      43.626  26.705  36.397  1.00  0.00    -0.206 F 
ATOM     70  C   UNL A   1      47.193  27.013  35.873  1.00  0.00     0.022 A 
BRANCH  67  71
ATOM     71  S   UNL A   1      48.813  28.763  34.426  1.00  0.00     0.124 S 
ATOM     72  O   UNL A   1      48.976  30.059  35.078  1.00  0.00    -0.237 OA
ATOM     73  O   UNL A   1      49.740  27.718  34.847  1.00  0.00    -0.237 OA
ATOM     74  O   UNL A   1      48.555  28.820  32.989  1.00  0.00    -0.744 OA
ENDBRANCH  67  71
ENDBRANCH  41  64
ENDBRANCH  15  16
ENDBRANCH   8  10
ENDBRANCH   7   8
ENDBRANCH   6   7
ENDBRANCH   5   6
ENDBRANCH   4   5
ENDBRANCH   3   4
ENDBRANCH   2   3
ENDBRANCH   1   2
BRANCH   1  75
ATOM     75  C   UNL A   1      34.385  31.148  27.904  1.00  0.00     0.188 C 
BRANCH  75  76
ATOM     76  C   UNL A   1      35.259  29.881  27.789  1.00  0.00     0.188 C 
BRANCH  76  77
ATOM     77  O   UNL A   1      34.767  28.903  26.883  1.00  0.00    -0.376 OA
BRANCH  77  78
ATOM     78  C   UNL A   1      33.419  28.496  27.098  1.00  0.00     0.202 C 
BRANCH  78  79
ATOM     79  C   UNL A   1      32.513  28.737  25.885  1.00  0.00     0.261 C 
BRANCH  79  80
ATOM     80  O   UNL A   1      32.578  27.714  24.875  1.00  0.00    -0.458 OA
BRANCH  80  81
ATOM     81  C   UNL A   1      33.311  27.953  23.761  1.00  0.00     0.358 C 
ATOM     82  O   UNL A   1      33.865  28.991  23.451  1.00  0.00    -0.244 OA
BRANCH  81  83
ATOM     83  C   UNL A   1      33.418  26.660  23.048  1.00  0.00     0.169 A 
ATOM     84  C   UNL A   1      33.163  26.623  21.687  1.00  0.00     0.147 A 
ATOM     85  N   UNL A   1      33.573  25.530  23.808  1.00  0.00    -0.220 NA
ATOM     86  N   UNL A   1      33.069  25.459  21.005  1.00  0.00    -0.258 NA
ATOM     87  C   UNL A   1      33.426  24.357  23.154  1.00  0.00     0.149 A 
ATOM     88  C   UNL A   1      33.186  24.345  21.772  1.00  0.00     0.158 A 
BRANCH  87  89
ATOM     89  N   UNL A   1      33.447  23.172  23.907  1.00  0.00    -0.338 N 
ATOM     90  H   UNL A   1      32.579  22.848  24.240  1.00  0.00     0.168 HD
BRANCH  89  91
ATOM     91  C   UNL A   1      34.571  22.397  24.234  1.00  0.00     0.052 A 
ATOM     92  C   UNL A   1      35.811  22.757  23.672  1.00  0.00     0.028 A 
ATOM     93  C   UNL A   1      34.517  21.310  25.123  1.00  0.00     0.080 A 
ATOM     94  C   UNL A   1      36.961  22.001  23.900  1.00  0.00     0.022 A 
ATOM     95  C   UNL A   1      35.685  20.540  25.328  1.00  0.00     0.035 A 
ATOM     96  C   UNL A   1      36.887  20.879  24.712  1.00  0.00     0.041 A 
ATOM     97  Cl  UNL A   1      38.283  19.905  24.951  1.00  0.00    -0.084 Cl
BRANCH  93  98
ATOM     98  C   UNL A   1      33.254  20.852  25.810  1.00  0.00     0.418 C 
ATOM     99  F   UNL A   1      33.224  21.217  27.123  1.00  0.00    -0.166 F 
ATOM    100  F   UNL A   1      32.138  21.410  25.254  1.00  0.00    -0.166 F 
ATOM    101  F   UNL A   1      33.035  19.509  25.783  1.00  0.00    -0.166 F 
ENDBRANCH  93  98
ENDBRANCH  89  91
ENDBRANCH  87  89
ENDBRANCH  81  83
ENDBRANCH  80  81
ENDBRANCH  79  80
ENDBRANCH  78  79
ENDBRANCH  77  78
ENDBRANCH  76  77
ENDBRANCH  75  76
ENDBRANCH   1  75
TORSDOF 26
ENDMDL
MODEL 2
REMARK VINA RESULT:      -9.5      5.218      9.076
REMARK SMILES O=C(OCCOCCOCCOCCOC(=O)c1cncc(Nc2ccc(Cl)cc2C(F)(F)F)n1)c1ccc(-c2c3nc(c(-c4cc(S(=O)(=O)[O-])ccc4F)c4ccc([nH]4)c(-c4cc(S(=O)(=O)[O-])ccc4F)c4nc(c(-c5cc(S(=O)(=O)[O-])ccc5F)c5ccc2[nH]5)C=C4)C=C3)cc1
REMARK SMILES IDX 9 1 8 2 7 3 6 4 5 5 4 6 3 7 2 8 1 9 36 10 37 11 98 12 38 13
REMARK SMILES IDX 97 14 39 15 40 16 41 17 91 18 42 19 96 20 90 21 92 22 43 23
REMARK SMILES IDX 95 24 89 25 88 26 44 28 76 29 56 30 75 31 57 32 60 33 74 34
REMARK SMILES IDX 93 35 58 36 59 37 73 39 94 40 61 41 45 42 46 43 54 44 47 45
REMARK SMILES IDX 53 46 55 47 52 48 48 49 49 50 50 51 51 52 77 53 78 54 86 55
REMARK SMILES IDX 79 56 85 57 87 58 84 59 80 60 81 61 82 62 83 63 62 64 63 65
REMARK SMILES IDX 71 66 64 67 70 68 72 69 69 70 65 71 66 72 67 73 68 74 10 75
REMARK SMILES IDX 11 76 12 77 13 78 14 79 15 80 16 81 17 82 18 83 19 84 35 85
REMARK SMILES IDX 20 86 22 87 21 88 23 89 24 91 25 92 30 93 26 94 29 95 27 96
REMARK SMILES IDX 28 97 31 98 32 99 33 100 34 101
REMARK H PARENT 92 27 60 38 23 90
REMARK Flexibility Score: inf
ROOT
ATOM      1  O   UNL A   1      34.621  32.543  28.998  1.00  0.00    -0.377 OA
ENDROOT
BRANCH   1   2
ATOM      2  C   UNL A   1      35.068  33.879  29.228  1.00  0.00     0.188 C 
BRANCH   2   3
ATOM      3  C   UNL A   1      33.977  34.840  29.699  1.00  0.00     0.188 C 
BRANCH   3   4
ATOM      4  O   UNL A   1      33.543  34.483  31.014  1.00  0.00    -0.376 OA
BRANCH   4   5
ATOM      5  C   UNL A   1      34.583  34.125  31.924  1.00  0.00     0.202 C 
BRANCH   5   6
ATOM      6  C   UNL A   1      34.378  32.767  32.601  1.00  0.00     0.261 C 
BRANCH   6   7
ATOM      7  O   UNL A   1      35.430  31.850  32.266  1.00  0.00    -0.460 OA
BRANCH   7   8
ATOM      8  C   UNL A   1      36.667  31.775  32.818  1.00  0.00     0.338 C 
ATOM      9  O   UNL A   1      36.760  31.868  34.043  1.00  0.00    -0.246 OA
BRANCH   8  10
ATOM     10  C   UNL A   1      37.930  31.566  32.037  1.00  0.00     0.060 A 
ATOM     11  C   UNL A   1      38.178  32.032  30.743  1.00  0.00     0.016 A 
ATOM     12  C   UNL A   1      38.970  30.886  32.695  1.00  0.00     0.016 A 
ATOM     13  C   UNL A   1      39.367  31.753  30.082  1.00  0.00     0.010 A 
ATOM     14  C   UNL A   1      40.185  30.628  32.052  1.00  0.00     0.010 A 
ATOM     15  C   UNL A   1      40.365  31.029  30.724  1.00  0.00    -0.014 A 
BRANCH  15  16
ATOM     16  C   UNL A   1      41.496  30.542  29.914  1.00  0.00     0.031 A 
ATOM     17  C   UNL A   1      41.358  29.193  29.272  1.00  0.00     0.074 A 
ATOM     18  C   UNL A   1      42.544  31.343  29.658  1.00  0.00     0.049 A 
ATOM     19  N   UNL A   1      42.222  28.511  28.571  1.00  0.00    -0.248 NA
ATOM     20  C   UNL A   1      40.055  28.528  29.441  1.00  0.00     0.031 C 
ATOM     21  C   UNL A   1      42.684  32.721  30.134  1.00  0.00     0.029 A 
ATOM     22  N   UNL A   1      43.678  31.127  28.922  1.00  0.00    -0.354 N 
ATOM     23  C   UNL A   1      41.577  27.325  28.238  1.00  0.00     0.074 A 
ATOM     24  C   UNL A   1      40.258  27.376  28.827  1.00  0.00     0.031 C 
ATOM     25  C   UNL A   1      43.839  33.227  29.672  1.00  0.00     0.029 A 
ATOM     26  C   UNL A   1      44.550  32.190  28.932  1.00  0.00     0.049 A 
ATOM     27  H   UNL A   1      43.852  30.290  28.433  1.00  0.00     0.167 HD
ATOM     28  C   UNL A   1      42.058  26.286  27.513  1.00  0.00     0.034 A 
ATOM     29  C   UNL A   1      45.800  32.284  28.438  1.00  0.00     0.034 A 
ATOM     30  C   UNL A   1      43.391  26.275  26.967  1.00  0.00     0.049 A 
ATOM     31  C   UNL A   1      46.361  31.075  27.729  1.00  0.00     0.074 A 
ATOM     32  C   UNL A   1      44.047  25.265  26.289  1.00  0.00     0.029 A 
ATOM     33  N   UNL A   1      44.282  27.342  27.053  1.00  0.00    -0.354 N 
ATOM     34  N   UNL A   1      45.782  29.918  27.487  1.00  0.00    -0.248 NA
ATOM     35  C   UNL A   1      47.738  31.174  27.236  1.00  0.00     0.031 C 
ATOM     36  C   UNL A   1      45.351  25.699  26.020  1.00  0.00     0.029 A 
ATOM     37  C   UNL A   1      45.489  27.007  26.465  1.00  0.00     0.049 A 
ATOM     38  H   UNL A   1      44.082  28.210  27.473  1.00  0.00     0.167 HD
ATOM     39  C   UNL A   1      46.722  29.155  26.804  1.00  0.00     0.074 A 
ATOM     40  C   UNL A   1      47.897  29.995  26.652  1.00  0.00     0.031 C 
ATOM     41  C   UNL A   1      46.637  27.878  26.347  1.00  0.00     0.034 A 
BRANCH  28  42
ATOM     42  C   UNL A   1      41.167  25.073  27.396  1.00  0.00     0.023 A 
ATOM     43  C   UNL A   1      41.630  23.776  27.686  1.00  0.00     0.031 A 
ATOM     44  C   UNL A   1      39.874  25.202  26.857  1.00  0.00     0.131 A 
ATOM     45  C   UNL A   1      40.850  22.660  27.341  1.00  0.00     0.055 A 
ATOM     46  C   UNL A   1      39.068  24.091  26.598  1.00  0.00     0.041 A 
ATOM     47  F   UNL A   1      39.388  26.410  26.529  1.00  0.00    -0.206 F 
ATOM     48  C   UNL A   1      39.563  22.810  26.819  1.00  0.00     0.022 A 
BRANCH  45  49
ATOM     49  S   UNL A   1      41.614  21.013  27.405  1.00  0.00     0.124 S 
ATOM     50  O   UNL A   1      41.463  20.564  26.022  1.00  0.00    -0.237 OA
ATOM     51  O   UNL A   1      42.974  21.313  27.833  1.00  0.00    -0.237 OA
ATOM     52  O   UNL A   1      40.796  20.293  28.378  1.00  0.00    -0.744 OA
ENDBRANCH  45  49
ENDBRANCH  28  42
BRANCH  29  53
ATOM     53  C   UNL A   1      46.621  33.510  28.672  1.00  0.00     0.023 A 
ATOM     54  C   UNL A   1      46.666  34.562  27.742  1.00  0.00     0.031 A 
ATOM     55  C   UNL A   1      47.410  33.631  29.833  1.00  0.00     0.131 A 
ATOM     56  C   UNL A   1      47.501  35.668  27.976  1.00  0.00     0.055 A 
ATOM     57  C   UNL A   1      48.196  34.756  30.086  1.00  0.00     0.041 A 
ATOM     58  F   UNL A   1      47.416  32.654  30.754  1.00  0.00    -0.206 F 
ATOM     59  C   UNL A   1      48.253  35.780  29.147  1.00  0.00     0.022 A 
BRANCH  56  60
ATOM     60  S   UNL A   1      47.654  36.936  26.686  1.00  0.00     0.124 S 
ATOM     61  O   UNL A   1      48.778  37.726  27.175  1.00  0.00    -0.237 OA
ATOM     62  O   UNL A   1      47.905  36.130  25.497  1.00  0.00    -0.237 OA
ATOM     63  O   UNL A   1      46.358  37.612  26.717  1.00  0.00    -0.744 OA
ENDBRANCH  56  60
ENDBRANCH  29  53
BRANCH  41  64
ATOM     64  C   UNL A   1      47.841  27.344  25.617  1.00  0.00     0.023 A 
ATOM     65  C   UNL A   1      48.896  26.718  26.299  1.00  0.00     0.031 A 
ATOM     66  C   UNL A   1      47.925  27.461  24.218  1.00  0.00     0.131 A 
ATOM     67  C   UNL A   1      50.019  26.277  25.587  1.00  0.00     0.055 A 
ATOM     68  C   UNL A   1      49.019  26.968  23.508  1.00  0.00     0.041 A 
ATOM     69  F   UNL A   1      46.940  28.051  23.521  1.00  0.00    -0.206 F 
ATOM     70  C   UNL A   1      50.080  26.382  24.194  1.00  0.00     0.022 A 
BRANCH  67  71
ATOM     71  S   UNL A   1      51.439  25.635  26.513  1.00  0.00     0.124 S 
ATOM     72  O   UNL A   1      52.172  24.911  25.479  1.00  0.00    -0.237 OA
ATOM     73  O   UNL A   1      52.070  26.855  27.005  1.00  0.00    -0.237 OA
ATOM     74  O   UNL A   1      50.827  24.796  27.542  1.00  0.00    -0.744 OA
ENDBRANCH  67  71
ENDBRANCH  41  64
ENDBRANCH  15  16
ENDBRANCH   8  10
ENDBRANCH   7   8
ENDBRANCH   6   7
ENDBRANCH   5   6
ENDBRANCH   4   5
ENDBRANCH   3   4
ENDBRANCH   2   3
ENDBRANCH   1   2
BRANCH   1  75
ATOM     75  C   UNL A   1      33.685  32.363  27.941  1.00  0.00     0.188 C 
BRANCH  75  76
ATOM     76  C   UNL A   1      33.287  30.928  27.535  1.00  0.00     0.188 C 
BRANCH  76  77
ATOM     77  O   UNL A   1      32.306  30.854  26.509  1.00  0.00    -0.376 OA
BRANCH  77  78
ATOM     78  C   UNL A   1      31.933  29.537  26.116  1.00  0.00     0.202 C 
BRANCH  78  79
ATOM     79  C   UNL A   1      32.232  28.480  27.184  1.00  0.00     0.261 C 
BRANCH  79  80
ATOM     80  O   UNL A   1      32.569  27.180  26.666  1.00  0.00    -0.458 OA
BRANCH  80  81
ATOM     81  C   UNL A   1      31.592  26.444  26.085  1.00  0.00     0.358 C 
ATOM     82  O   UNL A   1      30.471  26.237  26.512  1.00  0.00    -0.244 OA
BRANCH  81  83
ATOM     83  C   UNL A   1      32.108  26.043  24.756  1.00  0.00     0.169 A 
ATOM     84  C   UNL A   1      31.511  26.564  23.620  1.00  0.00     0.147 A 
ATOM     85  N   UNL A   1      33.022  25.023  24.715  1.00  0.00    -0.220 NA
ATOM     86  N   UNL A   1      31.808  26.113  22.381  1.00  0.00    -0.258 NA
ATOM     87  C   UNL A   1      33.289  24.521  23.490  1.00  0.00     0.149 A 
ATOM     88  C   UNL A   1      32.686  25.078  22.352  1.00  0.00     0.158 A 
BRANCH  87  89
ATOM     89  N   UNL A   1      34.120  23.393  23.402  1.00  0.00    -0.338 N 
ATOM     90  H   UNL A   1      34.983  23.518  22.945  1.00  0.00     0.168 HD
BRANCH  89  91
ATOM     91  C   UNL A   1      33.856  22.106  23.897  1.00  0.00     0.052 A 
ATOM     92  C   UNL A   1      32.572  21.565  23.687  1.00  0.00     0.028 A 
ATOM     93  C   UNL A   1      34.823  21.326  24.554  1.00  0.00     0.080 A 
ATOM     94  C   UNL A   1      32.214  20.320  24.201  1.00  0.00     0.022 A 
ATOM     95  C   UNL A   1      34.439  20.074  25.089  1.00  0.00     0.035 A 
ATOM     96  C   UNL A   1      33.145  19.587  24.921  1.00  0.00     0.041 A 
ATOM     97  Cl  UNL A   1      32.696  18.078  25.612  1.00  0.00    -0.084 Cl
BRANCH  93  98
ATOM     98  C   UNL A   1      36.237  21.786  24.808  1.00  0.00     0.418 C 
ATOM     99  F   UNL A   1      37.108  20.741  24.889  1.00  0.00    -0.166 F 
ATOM    100  F   UNL A   1      36.709  22.573  23.797  1.00  0.00    -0.166 F 
ATOM    101  F   UNL A   1      36.413  22.515  25.943  1.00  0.00    -0.166 F 
ENDBRANCH  93  98
ENDBRANCH  89  91
ENDBRANCH  87  89
ENDBRANCH  81  83
ENDBRANCH  80  81
ENDBRANCH  79  80
ENDBRANCH  78  79
ENDBRANCH  77  78
ENDBRANCH  76  77
ENDBRANCH  75  76
ENDBRANCH   1  75
TORSDOF 26
ENDMDL
MODEL 3
REMARK VINA RESULT:      -9.0      3.523      8.483
REMARK SMILES O=C(OCCOCCOCCOCCOC(=O)c1cncc(Nc2ccc(Cl)cc2C(F)(F)F)n1)c1ccc(-c2c3nc(c(-c4cc(S(=O)(=O)[O-])ccc4F)c4ccc([nH]4)c(-c4cc(S(=O)(=O)[O-])ccc4F)c4nc(c(-c5cc(S(=O)(=O)[O-])ccc5F)c5ccc2[nH]5)C=C4)C=C3)cc1
REMARK SMILES IDX 9 1 8 2 7 3 6 4 5 5 4 6 3 7 2 8 1 9 36 10 37 11 98 12 38 13
REMARK SMILES IDX 97 14 39 15 40 16 41 17 91 18 42 19 96 20 90 21 92 22 43 23
REMARK SMILES IDX 95 24 89 25 88 26 44 28 76 29 56 30 75 31 57 32 60 33 74 34
REMARK SMILES IDX 93 35 58 36 59 37 73 39 94 40 61 41 45 42 46 43 54 44 47 45
REMARK SMILES IDX 53 46 55 47 52 48 48 49 49 50 50 51 51 52 77 53 78 54 86 55
REMARK SMILES IDX 79 56 85 57 87 58 84 59 80 60 81 61 82 62 83 63 62 64 63 65
REMARK SMILES IDX 71 66 64 67 70 68 72 69 69 70 65 71 66 72 67 73 68 74 10 75
REMARK SMILES IDX 11 76 12 77 13 78 14 79 15 80 16 81 17 82 18 83 19 84 35 85
REMARK SMILES IDX 20 86 22 87 21 88 23 89 24 91 25 92 30 93 26 94 29 95 27 96
REMARK SMILES IDX 28 97 31 98 32 99 33 100 34 101
REMARK H PARENT 92 27 60 38 23 90
REMARK Flexibility Score: inf
ROOT
ATOM      1  O   UNL A   1      34.730  32.426  29.095  1.00  0.00    -0.377 OA
ENDROOT
BRANCH   1   2
ATOM      2  C   UNL A   1      35.032  33.769  29.472  1.00  0.00     0.188 C 
BRANCH   2   3
ATOM      3  C   UNL A   1      33.809  34.622  29.811  1.00  0.00     0.188 C 
BRANCH   3   4
ATOM      4  O   UNL A   1      33.577  34.607  31.222  1.00  0.00    -0.376 OA
BRANCH   4   5
ATOM      5  C   UNL A   1      34.689  34.206  32.021  1.00  0.00     0.202 C 
BRANCH   5   6
ATOM      6  C   UNL A   1      34.306  33.407  33.269  1.00  0.00     0.261 C 
BRANCH   6   7
ATOM      7  O   UNL A   1      35.345  32.492  33.647  1.00  0.00    -0.460 OA
BRANCH   7   8
ATOM      8  C   UNL A   1      36.612  32.794  34.030  1.00  0.00     0.338 C 
ATOM      9  O   UNL A   1      36.783  33.802  34.717  1.00  0.00    -0.246 OA
BRANCH   8  10
ATOM     10  C   UNL A   1      37.816  31.970  33.689  1.00  0.00     0.060 A 
ATOM     11  C   UNL A   1      38.051  30.654  34.098  1.00  0.00     0.016 A 
ATOM     12  C   UNL A   1      38.762  32.565  32.836  1.00  0.00     0.016 A 
ATOM     13  C   UNL A   1      39.220  29.983  33.765  1.00  0.00     0.010 A 
ATOM     14  C   UNL A   1      39.929  31.887  32.466  1.00  0.00     0.010 A 
ATOM     15  C   UNL A   1      40.175  30.605  32.968  1.00  0.00    -0.014 A 
BRANCH  15  16
ATOM     16  C   UNL A   1      41.497  29.964  32.846  1.00  0.00     0.031 A 
ATOM     17  C   UNL A   1      41.746  29.116  31.635  1.00  0.00     0.074 A 
ATOM     18  C   UNL A   1      42.473  30.248  33.725  1.00  0.00     0.049 A 
ATOM     19  N   UNL A   1      42.788  28.396  31.321  1.00  0.00    -0.248 NA
ATOM     20  C   UNL A   1      40.667  29.088  30.633  1.00  0.00     0.031 C 
ATOM     21  C   UNL A   1      42.346  31.175  34.851  1.00  0.00     0.029 A 
ATOM     22  N   UNL A   1      43.767  29.807  33.799  1.00  0.00    -0.354 N 
ATOM     23  C   UNL A   1      42.479  27.806  30.100  1.00  0.00     0.074 A 
ATOM     24  C   UNL A   1      41.149  28.242  29.740  1.00  0.00     0.031 C 
ATOM     25  C   UNL A   1      43.520  31.233  35.502  1.00  0.00     0.029 A 
ATOM     26  C   UNL A   1      44.454  30.299  34.883  1.00  0.00     0.049 A 
ATOM     27  H   UNL A   1      44.167  29.195  33.139  1.00  0.00     0.167 HD
ATOM     28  C   UNL A   1      43.243  26.968  29.358  1.00  0.00     0.034 A 
ATOM     29  C   UNL A   1      45.681  29.984  35.342  1.00  0.00     0.034 A 
ATOM     30  C   UNL A   1      44.556  26.545  29.775  1.00  0.00     0.049 A 
ATOM     31  C   UNL A   1      46.474  28.963  34.563  1.00  0.00     0.074 A 
ATOM     32  C   UNL A   1      45.410  25.638  29.177  1.00  0.00     0.029 A 
ATOM     33  N   UNL A   1      45.201  27.008  30.919  1.00  0.00    -0.354 N 
ATOM     34  N   UNL A   1      46.148  28.338  33.451  1.00  0.00    -0.248 NA
ATOM     35  C   UNL A   1      47.789  28.595  35.097  1.00  0.00     0.031 C 
ATOM     36  C   UNL A   1      46.542  25.507  29.991  1.00  0.00     0.029 A 
ATOM     37  C   UNL A   1      46.430  26.386  31.060  1.00  0.00     0.049 A 
ATOM     38  H   UNL A   1      44.837  27.680  31.539  1.00  0.00     0.167 HD
ATOM     39  C   UNL A   1      47.223  27.511  33.147  1.00  0.00     0.074 A 
ATOM     40  C   UNL A   1      48.217  27.736  34.182  1.00  0.00     0.031 C 
ATOM     41  C   UNL A   1      47.383  26.638  32.118  1.00  0.00     0.034 A 
BRANCH  28  42
ATOM     42  C   UNL A   1      42.607  26.395  28.115  1.00  0.00     0.023 A 
ATOM     43  C   UNL A   1      41.949  25.151  28.119  1.00  0.00     0.031 A 
ATOM     44  C   UNL A   1      42.779  27.042  26.878  1.00  0.00     0.131 A 
ATOM     45  C   UNL A   1      41.580  24.549  26.905  1.00  0.00     0.055 A 
ATOM     46  C   UNL A   1      42.331  26.477  25.682  1.00  0.00     0.041 A 
ATOM     47  F   UNL A   1      43.428  28.215  26.804  1.00  0.00    -0.206 F 
ATOM     48  C   UNL A   1      41.748  25.213  25.688  1.00  0.00     0.022 A 
BRANCH  45  49
ATOM     49  S   UNL A   1      41.058  22.810  26.921  1.00  0.00     0.124 S 
ATOM     50  O   UNL A   1      41.528  22.372  28.234  1.00  0.00    -0.237 OA
ATOM     51  O   UNL A   1      39.612  22.913  26.763  1.00  0.00    -0.237 OA
ATOM     52  O   UNL A   1      41.771  22.227  25.787  1.00  0.00    -0.744 OA
ENDBRANCH  45  49
ENDBRANCH  28  42
BRANCH  29  53
ATOM     53  C   UNL A   1      46.186  30.560  36.624  1.00  0.00     0.023 A 
ATOM     54  C   UNL A   1      45.892  29.977  37.867  1.00  0.00     0.031 A 
ATOM     55  C   UNL A   1      46.954  31.741  36.623  1.00  0.00     0.131 A 
ATOM     56  C   UNL A   1      46.337  30.589  39.052  1.00  0.00     0.055 A 
ATOM     57  C   UNL A   1      47.439  32.316  37.799  1.00  0.00     0.041 A 
ATOM     58  F   UNL A   1      47.260  32.352  35.466  1.00  0.00    -0.206 F 
ATOM     59  C   UNL A   1      47.120  31.744  39.025  1.00  0.00     0.022 A 
BRANCH  56  60
ATOM     60  S   UNL A   1      45.811  29.896  40.645  1.00  0.00     0.124 S 
ATOM     61  O   UNL A   1      45.152  31.040  41.265  1.00  0.00    -0.237 OA
ATOM     62  O   UNL A   1      44.942  28.802  40.228  1.00  0.00    -0.237 OA
ATOM     63  O   UNL A   1      47.068  29.488  41.270  1.00  0.00    -0.744 OA
ENDBRANCH  56  60
ENDBRANCH  29  53
BRANCH  41  64
ATOM     64  C   UNL A   1      48.694  25.899  32.061  1.00  0.00     0.023 A 
ATOM     65  C   UNL A   1      48.942  24.780  32.871  1.00  0.00     0.031 A 
ATOM     66  C   UNL A   1      49.703  26.323  31.178  1.00  0.00     0.131 A 
ATOM     67  C   UNL A   1      50.192  24.149  32.821  1.00  0.00     0.055 A 
ATOM     68  C   UNL A   1      50.925  25.656  31.091  1.00  0.00     0.041 A 
ATOM     69  F   UNL A   1      49.513  27.388  30.383  1.00  0.00    -0.206 F 
ATOM     70  C   UNL A   1      51.179  24.568  31.923  1.00  0.00     0.022 A 
BRANCH  67  71
ATOM     71  S   UNL A   1      50.544  22.819  34.002  1.00  0.00     0.124 S 
ATOM     72  O   UNL A   1      52.003  22.792  34.000  1.00  0.00    -0.237 OA
ATOM     73  O   UNL A   1      49.917  23.312  35.223  1.00  0.00    -0.237 OA
ATOM     74  O   UNL A   1      49.901  21.650  33.404  1.00  0.00    -0.744 OA
ENDBRANCH  67  71
ENDBRANCH  41  64
ENDBRANCH  15  16
ENDBRANCH   8  10
ENDBRANCH   7   8
ENDBRANCH   6   7
ENDBRANCH   5   6
ENDBRANCH   4   5
ENDBRANCH   3   4
ENDBRANCH   2   3
ENDBRANCH   1   2
BRANCH   1  75
ATOM     75  C   UNL A   1      33.962  32.261  27.907  1.00  0.00     0.188 C 
BRANCH  75  76
ATOM     76  C   UNL A   1      33.463  30.850  27.533  1.00  0.00     0.188 C 
BRANCH  76  77
ATOM     77  O   UNL A   1      32.345  30.830  26.654  1.00  0.00    -0.376 OA
BRANCH  77  78
ATOM     78  C   UNL A   1      31.891  29.535  26.274  1.00  0.00     0.202 C 
BRANCH  78  79
ATOM     79  C   UNL A   1      32.279  28.440  27.275  1.00  0.00     0.261 C 
BRANCH  79  80
ATOM     80  O   UNL A   1      32.564  27.159  26.684  1.00  0.00    -0.458 OA
BRANCH  80  81
ATOM     81  C   UNL A   1      31.553  26.484  26.089  1.00  0.00     0.358 C 
ATOM     82  O   UNL A   1      30.441  26.272  26.539  1.00  0.00    -0.244 OA
BRANCH  81  83
ATOM     83  C   UNL A   1      32.017  26.159  24.721  1.00  0.00     0.169 A 
ATOM     84  C   UNL A   1      31.365  26.729  23.640  1.00  0.00     0.147 A 
ATOM     85  N   UNL A   1      32.941  25.156  24.589  1.00  0.00    -0.220 NA
ATOM     86  N   UNL A   1      31.615  26.347  22.367  1.00  0.00    -0.258 NA
ATOM     87  C   UNL A   1      33.162  24.722  23.329  1.00  0.00     0.149 A 
ATOM     88  C   UNL A   1      32.504  25.328  22.248  1.00  0.00     0.158 A 
BRANCH  87  89
ATOM     89  N   UNL A   1      34.003  23.612  23.148  1.00  0.00    -0.338 N 
ATOM     90  H   UNL A   1      34.794  23.750  22.578  1.00  0.00     0.168 HD
BRANCH  89  91
ATOM     91  C   UNL A   1      33.841  22.329  23.693  1.00  0.00     0.052 A 
ATOM     92  C   UNL A   1      32.593  21.694  23.535  1.00  0.00     0.028 A 
ATOM     93  C   UNL A   1      34.875  21.642  24.351  1.00  0.00     0.080 A 
ATOM     94  C   UNL A   1      32.335  20.446  24.100  1.00  0.00     0.022 A 
ATOM     95  C   UNL A   1      34.592  20.387  24.939  1.00  0.00     0.035 A 
ATOM     96  C   UNL A   1      33.332  19.806  24.821  1.00  0.00     0.041 A 
ATOM     97  Cl  UNL A   1      33.006  18.296  25.575  1.00  0.00    -0.084 Cl
BRANCH  93  98
ATOM     98  C   UNL A   1      36.259  22.207  24.553  1.00  0.00     0.418 C 
ATOM     99  F   UNL A   1      37.051  21.372  25.284  1.00  0.00    -0.166 F 
ATOM    100  F   UNL A   1      36.918  22.385  23.370  1.00  0.00    -0.166 F 
ATOM    101  F   UNL A   1      36.306  23.416  25.175  1.00  0.00    -0.166 F 
ENDBRANCH  93  98
ENDBRANCH  89  91
ENDBRANCH  87  89
ENDBRANCH  81  83
ENDBRANCH  80  81
ENDBRANCH  79  80
ENDBRANCH  78  79
ENDBRANCH  77  78
ENDBRANCH  76  77
ENDBRANCH  75  76
ENDBRANCH   1  75
TORSDOF 26
ENDMDL
