MODEL 1
REMARK VINA RESULT:      -6.9      0.000      0.000
REMARK SMILES CN(CCc1cccs1)C(=O)N[C@@H]1COC[C@H]1C(=O)OCCOCCOCCOCCOC(=O)c1ccc(-c2c3nc(c(-c4cc(S(=O)(=O)[O-])ccc4F)c4ccc([nH]4)c(-c4cc(S(=O)(=O)[O-])ccc4F)c4nc(c(-c5cc(S(=O)(=O)[O-])ccc5F)c5ccc2[nH]5)C=C4)C=C3)cc1
REMARK SMILES IDX 25 1 24 2 23 3 22 4 21 5 20 6 18 7 19 8 17 9 13 10 14 11
REMARK SMILES IDX 15 12 16 13 12 14 10 15 11 16 2 18 1 19 3 20 4 21 5 22 6 23
REMARK SMILES IDX 9 24 7 25 8 26 26 27 27 28 28 29 29 30 30 31 31 32 32 33
REMARK SMILES IDX 33 34 34 35 35 36 36 37 97 38 37 39 96 40 38 41 39 42 40 43
REMARK SMILES IDX 90 44 41 45 95 46 89 47 91 48 42 49 94 50 88 51 87 52 43 54
REMARK SMILES IDX 75 55 55 56 74 57 56 58 59 59 73 60 92 61 57 62 58 63 72 65
REMARK SMILES IDX 93 66 60 67 44 68 45 69 53 70 46 71 52 72 54 73 51 74 47 75
REMARK SMILES IDX 48 76 49 77 50 78 76 79 77 80 85 81 78 82 84 83 86 84 83 85
REMARK SMILES IDX 79 86 80 87 81 88 82 89 61 90 62 91 70 92 63 93 69 94 71 95
REMARK SMILES IDX 68 96 64 97 65 98 66 99 67 100
REMARK H PARENT 12 17 91 53 59 64
REMARK Flexibility Score: inf
ROOT
ATOM      1  C   UNL A   1      39.413  29.414  28.209  1.00  0.00     0.188 C 
ENDROOT
BRANCH   1   2
ATOM      2  C   UNL A   1      39.899  28.285  29.120  1.00  0.00     0.188 C 
BRANCH   2   3
ATOM      3  O   UNL A   1      40.594  27.204  28.509  1.00  0.00    -0.376 OA
BRANCH   3   4
ATOM      4  C   UNL A   1      41.981  27.070  28.789  1.00  0.00     0.202 C 
BRANCH   4   5
ATOM      5  C   UNL A   1      42.972  28.083  28.179  1.00  0.00     0.261 C 
BRANCH   5   6
ATOM      6  O   UNL A   1      42.681  28.616  26.859  1.00  0.00    -0.463 OA
BRANCH   6   7
ATOM      7  C   UNL A   1      43.084  27.811  25.850  1.00  0.00     0.313 C 
ATOM      8  O   UNL A   1      42.535  27.806  24.746  1.00  0.00    -0.252 OA
BRANCH   7   9
ATOM      9  C   UNL A   1      44.307  26.940  26.076  1.00  0.00     0.150 C 
ATOM     10  C   UNL A   1      44.445  25.410  25.922  1.00  0.00     0.126 C 
ATOM     11  C   UNL A   1      45.896  25.280  25.394  1.00  0.00     0.186 C 
ATOM     12  O   UNL A   1      46.399  26.582  25.091  1.00  0.00    -0.378 OA
ATOM     13  C   UNL A   1      45.252  27.408  24.973  1.00  0.00     0.177 C 
BRANCH  10  14
ATOM     14  N   UNL A   1      44.266  24.660  27.182  1.00  0.00    -0.332 N 
ATOM     15  C   UNL A   1      43.468  23.699  27.691  1.00  0.00     0.317 C 
ATOM     16  O   UNL A   1      43.815  23.309  28.815  1.00  0.00    -0.249 OA
ATOM     17  H   UNL A   1      44.930  24.947  27.851  1.00  0.00     0.165 HD
BRANCH  15  18
ATOM     18  N   UNL A   1      42.385  23.136  27.057  1.00  0.00    -0.328 N 
ATOM     19  C   UNL A   1      41.081  23.515  27.608  1.00  0.00     0.148 C 
BRANCH  18  20
ATOM     20  C   UNL A   1      42.321  22.389  25.791  1.00  0.00     0.126 C 
BRANCH  20  21
ATOM     21  C   UNL A   1      42.590  20.870  25.825  1.00  0.00     0.068 C 
BRANCH  21  22
ATOM     22  C   UNL A   1      44.012  20.565  25.516  1.00  0.00     0.006 A 
ATOM     23  C   UNL A   1      45.095  21.419  25.431  1.00  0.00     0.015 A 
ATOM     24  S   UNL A   1      44.438  18.962  25.103  1.00  0.00    -0.149 S 
ATOM     25  C   UNL A   1      46.145  20.827  24.675  1.00  0.00     0.012 A 
ATOM     26  C   UNL A   1      45.857  19.521  24.362  1.00  0.00     0.065 A 
ENDBRANCH  21  22
ENDBRANCH  20  21
ENDBRANCH  18  20
ENDBRANCH  15  18
ENDBRANCH  10  14
ENDBRANCH   7   9
ENDBRANCH   6   7
ENDBRANCH   5   6
ENDBRANCH   4   5
ENDBRANCH   3   4
ENDBRANCH   2   3
ENDBRANCH   1   2
BRANCH   1  27
ATOM     27  O   UNL A   1      38.028  29.325  27.883  1.00  0.00    -0.377 OA
BRANCH  27  28
ATOM     28  C   UNL A   1      37.093  29.856  28.827  1.00  0.00     0.188 C 
BRANCH  28  29
ATOM     29  C   UNL A   1      36.149  30.978  28.394  1.00  0.00     0.188 C 
BRANCH  29  30
ATOM     30  O   UNL A   1      35.522  31.748  29.415  1.00  0.00    -0.376 OA
BRANCH  30  31
ATOM     31  C   UNL A   1      35.584  31.291  30.764  1.00  0.00     0.202 C 
BRANCH  31  32
ATOM     32  C   UNL A   1      35.292  32.341  31.835  1.00  0.00     0.261 C 
BRANCH  32  33
ATOM     33  O   UNL A   1      35.956  32.040  33.073  1.00  0.00    -0.460 OA
BRANCH  33  34
ATOM     34  C   UNL A   1      37.058  32.762  33.347  1.00  0.00     0.338 C 
ATOM     35  O   UNL A   1      37.102  33.911  33.775  1.00  0.00    -0.246 OA
BRANCH  34  36
ATOM     36  C   UNL A   1      38.244  31.900  33.218  1.00  0.00     0.060 A 
ATOM     37  C   UNL A   1      39.381  32.220  33.968  1.00  0.00     0.016 A 
ATOM     38  C   UNL A   1      38.266  30.843  32.304  1.00  0.00     0.016 A 
ATOM     39  C   UNL A   1      40.570  31.527  33.757  1.00  0.00     0.010 A 
ATOM     40  C   UNL A   1      39.463  30.157  32.084  1.00  0.00     0.010 A 
ATOM     41  C   UNL A   1      40.629  30.529  32.776  1.00  0.00    -0.014 A 
BRANCH  41  42
ATOM     42  C   UNL A   1      41.949  30.026  32.328  1.00  0.00     0.031 A 
ATOM     43  C   UNL A   1      42.666  30.775  31.237  1.00  0.00     0.074 A 
ATOM     44  C   UNL A   1      42.510  28.947  32.902  1.00  0.00     0.049 A 
ATOM     45  N   UNL A   1      43.794  30.497  30.638  1.00  0.00    -0.248 NA
ATOM     46  C   UNL A   1      42.017  32.005  30.757  1.00  0.00     0.031 C 
ATOM     47  C   UNL A   1      41.931  28.186  34.008  1.00  0.00     0.029 A 
ATOM     48  N   UNL A   1      43.688  28.303  32.629  1.00  0.00    -0.354 N 
ATOM     49  C   UNL A   1      43.984  31.507  29.701  1.00  0.00     0.074 A 
ATOM     50  C   UNL A   1      42.838  32.386  29.791  1.00  0.00     0.031 C 
ATOM     51  C   UNL A   1      42.757  27.170  34.314  1.00  0.00     0.029 A 
ATOM     52  C   UNL A   1      43.894  27.181  33.396  1.00  0.00     0.049 A 
ATOM     53  H   UNL A   1      44.328  28.616  31.948  1.00  0.00     0.167 HD
ATOM     54  C   UNL A   1      45.022  31.685  28.848  1.00  0.00     0.034 A 
ATOM     55  C   UNL A   1      44.872  26.254  33.337  1.00  0.00     0.034 A 
ATOM     56  C   UNL A   1      46.150  30.788  28.771  1.00  0.00     0.049 A 
ATOM     57  C   UNL A   1      45.968  26.418  32.309  1.00  0.00     0.074 A 
ATOM     58  C   UNL A   1      47.265  30.874  27.958  1.00  0.00     0.029 A 
ATOM     59  N   UNL A   1      46.298  29.630  29.524  1.00  0.00    -0.354 N 
ATOM     60  N   UNL A   1      46.141  27.378  31.428  1.00  0.00    -0.248 NA
ATOM     61  C   UNL A   1      47.002  25.377  32.272  1.00  0.00     0.031 C 
ATOM     62  C   UNL A   1      48.040  29.727  28.155  1.00  0.00     0.029 A 
ATOM     63  C   UNL A   1      47.463  28.972  29.163  1.00  0.00     0.049 A 
ATOM     64  H   UNL A   1      45.667  29.321  30.214  1.00  0.00     0.167 HD
ATOM     65  C   UNL A   1      47.325  27.073  30.760  1.00  0.00     0.074 A 
ATOM     66  C   UNL A   1      47.827  25.850  31.350  1.00  0.00     0.031 C 
ATOM     67  C   UNL A   1      47.947  27.746  29.757  1.00  0.00     0.034 A 
BRANCH  54  68
ATOM     68  C   UNL A   1      44.950  32.852  27.893  1.00  0.00     0.023 A 
ATOM     69  C   UNL A   1      45.541  34.095  28.186  1.00  0.00     0.031 A 
ATOM     70  C   UNL A   1      44.256  32.726  26.677  1.00  0.00     0.131 A 
ATOM     71  C   UNL A   1      45.367  35.176  27.309  1.00  0.00     0.055 A 
ATOM     72  C   UNL A   1      44.158  33.783  25.770  1.00  0.00     0.041 A 
ATOM     73  F   UNL A   1      43.647  31.574  26.354  1.00  0.00    -0.206 F 
ATOM     74  C   UNL A   1      44.702  35.022  26.090  1.00  0.00     0.022 A 
BRANCH  71  75
ATOM     75  S   UNL A   1      45.892  36.826  27.852  1.00  0.00     0.124 S 
ATOM     76  O   UNL A   1      47.234  36.557  28.358  1.00  0.00    -0.237 OA
ATOM     77  O   UNL A   1      45.817  37.602  26.619  1.00  0.00    -0.237 OA
ATOM     78  O   UNL A   1      44.908  37.181  28.873  1.00  0.00    -0.744 OA
ENDBRANCH  71  75
ENDBRANCH  54  68
BRANCH  55  79
ATOM     79  C   UNL A   1      44.847  25.067  34.240  1.00  0.00     0.023 A 
ATOM     80  C   UNL A   1      45.412  25.122  35.524  1.00  0.00     0.031 A 
ATOM     81  C   UNL A   1      44.315  23.838  33.808  1.00  0.00     0.131 A 
ATOM     82  C   UNL A   1      45.478  23.960  36.310  1.00  0.00     0.055 A 
ATOM     83  C   UNL A   1      44.327  22.701  34.617  1.00  0.00     0.041 A 
ATOM     84  F   UNL A   1      43.767  23.726  32.587  1.00  0.00    -0.206 F 
ATOM     85  C   UNL A   1      44.925  22.755  35.872  1.00  0.00     0.022 A 
BRANCH  82  86
ATOM     86  S   UNL A   1      46.391  24.023  37.876  1.00  0.00     0.124 S 
ATOM     87  O   UNL A   1      46.798  25.423  37.924  1.00  0.00    -0.237 OA
ATOM     88  O   UNL A   1      45.371  23.617  38.836  1.00  0.00    -0.237 OA
ATOM     89  O   UNL A   1      47.475  23.064  37.675  1.00  0.00    -0.744 OA
ENDBRANCH  82  86
ENDBRANCH  55  79
BRANCH  67  90
ATOM     90  C   UNL A   1      49.270  27.199  29.274  1.00  0.00     0.023 A 
ATOM     91  C   UNL A   1      50.491  27.575  29.859  1.00  0.00     0.031 A 
ATOM     92  C   UNL A   1      49.305  26.284  28.205  1.00  0.00     0.131 A 
ATOM     93  C   UNL A   1      51.698  27.090  29.332  1.00  0.00     0.055 A 
ATOM     94  C   UNL A   1      50.504  25.750  27.732  1.00  0.00     0.041 A 
ATOM     95  F   UNL A   1      48.171  25.891  27.603  1.00  0.00    -0.206 F 
ATOM     96  C   UNL A   1      51.711  26.163  28.287  1.00  0.00     0.022 A 
BRANCH  93  97
ATOM     97  S   UNL A   1      53.257  27.769  29.963  1.00  0.00     0.124 S 
ATOM     98  O   UNL A   1      53.276  27.263  31.332  1.00  0.00    -0.237 OA
ATOM     99  O   UNL A   1      54.241  27.188  29.056  1.00  0.00    -0.237 OA
ATOM    100  O   UNL A   1      53.077  29.214  29.838  1.00  0.00    -0.744 OA
ENDBRANCH  93  97
ENDBRANCH  67  90
ENDBRANCH  41  42
ENDBRANCH  34  36
ENDBRANCH  33  34
ENDBRANCH  32  33
ENDBRANCH  31  32
ENDBRANCH  30  31
ENDBRANCH  29  30
ENDBRANCH  28  29
ENDBRANCH  27  28
ENDBRANCH   1  27
TORSDOF 28
ENDMDL
MODEL 2
REMARK VINA RESULT:      -6.7      3.816     11.785
REMARK SMILES CN(CCc1cccs1)C(=O)N[C@@H]1COC[C@H]1C(=O)OCCOCCOCCOCCOC(=O)c1ccc(-c2c3nc(c(-c4cc(S(=O)(=O)[O-])ccc4F)c4ccc([nH]4)c(-c4cc(S(=O)(=O)[O-])ccc4F)c4nc(c(-c5cc(S(=O)(=O)[O-])ccc5F)c5ccc2[nH]5)C=C4)C=C3)cc1
REMARK SMILES IDX 25 1 24 2 23 3 22 4 21 5 20 6 18 7 19 8 17 9 13 10 14 11
REMARK SMILES IDX 15 12 16 13 12 14 10 15 11 16 2 18 1 19 3 20 4 21 5 22 6 23
REMARK SMILES IDX 9 24 7 25 8 26 26 27 27 28 28 29 29 30 30 31 31 32 32 33
REMARK SMILES IDX 33 34 34 35 35 36 36 37 97 38 37 39 96 40 38 41 39 42 40 43
REMARK SMILES IDX 90 44 41 45 95 46 89 47 91 48 42 49 94 50 88 51 87 52 43 54
REMARK SMILES IDX 75 55 55 56 74 57 56 58 59 59 73 60 92 61 57 62 58 63 72 65
REMARK SMILES IDX 93 66 60 67 44 68 45 69 53 70 46 71 52 72 54 73 51 74 47 75
REMARK SMILES IDX 48 76 49 77 50 78 76 79 77 80 85 81 78 82 84 83 86 84 83 85
REMARK SMILES IDX 79 86 80 87 81 88 82 89 61 90 62 91 70 92 63 93 69 94 71 95
REMARK SMILES IDX 68 96 64 97 65 98 66 99 67 100
REMARK H PARENT 12 17 91 53 59 64
REMARK Flexibility Score: inf
ROOT
ATOM      1  C   UNL A   1      47.505  25.480  28.123  1.00  0.00     0.188 C 
ENDROOT
BRANCH   1   2
ATOM      2  C   UNL A   1      46.069  25.029  27.845  1.00  0.00     0.188 C 
BRANCH   2   3
ATOM      3  O   UNL A   1      45.714  23.704  28.224  1.00  0.00    -0.376 OA
BRANCH   3   4
ATOM      4  C   UNL A   1      44.385  23.276  27.957  1.00  0.00     0.202 C 
BRANCH   4   5
ATOM      5  C   UNL A   1      43.462  24.175  27.108  1.00  0.00     0.261 C 
BRANCH   5   6
ATOM      6  O   UNL A   1      43.406  23.939  25.675  1.00  0.00    -0.463 OA
BRANCH   6   7
ATOM      7  C   UNL A   1      42.931  22.717  25.346  1.00  0.00     0.313 C 
ATOM      8  O   UNL A   1      43.393  22.055  24.414  1.00  0.00    -0.252 OA
BRANCH   7   9
ATOM      9  C   UNL A   1      41.838  22.119  26.213  1.00  0.00     0.150 C 
ATOM     10  C   UNL A   1      40.376  21.793  25.836  1.00  0.00     0.126 C 
ATOM     11  C   UNL A   1      40.120  20.511  26.667  1.00  0.00     0.186 C 
ATOM     12  O   UNL A   1      41.351  20.075  27.243  1.00  0.00    -0.378 OA
ATOM     13  C   UNL A   1      42.365  20.713  26.484  1.00  0.00     0.177 C 
BRANCH  10  14
ATOM     14  N   UNL A   1      39.414  22.857  26.186  1.00  0.00    -0.332 N 
ATOM     15  C   UNL A   1      38.082  23.077  26.158  1.00  0.00     0.317 C 
ATOM     16  O   UNL A   1      37.743  24.139  26.700  1.00  0.00    -0.249 OA
ATOM     17  H   UNL A   1      39.884  23.641  26.551  1.00  0.00     0.165 HD
BRANCH  15  18
ATOM     18  N   UNL A   1      37.140  22.225  25.631  1.00  0.00    -0.328 N 
ATOM     19  C   UNL A   1      37.577  21.470  24.455  1.00  0.00     0.148 C 
BRANCH  18  20
ATOM     20  C   UNL A   1      35.845  21.799  26.186  1.00  0.00     0.126 C 
BRANCH  20  21
ATOM     21  C   UNL A   1      34.632  22.737  26.012  1.00  0.00     0.068 C 
BRANCH  21  22
ATOM     22  C   UNL A   1      33.559  22.090  25.211  1.00  0.00     0.006 A 
ATOM     23  C   UNL A   1      32.987  20.840  25.354  1.00  0.00     0.015 A 
ATOM     24  S   UNL A   1      32.951  22.908  23.838  1.00  0.00    -0.149 S 
ATOM     25  C   UNL A   1      32.358  20.432  24.146  1.00  0.00     0.012 A 
ATOM     26  C   UNL A   1      32.361  21.444  23.217  1.00  0.00     0.065 A 
ENDBRANCH  21  22
ENDBRANCH  20  21
ENDBRANCH  18  20
ENDBRANCH  15  18
ENDBRANCH  10  14
ENDBRANCH   7   9
ENDBRANCH   6   7
ENDBRANCH   5   6
ENDBRANCH   4   5
ENDBRANCH   3   4
ENDBRANCH   2   3
ENDBRANCH   1   2
BRANCH   1  27
ATOM     27  O   UNL A   1      48.490  24.572  27.637  1.00  0.00    -0.377 OA
BRANCH  27  28
ATOM     28  C   UNL A   1      49.728  25.125  27.180  1.00  0.00     0.188 C 
BRANCH  28  29
ATOM     29  C   UNL A   1      50.704  25.714  28.200  1.00  0.00     0.188 C 
BRANCH  29  30
ATOM     30  O   UNL A   1      52.070  25.841  27.813  1.00  0.00    -0.376 OA
BRANCH  30  31
ATOM     31  C   UNL A   1      52.688  27.124  27.867  1.00  0.00     0.202 C 
BRANCH  31  32
ATOM     32  C   UNL A   1      51.738  28.316  27.975  1.00  0.00     0.261 C 
BRANCH  32  33
ATOM     33  O   UNL A   1      52.388  29.468  28.534  1.00  0.00    -0.460 OA
BRANCH  33  34
ATOM     34  C   UNL A   1      52.251  30.619  27.850  1.00  0.00     0.338 C 
ATOM     35  O   UNL A   1      53.040  31.099  27.044  1.00  0.00    -0.246 OA
BRANCH  34  36
ATOM     36  C   UNL A   1      50.903  31.162  28.085  1.00  0.00     0.060 A 
ATOM     37  C   UNL A   1      50.609  31.684  29.349  1.00  0.00     0.016 A 
ATOM     38  C   UNL A   1      49.915  31.076  27.101  1.00  0.00     0.016 A 
ATOM     39  C   UNL A   1      49.305  32.060  29.660  1.00  0.00     0.010 A 
ATOM     40  C   UNL A   1      48.604  31.442  27.417  1.00  0.00     0.010 A 
ATOM     41  C   UNL A   1      48.287  31.890  28.713  1.00  0.00    -0.014 A 
BRANCH  41  42
ATOM     42  C   UNL A   1      46.871  31.979  29.141  1.00  0.00     0.031 A 
ATOM     43  C   UNL A   1      46.255  30.784  29.817  1.00  0.00     0.074 A 
ATOM     44  C   UNL A   1      46.164  33.108  28.962  1.00  0.00     0.049 A 
ATOM     45  N   UNL A   1      45.026  30.599  30.223  1.00  0.00    -0.248 NA
ATOM     46  C   UNL A   1      47.148  29.642  30.066  1.00  0.00     0.031 C 
ATOM     47  C   UNL A   1      46.682  34.343  28.376  1.00  0.00     0.029 A 
ATOM     48  N   UNL A   1      44.855  33.394  29.250  1.00  0.00    -0.354 N 
ATOM     49  C   UNL A   1      44.994  29.317  30.761  1.00  0.00     0.074 A 
ATOM     50  C   UNL A   1      46.319  28.759  30.600  1.00  0.00     0.031 C 
ATOM     51  C   UNL A   1      45.695  35.254  28.342  1.00  0.00     0.029 A 
ATOM     52  C   UNL A   1      44.466  34.652  28.856  1.00  0.00     0.049 A 
ATOM     53  H   UNL A   1      44.250  32.758  29.698  1.00  0.00     0.167 HD
ATOM     54  C   UNL A   1      43.954  28.668  31.340  1.00  0.00     0.034 A 
ATOM     55  C   UNL A   1      43.250  35.235  28.879  1.00  0.00     0.034 A 
ATOM     56  C   UNL A   1      42.638  29.243  31.480  1.00  0.00     0.049 A 
ATOM     57  C   UNL A   1      42.082  34.455  29.437  1.00  0.00     0.074 A 
ATOM     58  C   UNL A   1      41.512  28.687  32.061  1.00  0.00     0.029 A 
ATOM     59  N   UNL A   1      42.265  30.500  31.019  1.00  0.00    -0.354 N 
ATOM     60  N   UNL A   1      42.061  33.243  29.946  1.00  0.00    -0.248 NA
ATOM     61  C   UNL A   1      40.774  35.123  29.429  1.00  0.00     0.031 C 
ATOM     62  C   UNL A   1      40.442  29.568  31.872  1.00  0.00     0.029 A 
ATOM     63  C   UNL A   1      40.919  30.718  31.263  1.00  0.00     0.049 A 
ATOM     64  H   UNL A   1      42.870  31.142  30.581  1.00  0.00     0.167 HD
ATOM     65  C   UNL A   1      40.746  33.023  30.353  1.00  0.00     0.074 A 
ATOM     66  C   UNL A   1      40.011  34.231  30.041  1.00  0.00     0.031 C 
ATOM     67  C   UNL A   1      40.198  31.927  30.938  1.00  0.00     0.034 A 
BRANCH  54  68
ATOM     68  C   UNL A   1      44.185  27.249  31.801  1.00  0.00     0.023 A 
ATOM     69  C   UNL A   1      44.574  26.945  33.118  1.00  0.00     0.031 A 
ATOM     70  C   UNL A   1      44.035  26.181  30.897  1.00  0.00     0.131 A 
ATOM     71  C   UNL A   1      44.867  25.619  33.472  1.00  0.00     0.055 A 
ATOM     72  C   UNL A   1      44.247  24.856  31.280  1.00  0.00     0.041 A 
ATOM     73  F   UNL A   1      43.693  26.410  29.620  1.00  0.00    -0.206 F 
ATOM     74  C   UNL A   1      44.680  24.569  32.570  1.00  0.00     0.022 A 
BRANCH  71  75
ATOM     75  S   UNL A   1      45.638  25.302  35.084  1.00  0.00     0.124 S 
ATOM     76  O   UNL A   1      47.021  25.035  34.701  1.00  0.00    -0.237 OA
ATOM     77  O   UNL A   1      45.401  26.552  35.798  1.00  0.00    -0.237 OA
ATOM     78  O   UNL A   1      44.905  24.144  35.592  1.00  0.00    -0.744 OA
ENDBRANCH  71  75
ENDBRANCH  54  68
BRANCH  55  79
ATOM     79  C   UNL A   1      43.054  36.606  28.325  1.00  0.00     0.023 A 
ATOM     80  C   UNL A   1      43.228  37.744  29.128  1.00  0.00     0.031 A 
ATOM     81  C   UNL A   1      42.627  36.796  26.997  1.00  0.00     0.131 A 
ATOM     82  C   UNL A   1      42.927  39.015  28.614  1.00  0.00     0.055 A 
ATOM     83  C   UNL A   1      42.389  38.067  26.473  1.00  0.00     0.041 A 
ATOM     84  F   UNL A   1      42.439  35.744  26.185  1.00  0.00    -0.206 F 
ATOM     85  C   UNL A   1      42.525  39.187  27.288  1.00  0.00     0.022 A 
BRANCH  82  86
ATOM     86  S   UNL A   1      42.972  40.437  29.739  1.00  0.00     0.124 S 
ATOM     87  O   UNL A   1      41.555  40.758  29.865  1.00  0.00    -0.237 OA
ATOM     88  O   UNL A   1      43.610  39.867  30.921  1.00  0.00    -0.237 OA
ATOM     89  O   UNL A   1      43.773  41.420  29.012  1.00  0.00    -0.744 OA
ENDBRANCH  82  86
ENDBRANCH  55  79
BRANCH  67  90
ATOM     90  C   UNL A   1      38.739  32.009  31.329  1.00  0.00     0.023 A 
ATOM     91  C   UNL A   1      38.315  32.689  32.483  1.00  0.00     0.031 A 
ATOM     92  C   UNL A   1      37.760  31.391  30.529  1.00  0.00     0.131 A 
ATOM     93  C   UNL A   1      36.957  32.682  32.839  1.00  0.00     0.055 A 
ATOM     94  C   UNL A   1      36.404  31.449  30.850  1.00  0.00     0.041 A 
ATOM     95  F   UNL A   1      38.107  30.723  29.417  1.00  0.00    -0.206 F 
ATOM     96  C   UNL A   1      35.997  32.085  32.018  1.00  0.00     0.022 A 
BRANCH  93  97
ATOM     97  S   UNL A   1      36.475  33.373  34.445  1.00  0.00     0.124 S 
ATOM     98  O   UNL A   1      37.107  34.687  34.411  1.00  0.00    -0.237 OA
ATOM     99  O   UNL A   1      35.019  33.363  34.366  1.00  0.00    -0.237 OA
ATOM    100  O   UNL A   1      37.049  32.433  35.408  1.00  0.00    -0.744 OA
ENDBRANCH  93  97
ENDBRANCH  67  90
ENDBRANCH  41  42
ENDBRANCH  34  36
ENDBRANCH  33  34
ENDBRANCH  32  33
ENDBRANCH  31  32
ENDBRANCH  30  31
ENDBRANCH  29  30
ENDBRANCH  28  29
ENDBRANCH  27  28
ENDBRANCH   1  27
TORSDOF 28
ENDMDL
MODEL 3
REMARK VINA RESULT:      -6.6      9.816     15.434
REMARK SMILES CN(CCc1cccs1)C(=O)N[C@@H]1COC[C@H]1C(=O)OCCOCCOCCOCCOC(=O)c1ccc(-c2c3nc(c(-c4cc(S(=O)(=O)[O-])ccc4F)c4ccc([nH]4)c(-c4cc(S(=O)(=O)[O-])ccc4F)c4nc(c(-c5cc(S(=O)(=O)[O-])ccc5F)c5ccc2[nH]5)C=C4)C=C3)cc1
REMARK SMILES IDX 25 1 24 2 23 3 22 4 21 5 20 6 18 7 19 8 17 9 13 10 14 11
REMARK SMILES IDX 15 12 16 13 12 14 10 15 11 16 2 18 1 19 3 20 4 21 5 22 6 23
REMARK SMILES IDX 9 24 7 25 8 26 26 27 27 28 28 29 29 30 30 31 31 32 32 33
REMARK SMILES IDX 33 34 34 35 35 36 36 37 97 38 37 39 96 40 38 41 39 42 40 43
REMARK SMILES IDX 90 44 41 45 95 46 89 47 91 48 42 49 94 50 88 51 87 52 43 54
REMARK SMILES IDX 75 55 55 56 74 57 56 58 59 59 73 60 92 61 57 62 58 63 72 65
REMARK SMILES IDX 93 66 60 67 44 68 45 69 53 70 46 71 52 72 54 73 51 74 47 75
REMARK SMILES IDX 48 76 49 77 50 78 76 79 77 80 85 81 78 82 84 83 86 84 83 85
REMARK SMILES IDX 79 86 80 87 81 88 82 89 61 90 62 91 70 92 63 93 69 94 71 95
REMARK SMILES IDX 68 96 64 97 65 98 66 99 67 100
REMARK H PARENT 12 17 91 53 59 64
REMARK Flexibility Score: inf
ROOT
ATOM      1  C   UNL A   1      35.490  33.063  30.938  1.00  0.00     0.188 C 
ENDROOT
BRANCH   1   2
ATOM      2  C   UNL A   1      35.595  32.454  29.539  1.00  0.00     0.188 C 
BRANCH   2   3
ATOM      3  O   UNL A   1      34.385  32.039  28.913  1.00  0.00    -0.376 OA
BRANCH   3   4
ATOM      4  C   UNL A   1      34.486  31.148  27.810  1.00  0.00     0.202 C 
BRANCH   4   5
ATOM      5  C   UNL A   1      33.195  30.621  27.149  1.00  0.00     0.261 C 
BRANCH   5   6
ATOM      6  O   UNL A   1      33.041  29.184  26.997  1.00  0.00    -0.463 OA
BRANCH   6   7
ATOM      7  C   UNL A   1      32.779  28.800  25.727  1.00  0.00     0.313 C 
ATOM      8  O   UNL A   1      33.216  29.407  24.748  1.00  0.00    -0.252 OA
BRANCH   7   9
ATOM      9  C   UNL A   1      31.977  27.528  25.518  1.00  0.00     0.150 C 
ATOM     10  C   UNL A   1      32.430  26.195  24.880  1.00  0.00     0.126 C 
ATOM     11  C   UNL A   1      31.641  25.163  25.725  1.00  0.00     0.186 C 
ATOM     12  O   UNL A   1      31.017  25.837  26.819  1.00  0.00    -0.378 OA
ATOM     13  C   UNL A   1      31.714  27.065  26.947  1.00  0.00     0.177 C 
BRANCH  10  14
ATOM     14  N   UNL A   1      32.101  26.074  23.445  1.00  0.00    -0.332 N 
ATOM     15  C   UNL A   1      31.293  26.653  22.533  1.00  0.00     0.317 C 
ATOM     16  O   UNL A   1      31.482  26.250  21.376  1.00  0.00    -0.249 OA
ATOM     17  H   UNL A   1      32.632  25.356  23.030  1.00  0.00     0.165 HD
BRANCH  15  18
ATOM     18  N   UNL A   1      30.359  27.629  22.792  1.00  0.00    -0.328 N 
ATOM     19  C   UNL A   1      29.140  27.158  23.453  1.00  0.00     0.148 C 
BRANCH  18  20
ATOM     20  C   UNL A   1      30.481  29.093  22.703  1.00  0.00     0.126 C 
BRANCH  20  21
ATOM     21  C   UNL A   1      29.433  29.958  23.433  1.00  0.00     0.068 C 
BRANCH  21  22
ATOM     22  C   UNL A   1      28.673  30.807  22.478  1.00  0.00     0.006 A 
ATOM     23  C   UNL A   1      28.161  30.490  21.235  1.00  0.00     0.015 A 
ATOM     24  S   UNL A   1      28.435  32.458  22.856  1.00  0.00    -0.149 S 
ATOM     25  C   UNL A   1      27.928  31.666  20.470  1.00  0.00     0.012 A 
ATOM     26  C   UNL A   1      28.135  32.797  21.222  1.00  0.00     0.065 A 
ENDBRANCH  21  22
ENDBRANCH  20  21
ENDBRANCH  18  20
ENDBRANCH  15  18
ENDBRANCH  10  14
ENDBRANCH   7   9
ENDBRANCH   6   7
ENDBRANCH   5   6
ENDBRANCH   4   5
ENDBRANCH   3   4
ENDBRANCH   2   3
ENDBRANCH   1   2
BRANCH   1  27
ATOM     27  O   UNL A   1      36.538  33.982  31.238  1.00  0.00    -0.377 OA
BRANCH  27  28
ATOM     28  C   UNL A   1      37.803  33.435  31.624  1.00  0.00     0.188 C 
BRANCH  28  29
ATOM     29  C   UNL A   1      39.078  34.229  31.336  1.00  0.00     0.188 C 
BRANCH  29  30
ATOM     30  O   UNL A   1      39.452  34.412  29.973  1.00  0.00    -0.376 OA
BRANCH  30  31
ATOM     31  C   UNL A   1      40.787  34.808  29.668  1.00  0.00     0.202 C 
BRANCH  31  32
ATOM     32  C   UNL A   1      41.848  34.413  30.694  1.00  0.00     0.261 C 
BRANCH  32  33
ATOM     33  O   UNL A   1      42.866  35.417  30.823  1.00  0.00    -0.460 OA
BRANCH  33  34
ATOM     34  C   UNL A   1      44.029  35.170  30.193  1.00  0.00     0.338 C 
ATOM     35  O   UNL A   1      44.560  34.078  30.022  1.00  0.00    -0.246 OA
BRANCH  34  36
ATOM     36  C   UNL A   1      44.514  36.412  29.569  1.00  0.00     0.060 A 
ATOM     37  C   UNL A   1      45.817  36.435  29.062  1.00  0.00     0.016 A 
ATOM     38  C   UNL A   1      43.726  37.566  29.565  1.00  0.00     0.016 A 
ATOM     39  C   UNL A   1      46.366  37.632  28.609  1.00  0.00     0.010 A 
ATOM     40  C   UNL A   1      44.282  38.769  29.122  1.00  0.00     0.010 A 
ATOM     41  C   UNL A   1      45.619  38.814  28.687  1.00  0.00    -0.014 A 
BRANCH  41  42
ATOM     42  C   UNL A   1      46.300  40.119  28.517  1.00  0.00     0.031 A 
ATOM     43  C   UNL A   1      46.222  40.795  27.175  1.00  0.00     0.074 A 
ATOM     44  C   UNL A   1      46.944  40.702  29.543  1.00  0.00     0.049 A 
ATOM     45  N   UNL A   1      46.784  41.901  26.766  1.00  0.00    -0.248 NA
ATOM     46  C   UNL A   1      45.399  40.126  26.155  1.00  0.00     0.031 C 
ATOM     47  C   UNL A   1      47.027  40.164  30.900  1.00  0.00     0.029 A 
ATOM     48  N   UNL A   1      47.655  41.872  29.600  1.00  0.00    -0.354 N 
ATOM     49  C   UNL A   1      46.395  42.056  25.440  1.00  0.00     0.074 A 
ATOM     50  C   UNL A   1      45.576  40.911  25.105  1.00  0.00     0.031 C 
ATOM     51  C   UNL A   1      47.757  41.003  31.655  1.00  0.00     0.029 A 
ATOM     52  C   UNL A   1      48.233  42.107  30.824  1.00  0.00     0.049 A 
ATOM     53  H   UNL A   1      47.744  42.487  28.834  1.00  0.00     0.167 HD
ATOM     54  C   UNL A   1      46.693  43.064  24.583  1.00  0.00     0.034 A 
ATOM     55  C   UNL A   1      49.076  43.085  31.215  1.00  0.00     0.034 A 
ATOM     56  C   UNL A   1      47.521  44.190  24.938  1.00  0.00     0.049 A 
ATOM     57  C   UNL A   1      49.475  44.144  30.213  1.00  0.00     0.074 A 
ATOM     58  C   UNL A   1      47.878  45.276  24.160  1.00  0.00     0.029 A 
ATOM     59  N   UNL A   1      48.136  44.368  26.172  1.00  0.00    -0.354 N 
ATOM     60  N   UNL A   1      49.101  44.283  28.961  1.00  0.00    -0.248 NA
ATOM     61  C   UNL A   1      50.406  45.180  30.679  1.00  0.00     0.031 C 
ATOM     62  C   UNL A   1      48.777  46.061  24.890  1.00  0.00     0.029 A 
ATOM     63  C   UNL A   1      48.904  45.521  26.160  1.00  0.00     0.049 A 
ATOM     64  H   UNL A   1      48.041  43.762  26.942  1.00  0.00     0.167 HD
ATOM     65  C   UNL A   1      49.722  45.445  28.505  1.00  0.00     0.074 A 
ATOM     66  C   UNL A   1      50.482  45.971  29.620  1.00  0.00     0.031 C 
ATOM     67  C   UNL A   1      49.663  46.029  27.280  1.00  0.00     0.034 A 
BRANCH  54  68
ATOM     68  C   UNL A   1      46.174  42.955  23.169  1.00  0.00     0.023 A 
ATOM     69  C   UNL A   1      44.804  43.057  22.866  1.00  0.00     0.031 A 
ATOM     70  C   UNL A   1      47.065  42.719  22.107  1.00  0.00     0.131 A 
ATOM     71  C   UNL A   1      44.362  42.857  21.550  1.00  0.00     0.055 A 
ATOM     72  C   UNL A   1      46.627  42.604  20.787  1.00  0.00     0.041 A 
ATOM     73  F   UNL A   1      48.381  42.584  22.336  1.00  0.00    -0.206 F 
ATOM     74  C   UNL A   1      45.266  42.657  20.503  1.00  0.00     0.022 A 
BRANCH  71  75
ATOM     75  S   UNL A   1      42.579  42.711  21.246  1.00  0.00     0.124 S 
ATOM     76  O   UNL A   1      42.526  42.725  19.787  1.00  0.00    -0.237 OA
ATOM     77  O   UNL A   1      42.253  41.442  21.886  1.00  0.00    -0.237 OA
ATOM     78  O   UNL A   1      42.023  43.898  21.894  1.00  0.00    -0.744 OA
ENDBRANCH  71  75
ENDBRANCH  54  68
BRANCH  55  79
ATOM     79  C   UNL A   1      49.637  43.095  32.597  1.00  0.00     0.023 A 
ATOM     80  C   UNL A   1      48.984  43.773  33.639  1.00  0.00     0.031 A 
ATOM     81  C   UNL A   1      50.869  42.480  32.884  1.00  0.00     0.131 A 
ATOM     82  C   UNL A   1      49.590  43.865  34.902  1.00  0.00     0.055 A 
ATOM     83  C   UNL A   1      51.437  42.521  34.158  1.00  0.00     0.041 A 
ATOM     84  F   UNL A   1      51.541  41.823  31.925  1.00  0.00    -0.206 F 
ATOM     85  C   UNL A   1      50.803  43.230  35.174  1.00  0.00     0.022 A 
BRANCH  82  86
ATOM     86  S   UNL A   1      48.815  44.915  36.162  1.00  0.00     0.124 S 
ATOM     87  O   UNL A   1      49.332  44.329  37.393  1.00  0.00    -0.237 OA
ATOM     88  O   UNL A   1      49.329  46.235  35.812  1.00  0.00    -0.237 OA
ATOM     89  O   UNL A   1      47.384  44.723  35.930  1.00  0.00    -0.744 OA
ENDBRANCH  82  86
ENDBRANCH  55  79
BRANCH  67  90
ATOM     90  C   UNL A   1      50.401  47.336  27.102  1.00  0.00     0.023 A 
ATOM     91  C   UNL A   1      49.787  48.577  27.340  1.00  0.00     0.031 A 
ATOM     92  C   UNL A   1      51.744  47.335  26.682  1.00  0.00     0.131 A 
ATOM     93  C   UNL A   1      50.493  49.765  27.098  1.00  0.00     0.055 A 
ATOM     94  C   UNL A   1      52.463  48.518  26.512  1.00  0.00     0.041 A 
ATOM     95  F   UNL A   1      52.382  46.180  26.433  1.00  0.00    -0.206 F 
ATOM     96  C   UNL A   1      51.834  49.743  26.706  1.00  0.00     0.022 A 
BRANCH  93  97
ATOM     97  S   UNL A   1      49.603  51.343  27.200  1.00  0.00     0.124 S 
ATOM     98  O   UNL A   1      48.898  51.211  28.470  1.00  0.00    -0.237 OA
ATOM     99  O   UNL A   1      50.688  52.317  27.171  1.00  0.00    -0.237 OA
ATOM    100  O   UNL A   1      48.750  51.331  26.012  1.00  0.00    -0.744 OA
ENDBRANCH  93  97
ENDBRANCH  67  90
ENDBRANCH  41  42
ENDBRANCH  34  36
ENDBRANCH  33  34
ENDBRANCH  32  33
ENDBRANCH  31  32
ENDBRANCH  30  31
ENDBRANCH  29  30
ENDBRANCH  28  29
ENDBRANCH  27  28
ENDBRANCH   1  27
TORSDOF 28
ENDMDL
