MODEL 1
REMARK VINA RESULT:     -12.4      0.000      0.000
REMARK SMILES O=C(OCCOCCOCCOCCOC(=O)[C@@H]1CCCC[C@@H]1NS(=O)(=O)c1ccc2ccccc2c1)c1ccc(-c2c3nc(c(-c4cc(S(=O)(=O)[O-])ccc4F)c4ccc([nH]4)c(-c4cc(S(=O)(=O)[O-])ccc4F)c4nc(c(-c5cc(S(=O)(=O)[O-])ccc5F)c5ccc2[nH]5)C=C4)C=C3)cc1
REMARK SMILES IDX 9 1 8 2 7 3 6 4 5 5 4 6 3 7 2 8 1 9 38 10 39 11 100 12 40 13
REMARK SMILES IDX 99 14 41 15 42 16 43 17 93 18 44 19 98 20 92 21 94 22 45 23
REMARK SMILES IDX 97 24 91 25 90 26 46 28 78 29 58 30 77 31 59 32 62 33 76 34
REMARK SMILES IDX 95 35 60 36 61 37 75 39 96 40 63 41 47 42 48 43 56 44 49 45
REMARK SMILES IDX 55 46 57 47 54 48 50 49 51 50 52 51 53 52 79 53 80 54 88 55
REMARK SMILES IDX 81 56 87 57 89 58 86 59 82 60 83 61 84 62 85 63 64 64 65 65
REMARK SMILES IDX 73 66 66 67 72 68 74 69 71 70 67 71 68 72 69 73 70 74 10 75
REMARK SMILES IDX 11 76 12 77 13 78 14 79 15 80 16 81 17 82 18 83 19 84 23 85
REMARK SMILES IDX 20 86 22 87 21 88 24 89 25 91 26 92 27 93 28 94 29 95 37 96
REMARK SMILES IDX 30 97 36 98 31 99 35 100 32 101 34 102 33 103
REMARK H PARENT 94 27 62 38 24 90
REMARK Flexibility Score: inf
ROOT
ATOM      1  O   UNL A   1      44.319  28.614  29.606  1.00  0.00    -0.377 OA
ENDROOT
BRANCH   1   2
ATOM      2  C   UNL A   1      45.810  29.144  28.594  1.00  0.00     0.188 C 
BRANCH   2   3
ATOM      3  C   UNL A   1      46.030  30.737  27.631  1.00  0.00     0.188 C 
BRANCH   3   4
ATOM      4  O   UNL A   1      47.237  31.628  27.440  1.00  0.00    -0.376 OA
BRANCH   4   5
ATOM      5  C   UNL A   1      47.480  33.058  27.579  1.00  0.00     0.202 C 
BRANCH   5   6
ATOM      6  C   UNL A   1      47.299  33.993  26.366  1.00  0.00     0.261 C 
BRANCH   6   7
ATOM      7  O   UNL A   1      46.362  35.035  26.570  1.00  0.00    -0.460 OA
BRANCH   7   8
ATOM      8  C   UNL A   1      45.037  34.781  26.543  1.00  0.00     0.338 C 
ATOM      9  O   UNL A   1      44.498  34.450  25.490  1.00  0.00    -0.246 OA
BRANCH   8  10
ATOM     10  C   UNL A   1      44.263  34.714  27.823  1.00  0.00     0.060 A 
ATOM     11  C   UNL A   1      43.799  35.799  28.582  1.00  0.00     0.016 A 
ATOM     12  C   UNL A   1      43.893  33.423  28.216  1.00  0.00     0.016 A 
ATOM     13  C   UNL A   1      42.908  35.615  29.625  1.00  0.00     0.010 A 
ATOM     14  C   UNL A   1      43.061  33.221  29.312  1.00  0.00     0.010 A 
ATOM     15  C   UNL A   1      42.557  34.324  30.002  1.00  0.00    -0.014 A 
BRANCH  15  16
ATOM     16  C   UNL A   1      41.829  34.190  31.265  1.00  0.00     0.031 A 
ATOM     17  C   UNL A   1      42.653  34.179  32.500  1.00  0.00     0.074 A 
ATOM     18  C   UNL A   1      40.488  34.237  31.280  1.00  0.00     0.049 A 
ATOM     19  N   UNL A   1      42.257  34.027  33.725  1.00  0.00    -0.248 NA
ATOM     20  C   UNL A   1      44.111  34.321  32.335  1.00  0.00     0.031 C 
ATOM     21  C   UNL A   1      39.669  34.285  30.080  1.00  0.00     0.029 A 
ATOM     22  N   UNL A   1      39.581  34.321  32.297  1.00  0.00    -0.354 N 
ATOM     23  C   UNL A   1      43.420  33.952  34.471  1.00  0.00     0.074 A 
ATOM     24  C   UNL A   1      44.535  34.160  33.578  1.00  0.00     0.031 C 
ATOM     25  C   UNL A   1      38.405  34.578  30.420  1.00  0.00     0.029 A 
ATOM     26  C   UNL A   1      38.282  34.491  31.865  1.00  0.00     0.049 A 
ATOM     27  H   UNL A   1      39.831  34.267  33.249  1.00  0.00     0.167 HD
ATOM     28  C   UNL A   1      43.511  33.644  35.780  1.00  0.00     0.034 A 
ATOM     29  C   UNL A   1      37.128  34.478  32.564  1.00  0.00     0.034 A 
ATOM     30  C   UNL A   1      42.348  33.409  36.590  1.00  0.00     0.049 A 
ATOM     31  C   UNL A   1      37.271  34.117  34.025  1.00  0.00     0.074 A 
ATOM     32  C   UNL A   1      42.289  33.037  37.915  1.00  0.00     0.029 A 
ATOM     33  N   UNL A   1      41.035  33.507  36.134  1.00  0.00    -0.354 N 
ATOM     34  N   UNL A   1      38.373  33.975  34.730  1.00  0.00    -0.248 NA
ATOM     35  C   UNL A   1      36.040  33.825  34.765  1.00  0.00     0.031 C 
ATOM     36  C   UNL A   1      40.946  32.825  38.237  1.00  0.00     0.029 A 
ATOM     37  C   UNL A   1      40.160  33.165  37.145  1.00  0.00     0.049 A 
ATOM     38  H   UNL A   1      40.772  33.780  35.225  1.00  0.00     0.167 HD
ATOM     39  C   UNL A   1      37.971  33.547  35.986  1.00  0.00     0.074 A 
ATOM     40  C   UNL A   1      36.520  33.526  35.962  1.00  0.00     0.031 C 
ATOM     41  C   UNL A   1      38.718  33.167  37.054  1.00  0.00     0.034 A 
BRANCH  28  42
ATOM     42  C   UNL A   1      44.881  33.388  36.328  1.00  0.00     0.023 A 
ATOM     43  C   UNL A   1      45.418  32.097  36.440  1.00  0.00     0.031 A 
ATOM     44  C   UNL A   1      45.643  34.471  36.802  1.00  0.00     0.131 A 
ATOM     45  C   UNL A   1      46.669  31.919  37.047  1.00  0.00     0.055 A 
ATOM     46  C   UNL A   1      46.919  34.294  37.333  1.00  0.00     0.041 A 
ATOM     47  F   UNL A   1      45.146  35.719  36.777  1.00  0.00    -0.206 F 
ATOM     48  C   UNL A   1      47.438  33.010  37.462  1.00  0.00     0.022 A 
BRANCH  45  49
ATOM     49  S   UNL A   1      47.227  30.231  37.398  1.00  0.00     0.124 S 
ATOM     50  O   UNL A   1      45.962  29.554  37.677  1.00  0.00    -0.237 OA
ATOM     51  O   UNL A   1      47.891  29.851  36.156  1.00  0.00    -0.237 OA
ATOM     52  O   UNL A   1      48.109  30.394  38.552  1.00  0.00    -0.744 OA
ENDBRANCH  45  49
ENDBRANCH  28  42
BRANCH  29  53
ATOM     53  C   UNL A   1      35.780  34.602  31.914  1.00  0.00     0.023 A 
ATOM     54  C   UNL A   1      35.453  33.858  30.766  1.00  0.00     0.031 A 
ATOM     55  C   UNL A   1      34.828  35.545  32.351  1.00  0.00     0.131 A 
ATOM     56  C   UNL A   1      34.259  34.119  30.069  1.00  0.00     0.055 A 
ATOM     57  C   UNL A   1      33.595  35.720  31.720  1.00  0.00     0.041 A 
ATOM     58  F   UNL A   1      35.082  36.345  33.399  1.00  0.00    -0.206 F 
ATOM     59  C   UNL A   1      33.314  35.022  30.555  1.00  0.00     0.022 A 
BRANCH  56  60
ATOM     60  S   UNL A   1      34.042  33.406  28.413  1.00  0.00     0.124 S 
ATOM     61  O   UNL A   1      34.141  31.977  28.695  1.00  0.00    -0.237 OA
ATOM     62  O   UNL A   1      32.718  33.897  28.044  1.00  0.00    -0.237 OA
ATOM     63  O   UNL A   1      35.154  33.970  27.651  1.00  0.00    -0.744 OA
ENDBRANCH  56  60
ENDBRANCH  29  53
BRANCH  41  64
ATOM     64  C   UNL A   1      37.958  32.736  38.276  1.00  0.00     0.023 A 
ATOM     65  C   UNL A   1      37.788  33.598  39.370  1.00  0.00     0.031 A 
ATOM     66  C   UNL A   1      37.390  31.453  38.332  1.00  0.00     0.131 A 
ATOM     67  C   UNL A   1      37.112  33.142  40.506  1.00  0.00     0.055 A 
ATOM     68  C   UNL A   1      36.647  31.035  39.432  1.00  0.00     0.041 A 
ATOM     69  F   UNL A   1      37.534  30.596  37.309  1.00  0.00    -0.206 F 
ATOM     70  C   UNL A   1      36.517  31.877  40.534  1.00  0.00     0.022 A 
BRANCH  67  71
ATOM     71  S   UNL A   1      37.117  34.182  41.989  1.00  0.00     0.124 S 
ATOM     72  O   UNL A   1      37.968  33.414  42.891  1.00  0.00    -0.237 OA
ATOM     73  O   UNL A   1      37.681  35.434  41.492  1.00  0.00    -0.237 OA
ATOM     74  O   UNL A   1      35.707  34.244  42.366  1.00  0.00    -0.744 OA
ENDBRANCH  67  71
ENDBRANCH  41  64
ENDBRANCH  15  16
ENDBRANCH   8  10
ENDBRANCH   7   8
ENDBRANCH   6   7
ENDBRANCH   5   6
ENDBRANCH   4   5
ENDBRANCH   3   4
ENDBRANCH   2   3
ENDBRANCH   1   2
BRANCH   1  75
ATOM     75  C   UNL A   1      42.630  29.414  29.913  1.00  0.00     0.188 C 
BRANCH  75  76
ATOM     76  C   UNL A   1      41.595  29.740  28.568  1.00  0.00     0.188 C 
BRANCH  76  77
ATOM     77  O   UNL A   1      40.506  28.591  28.285  1.00  0.00    -0.376 OA
BRANCH  77  78
ATOM     78  C   UNL A   1      40.395  26.942  27.156  1.00  0.00     0.202 C 
BRANCH  78  79
ATOM     79  C   UNL A   1      41.604  26.271  25.959  1.00  0.00     0.261 C 
BRANCH  79  80
ATOM     80  O   UNL A   1      43.004  25.915  26.405  1.00  0.00    -0.463 OA
BRANCH  80  81
ATOM     81  C   UNL A   1      43.258  24.691  26.957  1.00  0.00     0.310 C 
ATOM     82  O   UNL A   1      42.635  24.308  27.952  1.00  0.00    -0.252 OA
BRANCH  81  83
ATOM     83  C   UNL A   1      44.316  23.692  26.274  1.00  0.00     0.117 C 
ATOM     84  C   UNL A   1      45.170  24.521  25.313  1.00  0.00     0.017 C 
ATOM     85  C   UNL A   1      44.283  22.116  25.919  1.00  0.00     0.084 C 
ATOM     86  C   UNL A   1      46.474  23.814  24.963  1.00  0.00     0.001 C 
ATOM     87  C   UNL A   1      45.547  21.542  25.290  1.00  0.00     0.021 C 
ATOM     88  C   UNL A   1      46.197  22.476  24.299  1.00  0.00     0.002 C 
BRANCH  85  89
ATOM     89  N   UNL A   1      43.112  21.569  25.166  1.00  0.00    -0.207 NA
ATOM     90  H   UNL A   1      43.466  20.919  24.464  1.00  0.00     0.141 HD
BRANCH  89  91
ATOM     91  S   UNL A   1      41.727  20.582  26.291  1.00  0.00     0.240 S 
ATOM     92  O   UNL A   1      41.775  19.461  25.356  1.00  0.00    -0.207 OA
ATOM     93  O   UNL A   1      42.401  20.377  27.563  1.00  0.00    -0.207 OA
BRANCH  91  94
ATOM     94  C   UNL A   1      39.680  21.882  26.361  1.00  0.00     0.083 A 
ATOM     95  C   UNL A   1      39.427  23.582  26.802  1.00  0.00     0.022 A 
ATOM     96  C   UNL A   1      38.070  20.991  25.743  1.00  0.00     0.030 A 
ATOM     97  C   UNL A   1      37.815  24.337  26.540  1.00  0.00     0.010 A 
ATOM     98  C   UNL A   1      36.527  21.834  25.342  1.00  0.00    -0.017 A 
ATOM     99  C   UNL A   1      36.407  23.532  25.744  1.00  0.00    -0.018 A 
ATOM    100  C   UNL A   1      35.520  21.256  24.585  1.00  0.00     0.009 A 
ATOM    101  C   UNL A   1      35.216  24.119  25.318  1.00  0.00     0.009 A 
ATOM    102  C   UNL A   1      34.462  22.044  24.142  1.00  0.00     0.001 A 
ATOM    103  C   UNL A   1      34.306  23.401  24.512  1.00  0.00     0.001 A 
ENDBRANCH  91  94
ENDBRANCH  89  91
ENDBRANCH  85  89
ENDBRANCH  81  83
ENDBRANCH  80  81
ENDBRANCH  79  80
ENDBRANCH  78  79
ENDBRANCH  77  78
ENDBRANCH  76  77
ENDBRANCH  75  76
ENDBRANCH   1  75
TORSDOF 26
ENDMDL
MODEL 2
REMARK VINA RESULT:     -12.3      5.473     10.901
REMARK SMILES O=C(OCCOCCOCCOCCOC(=O)[C@@H]1CCCC[C@@H]1NS(=O)(=O)c1ccc2ccccc2c1)c1ccc(-c2c3nc(c(-c4cc(S(=O)(=O)[O-])ccc4F)c4ccc([nH]4)c(-c4cc(S(=O)(=O)[O-])ccc4F)c4nc(c(-c5cc(S(=O)(=O)[O-])ccc5F)c5ccc2[nH]5)C=C4)C=C3)cc1
REMARK SMILES IDX 9 1 8 2 7 3 6 4 5 5 4 6 3 7 2 8 1 9 38 10 39 11 100 12 40 13
REMARK SMILES IDX 99 14 41 15 42 16 43 17 93 18 44 19 98 20 92 21 94 22 45 23
REMARK SMILES IDX 97 24 91 25 90 26 46 28 78 29 58 30 77 31 59 32 62 33 76 34
REMARK SMILES IDX 95 35 60 36 61 37 75 39 96 40 63 41 47 42 48 43 56 44 49 45
REMARK SMILES IDX 55 46 57 47 54 48 50 49 51 50 52 51 53 52 79 53 80 54 88 55
REMARK SMILES IDX 81 56 87 57 89 58 86 59 82 60 83 61 84 62 85 63 64 64 65 65
REMARK SMILES IDX 73 66 66 67 72 68 74 69 71 70 67 71 68 72 69 73 70 74 10 75
REMARK SMILES IDX 11 76 12 77 13 78 14 79 15 80 16 81 17 82 18 83 19 84 23 85
REMARK SMILES IDX 20 86 22 87 21 88 24 89 25 91 26 92 27 93 28 94 29 95 37 96
REMARK SMILES IDX 30 97 36 98 31 99 35 100 32 101 34 102 33 103
REMARK H PARENT 94 27 62 38 24 90
REMARK Flexibility Score: inf
ROOT
ATOM      1  O   UNL A   1      39.258  29.724  27.610  1.00  0.00    -0.377 OA
ENDROOT
BRANCH   1   2
ATOM      2  C   UNL A   1      37.494  29.590  28.240  1.00  0.00     0.188 C 
BRANCH   2   3
ATOM      3  C   UNL A   1      36.162  30.908  28.199  1.00  0.00     0.188 C 
BRANCH   3   4
ATOM      4  O   UNL A   1      35.889  32.079  29.116  1.00  0.00    -0.376 OA
BRANCH   4   5
ATOM      5  C   UNL A   1      35.413  32.211  30.486  1.00  0.00     0.202 C 
BRANCH   5   6
ATOM      6  C   UNL A   1      35.667  33.515  31.270  1.00  0.00     0.261 C 
BRANCH   6   7
ATOM      7  O   UNL A   1      36.835  34.212  30.877  1.00  0.00    -0.460 OA
BRANCH   7   8
ATOM      8  C   UNL A   1      37.938  34.195  31.654  1.00  0.00     0.338 C 
ATOM      9  O   UNL A   1      37.858  33.829  32.823  1.00  0.00    -0.246 OA
BRANCH   8  10
ATOM     10  C   UNL A   1      39.284  34.434  31.044  1.00  0.00     0.060 A 
ATOM     11  C   UNL A   1      40.520  34.425  31.707  1.00  0.00     0.016 A 
ATOM     12  C   UNL A   1      39.279  34.573  29.652  1.00  0.00     0.016 A 
ATOM     13  C   UNL A   1      41.712  34.440  31.002  1.00  0.00     0.010 A 
ATOM     14  C   UNL A   1      40.471  34.668  28.939  1.00  0.00     0.010 A 
ATOM     15  C   UNL A   1      41.684  34.583  29.620  1.00  0.00    -0.014 A 
BRANCH  15  16
ATOM     16  C   UNL A   1      42.967  34.854  28.968  1.00  0.00     0.031 A 
ATOM     17  C   UNL A   1      43.782  33.668  28.602  1.00  0.00     0.074 A 
ATOM     18  C   UNL A   1      43.285  36.103  28.596  1.00  0.00     0.049 A 
ATOM     19  N   UNL A   1      44.962  33.642  28.065  1.00  0.00    -0.248 NA
ATOM     20  C   UNL A   1      43.214  32.343  28.912  1.00  0.00     0.031 C 
ATOM     21  C   UNL A   1      42.478  37.270  28.914  1.00  0.00     0.029 A 
ATOM     22  N   UNL A   1      44.297  36.607  27.830  1.00  0.00    -0.354 N 
ATOM     23  C   UNL A   1      45.325  32.307  28.064  1.00  0.00     0.074 A 
ATOM     24  C   UNL A   1      44.211  31.543  28.573  1.00  0.00     0.031 C 
ATOM     25  C   UNL A   1      42.916  38.318  28.200  1.00  0.00     0.029 A 
ATOM     26  C   UNL A   1      44.175  37.956  27.571  1.00  0.00     0.049 A 
ATOM     27  H   UNL A   1      45.043  36.058  27.493  1.00  0.00     0.167 HD
ATOM     28  C   UNL A   1      46.535  31.809  27.739  1.00  0.00     0.034 A 
ATOM     29  C   UNL A   1      45.038  38.806  26.976  1.00  0.00     0.034 A 
ATOM     30  C   UNL A   1      47.605  32.649  27.279  1.00  0.00     0.049 A 
ATOM     31  C   UNL A   1      46.386  38.213  26.638  1.00  0.00     0.074 A 
ATOM     32  C   UNL A   1      48.899  32.291  26.964  1.00  0.00     0.029 A 
ATOM     33  N   UNL A   1      47.504  34.025  27.089  1.00  0.00    -0.354 N 
ATOM     34  N   UNL A   1      46.766  36.954  26.698  1.00  0.00    -0.248 NA
ATOM     35  C   UNL A   1      47.447  39.144  26.243  1.00  0.00     0.031 C 
ATOM     36  C   UNL A   1      49.603  33.461  26.669  1.00  0.00     0.029 A 
ATOM     37  C   UNL A   1      48.725  34.537  26.697  1.00  0.00     0.049 A 
ATOM     38  H   UNL A   1      46.683  34.554  27.216  1.00  0.00     0.167 HD
ATOM     39  C   UNL A   1      48.116  36.947  26.379  1.00  0.00     0.074 A 
ATOM     40  C   UNL A   1      48.464  38.318  26.056  1.00  0.00     0.031 C 
ATOM     41  C   UNL A   1      49.004  35.920  26.388  1.00  0.00     0.034 A 
BRANCH  28  42
ATOM     42  C   UNL A   1      46.779  30.361  28.034  1.00  0.00     0.023 A 
ATOM     43  C   UNL A   1      47.148  29.904  29.308  1.00  0.00     0.031 A 
ATOM     44  C   UNL A   1      46.693  29.425  26.988  1.00  0.00     0.131 A 
ATOM     45  C   UNL A   1      47.452  28.549  29.496  1.00  0.00     0.055 A 
ATOM     46  C   UNL A   1      46.921  28.066  27.199  1.00  0.00     0.041 A 
ATOM     47  F   UNL A   1      46.409  29.821  25.737  1.00  0.00    -0.206 F 
ATOM     48  C   UNL A   1      47.307  27.622  28.460  1.00  0.00     0.022 A 
BRANCH  45  49
ATOM     49  S   UNL A   1      48.157  28.032  31.083  1.00  0.00     0.124 S 
ATOM     50  O   UNL A   1      48.836  29.252  31.515  1.00  0.00    -0.237 OA
ATOM     51  O   UNL A   1      46.973  27.659  31.849  1.00  0.00    -0.237 OA
ATOM     52  O   UNL A   1      49.040  26.926  30.722  1.00  0.00    -0.744 OA
ENDBRANCH  45  49
ENDBRANCH  28  42
BRANCH  29  53
ATOM     53  C   UNL A   1      44.772  40.278  26.847  1.00  0.00     0.023 A 
ATOM     54  C   UNL A   1      44.258  40.825  25.658  1.00  0.00     0.031 A 
ATOM     55  C   UNL A   1      45.130  41.190  27.861  1.00  0.00     0.131 A 
ATOM     56  C   UNL A   1      44.186  42.221  25.493  1.00  0.00     0.055 A 
ATOM     57  C   UNL A   1      44.951  42.568  27.734  1.00  0.00     0.041 A 
ATOM     58  F   UNL A   1      45.690  40.763  29.005  1.00  0.00    -0.206 F 
ATOM     59  C   UNL A   1      44.500  43.095  26.533  1.00  0.00     0.022 A 
BRANCH  56  60
ATOM     60  S   UNL A   1      43.864  42.887  23.834  1.00  0.00     0.124 S 
ATOM     61  O   UNL A   1      43.432  44.246  24.144  1.00  0.00    -0.237 OA
ATOM     62  O   UNL A   1      45.170  42.758  23.198  1.00  0.00    -0.237 OA
ATOM     63  O   UNL A   1      42.822  42.006  23.310  1.00  0.00    -0.744 OA
ENDBRANCH  56  60
ENDBRANCH  29  53
BRANCH  41  64
ATOM     64  C   UNL A   1      50.414  36.260  26.000  1.00  0.00     0.023 A 
ATOM     65  C   UNL A   1      51.415  36.435  26.969  1.00  0.00     0.031 A 
ATOM     66  C   UNL A   1      50.756  36.394  24.645  1.00  0.00     0.131 A 
ATOM     67  C   UNL A   1      52.705  36.795  26.567  1.00  0.00     0.055 A 
ATOM     68  C   UNL A   1      52.061  36.669  24.248  1.00  0.00     0.041 A 
ATOM     69  F   UNL A   1      49.828  36.240  23.687  1.00  0.00    -0.206 F 
ATOM     70  C   UNL A   1      53.042  36.886  25.213  1.00  0.00     0.022 A 
BRANCH  67  71
ATOM     71  S   UNL A   1      53.910  37.250  27.840  1.00  0.00     0.124 S 
ATOM     72  O   UNL A   1      53.734  36.179  28.816  1.00  0.00    -0.237 OA
ATOM     73  O   UNL A   1      55.169  37.237  27.101  1.00  0.00    -0.237 OA
ATOM     74  O   UNL A   1      53.461  38.569  28.278  1.00  0.00    -0.744 OA
ENDBRANCH  67  71
ENDBRANCH  41  64
ENDBRANCH  15  16
ENDBRANCH   8  10
ENDBRANCH   7   8
ENDBRANCH   6   7
ENDBRANCH   5   6
ENDBRANCH   4   5
ENDBRANCH   3   4
ENDBRANCH   2   3
ENDBRANCH   1   2
BRANCH   1  75
ATOM     75  C   UNL A   1      40.335  28.569  26.564  1.00  0.00     0.188 C 
BRANCH  75  76
ATOM     76  C   UNL A   1      41.895  29.107  26.049  1.00  0.00     0.188 C 
BRANCH  76  77
ATOM     77  O   UNL A   1      42.617  28.119  25.006  1.00  0.00    -0.376 OA
BRANCH  77  78
ATOM     78  C   UNL A   1      44.263  26.980  24.985  1.00  0.00     0.202 C 
BRANCH  78  79
ATOM     79  C   UNL A   1      44.452  25.206  25.386  1.00  0.00     0.261 C 
BRANCH  79  80
ATOM     80  O   UNL A   1      44.914  24.778  26.761  1.00  0.00    -0.463 OA
BRANCH  80  81
ATOM     81  C   UNL A   1      44.032  24.212  27.637  1.00  0.00     0.310 C 
ATOM     82  O   UNL A   1      44.405  23.343  28.431  1.00  0.00    -0.252 OA
BRANCH  81  83
ATOM     83  C   UNL A   1      42.511  24.725  27.710  1.00  0.00     0.117 C 
ATOM     84  C   UNL A   1      42.419  25.714  28.874  1.00  0.00     0.017 C 
ATOM     85  C   UNL A   1      41.095  24.056  27.313  1.00  0.00     0.084 C 
ATOM     86  C   UNL A   1      41.186  26.603  28.763  1.00  0.00     0.001 C 
ATOM     87  C   UNL A   1      39.860  24.927  27.513  1.00  0.00     0.021 C 
ATOM     88  C   UNL A   1      39.919  25.765  28.767  1.00  0.00     0.002 C 
BRANCH  85  89
ATOM     89  N   UNL A   1      40.774  22.688  27.823  1.00  0.00    -0.207 NA
ATOM     90  H   UNL A   1      39.929  22.754  28.392  1.00  0.00     0.141 HD
BRANCH  89  91
ATOM     91  S   UNL A   1      40.456  21.269  26.394  1.00  0.00     0.240 S 
ATOM     92  O   UNL A   1      41.521  21.855  25.583  1.00  0.00    -0.207 OA
ATOM     93  O   UNL A   1      40.783  20.023  27.068  1.00  0.00    -0.207 OA
BRANCH  91  94
ATOM     94  C   UNL A   1      38.188  21.470  25.558  1.00  0.00     0.083 A 
ATOM     95  C   UNL A   1      37.052  20.210  25.036  1.00  0.00     0.022 A 
ATOM     96  C   UNL A   1      37.427  23.256  25.546  1.00  0.00     0.030 A 
ATOM     97  C   UNL A   1      35.345  20.648  24.675  1.00  0.00     0.010 A 
ATOM     98  C   UNL A   1      35.671  23.616  25.338  1.00  0.00    -0.017 A 
ATOM     99  C   UNL A   1      34.621  22.288  24.902  1.00  0.00    -0.018 A 
ATOM    100  C   UNL A   1      35.101  24.834  25.675  1.00  0.00     0.009 A 
ATOM    101  C   UNL A   1      33.273  22.641  24.851  1.00  0.00     0.009 A 
ATOM    102  C   UNL A   1      33.715  24.957  25.687  1.00  0.00     0.001 A 
ATOM    103  C   UNL A   1      32.847  23.920  25.271  1.00  0.00     0.001 A 
ENDBRANCH  91  94
ENDBRANCH  89  91
ENDBRANCH  85  89
ENDBRANCH  81  83
ENDBRANCH  80  81
ENDBRANCH  79  80
ENDBRANCH  78  79
ENDBRANCH  77  78
ENDBRANCH  76  77
ENDBRANCH  75  76
ENDBRANCH   1  75
TORSDOF 26
ENDMDL
MODEL 3
REMARK VINA RESULT:     -11.4      4.518     11.390
REMARK SMILES O=C(OCCOCCOCCOCCOC(=O)[C@@H]1CCCC[C@@H]1NS(=O)(=O)c1ccc2ccccc2c1)c1ccc(-c2c3nc(c(-c4cc(S(=O)(=O)[O-])ccc4F)c4ccc([nH]4)c(-c4cc(S(=O)(=O)[O-])ccc4F)c4nc(c(-c5cc(S(=O)(=O)[O-])ccc5F)c5ccc2[nH]5)C=C4)C=C3)cc1
REMARK SMILES IDX 9 1 8 2 7 3 6 4 5 5 4 6 3 7 2 8 1 9 38 10 39 11 100 12 40 13
REMARK SMILES IDX 99 14 41 15 42 16 43 17 93 18 44 19 98 20 92 21 94 22 45 23
REMARK SMILES IDX 97 24 91 25 90 26 46 28 78 29 58 30 77 31 59 32 62 33 76 34
REMARK SMILES IDX 95 35 60 36 61 37 75 39 96 40 63 41 47 42 48 43 56 44 49 45
REMARK SMILES IDX 55 46 57 47 54 48 50 49 51 50 52 51 53 52 79 53 80 54 88 55
REMARK SMILES IDX 81 56 87 57 89 58 86 59 82 60 83 61 84 62 85 63 64 64 65 65
REMARK SMILES IDX 73 66 66 67 72 68 74 69 71 70 67 71 68 72 69 73 70 74 10 75
REMARK SMILES IDX 11 76 12 77 13 78 14 79 15 80 16 81 17 82 18 83 19 84 23 85
REMARK SMILES IDX 20 86 22 87 21 88 24 89 25 91 26 92 27 93 28 94 29 95 37 96
REMARK SMILES IDX 30 97 36 98 31 99 35 100 32 101 34 102 33 103
REMARK H PARENT 94 27 62 38 24 90
REMARK Flexibility Score: inf
ROOT
ATOM      1  O   UNL A   1      41.495  25.827  27.692  1.00  0.00    -0.377 OA
ENDROOT
BRANCH   1   2
ATOM      2  C   UNL A   1      41.755  24.272  28.712  1.00  0.00     0.188 C 
BRANCH   2   3
ATOM      3  C   UNL A   1      42.935  22.859  28.362  1.00  0.00     0.188 C 
BRANCH   3   4
ATOM      4  O   UNL A   1      43.036  21.911  27.188  1.00  0.00    -0.376 OA
BRANCH   4   5
ATOM      5  C   UNL A   1      42.722  22.009  25.770  1.00  0.00     0.202 C 
BRANCH   5   6
ATOM      6  C   UNL A   1      43.831  21.809  24.717  1.00  0.00     0.261 C 
BRANCH   6   7
ATOM      7  O   UNL A   1      44.376  23.013  24.209  1.00  0.00    -0.460 OA
BRANCH   7   8
ATOM      8  C   UNL A   1      45.565  23.470  24.653  1.00  0.00     0.338 C 
ATOM      9  O   UNL A   1      46.607  23.054  24.152  1.00  0.00    -0.246 OA
BRANCH   8  10
ATOM     10  C   UNL A   1      45.613  24.616  25.615  1.00  0.00     0.060 A 
ATOM     11  C   UNL A   1      44.534  25.413  26.026  1.00  0.00     0.016 A 
ATOM     12  C   UNL A   1      46.855  24.815  26.227  1.00  0.00     0.016 A 
ATOM     13  C   UNL A   1      44.658  26.298  27.083  1.00  0.00     0.010 A 
ATOM     14  C   UNL A   1      47.011  25.758  27.238  1.00  0.00     0.010 A 
ATOM     15  C   UNL A   1      45.903  26.484  27.674  1.00  0.00    -0.014 A 
BRANCH  15  16
ATOM     16  C   UNL A   1      46.022  27.613  28.598  1.00  0.00     0.031 A 
ATOM     17  C   UNL A   1      45.887  27.295  30.043  1.00  0.00     0.074 A 
ATOM     18  C   UNL A   1      46.388  28.821  28.146  1.00  0.00     0.049 A 
ATOM     19  N   UNL A   1      45.906  28.115  31.048  1.00  0.00    -0.248 NA
ATOM     20  C   UNL A   1      45.666  25.882  30.402  1.00  0.00     0.031 C 
ATOM     21  C   UNL A   1      46.561  29.137  26.738  1.00  0.00     0.029 A 
ATOM     22  N   UNL A   1      46.747  29.974  28.785  1.00  0.00    -0.354 N 
ATOM     23  C   UNL A   1      45.598  27.336  32.150  1.00  0.00     0.074 A 
ATOM     24  C   UNL A   1      45.481  25.967  31.708  1.00  0.00     0.031 C 
ATOM     25  C   UNL A   1      47.167  30.328  26.624  1.00  0.00     0.029 A 
ATOM     26  C   UNL A   1      47.197  30.960  27.932  1.00  0.00     0.049 A 
ATOM     27  H   UNL A   1      46.691  30.089  29.762  1.00  0.00     0.167 HD
ATOM     28  C   UNL A   1      45.355  27.781  33.398  1.00  0.00     0.034 A 
ATOM     29  C   UNL A   1      47.502  32.250  28.184  1.00  0.00     0.034 A 
ATOM     30  C   UNL A   1      45.453  29.172  33.744  1.00  0.00     0.049 A 
ATOM     31  C   UNL A   1      47.203  32.714  29.591  1.00  0.00     0.074 A 
ATOM     32  C   UNL A   1      45.184  29.774  34.954  1.00  0.00     0.029 A 
ATOM     33  N   UNL A   1      45.835  30.180  32.862  1.00  0.00    -0.354 N 
ATOM     34  N   UNL A   1      46.844  31.993  30.632  1.00  0.00    -0.248 NA
ATOM     35  C   UNL A   1      47.258  34.155  29.847  1.00  0.00     0.031 C 
ATOM     36  C   UNL A   1      45.319  31.154  34.781  1.00  0.00     0.029 A 
ATOM     37  C   UNL A   1      45.773  31.406  33.494  1.00  0.00     0.049 A 
ATOM     38  H   UNL A   1      46.110  30.038  31.927  1.00  0.00     0.167 HD
ATOM     39  C   UNL A   1      46.599  32.895  31.656  1.00  0.00     0.074 A 
ATOM     40  C   UNL A   1      46.924  34.208  31.127  1.00  0.00     0.031 C 
ATOM     41  C   UNL A   1      46.114  32.681  32.905  1.00  0.00     0.034 A 
BRANCH  28  42
ATOM     42  C   UNL A   1      44.812  26.791  34.383  1.00  0.00     0.023 A 
ATOM     43  C   UNL A   1      43.458  26.762  34.751  1.00  0.00     0.031 A 
ATOM     44  C   UNL A   1      45.693  25.892  35.008  1.00  0.00     0.131 A 
ATOM     45  C   UNL A   1      43.032  25.871  35.746  1.00  0.00     0.055 A 
ATOM     46  C   UNL A   1      45.248  24.956  35.939  1.00  0.00     0.041 A 
ATOM     47  F   UNL A   1      47.008  25.925  34.738  1.00  0.00    -0.206 F 
ATOM     48  C   UNL A   1      43.909  24.945  36.317  1.00  0.00     0.022 A 
BRANCH  45  49
ATOM     49  S   UNL A   1      41.338  26.021  36.373  1.00  0.00     0.124 S 
ATOM     50  O   UNL A   1      40.554  25.805  35.158  1.00  0.00    -0.237 OA
ATOM     51  O   UNL A   1      41.273  24.957  37.368  1.00  0.00    -0.237 OA
ATOM     52  O   UNL A   1      41.289  27.379  36.908  1.00  0.00    -0.744 OA
ENDBRANCH  45  49
ENDBRANCH  28  42
BRANCH  29  53
ATOM     53  C   UNL A   1      47.906  33.217  27.108  1.00  0.00     0.023 A 
ATOM     54  C   UNL A   1      49.258  33.521  26.870  1.00  0.00     0.031 A 
ATOM     55  C   UNL A   1      46.953  33.946  26.368  1.00  0.00     0.131 A 
ATOM     56  C   UNL A   1      49.606  34.558  25.985  1.00  0.00     0.055 A 
ATOM     57  C   UNL A   1      47.308  34.895  25.408  1.00  0.00     0.041 A 
ATOM     58  F   UNL A   1      45.638  33.769  26.575  1.00  0.00    -0.206 F 
ATOM     59  C   UNL A   1      48.643  35.226  25.230  1.00  0.00     0.022 A 
BRANCH  56  60
ATOM     60  S   UNL A   1      51.321  35.158  25.977  1.00  0.00     0.124 S 
ATOM     61  O   UNL A   1      51.261  36.229  26.965  1.00  0.00    -0.237 OA
ATOM     62  O   UNL A   1      52.060  33.963  26.370  1.00  0.00    -0.237 OA
ATOM     63  O   UNL A   1      51.523  35.593  24.597  1.00  0.00    -0.744 OA
ENDBRANCH  56  60
ENDBRANCH  29  53
BRANCH  41  64
ATOM     64  C   UNL A   1      45.950  33.896  33.772  1.00  0.00     0.023 A 
ATOM     65  C   UNL A   1      44.756  34.632  33.778  1.00  0.00     0.031 A 
ATOM     66  C   UNL A   1      47.001  34.307  34.608  1.00  0.00     0.131 A 
ATOM     67  C   UNL A   1      44.661  35.783  34.567  1.00  0.00     0.055 A 
ATOM     68  C   UNL A   1      46.871  35.405  35.453  1.00  0.00     0.041 A 
ATOM     69  F   UNL A   1      48.163  33.634  34.627  1.00  0.00    -0.206 F 
ATOM     70  C   UNL A   1      45.700  36.159  35.425  1.00  0.00     0.022 A 
BRANCH  67  71
ATOM     71  S   UNL A   1      43.207  36.844  34.374  1.00  0.00     0.124 S 
ATOM     72  O   UNL A   1      42.321  36.330  35.413  1.00  0.00    -0.237 OA
ATOM     73  O   UNL A   1      43.756  38.177  34.608  1.00  0.00    -0.237 OA
ATOM     74  O   UNL A   1      42.773  36.584  33.004  1.00  0.00    -0.744 OA
ENDBRANCH  67  71
ENDBRANCH  41  64
ENDBRANCH  15  16
ENDBRANCH   8  10
ENDBRANCH   7   8
ENDBRANCH   6   7
ENDBRANCH   5   6
ENDBRANCH   4   5
ENDBRANCH   3   4
ENDBRANCH   2   3
ENDBRANCH   1   2
BRANCH   1  75
ATOM     75  C   UNL A   1      41.168  27.631  28.168  1.00  0.00     0.188 C 
BRANCH  75  76
ATOM     76  C   UNL A   1      39.619  28.323  27.838  1.00  0.00     0.188 C 
BRANCH  76  77
ATOM     77  O   UNL A   1      38.582  28.221  29.063  1.00  0.00    -0.376 OA
BRANCH  77  78
ATOM     78  C   UNL A   1      38.612  28.608  31.027  1.00  0.00     0.202 C 
BRANCH  78  79
ATOM     79  C   UNL A   1      37.351  29.431  32.067  1.00  0.00     0.261 C 
BRANCH  79  80
ATOM     80  O   UNL A   1      37.696  30.686  32.836  1.00  0.00    -0.463 OA
BRANCH  80  81
ATOM     81  C   UNL A   1      37.616  31.908  32.229  1.00  0.00     0.310 C 
ATOM     82  O   UNL A   1      38.311  32.166  31.242  1.00  0.00    -0.252 OA
BRANCH  81  83
ATOM     83  C   UNL A   1      36.556  33.003  32.738  1.00  0.00     0.117 C 
ATOM     84  C   UNL A   1      36.044  33.749  31.504  1.00  0.00     0.017 C 
ATOM     85  C   UNL A   1      36.396  33.835  34.113  1.00  0.00     0.084 C 
ATOM     86  C   UNL A   1      34.731  34.469  31.784  1.00  0.00     0.001 C 
ATOM     87  C   UNL A   1      35.195  34.770  34.198  1.00  0.00     0.021 C 
ATOM     88  C   UNL A   1      34.904  35.485  32.900  1.00  0.00     0.002 C 
BRANCH  85  89
ATOM     89  N   UNL A   1      37.581  34.568  34.657  1.00  0.00    -0.207 NA
ATOM     90  H   UNL A   1      37.241  35.396  35.148  1.00  0.00     0.141 HD
BRANCH  89  91
ATOM     91  S   UNL A   1      38.752  33.511  35.948  1.00  0.00     0.240 S 
ATOM     92  O   UNL A   1      39.304  34.762  36.463  1.00  0.00    -0.207 OA
ATOM     93  O   UNL A   1      37.793  32.838  36.809  1.00  0.00    -0.207 OA
BRANCH  91  94
ATOM     94  C   UNL A   1      40.246  32.078  34.683  1.00  0.00     0.083 A 
ATOM     95  C   UNL A   1      40.381  30.309  34.665  1.00  0.00     0.022 A 
ATOM     96  C   UNL A   1      41.410  32.959  33.403  1.00  0.00     0.030 A 
ATOM     97  C   UNL A   1      41.437  29.511  33.447  1.00  0.00     0.010 A 
ATOM     98  C   UNL A   1      42.320  32.110  32.097  1.00  0.00    -0.017 A 
ATOM     99  C   UNL A   1      42.324  30.362  32.123  1.00  0.00    -0.018 A 
ATOM    100  C   UNL A   1      42.854  32.762  30.998  1.00  0.00     0.009 A 
ATOM    101  C   UNL A   1      42.975  29.794  31.029  1.00  0.00     0.009 A 
ATOM    102  C   UNL A   1      43.350  32.012  29.935  1.00  0.00     0.001 A 
ATOM    103  C   UNL A   1      43.430  30.599  29.962  1.00  0.00     0.001 A 
ENDBRANCH  91  94
ENDBRANCH  89  91
ENDBRANCH  85  89
ENDBRANCH  81  83
ENDBRANCH  80  81
ENDBRANCH  79  80
ENDBRANCH  78  79
ENDBRANCH  77  78
ENDBRANCH  76  77
ENDBRANCH  75  76
ENDBRANCH   1  75
TORSDOF 26
ENDMDL
