MODEL 1
REMARK VINA RESULT:      -8.8      0.000      0.000
REMARK SMILES COc1cc(OC)cc(-c2ccc([C@@H](C)C(=O)OCCOCCOCCOCCOC(=O)c3ccc(-c4c5nc(c(-c6cc(S(=O)(=O)[O-])ccc6F)c6ccc([nH]6)c(-c6cc(S(=O)(=O)[O-])ccc6F)c6nc(c(-c7cc(S(=O)(=O)[O-])ccc7F)c7ccc4[nH]7)C=C6)C=C5)cc3)cc2F)c1
REMARK SMILES IDX 24 1 23 2 22 3 21 4 20 5 19 6 18 7 16 8 17 9 14 10 15 11
REMARK SMILES IDX 13 12 10 13 11 14 97 15 12 16 96 17 98 18 9 19 3 20 4 21
REMARK SMILES IDX 99 22 5 23 8 24 2 25 1 26 6 27 7 28 25 29 26 30 27 31 28 32
REMARK SMILES IDX 29 33 30 34 31 35 32 36 33 37 34 38 95 39 35 40 94 41 36 42
REMARK SMILES IDX 37 43 38 44 88 45 39 46 93 47 87 48 89 49 40 50 92 51 86 52
REMARK SMILES IDX 85 53 41 55 73 56 53 57 72 58 54 59 57 60 71 61 90 62 55 63
REMARK SMILES IDX 56 64 70 66 91 67 58 68 42 69 43 70 51 71 44 72 50 73 52 74
REMARK SMILES IDX 49 75 45 76 46 77 47 78 48 79 74 80 75 81 83 82 76 83 82 84
REMARK SMILES IDX 84 85 81 86 77 87 78 88 79 89 80 90 59 91 60 92 68 93 61 94
REMARK SMILES IDX 67 95 69 96 66 97 62 98 63 99 64 100 65 101
REMARK H PARENT 89 54 57 65
REMARK Flexibility Score: inf
ROOT
ATOM      1  O   UNL A   1      34.795  25.018  25.714  1.00  0.00    -0.377 OA
ENDROOT
BRANCH   1   2
ATOM      2  C   UNL A   1      34.094  26.103  25.147  1.00  0.00     0.188 C 
BRANCH   2   3
ATOM      3  C   UNL A   1      33.572  27.147  26.142  1.00  0.00     0.188 C 
BRANCH   3   4
ATOM      4  O   UNL A   1      32.189  27.461  26.228  1.00  0.00    -0.376 OA
BRANCH   4   5
ATOM      5  C   UNL A   1      31.761  28.787  26.503  1.00  0.00     0.202 C 
BRANCH   5   6
ATOM      6  C   UNL A   1      31.818  29.883  25.421  1.00  0.00     0.261 C 
BRANCH   6   7
ATOM      7  O   UNL A   1      31.547  29.476  24.063  1.00  0.00    -0.463 OA
BRANCH   7   8
ATOM      8  C   UNL A   1      30.262  29.554  23.653  1.00  0.00     0.313 C 
ATOM      9  O   UNL A   1      29.568  30.563  23.780  1.00  0.00    -0.252 OA
BRANCH   8  10
ATOM     10  C   UNL A   1      29.683  28.285  23.028  1.00  0.00     0.126 C 
ATOM     11  C   UNL A   1      28.163  28.347  23.127  1.00  0.00     0.025 C 
BRANCH  10  12
ATOM     12  C   UNL A   1      30.209  26.901  23.410  1.00  0.00    -0.031 A 
ATOM     13  C   UNL A   1      31.312  24.327  24.052  1.00  0.00     0.018 A 
ATOM     14  C   UNL A   1      30.293  24.909  24.828  1.00  0.00     0.012 A 
ATOM     15  C   UNL A   1      31.771  25.066  22.957  1.00  0.00     0.131 A 
ATOM     16  C   UNL A   1      29.747  26.171  24.513  1.00  0.00     0.005 A 
ATOM     17  C   UNL A   1      31.226  26.314  22.629  1.00  0.00     0.044 A 
ATOM     18  F   UNL A   1      32.742  24.575  22.169  1.00  0.00    -0.206 F 
BRANCH  13  19
ATOM     19  C   UNL A   1      31.787  22.952  24.313  1.00  0.00    -0.008 A 
ATOM     20  C   UNL A   1      32.793  21.240  25.729  1.00  0.00     0.123 A 
ATOM     21  C   UNL A   1      32.817  20.356  24.651  1.00  0.00     0.092 A 
ATOM     22  C   UNL A   1      32.296  22.540  25.560  1.00  0.00     0.055 A 
ATOM     23  C   UNL A   1      32.327  20.745  23.406  1.00  0.00     0.123 A 
ATOM     24  C   UNL A   1      31.800  22.027  23.252  1.00  0.00     0.055 A 
BRANCH  20  25
ATOM     25  O   UNL A   1      33.376  20.779  26.880  1.00  0.00    -0.497 OA
ATOM     26  C   UNL A   1      34.162  21.741  27.574  1.00  0.00     0.278 C 
ENDBRANCH  20  25
BRANCH  23  27
ATOM     27  O   UNL A   1      32.431  19.801  22.420  1.00  0.00    -0.497 OA
ATOM     28  C   UNL A   1      31.701  20.055  21.225  1.00  0.00     0.278 C 
ENDBRANCH  23  27
ENDBRANCH  13  19
ENDBRANCH  10  12
ENDBRANCH   8  10
ENDBRANCH   7   8
ENDBRANCH   6   7
ENDBRANCH   5   6
ENDBRANCH   4   5
ENDBRANCH   3   4
ENDBRANCH   2   3
ENDBRANCH   1   2
BRANCH   1  29
ATOM     29  C   UNL A   1      35.583  24.234  24.833  1.00  0.00     0.188 C 
BRANCH  29  30
ATOM     30  C   UNL A   1      36.723  23.409  25.457  1.00  0.00     0.188 C 
BRANCH  30  31
ATOM     31  O   UNL A   1      36.624  22.010  25.211  1.00  0.00    -0.376 OA
BRANCH  31  32
ATOM     32  C   UNL A   1      37.807  21.290  24.892  1.00  0.00     0.202 C 
BRANCH  32  33
ATOM     33  C   UNL A   1      38.823  21.011  26.015  1.00  0.00     0.261 C 
BRANCH  33  34
ATOM     34  O   UNL A   1      40.215  21.177  25.706  1.00  0.00    -0.460 OA
BRANCH  34  35
ATOM     35  C   UNL A   1      41.109  21.046  26.708  1.00  0.00     0.338 C 
ATOM     36  O   UNL A   1      41.550  19.997  27.151  1.00  0.00    -0.246 OA
BRANCH  35  37
ATOM     37  C   UNL A   1      41.628  22.391  27.043  1.00  0.00     0.060 A 
ATOM     38  C   UNL A   1      41.756  22.750  28.392  1.00  0.00     0.016 A 
ATOM     39  C   UNL A   1      41.987  23.294  26.040  1.00  0.00     0.016 A 
ATOM     40  C   UNL A   1      42.206  24.024  28.742  1.00  0.00     0.010 A 
ATOM     41  C   UNL A   1      42.412  24.580  26.391  1.00  0.00     0.010 A 
ATOM     42  C   UNL A   1      42.490  24.963  27.743  1.00  0.00    -0.014 A 
BRANCH  42  43
ATOM     43  C   UNL A   1      42.656  26.394  28.106  1.00  0.00     0.031 A 
ATOM     44  C   UNL A   1      44.047  26.973  28.097  1.00  0.00     0.074 A 
ATOM     45  C   UNL A   1      41.603  27.174  28.408  1.00  0.00     0.049 A 
ATOM     46  N   UNL A   1      44.455  28.168  28.431  1.00  0.00    -0.248 NA
ATOM     47  C   UNL A   1      45.119  26.070  27.653  1.00  0.00     0.031 C 
ATOM     48  C   UNL A   1      40.205  26.749  28.393  1.00  0.00     0.029 A 
ATOM     49  N   UNL A   1      41.549  28.492  28.794  1.00  0.00    -0.354 N 
ATOM     50  C   UNL A   1      45.835  28.160  28.248  1.00  0.00     0.074 A 
ATOM     51  C   UNL A   1      46.192  26.827  27.812  1.00  0.00     0.031 C 
ATOM     52  C   UNL A   1      39.432  27.783  28.767  1.00  0.00     0.029 A 
ATOM     53  C   UNL A   1      40.280  28.929  29.091  1.00  0.00     0.049 A 
ATOM     54  H   UNL A   1      42.345  29.068  28.852  1.00  0.00     0.167 HD
ATOM     55  C   UNL A   1      46.720  29.173  28.423  1.00  0.00     0.034 A 
ATOM     56  C   UNL A   1      39.858  30.107  29.597  1.00  0.00     0.034 A 
ATOM     57  C   UNL A   1      46.348  30.490  28.877  1.00  0.00     0.049 A 
ATOM     58  C   UNL A   1      40.872  31.191  29.884  1.00  0.00     0.074 A 
ATOM     59  C   UNL A   1      47.159  31.594  29.075  1.00  0.00     0.029 A 
ATOM     60  N   UNL A   1      45.060  30.881  29.221  1.00  0.00    -0.354 N 
ATOM     61  N   UNL A   1      42.174  31.175  29.705  1.00  0.00    -0.248 NA
ATOM     62  C   UNL A   1      40.359  32.451  30.436  1.00  0.00     0.031 C 
ATOM     63  C   UNL A   1      46.380  32.618  29.624  1.00  0.00     0.029 A 
ATOM     64  C   UNL A   1      45.062  32.191  29.673  1.00  0.00     0.049 A 
ATOM     65  H   UNL A   1      44.260  30.309  29.155  1.00  0.00     0.167 HD
ATOM     66  C   UNL A   1      42.628  32.436  30.089  1.00  0.00     0.074 A 
ATOM     67  C   UNL A   1      41.459  33.188  30.499  1.00  0.00     0.031 C 
ATOM     68  C   UNL A   1      43.893  32.931  30.093  1.00  0.00     0.034 A 
BRANCH  55  69
ATOM     69  C   UNL A   1      48.180  28.863  28.188  1.00  0.00     0.023 A 
ATOM     70  C   UNL A   1      48.725  28.783  26.894  1.00  0.00     0.031 A 
ATOM     71  C   UNL A   1      49.033  28.603  29.276  1.00  0.00     0.131 A 
ATOM     72  C   UNL A   1      50.054  28.367  26.719  1.00  0.00     0.055 A 
ATOM     73  C   UNL A   1      50.379  28.281  29.098  1.00  0.00     0.041 A 
ATOM     74  F   UNL A   1      48.567  28.638  30.534  1.00  0.00    -0.206 F 
ATOM     75  C   UNL A   1      50.893  28.144  27.812  1.00  0.00     0.022 A 
BRANCH  72  76
ATOM     76  S   UNL A   1      50.619  27.958  25.044  1.00  0.00     0.124 S 
ATOM     77  O   UNL A   1      51.732  28.888  24.872  1.00  0.00    -0.237 OA
ATOM     78  O   UNL A   1      50.977  26.550  25.166  1.00  0.00    -0.237 OA
ATOM     79  O   UNL A   1      49.451  28.236  24.211  1.00  0.00    -0.744 OA
ENDBRANCH  72  76
ENDBRANCH  55  69
BRANCH  56  80
ATOM     80  C   UNL A   1      38.414  30.316  29.914  1.00  0.00     0.023 A 
ATOM     81  C   UNL A   1      37.542  30.920  28.993  1.00  0.00     0.031 A 
ATOM     82  C   UNL A   1      37.895  29.956  31.171  1.00  0.00     0.131 A 
ATOM     83  C   UNL A   1      36.212  31.182  29.357  1.00  0.00     0.055 A 
ATOM     84  C   UNL A   1      36.556  30.167  31.507  1.00  0.00     0.041 A 
ATOM     85  F   UNL A   1      38.684  29.383  32.094  1.00  0.00    -0.206 F 
ATOM     86  C   UNL A   1      35.708  30.793  30.601  1.00  0.00     0.022 A 
BRANCH  83  87
ATOM     87  S   UNL A   1      35.162  32.116  28.208  1.00  0.00     0.124 S 
ATOM     88  O   UNL A   1      36.130  33.016  27.591  1.00  0.00    -0.237 OA
ATOM     89  O   UNL A   1      34.632  31.059  27.354  1.00  0.00    -0.237 OA
ATOM     90  O   UNL A   1      34.184  32.756  29.086  1.00  0.00    -0.744 OA
ENDBRANCH  83  87
ENDBRANCH  56  80
BRANCH  68  91
ATOM     91  C   UNL A   1      44.075  34.375  30.504  1.00  0.00     0.023 A 
ATOM     92  C   UNL A   1      44.240  34.756  31.846  1.00  0.00     0.031 A 
ATOM     93  C   UNL A   1      44.085  35.388  29.527  1.00  0.00     0.131 A 
ATOM     94  C   UNL A   1      44.348  36.115  32.181  1.00  0.00     0.055 A 
ATOM     95  C   UNL A   1      44.265  36.732  29.859  1.00  0.00     0.041 A 
ATOM     96  F   UNL A   1      43.927  35.088  28.228  1.00  0.00    -0.206 F 
ATOM     97  C   UNL A   1      44.384  37.103  31.194  1.00  0.00     0.022 A 
BRANCH  94  98
ATOM     98  S   UNL A   1      44.335  36.586  33.932  1.00  0.00     0.124 S 
ATOM     99  O   UNL A   1      45.464  37.509  34.005  1.00  0.00    -0.237 OA
ATOM    100  O   UNL A   1      43.012  37.183  34.087  1.00  0.00    -0.237 OA
ATOM    101  O   UNL A   1      44.527  35.316  34.631  1.00  0.00    -0.744 OA
ENDBRANCH  94  98
ENDBRANCH  68  91
ENDBRANCH  42  43
ENDBRANCH  35  37
ENDBRANCH  34  35
ENDBRANCH  33  34
ENDBRANCH  32  33
ENDBRANCH  31  32
ENDBRANCH  30  31
ENDBRANCH  29  30
ENDBRANCH   1  29
TORSDOF 27
ENDMDL
MODEL 2
REMARK VINA RESULT:      -8.4      1.715      2.322
REMARK SMILES COc1cc(OC)cc(-c2ccc([C@@H](C)C(=O)OCCOCCOCCOCCOC(=O)c3ccc(-c4c5nc(c(-c6cc(S(=O)(=O)[O-])ccc6F)c6ccc([nH]6)c(-c6cc(S(=O)(=O)[O-])ccc6F)c6nc(c(-c7cc(S(=O)(=O)[O-])ccc7F)c7ccc4[nH]7)C=C6)C=C5)cc3)cc2F)c1
REMARK SMILES IDX 24 1 23 2 22 3 21 4 20 5 19 6 18 7 16 8 17 9 14 10 15 11
REMARK SMILES IDX 13 12 10 13 11 14 97 15 12 16 96 17 98 18 9 19 3 20 4 21
REMARK SMILES IDX 99 22 5 23 8 24 2 25 1 26 6 27 7 28 25 29 26 30 27 31 28 32
REMARK SMILES IDX 29 33 30 34 31 35 32 36 33 37 34 38 95 39 35 40 94 41 36 42
REMARK SMILES IDX 37 43 38 44 88 45 39 46 93 47 87 48 89 49 40 50 92 51 86 52
REMARK SMILES IDX 85 53 41 55 73 56 53 57 72 58 54 59 57 60 71 61 90 62 55 63
REMARK SMILES IDX 56 64 70 66 91 67 58 68 42 69 43 70 51 71 44 72 50 73 52 74
REMARK SMILES IDX 49 75 45 76 46 77 47 78 48 79 74 80 75 81 83 82 76 83 82 84
REMARK SMILES IDX 84 85 81 86 77 87 78 88 79 89 80 90 59 91 60 92 68 93 61 94
REMARK SMILES IDX 67 95 69 96 66 97 62 98 63 99 64 100 65 101
REMARK H PARENT 89 54 57 65
REMARK Flexibility Score: inf
ROOT
ATOM      1  O   UNL A   1      35.192  24.321  25.873  1.00  0.00    -0.377 OA
ENDROOT
BRANCH   1   2
ATOM      2  C   UNL A   1      34.159  25.115  25.330  1.00  0.00     0.188 C 
BRANCH   2   3
ATOM      3  C   UNL A   1      34.035  26.528  25.914  1.00  0.00     0.188 C 
BRANCH   3   4
ATOM      4  O   UNL A   1      32.769  27.087  26.237  1.00  0.00    -0.376 OA
BRANCH   4   5
ATOM      5  C   UNL A   1      32.640  28.470  26.536  1.00  0.00     0.202 C 
BRANCH   5   6
ATOM      6  C   UNL A   1      32.623  29.528  25.416  1.00  0.00     0.261 C 
BRANCH   6   7
ATOM      7  O   UNL A   1      32.220  29.084  24.103  1.00  0.00    -0.463 OA
BRANCH   7   8
ATOM      8  C   UNL A   1      30.914  29.231  23.789  1.00  0.00     0.313 C 
ATOM      9  O   UNL A   1      30.228  30.183  24.162  1.00  0.00    -0.252 OA
BRANCH   8  10
ATOM     10  C   UNL A   1      30.301  28.115  22.943  1.00  0.00     0.126 C 
ATOM     11  C   UNL A   1      28.783  28.235  23.011  1.00  0.00     0.025 C 
BRANCH  10  12
ATOM     12  C   UNL A   1      30.751  26.662  23.102  1.00  0.00    -0.031 A 
ATOM     13  C   UNL A   1      31.489  23.912  23.485  1.00  0.00     0.018 A 
ATOM     14  C   UNL A   1      31.971  24.662  22.396  1.00  0.00     0.012 A 
ATOM     15  C   UNL A   1      30.624  24.566  24.368  1.00  0.00     0.131 A 
ATOM     16  C   UNL A   1      31.613  26.013  22.208  1.00  0.00     0.005 A 
ATOM     17  C   UNL A   1      30.274  25.911  24.197  1.00  0.00     0.044 A 
ATOM     18  F   UNL A   1      30.124  23.915  25.431  1.00  0.00    -0.206 F 
BRANCH  13  19
ATOM     19  C   UNL A   1      31.969  22.539  23.745  1.00  0.00    -0.008 A 
ATOM     20  C   UNL A   1      32.284  20.200  23.126  1.00  0.00     0.123 A 
ATOM     21  C   UNL A   1      32.764  19.922  24.406  1.00  0.00     0.092 A 
ATOM     22  C   UNL A   1      31.871  21.499  22.800  1.00  0.00     0.055 A 
ATOM     23  C   UNL A   1      32.861  20.932  25.360  1.00  0.00     0.123 A 
ATOM     24  C   UNL A   1      32.484  22.231  25.019  1.00  0.00     0.055 A 
BRANCH  20  25
ATOM     25  O   UNL A   1      32.154  19.116  22.300  1.00  0.00    -0.497 OA
ATOM     26  C   UNL A   1      32.797  17.935  22.764  1.00  0.00     0.278 C 
ENDBRANCH  20  25
BRANCH  23  27
ATOM     27  O   UNL A   1      33.319  20.532  26.586  1.00  0.00    -0.497 OA
ATOM     28  C   UNL A   1      34.049  21.498  27.334  1.00  0.00     0.278 C 
ENDBRANCH  23  27
ENDBRANCH  13  19
ENDBRANCH  10  12
ENDBRANCH   8  10
ENDBRANCH   7   8
ENDBRANCH   6   7
ENDBRANCH   5   6
ENDBRANCH   4   5
ENDBRANCH   3   4
ENDBRANCH   2   3
ENDBRANCH   1   2
BRANCH   1  29
ATOM     29  C   UNL A   1      36.315  24.077  25.042  1.00  0.00     0.188 C 
BRANCH  29  30
ATOM     30  C   UNL A   1      37.624  23.660  25.737  1.00  0.00     0.188 C 
BRANCH  30  31
ATOM     31  O   UNL A   1      37.610  22.328  26.241  1.00  0.00    -0.376 OA
BRANCH  31  32
ATOM     32  C   UNL A   1      38.609  21.421  25.796  1.00  0.00     0.202 C 
BRANCH  32  33
ATOM     33  C   UNL A   1      40.026  21.540  26.387  1.00  0.00     0.261 C 
BRANCH  33  34
ATOM     34  O   UNL A   1      41.082  21.946  25.502  1.00  0.00    -0.460 OA
BRANCH  34  35
ATOM     35  C   UNL A   1      42.348  21.918  25.968  1.00  0.00     0.338 C 
ATOM     36  O   UNL A   1      43.130  20.985  25.881  1.00  0.00    -0.246 OA
BRANCH  35  37
ATOM     37  C   UNL A   1      42.704  23.282  26.419  1.00  0.00     0.060 A 
ATOM     38  C   UNL A   1      42.984  23.495  27.776  1.00  0.00     0.016 A 
ATOM     39  C   UNL A   1      42.763  24.346  25.515  1.00  0.00     0.016 A 
ATOM     40  C   UNL A   1      43.286  24.776  28.240  1.00  0.00     0.010 A 
ATOM     41  C   UNL A   1      43.039  25.635  25.986  1.00  0.00     0.010 A 
ATOM     42  C   UNL A   1      43.267  25.862  27.357  1.00  0.00    -0.014 A 
BRANCH  42  43
ATOM     43  C   UNL A   1      43.271  27.247  27.894  1.00  0.00     0.031 A 
ATOM     44  C   UNL A   1      44.594  27.950  28.039  1.00  0.00     0.074 A 
ATOM     45  C   UNL A   1      42.130  27.882  28.218  1.00  0.00     0.049 A 
ATOM     46  N   UNL A   1      44.863  29.128  28.535  1.00  0.00    -0.248 NA
ATOM     47  C   UNL A   1      45.773  27.212  27.560  1.00  0.00     0.031 C 
ATOM     48  C   UNL A   1      40.785  27.333  28.067  1.00  0.00     0.029 A 
ATOM     49  N   UNL A   1      41.925  29.131  28.752  1.00  0.00    -0.354 N 
ATOM     50  C   UNL A   1      46.244  29.271  28.439  1.00  0.00     0.074 A 
ATOM     51  C   UNL A   1      46.755  28.042  27.874  1.00  0.00     0.031 C 
ATOM     52  C   UNL A   1      39.893  28.236  28.511  1.00  0.00     0.029 A 
ATOM     53  C   UNL A   1      40.605  29.409  29.019  1.00  0.00     0.049 A 
ATOM     54  H   UNL A   1      42.655  29.768  28.926  1.00  0.00     0.167 HD
ATOM     55  C   UNL A   1      47.013  30.334  28.786  1.00  0.00     0.034 A 
ATOM     56  C   UNL A   1      40.041  30.471  29.631  1.00  0.00     0.034 A 
ATOM     57  C   UNL A   1      46.488  31.545  29.367  1.00  0.00     0.049 A 
ATOM     58  C   UNL A   1      40.926  31.601  30.106  1.00  0.00     0.074 A 
ATOM     59  C   UNL A   1      47.174  32.687  29.743  1.00  0.00     0.029 A 
ATOM     60  N   UNL A   1      45.152  31.768  29.674  1.00  0.00    -0.354 N 
ATOM     61  N   UNL A   1      42.231  31.729  30.008  1.00  0.00    -0.248 NA
ATOM     62  C   UNL A   1      40.262  32.732  30.769  1.00  0.00     0.031 C 
ATOM     63  C   UNL A   1      46.269  33.559  30.359  1.00  0.00     0.029 A 
ATOM     64  C   UNL A   1      45.000  33.008  30.275  1.00  0.00     0.049 A 
ATOM     65  H   UNL A   1      44.418  31.136  29.491  1.00  0.00     0.167 HD
ATOM     66  C   UNL A   1      42.535  32.971  30.564  1.00  0.00     0.074 A 
ATOM     67  C   UNL A   1      41.277  33.554  30.986  1.00  0.00     0.031 C 
ATOM     68  C   UNL A   1      43.743  33.578  30.705  1.00  0.00     0.034 A 
BRANCH  55  69
ATOM     69  C   UNL A   1      48.507  30.194  28.607  1.00  0.00     0.023 A 
ATOM     70  C   UNL A   1      49.309  29.517  29.543  1.00  0.00     0.031 A 
ATOM     71  C   UNL A   1      49.147  30.784  27.502  1.00  0.00     0.131 A 
ATOM     72  C   UNL A   1      50.706  29.523  29.403  1.00  0.00     0.055 A 
ATOM     73  C   UNL A   1      50.528  30.706  27.319  1.00  0.00     0.041 A 
ATOM     74  F   UNL A   1      48.439  31.467  26.587  1.00  0.00    -0.206 F 
ATOM     75  C   UNL A   1      51.318  30.087  28.283  1.00  0.00     0.022 A 
BRANCH  72  76
ATOM     76  S   UNL A   1      51.717  28.933  30.789  1.00  0.00     0.124 S 
ATOM     77  O   UNL A   1      52.114  30.189  31.421  1.00  0.00    -0.237 OA
ATOM     78  O   UNL A   1      50.775  28.111  31.540  1.00  0.00    -0.237 OA
ATOM     79  O   UNL A   1      52.801  28.203  30.137  1.00  0.00    -0.744 OA
ENDBRANCH  72  76
ENDBRANCH  55  69
BRANCH  56  80
ATOM     80  C   UNL A   1      38.569  30.503  29.880  1.00  0.00     0.023 A 
ATOM     81  C   UNL A   1      37.715  31.309  29.111  1.00  0.00     0.031 A 
ATOM     82  C   UNL A   1      38.002  29.761  30.932  1.00  0.00     0.131 A 
ATOM     83  C   UNL A   1      36.349  31.384  29.429  1.00  0.00     0.055 A 
ATOM     84  C   UNL A   1      36.634  29.794  31.207  1.00  0.00     0.041 A 
ATOM     85  F   UNL A   1      38.772  28.979  31.705  1.00  0.00    -0.206 F 
ATOM     86  C   UNL A   1      35.800  30.619  30.460  1.00  0.00     0.022 A 
BRANCH  83  87
ATOM     87  S   UNL A   1      35.308  32.564  28.525  1.00  0.00     0.124 S 
ATOM     88  O   UNL A   1      34.310  31.682  27.931  1.00  0.00    -0.237 OA
ATOM     89  O   UNL A   1      34.839  33.436  29.597  1.00  0.00    -0.237 OA
ATOM     90  O   UNL A   1      36.237  33.183  27.582  1.00  0.00    -0.744 OA
ENDBRANCH  83  87
ENDBRANCH  56  80
BRANCH  68  91
ATOM     91  C   UNL A   1      43.758  34.972  31.292  1.00  0.00     0.023 A 
ATOM     92  C   UNL A   1      43.766  35.199  32.679  1.00  0.00     0.031 A 
ATOM     93  C   UNL A   1      43.765  36.093  30.442  1.00  0.00     0.131 A 
ATOM     94  C   UNL A   1      43.722  36.511  33.174  1.00  0.00     0.055 A 
ATOM     95  C   UNL A   1      43.795  37.397  30.940  1.00  0.00     0.041 A 
ATOM     96  F   UNL A   1      43.752  35.941  29.108  1.00  0.00    -0.206 F 
ATOM     97  C   UNL A   1      43.759  37.612  32.313  1.00  0.00     0.022 A 
BRANCH  94  98
ATOM     98  S   UNL A   1      43.510  36.765  34.957  1.00  0.00     0.124 S 
ATOM     99  O   UNL A   1      43.569  38.220  35.065  1.00  0.00    -0.237 OA
ATOM    100  O   UNL A   1      42.206  36.160  35.207  1.00  0.00    -0.237 OA
ATOM    101  O   UNL A   1      44.646  36.055  35.543  1.00  0.00    -0.744 OA
ENDBRANCH  94  98
ENDBRANCH  68  91
ENDBRANCH  42  43
ENDBRANCH  35  37
ENDBRANCH  34  35
ENDBRANCH  33  34
ENDBRANCH  32  33
ENDBRANCH  31  32
ENDBRANCH  30  31
ENDBRANCH  29  30
ENDBRANCH   1  29
TORSDOF 27
ENDMDL
MODEL 3
REMARK VINA RESULT:      -8.4      2.237      2.788
REMARK SMILES COc1cc(OC)cc(-c2ccc([C@@H](C)C(=O)OCCOCCOCCOCCOC(=O)c3ccc(-c4c5nc(c(-c6cc(S(=O)(=O)[O-])ccc6F)c6ccc([nH]6)c(-c6cc(S(=O)(=O)[O-])ccc6F)c6nc(c(-c7cc(S(=O)(=O)[O-])ccc7F)c7ccc4[nH]7)C=C6)C=C5)cc3)cc2F)c1
REMARK SMILES IDX 24 1 23 2 22 3 21 4 20 5 19 6 18 7 16 8 17 9 14 10 15 11
REMARK SMILES IDX 13 12 10 13 11 14 97 15 12 16 96 17 98 18 9 19 3 20 4 21
REMARK SMILES IDX 99 22 5 23 8 24 2 25 1 26 6 27 7 28 25 29 26 30 27 31 28 32
REMARK SMILES IDX 29 33 30 34 31 35 32 36 33 37 34 38 95 39 35 40 94 41 36 42
REMARK SMILES IDX 37 43 38 44 88 45 39 46 93 47 87 48 89 49 40 50 92 51 86 52
REMARK SMILES IDX 85 53 41 55 73 56 53 57 72 58 54 59 57 60 71 61 90 62 55 63
REMARK SMILES IDX 56 64 70 66 91 67 58 68 42 69 43 70 51 71 44 72 50 73 52 74
REMARK SMILES IDX 49 75 45 76 46 77 47 78 48 79 74 80 75 81 83 82 76 83 82 84
REMARK SMILES IDX 84 85 81 86 77 87 78 88 79 89 80 90 59 91 60 92 68 93 61 94
REMARK SMILES IDX 67 95 69 96 66 97 62 98 63 99 64 100 65 101
REMARK H PARENT 89 54 57 65
REMARK Flexibility Score: inf
ROOT
ATOM      1  O   UNL A   1      35.616  24.196  26.225  1.00  0.00    -0.377 OA
ENDROOT
BRANCH   1   2
ATOM      2  C   UNL A   1      34.407  24.777  25.785  1.00  0.00     0.188 C 
BRANCH   2   3
ATOM      3  C   UNL A   1      34.360  26.310  25.814  1.00  0.00     0.188 C 
BRANCH   3   4
ATOM      4  O   UNL A   1      33.196  27.008  26.234  1.00  0.00    -0.376 OA
BRANCH   4   5
ATOM      5  C   UNL A   1      33.107  28.419  26.102  1.00  0.00     0.202 C 
BRANCH   5   6
ATOM      6  C   UNL A   1      32.798  29.074  24.741  1.00  0.00     0.261 C 
BRANCH   6   7
ATOM      7  O   UNL A   1      32.204  28.231  23.731  1.00  0.00    -0.463 OA
BRANCH   7   8
ATOM      8  C   UNL A   1      30.859  28.282  23.614  1.00  0.00     0.313 C 
ATOM      9  O   UNL A   1      30.190  29.279  23.886  1.00  0.00    -0.252 OA
BRANCH   8  10
ATOM     10  C   UNL A   1      30.181  26.997  23.138  1.00  0.00     0.126 C 
ATOM     11  C   UNL A   1      28.736  27.003  23.623  1.00  0.00     0.025 C 
BRANCH  10  12
ATOM     12  C   UNL A   1      30.834  25.630  23.352  1.00  0.00    -0.031 A 
ATOM     13  C   UNL A   1      31.957  23.032  23.845  1.00  0.00     0.018 A 
ATOM     14  C   UNL A   1      32.290  23.777  22.698  1.00  0.00     0.012 A 
ATOM     15  C   UNL A   1      31.043  23.613  24.730  1.00  0.00     0.131 A 
ATOM     16  C   UNL A   1      31.743  25.054  22.456  1.00  0.00     0.005 A 
ATOM     17  C   UNL A   1      30.505  24.887  24.504  1.00  0.00     0.044 A 
ATOM     18  F   UNL A   1      30.677  22.964  25.847  1.00  0.00    -0.206 F 
BRANCH  13  19
ATOM     19  C   UNL A   1      32.631  21.755  24.155  1.00  0.00    -0.008 A 
ATOM     20  C   UNL A   1      32.622  19.379  24.709  1.00  0.00     0.123 A 
ATOM     21  C   UNL A   1      34.003  19.415  24.903  1.00  0.00     0.092 A 
ATOM     22  C   UNL A   1      31.934  20.547  24.352  1.00  0.00     0.055 A 
ATOM     23  C   UNL A   1      34.713  20.600  24.721  1.00  0.00     0.123 A 
ATOM     24  C   UNL A   1      34.028  21.751  24.331  1.00  0.00     0.055 A 
BRANCH  20  25
ATOM     25  O   UNL A   1      32.020  18.183  24.996  1.00  0.00    -0.497 OA
ATOM     26  C   UNL A   1      32.912  17.152  25.403  1.00  0.00     0.278 C 
ENDBRANCH  20  25
BRANCH  23  27
ATOM     27  O   UNL A   1      36.056  20.517  24.968  1.00  0.00    -0.497 OA
ATOM     28  C   UNL A   1      36.652  19.236  24.798  1.00  0.00     0.278 C 
ENDBRANCH  23  27
ENDBRANCH  13  19
ENDBRANCH  10  12
ENDBRANCH   8  10
ENDBRANCH   7   8
ENDBRANCH   6   7
ENDBRANCH   5   6
ENDBRANCH   4   5
ENDBRANCH   3   4
ENDBRANCH   2   3
ENDBRANCH   1   2
BRANCH   1  29
ATOM     29  C   UNL A   1      36.590  23.919  25.232  1.00  0.00     0.188 C 
BRANCH  29  30
ATOM     30  C   UNL A   1      38.033  23.680  25.712  1.00  0.00     0.188 C 
BRANCH  30  31
ATOM     31  O   UNL A   1      38.216  22.442  26.393  1.00  0.00    -0.376 OA
BRANCH  31  32
ATOM     32  C   UNL A   1      39.274  21.588  25.978  1.00  0.00     0.202 C 
BRANCH  32  33
ATOM     33  C   UNL A   1      40.687  21.845  26.534  1.00  0.00     0.261 C 
BRANCH  33  34
ATOM     34  O   UNL A   1      41.673  22.360  25.626  1.00  0.00    -0.460 OA
BRANCH  34  35
ATOM     35  C   UNL A   1      42.956  22.407  26.041  1.00  0.00     0.338 C 
ATOM     36  O   UNL A   1      43.787  21.519  25.927  1.00  0.00    -0.246 OA
BRANCH  35  37
ATOM     37  C   UNL A   1      43.251  23.792  26.471  1.00  0.00     0.060 A 
ATOM     38  C   UNL A   1      43.610  24.025  27.806  1.00  0.00     0.016 A 
ATOM     39  C   UNL A   1      43.177  24.856  25.568  1.00  0.00     0.016 A 
ATOM     40  C   UNL A   1      43.858  25.324  28.252  1.00  0.00     0.010 A 
ATOM     41  C   UNL A   1      43.399  26.161  26.023  1.00  0.00     0.010 A 
ATOM     42  C   UNL A   1      43.706  26.405  27.375  1.00  0.00    -0.014 A 
BRANCH  42  43
ATOM     43  C   UNL A   1      43.655  27.788  27.915  1.00  0.00     0.031 A 
ATOM     44  C   UNL A   1      44.938  28.573  27.981  1.00  0.00     0.074 A 
ATOM     45  C   UNL A   1      42.499  28.350  28.311  1.00  0.00     0.049 A 
ATOM     46  N   UNL A   1      45.162  29.767  28.464  1.00  0.00    -0.248 NA
ATOM     47  C   UNL A   1      46.130  27.911  27.429  1.00  0.00     0.031 C 
ATOM     48  C   UNL A   1      41.184  27.717  28.240  1.00  0.00     0.029 A 
ATOM     49  N   UNL A   1      42.248  29.585  28.859  1.00  0.00    -0.354 N 
ATOM     50  C   UNL A   1      46.523  29.997  28.284  1.00  0.00     0.074 A 
ATOM     51  C   UNL A   1      47.075  28.801  27.684  1.00  0.00     0.031 C 
ATOM     52  C   UNL A   1      40.266  28.563  28.740  1.00  0.00     0.029 A 
ATOM     53  C   UNL A   1      40.932  29.778  29.207  1.00  0.00     0.049 A 
ATOM     54  H   UNL A   1      42.946  30.267  28.991  1.00  0.00     0.167 HD
ATOM     55  C   UNL A   1      47.243  31.106  28.586  1.00  0.00     0.034 A 
ATOM     56  C   UNL A   1      40.341  30.803  29.856  1.00  0.00     0.034 A 
ATOM     57  C   UNL A   1      46.679  32.282  29.201  1.00  0.00     0.049 A 
ATOM     58  C   UNL A   1      41.180  31.988  30.279  1.00  0.00     0.074 A 
ATOM     59  C   UNL A   1      47.313  33.466  29.538  1.00  0.00     0.029 A 
ATOM     60  N   UNL A   1      45.353  32.421  29.590  1.00  0.00    -0.354 N 
ATOM     61  N   UNL A   1      42.466  32.198  30.102  1.00  0.00    -0.248 NA
ATOM     62  C   UNL A   1      40.488  33.075  30.984  1.00  0.00     0.031 C 
ATOM     63  C   UNL A   1      46.395  34.279  30.210  1.00  0.00     0.029 A 
ATOM     64  C   UNL A   1      45.160  33.649  30.202  1.00  0.00     0.049 A 
ATOM     65  H   UNL A   1      44.650  31.744  29.451  1.00  0.00     0.167 HD
ATOM     66  C   UNL A   1      42.725  33.457  30.642  1.00  0.00     0.074 A 
ATOM     67  C   UNL A   1      41.461  33.960  31.141  1.00  0.00     0.031 C 
ATOM     68  C   UNL A   1      43.898  34.139  30.710  1.00  0.00     0.034 A 
BRANCH  55  69
ATOM     69  C   UNL A   1      48.729  31.060  28.316  1.00  0.00     0.023 A 
ATOM     70  C   UNL A   1      49.623  30.403  29.179  1.00  0.00     0.031 A 
ATOM     71  C   UNL A   1      49.266  31.723  27.197  1.00  0.00     0.131 A 
ATOM     72  C   UNL A   1      51.006  30.495  28.958  1.00  0.00     0.055 A 
ATOM     73  C   UNL A   1      50.636  31.732  26.932  1.00  0.00     0.041 A 
ATOM     74  F   UNL A   1      48.468  32.392  26.350  1.00  0.00    -0.206 F 
ATOM     75  C   UNL A   1      51.517  31.131  27.825  1.00  0.00     0.022 A 
BRANCH  72  76
ATOM     76  S   UNL A   1      52.131  29.921  30.261  1.00  0.00     0.124 S 
ATOM     77  O   UNL A   1      52.036  28.471  30.116  1.00  0.00    -0.237 OA
ATOM     78  O   UNL A   1      53.401  30.520  29.869  1.00  0.00    -0.237 OA
ATOM     79  O   UNL A   1      51.539  30.457  31.485  1.00  0.00    -0.744 OA
ENDBRANCH  72  76
ENDBRANCH  55  69
BRANCH  56  80
ATOM     80  C   UNL A   1      38.888  30.743  30.194  1.00  0.00     0.023 A 
ATOM     81  C   UNL A   1      37.914  31.279  29.337  1.00  0.00     0.031 A 
ATOM     82  C   UNL A   1      38.457  30.189  31.413  1.00  0.00     0.131 A 
ATOM     83  C   UNL A   1      36.565  31.285  29.726  1.00  0.00     0.055 A 
ATOM     84  C   UNL A   1      37.108  30.146  31.770  1.00  0.00     0.041 A 
ATOM     85  F   UNL A   1      39.344  29.669  32.276  1.00  0.00    -0.206 F 
ATOM     86  C   UNL A   1      36.153  30.706  30.929  1.00  0.00     0.022 A 
BRANCH  83  87
ATOM     87  S   UNL A   1      35.358  32.138  28.673  1.00  0.00     0.124 S 
ATOM     88  O   UNL A   1      36.214  33.048  27.921  1.00  0.00    -0.237 OA
ATOM     89  O   UNL A   1      34.778  31.031  27.919  1.00  0.00    -0.237 OA
ATOM     90  O   UNL A   1      34.459  32.774  29.633  1.00  0.00    -0.744 OA
ENDBRANCH  83  87
ENDBRANCH  56  80
BRANCH  68  91
ATOM     91  C   UNL A   1      43.861  35.532  31.299  1.00  0.00     0.023 A 
ATOM     92  C   UNL A   1      43.843  36.684  30.495  1.00  0.00     0.031 A 
ATOM     93  C   UNL A   1      43.840  35.704  32.696  1.00  0.00     0.131 A 
ATOM     94  C   UNL A   1      43.866  37.955  31.091  1.00  0.00     0.055 A 
ATOM     95  C   UNL A   1      43.790  36.970  33.283  1.00  0.00     0.041 A 
ATOM     96  F   UNL A   1      43.860  34.642  33.517  1.00  0.00    -0.206 F 
ATOM     97  C   UNL A   1      43.817  38.104  32.479  1.00  0.00     0.022 A 
BRANCH  94  98
ATOM     98  S   UNL A   1      44.068  39.412  30.031  1.00  0.00     0.124 S 
ATOM     99  O   UNL A   1      45.126  38.982  29.122  1.00  0.00    -0.237 OA
ATOM    100  O   UNL A   1      42.741  39.557  29.441  1.00  0.00    -0.237 OA
ATOM    101  O   UNL A   1      44.448  40.469  30.968  1.00  0.00    -0.744 OA
ENDBRANCH  94  98
ENDBRANCH  68  91
ENDBRANCH  42  43
ENDBRANCH  35  37
ENDBRANCH  34  35
ENDBRANCH  33  34
ENDBRANCH  32  33
ENDBRANCH  31  32
ENDBRANCH  30  31
ENDBRANCH  29  30
ENDBRANCH   1  29
TORSDOF 27
ENDMDL
