MODEL 1
REMARK VINA RESULT:      -8.4      0.000      0.000
REMARK SMILES CC[C@H](C(=O)NCc1ccc(C(=O)OCCOCCOCCOCCOC(=O)c2ccc(-c3c4nc(c(-c5cc(S(=O)(=O)[O-])ccc5F)c5ccc([nH]5)c(-c5cc(S(=O)(=O)[O-])ccc5F)c5nc(c(-c6cc(S(=O)(=O)[O-])ccc6F)c6ccc3[nH]6)C=C5)C=C4)cc2)o1)c1ccccc1
REMARK SMILES IDX 19 1 18 2 17 3 16 4 15 5 14 6 12 7 13 8 11 9 8 10 9 11 92 12
REMARK SMILES IDX 10 13 7 14 6 15 4 16 5 17 3 19 2 20 1 21 93 22 94 23 98 24
REMARK SMILES IDX 95 25 97 26 96 27 20 28 21 29 22 30 23 31 24 32 25 33 26 34
REMARK SMILES IDX 27 35 28 36 29 37 30 38 91 39 31 40 90 41 32 42 33 43 34 44
REMARK SMILES IDX 84 45 35 46 89 47 83 48 85 49 36 50 88 51 82 52 81 53 37 55
REMARK SMILES IDX 69 56 49 57 68 58 50 59 53 60 67 61 86 62 51 63 52 64 66 66
REMARK SMILES IDX 87 67 54 68 38 69 39 70 47 71 40 72 46 73 48 74 45 75 41 76
REMARK SMILES IDX 42 77 43 78 44 79 70 80 71 81 79 82 72 83 78 84 80 85 77 86
REMARK SMILES IDX 73 87 74 88 75 89 76 90 55 91 56 92 64 93 57 94 63 95 65 96
REMARK SMILES IDX 62 97 58 98 59 99 60 100 61 101
REMARK H PARENT 6 18 85 54 53 65
REMARK Flexibility Score: inf
ROOT
ATOM      1  C   UNL A   1      50.898  20.135  34.316  1.00  0.00     0.188 C 
ENDROOT
BRANCH   1   2
ATOM      2  C   UNL A   1      49.485  20.451  33.800  1.00  0.00     0.188 C 
BRANCH   2   3
ATOM      3  O   UNL A   1      48.472  19.967  34.672  1.00  0.00    -0.376 OA
BRANCH   3   4
ATOM      4  C   UNL A   1      48.255  20.641  35.905  1.00  0.00     0.202 C 
BRANCH   4   5
ATOM      5  C   UNL A   1      47.977  19.869  37.210  1.00  0.00     0.261 C 
BRANCH   5   6
ATOM      6  O   UNL A   1      48.808  20.159  38.341  1.00  0.00    -0.457 OA
BRANCH   6   7
ATOM      7  C   UNL A   1      49.148  19.166  39.200  1.00  0.00     0.374 C 
ATOM      8  O   UNL A   1      50.285  18.733  39.350  1.00  0.00    -0.242 OA
BRANCH   7   9
ATOM      9  C   UNL A   1      47.973  18.825  39.980  1.00  0.00     0.211 A 
ATOM     10  C   UNL A   1      46.709  17.484  41.212  1.00  0.00     0.124 A 
ATOM     11  C   UNL A   1      46.206  18.758  41.379  1.00  0.00     0.048 A 
ATOM     12  O   UNL A   1      47.753  17.515  40.324  1.00  0.00    -0.452 OA
ATOM     13  C   UNL A   1      47.010  19.614  40.587  1.00  0.00     0.058 A 
BRANCH  10  14
ATOM     14  C   UNL A   1      46.336  16.160  41.792  1.00  0.00     0.191 C 
BRANCH  14  15
ATOM     15  N   UNL A   1      44.933  16.169  42.147  1.00  0.00    -0.348 N 
ATOM     16  C   UNL A   1      44.252  15.788  43.256  1.00  0.00     0.227 C 
ATOM     17  O   UNL A   1      43.033  16.001  43.252  1.00  0.00    -0.274 OA
ATOM     18  H   UNL A   1      44.352  16.526  41.437  1.00  0.00     0.163 HD
BRANCH  16  19
ATOM     19  C   UNL A   1      44.912  15.168  44.499  1.00  0.00     0.108 C 
BRANCH  19  20
ATOM     20  C   UNL A   1      44.549  15.858  45.832  1.00  0.00     0.015 C 
ATOM     21  C   UNL A   1      45.624  15.735  46.906  1.00  0.00     0.005 C 
ENDBRANCH  19  20
BRANCH  19  22
ATOM     22  C   UNL A   1      44.888  13.633  44.537  1.00  0.00    -0.036 A 
ATOM     23  C   UNL A   1      46.016  12.921  44.990  1.00  0.00     0.004 A 
ATOM     24  C   UNL A   1      43.824  12.885  44.006  1.00  0.00     0.004 A 
ATOM     25  C   UNL A   1      46.067  11.525  44.936  1.00  0.00     0.000 A 
ATOM     26  C   UNL A   1      43.876  11.487  43.951  1.00  0.00     0.000 A 
ATOM     27  C   UNL A   1      44.996  10.807  44.418  1.00  0.00     0.000 A 
ENDBRANCH  19  22
ENDBRANCH  16  19
ENDBRANCH  14  15
ENDBRANCH  10  14
ENDBRANCH   7   9
ENDBRANCH   6   7
ENDBRANCH   5   6
ENDBRANCH   4   5
ENDBRANCH   3   4
ENDBRANCH   2   3
ENDBRANCH   1   2
BRANCH   1  28
ATOM     28  O   UNL A   1      51.407  21.182  35.133  1.00  0.00    -0.377 OA
BRANCH  28  29
ATOM     29  C   UNL A   1      51.136  22.511  34.684  1.00  0.00     0.188 C 
BRANCH  29  30
ATOM     30  C   UNL A   1      50.523  23.523  35.672  1.00  0.00     0.188 C 
BRANCH  30  31
ATOM     31  O   UNL A   1      50.297  24.810  35.088  1.00  0.00    -0.376 OA
BRANCH  31  32
ATOM     32  C   UNL A   1      49.553  24.820  33.873  1.00  0.00     0.202 C 
BRANCH  32  33
ATOM     33  C   UNL A   1      48.036  24.923  34.084  1.00  0.00     0.261 C 
BRANCH  33  34
ATOM     34  O   UNL A   1      47.624  25.087  35.450  1.00  0.00    -0.460 OA
BRANCH  34  35
ATOM     35  C   UNL A   1      47.597  26.349  35.934  1.00  0.00     0.338 C 
ATOM     36  O   UNL A   1      48.458  26.895  36.599  1.00  0.00    -0.246 OA
BRANCH  35  37
ATOM     37  C   UNL A   1      46.416  27.027  35.365  1.00  0.00     0.060 A 
ATOM     38  C   UNL A   1      45.163  26.413  35.484  1.00  0.00     0.016 A 
ATOM     39  C   UNL A   1      46.549  28.253  34.708  1.00  0.00     0.016 A 
ATOM     40  C   UNL A   1      44.041  27.010  34.906  1.00  0.00     0.010 A 
ATOM     41  C   UNL A   1      45.427  28.841  34.120  1.00  0.00     0.010 A 
ATOM     42  C   UNL A   1      44.176  28.205  34.188  1.00  0.00    -0.014 A 
BRANCH  42  43
ATOM     43  C   UNL A   1      43.062  28.701  33.344  1.00  0.00     0.031 A 
ATOM     44  C   UNL A   1      42.074  29.654  33.960  1.00  0.00     0.074 A 
ATOM     45  C   UNL A   1      42.919  28.302  32.069  1.00  0.00     0.049 A 
ATOM     46  N   UNL A   1      40.981  30.163  33.455  1.00  0.00    -0.248 NA
ATOM     47  C   UNL A   1      42.358  30.080  35.339  1.00  0.00     0.031 C 
ATOM     48  C   UNL A   1      43.829  27.406  31.357  1.00  0.00     0.029 A 
ATOM     49  N   UNL A   1      41.941  28.589  31.150  1.00  0.00    -0.354 N 
ATOM     50  C   UNL A   1      40.446  30.971  34.452  1.00  0.00     0.074 A 
ATOM     51  C   UNL A   1      41.314  30.849  35.605  1.00  0.00     0.031 C 
ATOM     52  C   UNL A   1      43.356  27.204  30.114  1.00  0.00     0.029 A 
ATOM     53  C   UNL A   1      42.094  27.926  29.956  1.00  0.00     0.049 A 
ATOM     54  H   UNL A   1      41.200  29.212  31.331  1.00  0.00     0.167 HD
ATOM     55  C   UNL A   1      39.337  31.749  34.409  1.00  0.00     0.034 A 
ATOM     56  C   UNL A   1      41.292  27.887  28.872  1.00  0.00     0.034 A 
ATOM     57  C   UNL A   1      38.467  31.839  33.264  1.00  0.00     0.049 A 
ATOM     58  C   UNL A   1      40.013  28.694  28.875  1.00  0.00     0.074 A 
ATOM     59  C   UNL A   1      37.320  32.599  33.107  1.00  0.00     0.029 A 
ATOM     60  N   UNL A   1      38.639  31.132  32.080  1.00  0.00    -0.354 N 
ATOM     61  N   UNL A   1      39.524  29.466  29.818  1.00  0.00    -0.248 NA
ATOM     62  C   UNL A   1      39.184  28.628  27.663  1.00  0.00     0.031 C 
ATOM     63  C   UNL A   1      36.765  32.300  31.858  1.00  0.00     0.029 A 
ATOM     64  C   UNL A   1      37.603  31.413  31.202  1.00  0.00     0.049 A 
ATOM     65  H   UNL A   1      39.387  30.520  31.892  1.00  0.00     0.167 HD
ATOM     66  C   UNL A   1      38.349  30.005  29.298  1.00  0.00     0.074 A 
ATOM     67  C   UNL A   1      38.206  29.472  27.959  1.00  0.00     0.031 C 
ATOM     68  C   UNL A   1      37.473  30.870  29.870  1.00  0.00     0.034 A 
BRANCH  55  69
ATOM     69  C   UNL A   1      38.986  32.513  35.662  1.00  0.00     0.023 A 
ATOM     70  C   UNL A   1      39.385  33.849  35.846  1.00  0.00     0.031 A 
ATOM     71  C   UNL A   1      38.287  31.884  36.705  1.00  0.00     0.131 A 
ATOM     72  C   UNL A   1      39.150  34.486  37.074  1.00  0.00     0.055 A 
ATOM     73  C   UNL A   1      37.986  32.550  37.895  1.00  0.00     0.041 A 
ATOM     74  F   UNL A   1      37.903  30.602  36.597  1.00  0.00    -0.206 F 
ATOM     75  C   UNL A   1      38.431  33.854  38.091  1.00  0.00     0.022 A 
BRANCH  72  76
ATOM     76  S   UNL A   1      39.929  36.096  37.376  1.00  0.00     0.124 S 
ATOM     77  O   UNL A   1      41.237  35.699  37.890  1.00  0.00    -0.237 OA
ATOM     78  O   UNL A   1      39.920  36.705  36.052  1.00  0.00    -0.237 OA
ATOM     79  O   UNL A   1      39.047  36.724  38.359  1.00  0.00    -0.744 OA
ENDBRANCH  72  76
ENDBRANCH  55  69
BRANCH  56  80
ATOM     80  C   UNL A   1      41.641  27.030  27.704  1.00  0.00     0.023 A 
ATOM     81  C   UNL A   1      41.431  25.642  27.732  1.00  0.00     0.031 A 
ATOM     82  C   UNL A   1      42.244  27.583  26.560  1.00  0.00     0.131 A 
ATOM     83  C   UNL A   1      41.860  24.849  26.656  1.00  0.00     0.055 A 
ATOM     84  C   UNL A   1      42.624  26.796  25.472  1.00  0.00     0.041 A 
ATOM     85  F   UNL A   1      42.467  28.905  26.483  1.00  0.00    -0.206 F 
ATOM     86  C   UNL A   1      42.445  25.417  25.522  1.00  0.00     0.022 A 
BRANCH  83  87
ATOM     87  S   UNL A   1      41.715  23.045  26.793  1.00  0.00     0.124 S 
ATOM     88  O   UNL A   1      42.839  22.594  25.980  1.00  0.00    -0.237 OA
ATOM     89  O   UNL A   1      41.839  22.840  28.232  1.00  0.00    -0.237 OA
ATOM     90  O   UNL A   1      40.391  22.767  26.238  1.00  0.00    -0.744 OA
ENDBRANCH  83  87
ENDBRANCH  56  80
BRANCH  68  91
ATOM     91  C   UNL A   1      36.314  31.340  29.026  1.00  0.00     0.023 A 
ATOM     92  C   UNL A   1      35.340  30.453  28.536  1.00  0.00     0.031 A 
ATOM     93  C   UNL A   1      36.183  32.706  28.714  1.00  0.00     0.131 A 
ATOM     94  C   UNL A   1      34.301  30.935  27.725  1.00  0.00     0.055 A 
ATOM     95  C   UNL A   1      35.118  33.188  27.952  1.00  0.00     0.041 A 
ATOM     96  F   UNL A   1      37.085  33.597  29.156  1.00  0.00    -0.206 F 
ATOM     97  C   UNL A   1      34.175  32.299  27.443  1.00  0.00     0.022 A 
BRANCH  94  98
ATOM     98  S   UNL A   1      33.150  29.748  26.980  1.00  0.00     0.124 S 
ATOM     99  O   UNL A   1      31.856  30.348  27.283  1.00  0.00    -0.237 OA
ATOM    100  O   UNL A   1      33.548  29.765  25.576  1.00  0.00    -0.237 OA
ATOM    101  O   UNL A   1      33.437  28.501  27.688  1.00  0.00    -0.744 OA
ENDBRANCH  94  98
ENDBRANCH  68  91
ENDBRANCH  42  43
ENDBRANCH  35  37
ENDBRANCH  34  35
ENDBRANCH  33  34
ENDBRANCH  32  33
ENDBRANCH  31  32
ENDBRANCH  30  31
ENDBRANCH  29  30
ENDBRANCH  28  29
ENDBRANCH   1  28
TORSDOF 28
ENDMDL
MODEL 2
REMARK VINA RESULT:      -8.4     10.123     19.899
REMARK SMILES CC[C@H](C(=O)NCc1ccc(C(=O)OCCOCCOCCOCCOC(=O)c2ccc(-c3c4nc(c(-c5cc(S(=O)(=O)[O-])ccc5F)c5ccc([nH]5)c(-c5cc(S(=O)(=O)[O-])ccc5F)c5nc(c(-c6cc(S(=O)(=O)[O-])ccc6F)c6ccc3[nH]6)C=C5)C=C4)cc2)o1)c1ccccc1
REMARK SMILES IDX 19 1 18 2 17 3 16 4 15 5 14 6 12 7 13 8 11 9 8 10 9 11 92 12
REMARK SMILES IDX 10 13 7 14 6 15 4 16 5 17 3 19 2 20 1 21 93 22 94 23 98 24
REMARK SMILES IDX 95 25 97 26 96 27 20 28 21 29 22 30 23 31 24 32 25 33 26 34
REMARK SMILES IDX 27 35 28 36 29 37 30 38 91 39 31 40 90 41 32 42 33 43 34 44
REMARK SMILES IDX 84 45 35 46 89 47 83 48 85 49 36 50 88 51 82 52 81 53 37 55
REMARK SMILES IDX 69 56 49 57 68 58 50 59 53 60 67 61 86 62 51 63 52 64 66 66
REMARK SMILES IDX 87 67 54 68 38 69 39 70 47 71 40 72 46 73 48 74 45 75 41 76
REMARK SMILES IDX 42 77 43 78 44 79 70 80 71 81 79 82 72 83 78 84 80 85 77 86
REMARK SMILES IDX 73 87 74 88 75 89 76 90 55 91 56 92 64 93 57 94 63 95 65 96
REMARK SMILES IDX 62 97 58 98 59 99 60 100 61 101
REMARK H PARENT 6 18 85 54 53 65
REMARK Flexibility Score: inf
ROOT
ATOM      1  C   UNL A   1      45.834  37.997  26.743  1.00  0.00     0.188 C 
ENDROOT
BRANCH   1   2
ATOM      2  C   UNL A   1      44.733  38.642  27.600  1.00  0.00     0.188 C 
BRANCH   2   3
ATOM      3  O   UNL A   1      43.440  38.146  27.279  1.00  0.00    -0.376 OA
BRANCH   3   4
ATOM      4  C   UNL A   1      42.425  39.074  26.917  1.00  0.00     0.202 C 
BRANCH   4   5
ATOM      5  C   UNL A   1      42.584  40.586  27.172  1.00  0.00     0.261 C 
BRANCH   5   6
ATOM      6  O   UNL A   1      43.068  41.393  26.090  1.00  0.00    -0.457 OA
BRANCH   6   7
ATOM      7  C   UNL A   1      42.296  41.576  24.989  1.00  0.00     0.374 C 
ATOM      8  O   UNL A   1      41.160  41.136  24.853  1.00  0.00    -0.242 OA
BRANCH   7   9
ATOM      9  C   UNL A   1      42.996  42.481  24.096  1.00  0.00     0.211 A 
ATOM     10  C   UNL A   1      43.515  43.335  22.117  1.00  0.00     0.124 A 
ATOM     11  C   UNL A   1      43.980  44.227  23.062  1.00  0.00     0.048 A 
ATOM     12  O   UNL A   1      42.960  42.249  22.744  1.00  0.00    -0.452 OA
ATOM     13  C   UNL A   1      43.653  43.678  24.326  1.00  0.00     0.058 A 
BRANCH  10  14
ATOM     14  C   UNL A   1      43.515  43.344  20.625  1.00  0.00     0.191 C 
BRANCH  14  15
ATOM     15  N   UNL A   1      44.780  42.835  20.140  1.00  0.00    -0.348 N 
ATOM     16  C   UNL A   1      46.008  43.388  19.989  1.00  0.00     0.227 C 
ATOM     17  O   UNL A   1      46.907  42.631  19.600  1.00  0.00    -0.274 OA
ATOM     18  H   UNL A   1      44.740  41.892  19.862  1.00  0.00     0.163 HD
BRANCH  16  19
ATOM     19  C   UNL A   1      46.338  44.853  20.317  1.00  0.00     0.108 C 
BRANCH  19  20
ATOM     20  C   UNL A   1      47.414  45.043  21.408  1.00  0.00     0.015 C 
ATOM     21  C   UNL A   1      48.840  44.823  20.918  1.00  0.00     0.005 C 
ENDBRANCH  19  20
BRANCH  19  22
ATOM     22  C   UNL A   1      46.493  45.764  19.090  1.00  0.00    -0.036 A 
ATOM     23  C   UNL A   1      45.895  47.039  19.077  1.00  0.00     0.004 A 
ATOM     24  C   UNL A   1      47.101  45.326  17.902  1.00  0.00     0.004 A 
ATOM     25  C   UNL A   1      45.926  47.848  17.938  1.00  0.00     0.000 A 
ATOM     26  C   UNL A   1      47.130  46.135  16.760  1.00  0.00     0.000 A 
ATOM     27  C   UNL A   1      46.545  47.397  16.779  1.00  0.00     0.000 A 
ENDBRANCH  19  22
ENDBRANCH  16  19
ENDBRANCH  14  15
ENDBRANCH  10  14
ENDBRANCH   7   9
ENDBRANCH   6   7
ENDBRANCH   5   6
ENDBRANCH   4   5
ENDBRANCH   3   4
ENDBRANCH   2   3
ENDBRANCH   1   2
BRANCH   1  28
ATOM     28  O   UNL A   1      47.132  38.397  27.164  1.00  0.00    -0.377 OA
BRANCH  28  29
ATOM     29  C   UNL A   1      47.936  37.378  27.759  1.00  0.00     0.188 C 
BRANCH  29  30
ATOM     30  C   UNL A   1      47.396  36.624  28.991  1.00  0.00     0.188 C 
BRANCH  30  31
ATOM     31  O   UNL A   1      47.112  35.246  28.725  1.00  0.00    -0.376 OA
BRANCH  31  32
ATOM     32  C   UNL A   1      47.981  34.600  27.798  1.00  0.00     0.202 C 
BRANCH  32  33
ATOM     33  C   UNL A   1      47.239  33.784  26.730  1.00  0.00     0.261 C 
BRANCH  33  34
ATOM     34  O   UNL A   1      46.077  34.423  26.178  1.00  0.00    -0.460 OA
BRANCH  34  35
ATOM     35  C   UNL A   1      44.993  33.643  25.964  1.00  0.00     0.338 C 
ATOM     36  O   UNL A   1      44.799  32.906  25.016  1.00  0.00    -0.246 OA
BRANCH  35  37
ATOM     37  C   UNL A   1      44.152  33.695  27.176  1.00  0.00     0.060 A 
ATOM     38  C   UNL A   1      43.652  34.933  27.597  1.00  0.00     0.016 A 
ATOM     39  C   UNL A   1      43.872  32.532  27.897  1.00  0.00     0.016 A 
ATOM     40  C   UNL A   1      42.899  35.014  28.770  1.00  0.00     0.010 A 
ATOM     41  C   UNL A   1      43.131  32.618  29.077  1.00  0.00     0.010 A 
ATOM     42  C   UNL A   1      42.670  33.864  29.535  1.00  0.00    -0.014 A 
BRANCH  42  43
ATOM     43  C   UNL A   1      42.118  33.975  30.907  1.00  0.00     0.031 A 
ATOM     44  C   UNL A   1      43.075  33.891  32.066  1.00  0.00     0.074 A 
ATOM     45  C   UNL A   1      40.801  34.128  31.121  1.00  0.00     0.049 A 
ATOM     46  N   UNL A   1      42.830  33.883  33.350  1.00  0.00    -0.248 NA
ATOM     47  C   UNL A   1      44.502  33.791  31.722  1.00  0.00     0.031 C 
ATOM     48  C   UNL A   1      39.784  34.252  30.079  1.00  0.00     0.029 A 
ATOM     49  N   UNL A   1      40.090  34.189  32.294  1.00  0.00    -0.354 N 
ATOM     50  C   UNL A   1      44.070  33.780  33.969  1.00  0.00     0.074 A 
ATOM     51  C   UNL A   1      45.060  33.685  32.917  1.00  0.00     0.031 C 
ATOM     52  C   UNL A   1      38.576  34.358  30.660  1.00  0.00     0.029 A 
ATOM     53  C   UNL A   1      38.731  34.274  32.112  1.00  0.00     0.049 A 
ATOM     54  H   UNL A   1      40.516  34.173  33.182  1.00  0.00     0.167 HD
ATOM     55  C   UNL A   1      44.358  33.772  35.293  1.00  0.00     0.034 A 
ATOM     56  C   UNL A   1      37.728  34.257  33.014  1.00  0.00     0.034 A 
ATOM     57  C   UNL A   1      43.359  33.839  36.330  1.00  0.00     0.049 A 
ATOM     58  C   UNL A   1      38.065  34.160  34.485  1.00  0.00     0.074 A 
ATOM     59  C   UNL A   1      43.537  33.844  37.703  1.00  0.00     0.029 A 
ATOM     60  N   UNL A   1      41.989  33.898  36.108  1.00  0.00    -0.354 N 
ATOM     61  N   UNL A   1      39.242  34.077  35.061  1.00  0.00    -0.248 NA
ATOM     62  C   UNL A   1      36.936  34.162  35.425  1.00  0.00     0.031 C 
ATOM     63  C   UNL A   1      42.276  33.838  38.308  1.00  0.00     0.029 A 
ATOM     64  C   UNL A   1      41.310  33.906  37.317  1.00  0.00     0.049 A 
ATOM     65  H   UNL A   1      41.562  33.927  35.222  1.00  0.00     0.167 HD
ATOM     66  C   UNL A   1      38.995  34.054  36.432  1.00  0.00     0.074 A 
ATOM     67  C   UNL A   1      37.558  34.134  36.595  1.00  0.00     0.031 C 
ATOM     68  C   UNL A   1      39.875  33.983  37.463  1.00  0.00     0.034 A 
BRANCH  55  69
ATOM     69  C   UNL A   1      45.810  33.631  35.679  1.00  0.00     0.023 A 
ATOM     70  C   UNL A   1      46.433  32.373  35.754  1.00  0.00     0.031 A 
ATOM     71  C   UNL A   1      46.567  34.763  36.025  1.00  0.00     0.131 A 
ATOM     72  C   UNL A   1      47.746  32.270  36.238  1.00  0.00     0.055 A 
ATOM     73  C   UNL A   1      47.899  34.662  36.430  1.00  0.00     0.041 A 
ATOM     74  F   UNL A   1      46.018  35.988  35.997  1.00  0.00    -0.206 F 
ATOM     75  C   UNL A   1      48.492  33.408  36.553  1.00  0.00     0.022 A 
BRANCH  72  76
ATOM     76  S   UNL A   1      48.412  30.620  36.594  1.00  0.00     0.124 S 
ATOM     77  O   UNL A   1      47.620  29.783  35.696  1.00  0.00    -0.237 OA
ATOM     78  O   UNL A   1      49.821  30.768  36.253  1.00  0.00    -0.237 OA
ATOM     79  O   UNL A   1      48.129  30.436  38.016  1.00  0.00    -0.744 OA
ENDBRANCH  72  76
ENDBRANCH  55  69
BRANCH  56  80
ATOM     80  C   UNL A   1      36.308  34.294  32.566  1.00  0.00     0.023 A 
ATOM     81  C   UNL A   1      35.584  35.497  32.538  1.00  0.00     0.031 A 
ATOM     82  C   UNL A   1      35.634  33.112  32.210  1.00  0.00     0.131 A 
ATOM     83  C   UNL A   1      34.221  35.486  32.205  1.00  0.00     0.055 A 
ATOM     84  C   UNL A   1      34.291  33.112  31.832  1.00  0.00     0.041 A 
ATOM     85  F   UNL A   1      36.279  31.934  32.221  1.00  0.00    -0.206 F 
ATOM     86  C   UNL A   1      33.572  34.304  31.841  1.00  0.00     0.022 A 
BRANCH  83  87
ATOM     87  S   UNL A   1      33.282  37.033  32.330  1.00  0.00     0.124 S 
ATOM     88  O   UNL A   1      33.290  37.497  30.947  1.00  0.00    -0.237 OA
ATOM     89  O   UNL A   1      31.998  36.567  32.843  1.00  0.00    -0.237 OA
ATOM     90  O   UNL A   1      34.070  37.835  33.263  1.00  0.00    -0.744 OA
ENDBRANCH  83  87
ENDBRANCH  56  80
BRANCH  68  91
ATOM     91  C   UNL A   1      39.310  34.051  38.861  1.00  0.00     0.023 A 
ATOM     92  C   UNL A   1      38.928  32.898  39.567  1.00  0.00     0.031 A 
ATOM     93  C   UNL A   1      39.161  35.297  39.497  1.00  0.00     0.131 A 
ATOM     94  C   UNL A   1      38.374  33.016  40.851  1.00  0.00     0.055 A 
ATOM     95  C   UNL A   1      38.660  35.406  40.794  1.00  0.00     0.041 A 
ATOM     96  F   UNL A   1      39.510  36.431  38.868  1.00  0.00    -0.206 F 
ATOM     97  C   UNL A   1      38.252  34.262  41.475  1.00  0.00     0.022 A 
BRANCH  94  98
ATOM     98  S   UNL A   1      37.745  31.527  41.674  1.00  0.00     0.124 S 
ATOM     99  O   UNL A   1      36.856  30.972  40.659  1.00  0.00    -0.237 OA
ATOM    100  O   UNL A   1      38.967  30.773  41.931  1.00  0.00    -0.237 OA
ATOM    101  O   UNL A   1      37.078  32.049  42.866  1.00  0.00    -0.744 OA
ENDBRANCH  94  98
ENDBRANCH  68  91
ENDBRANCH  42  43
ENDBRANCH  35  37
ENDBRANCH  34  35
ENDBRANCH  33  34
ENDBRANCH  32  33
ENDBRANCH  31  32
ENDBRANCH  30  31
ENDBRANCH  29  30
ENDBRANCH  28  29
ENDBRANCH   1  28
TORSDOF 28
ENDMDL
MODEL 3
REMARK VINA RESULT:      -8.3      5.294     13.606
REMARK SMILES CC[C@H](C(=O)NCc1ccc(C(=O)OCCOCCOCCOCCOC(=O)c2ccc(-c3c4nc(c(-c5cc(S(=O)(=O)[O-])ccc5F)c5ccc([nH]5)c(-c5cc(S(=O)(=O)[O-])ccc5F)c5nc(c(-c6cc(S(=O)(=O)[O-])ccc6F)c6ccc3[nH]6)C=C5)C=C4)cc2)o1)c1ccccc1
REMARK SMILES IDX 19 1 18 2 17 3 16 4 15 5 14 6 12 7 13 8 11 9 8 10 9 11 92 12
REMARK SMILES IDX 10 13 7 14 6 15 4 16 5 17 3 19 2 20 1 21 93 22 94 23 98 24
REMARK SMILES IDX 95 25 97 26 96 27 20 28 21 29 22 30 23 31 24 32 25 33 26 34
REMARK SMILES IDX 27 35 28 36 29 37 30 38 91 39 31 40 90 41 32 42 33 43 34 44
REMARK SMILES IDX 84 45 35 46 89 47 83 48 85 49 36 50 88 51 82 52 81 53 37 55
REMARK SMILES IDX 69 56 49 57 68 58 50 59 53 60 67 61 86 62 51 63 52 64 66 66
REMARK SMILES IDX 87 67 54 68 38 69 39 70 47 71 40 72 46 73 48 74 45 75 41 76
REMARK SMILES IDX 42 77 43 78 44 79 70 80 71 81 79 82 72 83 78 84 80 85 77 86
REMARK SMILES IDX 73 87 74 88 75 89 76 90 55 91 56 92 64 93 57 94 63 95 65 96
REMARK SMILES IDX 62 97 58 98 59 99 60 100 61 101
REMARK H PARENT 6 18 85 54 53 65
REMARK Flexibility Score: inf
ROOT
ATOM      1  C   UNL A   1      37.004  33.609  35.203  1.00  0.00     0.188 C 
ENDROOT
BRANCH   1   2
ATOM      2  C   UNL A   1      38.372  33.930  35.826  1.00  0.00     0.188 C 
BRANCH   2   3
ATOM      3  O   UNL A   1      39.417  33.144  35.268  1.00  0.00    -0.376 OA
BRANCH   3   4
ATOM      4  C   UNL A   1      39.081  31.917  34.633  1.00  0.00     0.202 C 
BRANCH   4   5
ATOM      5  C   UNL A   1      39.513  30.558  35.221  1.00  0.00     0.261 C 
BRANCH   5   6
ATOM      6  O   UNL A   1      40.846  30.110  34.941  1.00  0.00    -0.457 OA
BRANCH   6   7
ATOM      7  C   UNL A   1      41.683  29.805  35.965  1.00  0.00     0.374 C 
ATOM      8  O   UNL A   1      41.823  30.484  36.976  1.00  0.00    -0.242 OA
BRANCH   7   9
ATOM      9  C   UNL A   1      42.251  28.496  35.704  1.00  0.00     0.211 A 
ATOM     10  C   UNL A   1      42.714  26.383  36.189  1.00  0.00     0.124 A 
ATOM     11  C   UNL A   1      42.951  26.535  34.838  1.00  0.00     0.048 A 
ATOM     12  O   UNL A   1      42.335  27.585  36.727  1.00  0.00    -0.452 OA
ATOM     13  C   UNL A   1      42.661  27.886  34.530  1.00  0.00     0.058 A 
BRANCH  10  14
ATOM     14  C   UNL A   1      42.797  25.210  37.109  1.00  0.00     0.191 C 
BRANCH  14  15
ATOM     15  N   UNL A   1      43.879  24.345  36.690  1.00  0.00    -0.348 N 
ATOM     16  C   UNL A   1      45.015  23.918  37.294  1.00  0.00     0.227 C 
ATOM     17  O   UNL A   1      45.703  23.109  36.658  1.00  0.00    -0.274 OA
ATOM     18  H   UNL A   1      43.766  23.994  35.777  1.00  0.00     0.163 HD
BRANCH  16  19
ATOM     19  C   UNL A   1      45.449  24.341  38.706  1.00  0.00     0.108 C 
BRANCH  19  20
ATOM     20  C   UNL A   1      46.123  23.225  39.534  1.00  0.00     0.015 C 
ATOM     21  C   UNL A   1      47.641  23.347  39.618  1.00  0.00     0.005 C 
ENDBRANCH  19  20
BRANCH  19  22
ATOM     22  C   UNL A   1      46.141  25.710  38.780  1.00  0.00    -0.036 A 
ATOM     23  C   UNL A   1      45.969  26.528  39.914  1.00  0.00     0.004 A 
ATOM     24  C   UNL A   1      46.844  26.255  37.693  1.00  0.00     0.004 A 
ATOM     25  C   UNL A   1      46.497  27.821  39.967  1.00  0.00     0.000 A 
ATOM     26  C   UNL A   1      47.371  27.552  37.745  1.00  0.00     0.000 A 
ATOM     27  C   UNL A   1      47.199  28.334  38.883  1.00  0.00     0.000 A 
ENDBRANCH  19  22
ENDBRANCH  16  19
ENDBRANCH  14  15
ENDBRANCH  10  14
ENDBRANCH   7   9
ENDBRANCH   6   7
ENDBRANCH   5   6
ENDBRANCH   4   5
ENDBRANCH   3   4
ENDBRANCH   2   3
ENDBRANCH   1   2
BRANCH   1  28
ATOM     28  O   UNL A   1      36.541  34.667  34.373  1.00  0.00    -0.377 OA
BRANCH  28  29
ATOM     29  C   UNL A   1      35.140  34.935  34.430  1.00  0.00     0.188 C 
BRANCH  29  30
ATOM     30  C   UNL A   1      34.464  35.640  33.236  1.00  0.00     0.188 C 
BRANCH  30  31
ATOM     31  O   UNL A   1      34.344  34.799  32.083  1.00  0.00    -0.376 OA
BRANCH  31  32
ATOM     32  C   UNL A   1      34.028  33.434  32.339  1.00  0.00     0.202 C 
BRANCH  32  33
ATOM     33  C   UNL A   1      34.930  32.445  31.589  1.00  0.00     0.261 C 
BRANCH  33  34
ATOM     34  O   UNL A   1      36.339  32.621  31.811  1.00  0.00    -0.460 OA
BRANCH  34  35
ATOM     35  C   UNL A   1      37.059  33.141  30.791  1.00  0.00     0.338 C 
ATOM     36  O   UNL A   1      36.801  34.143  30.151  1.00  0.00    -0.246 OA
BRANCH  35  37
ATOM     37  C   UNL A   1      38.323  32.384  30.697  1.00  0.00     0.060 A 
ATOM     38  C   UNL A   1      38.360  31.070  31.181  1.00  0.00     0.016 A 
ATOM     39  C   UNL A   1      39.464  32.973  30.148  1.00  0.00     0.016 A 
ATOM     40  C   UNL A   1      39.558  30.355  31.152  1.00  0.00     0.010 A 
ATOM     41  C   UNL A   1      40.664  32.260  30.133  1.00  0.00     0.010 A 
ATOM     42  C   UNL A   1      40.723  30.960  30.665  1.00  0.00    -0.014 A 
BRANCH  42  43
ATOM     43  C   UNL A   1      42.045  30.323  30.881  1.00  0.00     0.031 A 
ATOM     44  C   UNL A   1      42.447  29.195  29.969  1.00  0.00     0.074 A 
ATOM     45  C   UNL A   1      42.861  30.722  31.871  1.00  0.00     0.049 A 
ATOM     46  N   UNL A   1      43.509  28.434  30.004  1.00  0.00    -0.248 NA
ATOM     47  C   UNL A   1      41.513  28.881  28.877  1.00  0.00     0.031 C 
ATOM     48  C   UNL A   1      42.592  31.822  32.796  1.00  0.00     0.029 A 
ATOM     49  N   UNL A   1      44.079  30.233  32.273  1.00  0.00    -0.354 N 
ATOM     50  C   UNL A   1      43.374  27.551  28.939  1.00  0.00     0.074 A 
ATOM     51  C   UNL A   1      42.106  27.846  28.304  1.00  0.00     0.031 C 
ATOM     52  C   UNL A   1      43.610  31.913  33.670  1.00  0.00     0.029 A 
ATOM     53  C   UNL A   1      44.583  30.858  33.389  1.00  0.00     0.049 A 
ATOM     54  H   UNL A   1      44.546  29.503  31.806  1.00  0.00     0.167 HD
ATOM     55  C   UNL A   1      44.231  26.587  28.523  1.00  0.00     0.034 A 
ATOM     56  C   UNL A   1      45.688  30.588  34.113  1.00  0.00     0.034 A 
ATOM     57  C   UNL A   1      45.477  26.286  29.181  1.00  0.00     0.049 A 
ATOM     58  C   UNL A   1      46.589  29.452  33.684  1.00  0.00     0.074 A 
ATOM     59  C   UNL A   1      46.426  25.336  28.844  1.00  0.00     0.029 A 
ATOM     60  N   UNL A   1      45.943  26.922  30.325  1.00  0.00    -0.354 N 
ATOM     61  N   UNL A   1      46.460  28.632  32.666  1.00  0.00    -0.248 NA
ATOM     62  C   UNL A   1      47.788  29.213  34.499  1.00  0.00     0.031 C 
ATOM     63  C   UNL A   1      47.429  25.352  29.819  1.00  0.00     0.029 A 
ATOM     64  C   UNL A   1      47.148  26.363  30.724  1.00  0.00     0.049 A 
ATOM     65  H   UNL A   1      45.484  27.661  30.786  1.00  0.00     0.167 HD
ATOM     66  C   UNL A   1      47.579  27.804  32.699  1.00  0.00     0.074 A 
ATOM     67  C   UNL A   1      48.373  28.226  33.835  1.00  0.00     0.031 C 
ATOM     68  C   UNL A   1      47.926  26.794  31.862  1.00  0.00     0.034 A 
BRANCH  55  69
ATOM     69  C   UNL A   1      43.810  25.761  27.333  1.00  0.00     0.023 A 
ATOM     70  C   UNL A   1      43.018  24.608  27.479  1.00  0.00     0.031 A 
ATOM     71  C   UNL A   1      44.246  26.100  26.041  1.00  0.00     0.131 A 
ATOM     72  C   UNL A   1      42.752  23.796  26.366  1.00  0.00     0.055 A 
ATOM     73  C   UNL A   1      43.912  25.331  24.925  1.00  0.00     0.041 A 
ATOM     74  F   UNL A   1      45.027  27.175  25.843  1.00  0.00    -0.206 F 
ATOM     75  C   UNL A   1      43.173  24.162  25.086  1.00  0.00     0.022 A 
BRANCH  72  76
ATOM     76  S   UNL A   1      41.980  22.177  26.641  1.00  0.00     0.124 S 
ATOM     77  O   UNL A   1      40.560  22.519  26.614  1.00  0.00    -0.237 OA
ATOM     78  O   UNL A   1      42.471  21.397  25.511  1.00  0.00    -0.237 OA
ATOM     79  O   UNL A   1      42.491  21.772  27.949  1.00  0.00    -0.744 OA
ENDBRANCH  72  76
ENDBRANCH  55  69
BRANCH  56  80
ATOM     80  C   UNL A   1      45.997  31.374  35.341  1.00  0.00     0.023 A 
ATOM     81  C   UNL A   1      45.370  31.088  36.565  1.00  0.00     0.031 A 
ATOM     82  C   UNL A   1      46.886  32.463  35.294  1.00  0.00     0.131 A 
ATOM     83  C   UNL A   1      45.607  31.907  37.680  1.00  0.00     0.055 A 
ATOM     84  C   UNL A   1      47.156  33.245  36.419  1.00  0.00     0.041 A 
ATOM     85  F   UNL A   1      47.511  32.780  34.149  1.00  0.00    -0.206 F 
ATOM     86  C   UNL A   1      46.504  32.976  37.618  1.00  0.00     0.022 A 
BRANCH  83  87
ATOM     87  S   UNL A   1      44.664  31.603  39.199  1.00  0.00     0.124 S 
ATOM     88  O   UNL A   1      45.662  31.875  40.228  1.00  0.00    -0.237 OA
ATOM     89  O   UNL A   1      43.581  32.574  39.082  1.00  0.00    -0.237 OA
ATOM     90  O   UNL A   1      44.259  30.204  39.074  1.00  0.00    -0.744 OA
ENDBRANCH  83  87
ENDBRANCH  56  80
BRANCH  68  91
ATOM     91  C   UNL A   1      49.251  26.115  32.109  1.00  0.00     0.023 A 
ATOM     92  C   UNL A   1      49.350  24.914  32.831  1.00  0.00     0.031 A 
ATOM     93  C   UNL A   1      50.435  26.682  31.601  1.00  0.00     0.131 A 
ATOM     94  C   UNL A   1      50.610  24.341  33.065  1.00  0.00     0.055 A 
ATOM     95  C   UNL A   1      51.679  26.080  31.790  1.00  0.00     0.041 A 
ATOM     96  F   UNL A   1      50.398  27.828  30.904  1.00  0.00    -0.206 F 
ATOM     97  C   UNL A   1      51.773  24.908  32.535  1.00  0.00     0.022 A 
BRANCH  94  98
ATOM     98  S   UNL A   1      50.722  22.878  34.132  1.00  0.00     0.124 S 
ATOM     99  O   UNL A   1      51.992  23.098  34.816  1.00  0.00    -0.237 OA
ATOM    100  O   UNL A   1      49.525  23.000  34.956  1.00  0.00    -0.237 OA
ATOM    101  O   UNL A   1      50.711  21.762  33.187  1.00  0.00    -0.744 OA
ENDBRANCH  94  98
ENDBRANCH  68  91
ENDBRANCH  42  43
ENDBRANCH  35  37
ENDBRANCH  34  35
ENDBRANCH  33  34
ENDBRANCH  32  33
ENDBRANCH  31  32
ENDBRANCH  30  31
ENDBRANCH  29  30
ENDBRANCH  28  29
ENDBRANCH   1  28
TORSDOF 28
ENDMDL
