MODEL 1
REMARK VINA RESULT:      -8.7      0.000      0.000
REMARK SMILES Cc1cccc2c(C(F)(F)F)cc(C(=O)OCCOCCOCCOCCOC(=O)c3ccc(-c4c5nc(c(-c6cc(S(=O)(=O)[O-])ccc6F)c6ccc([nH]6)c(-c6cc(S(=O)(=O)[O-])ccc6F)c6nc(c(-c7cc(S(=O)(=O)[O-])ccc7F)c7ccc4[nH]7)C=C6)C=C5)cc3)nc12
REMARK SMILES IDX 23 1 22 2 21 3 20 4 19 5 18 6 17 7 16 8 14 9 15 10 13 11
REMARK SMILES IDX 1 12 2 13 3 14 95 15 4 16 6 17 94 18 5 19 7 20 12 21 8 22
REMARK SMILES IDX 9 23 10 24 11 25 24 26 25 27 26 28 27 29 28 30 29 31 30 32
REMARK SMILES IDX 31 33 32 34 93 35 33 36 92 37 34 38 35 39 36 40 86 41 37 42
REMARK SMILES IDX 91 43 85 44 87 45 38 46 90 47 84 48 83 49 39 51 71 52 51 53
REMARK SMILES IDX 70 54 52 55 55 56 69 57 88 58 53 59 54 60 68 62 89 63 56 64
REMARK SMILES IDX 40 65 41 66 49 67 42 68 48 69 50 70 47 71 43 72 44 73 45 74
REMARK SMILES IDX 46 75 72 76 73 77 81 78 74 79 80 80 82 81 79 82 75 83 76 84
REMARK SMILES IDX 77 85 78 86 57 87 58 88 66 89 59 90 65 91 67 92 64 93 60 94
REMARK SMILES IDX 61 95 62 96 63 97
REMARK H PARENT 87 50 55 61
REMARK Flexibility Score: inf
ROOT
ATOM      1  C   UNL A   1      45.293  23.809  25.029  1.00  0.00     0.188 C 
ENDROOT
BRANCH   1   2
ATOM      2  O   UNL A   1      45.511  25.165  24.665  1.00  0.00    -0.377 OA
BRANCH   2   3
ATOM      3  C   UNL A   1      46.524  25.930  25.306  1.00  0.00     0.188 C 
BRANCH   3   4
ATOM      4  C   UNL A   1      47.973  25.416  25.488  1.00  0.00     0.188 C 
BRANCH   4   5
ATOM      5  O   UNL A   1      48.582  25.749  26.719  1.00  0.00    -0.376 OA
BRANCH   5   6
ATOM      6  C   UNL A   1      49.744  25.065  27.142  1.00  0.00     0.202 C 
BRANCH   6   7
ATOM      7  C   UNL A   1      51.086  25.431  26.497  1.00  0.00     0.261 C 
BRANCH   7   8
ATOM      8  O   UNL A   1      51.126  26.683  25.803  1.00  0.00    -0.459 OA
BRANCH   8   9
ATOM      9  C   UNL A   1      52.209  26.925  25.032  1.00  0.00     0.357 C 
ATOM     10  O   UNL A   1      53.325  26.450  25.177  1.00  0.00    -0.244 OA
BRANCH   9  11
ATOM     11  C   UNL A   1      51.780  27.686  23.824  1.00  0.00     0.149 A 
ATOM     12  C   UNL A   1      53.548  31.410  23.253  1.00  0.00     0.047 C 
ATOM     13  C   UNL A   1      52.598  30.814  22.244  1.00  0.00    -0.025 A 
ATOM     14  C   UNL A   1      52.317  31.538  21.076  1.00  0.00     0.005 A 
ATOM     15  C   UNL A   1      51.972  29.587  22.500  1.00  0.00     0.075 A 
ATOM     16  C   UNL A   1      51.379  31.065  20.175  1.00  0.00     0.001 A 
ATOM     17  C   UNL A   1      50.961  29.124  21.615  1.00  0.00     0.013 A 
ATOM     18  N   UNL A   1      52.355  28.883  23.580  1.00  0.00    -0.240 NA
ATOM     19  C   UNL A   1      50.685  29.891  20.457  1.00  0.00     0.011 A 
ATOM     20  C   UNL A   1      50.296  27.913  21.953  1.00  0.00     0.067 A 
ATOM     21  C   UNL A   1      50.743  27.183  23.066  1.00  0.00     0.049 A 
BRANCH  20  22
ATOM     22  C   UNL A   1      49.065  27.380  21.260  1.00  0.00     0.417 C 
ATOM     23  F   UNL A   1      49.174  27.436  19.900  1.00  0.00    -0.166 F 
ATOM     24  F   UNL A   1      48.854  26.064  21.551  1.00  0.00    -0.166 F 
ATOM     25  F   UNL A   1      47.896  28.014  21.545  1.00  0.00    -0.166 F 
ENDBRANCH  20  22
ENDBRANCH   9  11
ENDBRANCH   8   9
ENDBRANCH   7   8
ENDBRANCH   6   7
ENDBRANCH   5   6
ENDBRANCH   4   5
ENDBRANCH   3   4
ENDBRANCH   2   3
ENDBRANCH   1   2
BRANCH   1  26
ATOM     26  C   UNL A   1      44.791  22.833  23.947  1.00  0.00     0.188 C 
BRANCH  26  27
ATOM     27  O   UNL A   1      43.680  22.050  24.359  1.00  0.00    -0.376 OA
BRANCH  27  28
ATOM     28  C   UNL A   1      43.875  21.182  25.461  1.00  0.00     0.202 C 
BRANCH  28  29
ATOM     29  C   UNL A   1      42.629  20.600  26.147  1.00  0.00     0.261 C 
BRANCH  29  30
ATOM     30  O   UNL A   1      41.909  21.473  27.031  1.00  0.00    -0.460 OA
BRANCH  30  31
ATOM     31  C   UNL A   1      40.829  22.115  26.537  1.00  0.00     0.338 C 
ATOM     32  O   UNL A   1      39.905  21.619  25.913  1.00  0.00    -0.246 OA
BRANCH  31  33
ATOM     33  C   UNL A   1      40.864  23.500  27.054  1.00  0.00     0.060 A 
ATOM     34  C   UNL A   1      40.319  24.537  26.284  1.00  0.00     0.016 A 
ATOM     35  C   UNL A   1      41.410  23.766  28.312  1.00  0.00     0.016 A 
ATOM     36  C   UNL A   1      40.342  25.848  26.763  1.00  0.00     0.010 A 
ATOM     37  C   UNL A   1      41.454  25.084  28.778  1.00  0.00     0.010 A 
ATOM     38  C   UNL A   1      40.947  26.135  27.993  1.00  0.00    -0.014 A 
BRANCH  38  39
ATOM     39  C   UNL A   1      41.235  27.543  28.367  1.00  0.00     0.031 A 
ATOM     40  C   UNL A   1      42.668  28.002  28.343  1.00  0.00     0.074 A 
ATOM     41  C   UNL A   1      40.254  28.400  28.701  1.00  0.00     0.049 A 
ATOM     42  N   UNL A   1      43.182  29.153  28.691  1.00  0.00    -0.248 NA
ATOM     43  C   UNL A   1      43.655  27.022  27.862  1.00  0.00     0.031 C 
ATOM     44  C   UNL A   1      38.825  28.089  28.708  1.00  0.00     0.029 A 
ATOM     45  N   UNL A   1      40.313  29.711  29.106  1.00  0.00    -0.354 N 
ATOM     46  C   UNL A   1      44.551  29.035  28.476  1.00  0.00     0.074 A 
ATOM     47  C   UNL A   1      44.790  27.688  28.006  1.00  0.00     0.031 C 
ATOM     48  C   UNL A   1      38.145  29.177  29.109  1.00  0.00     0.029 A 
ATOM     49  C   UNL A   1      39.088  30.248  29.431  1.00  0.00     0.049 A 
ATOM     50  H   UNL A   1      41.154  30.221  29.159  1.00  0.00     0.167 HD
ATOM     51  C   UNL A   1      45.518  29.969  28.648  1.00  0.00     0.034 A 
ATOM     52  C   UNL A   1      38.772  31.450  29.957  1.00  0.00     0.034 A 
ATOM     53  C   UNL A   1      45.265  31.303  29.133  1.00  0.00     0.049 A 
ATOM     54  C   UNL A   1      39.882  32.438  30.242  1.00  0.00     0.074 A 
ATOM     55  C   UNL A   1      46.170  32.329  29.338  1.00  0.00     0.029 A 
ATOM     56  N   UNL A   1      44.018  31.793  29.502  1.00  0.00    -0.354 N 
ATOM     57  N   UNL A   1      41.174  32.319  30.030  1.00  0.00    -0.248 NA
ATOM     58  C   UNL A   1      39.490  33.727  30.829  1.00  0.00     0.031 C 
ATOM     59  C   UNL A   1      45.486  33.408  29.908  1.00  0.00     0.029 A 
ATOM     60  C   UNL A   1      44.138  33.092  29.969  1.00  0.00     0.049 A 
ATOM     61  H   UNL A   1      43.174  31.290  29.440  1.00  0.00     0.167 HD
ATOM     62  C   UNL A   1      41.739  33.531  30.425  1.00  0.00     0.074 A 
ATOM     63  C   UNL A   1      40.647  34.371  30.871  1.00  0.00     0.031 C 
ATOM     64  C   UNL A   1      43.041  33.918  30.416  1.00  0.00     0.034 A 
BRANCH  51  65
ATOM     65  C   UNL A   1      46.942  29.556  28.362  1.00  0.00     0.023 A 
ATOM     66  C   UNL A   1      47.736  28.910  29.326  1.00  0.00     0.031 A 
ATOM     67  C   UNL A   1      47.519  29.829  27.109  1.00  0.00     0.131 A 
ATOM     68  C   UNL A   1      49.078  28.616  29.044  1.00  0.00     0.055 A 
ATOM     69  C   UNL A   1      48.830  29.460  26.806  1.00  0.00     0.041 A 
ATOM     70  F   UNL A   1      46.819  30.469  26.159  1.00  0.00    -0.206 F 
ATOM     71  C   UNL A   1      49.623  28.861  27.781  1.00  0.00     0.022 A 
BRANCH  68  72
ATOM     72  S   UNL A   1      50.141  28.036  30.393  1.00  0.00     0.124 S 
ATOM     73  O   UNL A   1      51.273  27.476  29.658  1.00  0.00    -0.237 OA
ATOM     74  O   UNL A   1      50.406  29.262  31.137  1.00  0.00    -0.237 OA
ATOM     75  O   UNL A   1      49.311  27.052  31.085  1.00  0.00    -0.744 OA
ENDBRANCH  68  72
ENDBRANCH  51  65
BRANCH  52  76
ATOM     76  C   UNL A   1      37.359  31.785  30.304  1.00  0.00     0.023 A 
ATOM     77  C   UNL A   1      36.451  32.221  29.324  1.00  0.00     0.031 A 
ATOM     78  C   UNL A   1      36.916  31.758  31.640  1.00  0.00     0.131 A 
ATOM     79  C   UNL A   1      35.173  32.665  29.699  1.00  0.00     0.055 A 
ATOM     80  C   UNL A   1      35.621  32.138  31.999  1.00  0.00     0.041 A 
ATOM     81  F   UNL A   1      37.742  31.361  32.621  1.00  0.00    -0.206 F 
ATOM     82  C   UNL A   1      34.747  32.611  31.027  1.00  0.00     0.022 A 
BRANCH  79  83
ATOM     83  S   UNL A   1      34.113  33.428  28.438  1.00  0.00     0.124 S 
ATOM     84  O   UNL A   1      33.504  32.257  27.819  1.00  0.00    -0.237 OA
ATOM     85  O   UNL A   1      33.229  34.259  29.249  1.00  0.00    -0.237 OA
ATOM     86  O   UNL A   1      35.057  34.160  27.598  1.00  0.00    -0.744 OA
ENDBRANCH  79  83
ENDBRANCH  52  76
BRANCH  64  87
ATOM     87  C   UNL A   1      43.347  35.334  30.850  1.00  0.00     0.023 A 
ATOM     88  C   UNL A   1      43.431  36.394  29.931  1.00  0.00     0.031 A 
ATOM     89  C   UNL A   1      43.562  35.623  32.211  1.00  0.00     0.131 A 
ATOM     90  C   UNL A   1      43.778  37.679  30.375  1.00  0.00     0.055 A 
ATOM     91  C   UNL A   1      43.837  36.917  32.655  1.00  0.00     0.041 A 
ATOM     92  F   UNL A   1      43.498  34.651  33.135  1.00  0.00    -0.206 F 
ATOM     93  C   UNL A   1      43.962  37.952  31.732  1.00  0.00     0.022 A 
BRANCH  90  94
ATOM     94  S   UNL A   1      44.090  38.972  29.141  1.00  0.00     0.124 S 
ATOM     95  O   UNL A   1      45.523  38.831  28.909  1.00  0.00    -0.237 OA
ATOM     96  O   UNL A   1      43.223  38.569  28.039  1.00  0.00    -0.237 OA
ATOM     97  O   UNL A   1      43.690  40.201  29.825  1.00  0.00    -0.744 OA
ENDBRANCH  90  94
ENDBRANCH  64  87
ENDBRANCH  38  39
ENDBRANCH  31  33
ENDBRANCH  30  31
ENDBRANCH  29  30
ENDBRANCH  28  29
ENDBRANCH  27  28
ENDBRANCH  26  27
ENDBRANCH   1  26
TORSDOF 24
ENDMDL
MODEL 2
REMARK VINA RESULT:      -8.6      9.607     15.137
REMARK SMILES Cc1cccc2c(C(F)(F)F)cc(C(=O)OCCOCCOCCOCCOC(=O)c3ccc(-c4c5nc(c(-c6cc(S(=O)(=O)[O-])ccc6F)c6ccc([nH]6)c(-c6cc(S(=O)(=O)[O-])ccc6F)c6nc(c(-c7cc(S(=O)(=O)[O-])ccc7F)c7ccc4[nH]7)C=C6)C=C5)cc3)nc12
REMARK SMILES IDX 23 1 22 2 21 3 20 4 19 5 18 6 17 7 16 8 14 9 15 10 13 11
REMARK SMILES IDX 1 12 2 13 3 14 95 15 4 16 6 17 94 18 5 19 7 20 12 21 8 22
REMARK SMILES IDX 9 23 10 24 11 25 24 26 25 27 26 28 27 29 28 30 29 31 30 32
REMARK SMILES IDX 31 33 32 34 93 35 33 36 92 37 34 38 35 39 36 40 86 41 37 42
REMARK SMILES IDX 91 43 85 44 87 45 38 46 90 47 84 48 83 49 39 51 71 52 51 53
REMARK SMILES IDX 70 54 52 55 55 56 69 57 88 58 53 59 54 60 68 62 89 63 56 64
REMARK SMILES IDX 40 65 41 66 49 67 42 68 48 69 50 70 47 71 43 72 44 73 45 74
REMARK SMILES IDX 46 75 72 76 73 77 81 78 74 79 80 80 82 81 79 82 75 83 76 84
REMARK SMILES IDX 77 85 78 86 57 87 58 88 66 89 59 90 65 91 67 92 64 93 60 94
REMARK SMILES IDX 61 95 62 96 63 97
REMARK H PARENT 87 50 55 61
REMARK Flexibility Score: inf
ROOT
ATOM      1  C   UNL A   1      51.220  21.818  36.372  1.00  0.00     0.188 C 
ENDROOT
BRANCH   1   2
ATOM      2  O   UNL A   1      49.951  21.190  36.254  1.00  0.00    -0.377 OA
BRANCH   2   3
ATOM      3  C   UNL A   1      49.307  20.643  37.397  1.00  0.00     0.188 C 
BRANCH   3   4
ATOM      4  C   UNL A   1      47.858  20.098  37.362  1.00  0.00     0.188 C 
BRANCH   4   5
ATOM      5  O   UNL A   1      47.527  19.194  38.396  1.00  0.00    -0.376 OA
BRANCH   5   6
ATOM      6  C   UNL A   1      46.174  18.895  38.670  1.00  0.00     0.202 C 
BRANCH   6   7
ATOM      7  C   UNL A   1      45.843  17.570  39.368  1.00  0.00     0.261 C 
BRANCH   7   8
ATOM      8  O   UNL A   1      44.928  17.654  40.466  1.00  0.00    -0.459 OA
BRANCH   8   9
ATOM      9  C   UNL A   1      45.453  17.595  41.711  1.00  0.00     0.357 C 
ATOM     10  O   UNL A   1      46.155  18.441  42.243  1.00  0.00    -0.244 OA
BRANCH   9  11
ATOM     11  C   UNL A   1      44.851  16.438  42.433  1.00  0.00     0.149 A 
ATOM     12  C   UNL A   1      47.164  14.720  45.436  1.00  0.00     0.047 C 
ATOM     13  C   UNL A   1      45.754  14.265  45.156  1.00  0.00    -0.025 A 
ATOM     14  C   UNL A   1      45.209  13.240  45.943  1.00  0.00     0.005 A 
ATOM     15  C   UNL A   1      45.028  14.822  44.095  1.00  0.00     0.075 A 
ATOM     16  C   UNL A   1      43.954  12.734  45.653  1.00  0.00     0.001 A 
ATOM     17  C   UNL A   1      43.767  14.268  43.748  1.00  0.00     0.013 A 
ATOM     18  N   UNL A   1      45.551  15.873  43.439  1.00  0.00    -0.240 NA
ATOM     19  C   UNL A   1      43.255  13.218  44.550  1.00  0.00     0.011 A 
ATOM     20  C   UNL A   1      43.098  14.811  42.616  1.00  0.00     0.067 A 
ATOM     21  C   UNL A   1      43.653  15.930  41.975  1.00  0.00     0.049 A 
BRANCH  20  22
ATOM     22  C   UNL A   1      41.866  14.220  41.972  1.00  0.00     0.417 C 
ATOM     23  F   UNL A   1      41.429  14.967  40.915  1.00  0.00    -0.166 F 
ATOM     24  F   UNL A   1      42.112  12.980  41.460  1.00  0.00    -0.166 F 
ATOM     25  F   UNL A   1      40.779  14.080  42.776  1.00  0.00    -0.166 F 
ENDBRANCH  20  22
ENDBRANCH   9  11
ENDBRANCH   8   9
ENDBRANCH   7   8
ENDBRANCH   6   7
ENDBRANCH   5   6
ENDBRANCH   4   5
ENDBRANCH   3   4
ENDBRANCH   2   3
ENDBRANCH   1   2
BRANCH   1  26
ATOM     26  C   UNL A   1      51.790  22.554  35.143  1.00  0.00     0.188 C 
BRANCH  26  27
ATOM     27  O   UNL A   1      51.468  23.937  35.110  1.00  0.00    -0.376 OA
BRANCH  27  28
ATOM     28  C   UNL A   1      50.244  24.300  34.494  1.00  0.00     0.202 C 
BRANCH  28  29
ATOM     29  C   UNL A   1      49.418  25.420  35.144  1.00  0.00     0.261 C 
BRANCH  29  30
ATOM     30  O   UNL A   1      48.075  25.092  35.533  1.00  0.00    -0.460 OA
BRANCH  30  31
ATOM     31  C   UNL A   1      47.472  25.891  36.439  1.00  0.00     0.338 C 
ATOM     32  O   UNL A   1      47.893  26.192  37.544  1.00  0.00    -0.246 OA
BRANCH  31  33
ATOM     33  C   UNL A   1      46.296  26.499  35.778  1.00  0.00     0.060 A 
ATOM     34  C   UNL A   1      45.087  25.790  35.736  1.00  0.00     0.016 A 
ATOM     35  C   UNL A   1      46.383  27.779  35.228  1.00  0.00     0.016 A 
ATOM     36  C   UNL A   1      43.969  26.353  35.119  1.00  0.00     0.010 A 
ATOM     37  C   UNL A   1      45.268  28.331  34.588  1.00  0.00     0.010 A 
ATOM     38  C   UNL A   1      44.065  27.609  34.505  1.00  0.00    -0.014 A 
BRANCH  38  39
ATOM     39  C   UNL A   1      42.981  28.078  33.605  1.00  0.00     0.031 A 
ATOM     40  C   UNL A   1      41.939  29.002  34.176  1.00  0.00     0.074 A 
ATOM     41  C   UNL A   1      42.929  27.713  32.312  1.00  0.00     0.049 A 
ATOM     42  N   UNL A   1      40.862  29.491  33.618  1.00  0.00    -0.248 NA
ATOM     43  C   UNL A   1      42.143  29.429  35.569  1.00  0.00     0.031 C 
ATOM     44  C   UNL A   1      43.908  26.867  31.632  1.00  0.00     0.029 A 
ATOM     45  N   UNL A   1      42.004  28.004  31.339  1.00  0.00    -0.354 N 
ATOM     46  C   UNL A   1      40.258  30.278  34.593  1.00  0.00     0.074 A 
ATOM     47  C   UNL A   1      41.067  30.168  35.786  1.00  0.00     0.031 C 
ATOM     48  C   UNL A   1      43.526  26.699  30.354  1.00  0.00     0.029 A 
ATOM     49  C   UNL A   1      42.253  27.386  30.135  1.00  0.00     0.049 A 
ATOM     50  H   UNL A   1      41.234  28.599  31.488  1.00  0.00     0.167 HD
ATOM     51  C   UNL A   1      39.133  31.030  34.496  1.00  0.00     0.034 A 
ATOM     52  C   UNL A   1      41.520  27.353  29.001  1.00  0.00     0.034 A 
ATOM     53  C   UNL A   1      38.329  31.117  33.303  1.00  0.00     0.049 A 
ATOM     54  C   UNL A   1      40.213  28.113  28.953  1.00  0.00     0.074 A 
ATOM     55  C   UNL A   1      37.176  31.852  33.095  1.00  0.00     0.029 A 
ATOM     56  N   UNL A   1      38.584  30.434  32.120  1.00  0.00    -0.354 N 
ATOM     57  N   UNL A   1      39.652  28.859  29.878  1.00  0.00    -0.248 NA
ATOM     58  C   UNL A   1      39.444  28.034  27.703  1.00  0.00     0.031 C 
ATOM     59  C   UNL A   1      36.689  31.551  31.818  1.00  0.00     0.029 A 
ATOM     60  C   UNL A   1      37.588  30.703  31.194  1.00  0.00     0.049 A 
ATOM     61  H   UNL A   1      39.358  29.847  31.963  1.00  0.00     0.167 HD
ATOM     62  C   UNL A   1      38.485  29.364  29.306  1.00  0.00     0.074 A 
ATOM     63  C   UNL A   1      38.433  28.852  27.953  1.00  0.00     0.031 C 
ATOM     64  C   UNL A   1      37.544  30.181  29.847  1.00  0.00     0.034 A 
BRANCH  51  65
ATOM     65  C   UNL A   1      38.684  31.770  35.733  1.00  0.00     0.023 A 
ATOM     66  C   UNL A   1      38.106  31.104  36.828  1.00  0.00     0.031 A 
ATOM     67  C   UNL A   1      38.821  33.167  35.810  1.00  0.00     0.131 A 
ATOM     68  C   UNL A   1      37.630  31.841  37.923  1.00  0.00     0.055 A 
ATOM     69  C   UNL A   1      38.420  33.886  36.937  1.00  0.00     0.041 A 
ATOM     70  F   UNL A   1      39.339  33.861  34.784  1.00  0.00    -0.206 F 
ATOM     71  C   UNL A   1      37.809  33.224  37.997  1.00  0.00     0.022 A 
BRANCH  68  72
ATOM     72  S   UNL A   1      36.651  30.983  39.186  1.00  0.00     0.124 S 
ATOM     73  O   UNL A   1      36.386  29.702  38.534  1.00  0.00    -0.237 OA
ATOM     74  O   UNL A   1      37.563  30.946  40.323  1.00  0.00    -0.237 OA
ATOM     75  O   UNL A   1      35.480  31.842  39.352  1.00  0.00    -0.744 OA
ENDBRANCH  68  72
ENDBRANCH  51  65
BRANCH  52  76
ATOM     76  C   UNL A   1      41.961  26.538  27.829  1.00  0.00     0.023 A 
ATOM     77  C   UNL A   1      41.576  25.195  27.690  1.00  0.00     0.031 A 
ATOM     78  C   UNL A   1      42.848  27.068  26.873  1.00  0.00     0.131 A 
ATOM     79  C   UNL A   1      42.120  24.412  26.658  1.00  0.00     0.055 A 
ATOM     80  C   UNL A   1      43.333  26.304  25.810  1.00  0.00     0.041 A 
ATOM     81  F   UNL A   1      43.259  28.343  26.960  1.00  0.00    -0.206 F 
ATOM     82  C   UNL A   1      42.982  24.962  25.708  1.00  0.00     0.022 A 
BRANCH  79  83
ATOM     83  S   UNL A   1      41.775  22.631  26.643  1.00  0.00     0.124 S 
ATOM     84  O   UNL A   1      40.317  22.614  26.611  1.00  0.00    -0.237 OA
ATOM     85  O   UNL A   1      42.449  22.202  25.422  1.00  0.00    -0.237 OA
ATOM     86  O   UNL A   1      42.379  22.157  27.886  1.00  0.00    -0.744 OA
ENDBRANCH  79  83
ENDBRANCH  52  76
BRANCH  64  87
ATOM     87  C   UNL A   1      36.406  30.618  28.952  1.00  0.00     0.023 A 
ATOM     88  C   UNL A   1      35.455  29.708  28.459  1.00  0.00     0.031 A 
ATOM     89  C   UNL A   1      36.276  31.970  28.586  1.00  0.00     0.131 A 
ATOM     90  C   UNL A   1      34.453  30.150  27.582  1.00  0.00     0.055 A 
ATOM     91  C   UNL A   1      35.235  32.416  27.771  1.00  0.00     0.041 A 
ATOM     92  F   UNL A   1      37.156  32.885  29.023  1.00  0.00    -0.206 F 
ATOM     93  C   UNL A   1      34.324  31.501  27.251  1.00  0.00     0.022 A 
BRANCH  90  94
ATOM     94  S   UNL A   1      33.377  28.919  26.795  1.00  0.00     0.124 S 
ATOM     95  O   UNL A   1      32.412  28.639  27.853  1.00  0.00    -0.237 OA
ATOM     96  O   UNL A   1      32.863  29.645  25.639  1.00  0.00    -0.237 OA
ATOM     97  O   UNL A   1      34.288  27.819  26.481  1.00  0.00    -0.744 OA
ENDBRANCH  90  94
ENDBRANCH  64  87
ENDBRANCH  38  39
ENDBRANCH  31  33
ENDBRANCH  30  31
ENDBRANCH  29  30
ENDBRANCH  28  29
ENDBRANCH  27  28
ENDBRANCH  26  27
ENDBRANCH   1  26
TORSDOF 24
ENDMDL
MODEL 3
REMARK VINA RESULT:      -8.6      4.933     10.436
REMARK SMILES Cc1cccc2c(C(F)(F)F)cc(C(=O)OCCOCCOCCOCCOC(=O)c3ccc(-c4c5nc(c(-c6cc(S(=O)(=O)[O-])ccc6F)c6ccc([nH]6)c(-c6cc(S(=O)(=O)[O-])ccc6F)c6nc(c(-c7cc(S(=O)(=O)[O-])ccc7F)c7ccc4[nH]7)C=C6)C=C5)cc3)nc12
REMARK SMILES IDX 23 1 22 2 21 3 20 4 19 5 18 6 17 7 16 8 14 9 15 10 13 11
REMARK SMILES IDX 1 12 2 13 3 14 95 15 4 16 6 17 94 18 5 19 7 20 12 21 8 22
REMARK SMILES IDX 9 23 10 24 11 25 24 26 25 27 26 28 27 29 28 30 29 31 30 32
REMARK SMILES IDX 31 33 32 34 93 35 33 36 92 37 34 38 35 39 36 40 86 41 37 42
REMARK SMILES IDX 91 43 85 44 87 45 38 46 90 47 84 48 83 49 39 51 71 52 51 53
REMARK SMILES IDX 70 54 52 55 55 56 69 57 88 58 53 59 54 60 68 62 89 63 56 64
REMARK SMILES IDX 40 65 41 66 49 67 42 68 48 69 50 70 47 71 43 72 44 73 45 74
REMARK SMILES IDX 46 75 72 76 73 77 81 78 74 79 80 80 82 81 79 82 75 83 76 84
REMARK SMILES IDX 77 85 78 86 57 87 58 88 66 89 59 90 65 91 67 92 64 93 60 94
REMARK SMILES IDX 61 95 62 96 63 97
REMARK H PARENT 87 50 55 61
REMARK Flexibility Score: inf
ROOT
ATOM      1  C   UNL A   1      42.689  23.111  26.636  1.00  0.00     0.188 C 
ENDROOT
BRANCH   1   2
ATOM      2  O   UNL A   1      41.796  24.215  26.710  1.00  0.00    -0.377 OA
BRANCH   2   3
ATOM      3  C   UNL A   1      40.464  24.035  27.173  1.00  0.00     0.188 C 
BRANCH   3   4
ATOM      4  C   UNL A   1      39.433  25.189  27.226  1.00  0.00     0.188 C 
BRANCH   4   5
ATOM      5  O   UNL A   1      39.955  26.448  27.600  1.00  0.00    -0.376 OA
BRANCH   5   6
ATOM      6  C   UNL A   1      39.482  27.093  28.764  1.00  0.00     0.202 C 
BRANCH   6   7
ATOM      7  C   UNL A   1      40.445  27.997  29.545  1.00  0.00     0.261 C 
BRANCH   7   8
ATOM      8  O   UNL A   1      40.187  29.403  29.463  1.00  0.00    -0.459 OA
BRANCH   8   9
ATOM      9  C   UNL A   1      40.011  30.065  30.629  1.00  0.00     0.357 C 
ATOM     10  O   UNL A   1      40.774  30.070  31.583  1.00  0.00    -0.244 OA
BRANCH   9  11
ATOM     11  C   UNL A   1      38.848  30.987  30.489  1.00  0.00     0.149 A 
ATOM     12  C   UNL A   1      36.015  29.975  27.613  1.00  0.00     0.047 C 
ATOM     13  C   UNL A   1      35.830  31.154  28.536  1.00  0.00    -0.025 A 
ATOM     14  C   UNL A   1      34.661  31.920  28.422  1.00  0.00     0.005 A 
ATOM     15  C   UNL A   1      36.835  31.503  29.448  1.00  0.00     0.075 A 
ATOM     16  C   UNL A   1      34.502  33.062  29.187  1.00  0.00     0.001 A 
ATOM     17  C   UNL A   1      36.712  32.708  30.191  1.00  0.00     0.013 A 
ATOM     18  N   UNL A   1      37.886  30.677  29.594  1.00  0.00    -0.240 NA
ATOM     19  C   UNL A   1      35.528  33.470  30.036  1.00  0.00     0.011 A 
ATOM     20  C   UNL A   1      37.789  33.065  31.049  1.00  0.00     0.067 A 
ATOM     21  C   UNL A   1      38.855  32.165  31.206  1.00  0.00     0.049 A 
BRANCH  20  22
ATOM     22  C   UNL A   1      37.935  34.396  31.747  1.00  0.00     0.417 C 
ATOM     23  F   UNL A   1      38.726  34.311  32.857  1.00  0.00    -0.166 F 
ATOM     24  F   UNL A   1      38.537  35.321  30.945  1.00  0.00    -0.166 F 
ATOM     25  F   UNL A   1      36.784  34.974  32.180  1.00  0.00    -0.166 F 
ENDBRANCH  20  22
ENDBRANCH   9  11
ENDBRANCH   8   9
ENDBRANCH   7   8
ENDBRANCH   6   7
ENDBRANCH   5   6
ENDBRANCH   4   5
ENDBRANCH   3   4
ENDBRANCH   2   3
ENDBRANCH   1   2
BRANCH   1  26
ATOM     26  C   UNL A   1      42.606  22.185  25.407  1.00  0.00     0.188 C 
BRANCH  26  27
ATOM     27  O   UNL A   1      43.860  21.959  24.780  1.00  0.00    -0.376 OA
BRANCH  27  28
ATOM     28  C   UNL A   1      44.559  23.097  24.305  1.00  0.00     0.202 C 
BRANCH  28  29
ATOM     29  C   UNL A   1      46.006  23.301  24.779  1.00  0.00     0.261 C 
BRANCH  29  30
ATOM     30  O   UNL A   1      46.228  24.318  25.768  1.00  0.00    -0.460 OA
BRANCH  30  31
ATOM     31  C   UNL A   1      46.456  25.576  25.333  1.00  0.00     0.338 C 
ATOM     32  O   UNL A   1      46.921  25.904  24.254  1.00  0.00    -0.246 OA
BRANCH  31  33
ATOM     33  C   UNL A   1      45.858  26.499  26.322  1.00  0.00     0.060 A 
ATOM     34  C   UNL A   1      46.697  27.262  27.146  1.00  0.00     0.016 A 
ATOM     35  C   UNL A   1      44.471  26.630  26.413  1.00  0.00     0.016 A 
ATOM     36  C   UNL A   1      46.146  28.140  28.081  1.00  0.00     0.010 A 
ATOM     37  C   UNL A   1      43.921  27.491  27.367  1.00  0.00     0.010 A 
ATOM     38  C   UNL A   1      44.756  28.229  28.225  1.00  0.00    -0.014 A 
BRANCH  38  39
ATOM     39  C   UNL A   1      44.176  28.928  29.400  1.00  0.00     0.031 A 
ATOM     40  C   UNL A   1      43.862  30.394  29.266  1.00  0.00     0.074 A 
ATOM     41  C   UNL A   1      43.915  28.281  30.550  1.00  0.00     0.049 A 
ATOM     42  N   UNL A   1      43.419  31.238  30.161  1.00  0.00    -0.248 NA
ATOM     43  C   UNL A   1      44.082  30.986  27.937  1.00  0.00     0.031 C 
ATOM     44  C   UNL A   1      44.125  26.853  30.783  1.00  0.00     0.029 A 
ATOM     45  N   UNL A   1      43.422  28.746  31.744  1.00  0.00    -0.354 N 
ATOM     46  C   UNL A   1      43.313  32.460  29.506  1.00  0.00     0.074 A 
ATOM     47  C   UNL A   1      43.775  32.255  28.151  1.00  0.00     0.031 C 
ATOM     48  C   UNL A   1      43.772  26.562  32.048  1.00  0.00     0.029 A 
ATOM     49  C   UNL A   1      43.355  27.788  32.729  1.00  0.00     0.049 A 
ATOM     50  H   UNL A   1      43.142  29.680  31.884  1.00  0.00     0.167 HD
ATOM     51  C   UNL A   1      42.863  33.644  29.991  1.00  0.00     0.034 A 
ATOM     52  C   UNL A   1      43.027  27.896  34.034  1.00  0.00     0.034 A 
ATOM     53  C   UNL A   1      42.420  33.835  31.350  1.00  0.00     0.049 A 
ATOM     54  C   UNL A   1      42.631  29.251  34.579  1.00  0.00     0.074 A 
ATOM     55  C   UNL A   1      41.939  34.990  31.943  1.00  0.00     0.029 A 
ATOM     56  N   UNL A   1      42.417  32.853  32.332  1.00  0.00    -0.354 N 
ATOM     57  N   UNL A   1      42.528  30.400  33.950  1.00  0.00    -0.248 NA
ATOM     58  C   UNL A   1      42.298  29.320  36.008  1.00  0.00     0.031 C 
ATOM     59  C   UNL A   1      41.725  34.727  33.300  1.00  0.00     0.029 A 
ATOM     60  C   UNL A   1      41.979  33.386  33.534  1.00  0.00     0.049 A 
ATOM     61  H   UNL A   1      42.685  31.916  32.193  1.00  0.00     0.167 HD
ATOM     62  C   UNL A   1      42.085  31.318  34.902  1.00  0.00     0.074 A 
ATOM     63  C   UNL A   1      41.923  30.584  36.139  1.00  0.00     0.031 C 
ATOM     64  C   UNL A   1      41.828  32.645  34.765  1.00  0.00     0.034 A 
BRANCH  51  65
ATOM     65  C   UNL A   1      42.882  34.830  29.057  1.00  0.00     0.023 A 
ATOM     66  C   UNL A   1      44.078  35.483  28.711  1.00  0.00     0.031 A 
ATOM     67  C   UNL A   1      41.682  35.325  28.518  1.00  0.00     0.131 A 
ATOM     68  C   UNL A   1      44.041  36.630  27.903  1.00  0.00     0.055 A 
ATOM     69  C   UNL A   1      41.659  36.417  27.649  1.00  0.00     0.041 A 
ATOM     70  F   UNL A   1      40.506  34.761  28.835  1.00  0.00    -0.206 F 
ATOM     71  C   UNL A   1      42.843  37.085  27.347  1.00  0.00     0.022 A 
BRANCH  68  72
ATOM     72  S   UNL A   1      45.560  37.599  27.703  1.00  0.00     0.124 S 
ATOM     73  O   UNL A   1      45.077  38.751  26.945  1.00  0.00    -0.237 OA
ATOM     74  O   UNL A   1      45.953  37.860  29.082  1.00  0.00    -0.237 OA
ATOM     75  O   UNL A   1      46.443  36.702  26.960  1.00  0.00    -0.744 OA
ENDBRANCH  68  72
ENDBRANCH  51  65
BRANCH  52  76
ATOM     76  C   UNL A   1      43.103  26.712  34.942  1.00  0.00     0.023 A 
ATOM     77  C   UNL A   1      44.324  26.297  35.497  1.00  0.00     0.031 A 
ATOM     78  C   UNL A   1      41.966  25.924  35.200  1.00  0.00     0.131 A 
ATOM     79  C   UNL A   1      44.392  25.101  36.230  1.00  0.00     0.055 A 
ATOM     80  C   UNL A   1      42.026  24.771  35.984  1.00  0.00     0.041 A 
ATOM     81  F   UNL A   1      40.772  26.265  34.687  1.00  0.00    -0.206 F 
ATOM     82  C   UNL A   1      43.248  24.344  36.491  1.00  0.00     0.022 A 
BRANCH  79  83
ATOM     83  S   UNL A   1      46.022  24.484  36.738  1.00  0.00     0.124 S 
ATOM     84  O   UNL A   1      45.665  23.553  37.803  1.00  0.00    -0.237 OA
ATOM     85  O   UNL A   1      46.518  23.886  35.502  1.00  0.00    -0.237 OA
ATOM     86  O   UNL A   1      46.722  25.690  37.170  1.00  0.00    -0.744 OA
ENDBRANCH  79  83
ENDBRANCH  52  76
BRANCH  64  87
ATOM     87  C   UNL A   1      41.291  33.376  35.974  1.00  0.00     0.023 A 
ATOM     88  C   UNL A   1      42.138  34.015  36.896  1.00  0.00     0.031 A 
ATOM     89  C   UNL A   1      39.904  33.431  36.206  1.00  0.00     0.131 A 
ATOM     90  C   UNL A   1      41.596  34.628  38.036  1.00  0.00     0.055 A 
ATOM     91  C   UNL A   1      39.366  34.104  37.304  1.00  0.00     0.041 A 
ATOM     92  F   UNL A   1      39.045  32.837  35.362  1.00  0.00    -0.206 F 
ATOM     93  C   UNL A   1      40.215  34.695  38.235  1.00  0.00     0.022 A 
BRANCH  90  94
ATOM     94  S   UNL A   1      42.726  35.251  39.312  1.00  0.00     0.124 S 
ATOM     95  O   UNL A   1      42.112  36.526  39.664  1.00  0.00    -0.237 OA
ATOM     96  O   UNL A   1      42.656  34.207  40.329  1.00  0.00    -0.237 OA
ATOM     97  O   UNL A   1      44.008  35.351  38.614  1.00  0.00    -0.744 OA
ENDBRANCH  90  94
ENDBRANCH  64  87
ENDBRANCH  38  39
ENDBRANCH  31  33
ENDBRANCH  30  31
ENDBRANCH  29  30
ENDBRANCH  28  29
ENDBRANCH  27  28
ENDBRANCH  26  27
ENDBRANCH   1  26
TORSDOF 24
ENDMDL
