MODEL 1
REMARK VINA RESULT:      -9.6      0.000      0.000
REMARK SMILES O=C(OCCOCCOCCOCCOC(=O)[C@H]1CCCN(c2cc(-c3ccccn3)nc(-c3ccccc3F)n2)C1)c1ccc(-c2c3nc(c(-c4cc(S(=O)(=O)[O-])ccc4F)c4ccc([nH]4)c(-c4cc(S(=O)(=O)[O-])ccc4F)c4nc(c(-c5cc(S(=O)(=O)[O-])ccc5F)c5ccc2[nH]5)C=C4)C=C3)cc1
REMARK SMILES IDX 8 1 7 2 6 3 5 4 4 5 3 6 2 7 1 8 43 9 44 10 105 11 45 12
REMARK SMILES IDX 104 13 46 14 47 15 48 16 98 17 49 18 103 19 97 20 99 21
REMARK SMILES IDX 50 22 102 23 96 24 95 25 51 27 83 28 63 29 82 30 64 31 67 32
REMARK SMILES IDX 81 33 100 34 65 35 66 36 80 38 101 39 68 40 52 41 53 42
REMARK SMILES IDX 61 43 54 44 60 45 62 46 59 47 55 48 56 49 57 50 58 51 84 52
REMARK SMILES IDX 85 53 93 54 86 55 92 56 94 57 91 58 87 59 88 60 89 61 90 62
REMARK SMILES IDX 69 63 70 64 78 65 71 66 77 67 79 68 76 69 72 70 73 71 74 72
REMARK SMILES IDX 75 73 9 74 10 75 11 76 12 77 13 78 14 79 15 80 16 81 17 82
REMARK SMILES IDX 18 83 19 84 42 85 20 86 22 87 21 88 23 89 24 90 41 91 25 92
REMARK SMILES IDX 33 93 32 94 26 95 27 96 31 97 28 98 30 99 29 100 34 101
REMARK SMILES IDX 35 102 39 103 36 104 38 105 40 106 37 107
REMARK H PARENT 99 26 67 37
REMARK Flexibility Score: inf
ROOT
ATOM      1  C   UNL A   1      41.646  26.921  25.742  1.00  0.00     0.188 C 
ENDROOT
BRANCH   1   2
ATOM      2  C   UNL A   1      42.188  28.251  26.259  1.00  0.00     0.188 C 
BRANCH   2   3
ATOM      3  O   UNL A   1      41.167  29.017  26.901  1.00  0.00    -0.376 OA
BRANCH   3   4
ATOM      4  C   UNL A   1      40.089  28.277  27.481  1.00  0.00     0.202 C 
BRANCH   4   5
ATOM      5  C   UNL A   1      38.841  29.098  27.789  1.00  0.00     0.261 C 
BRANCH   5   6
ATOM      6  O   UNL A   1      38.185  28.678  28.990  1.00  0.00    -0.460 OA
BRANCH   6   7
ATOM      7  C   UNL A   1      37.577  29.455  29.921  1.00  0.00     0.338 C 
ATOM      8  O   UNL A   1      36.363  29.308  30.075  1.00  0.00    -0.246 OA
BRANCH   7   9
ATOM      9  C   UNL A   1      38.262  30.500  30.752  1.00  0.00     0.060 A 
ATOM     10  C   UNL A   1      37.839  31.818  30.939  1.00  0.00     0.016 A 
ATOM     11  C   UNL A   1      39.398  30.081  31.467  1.00  0.00     0.016 A 
ATOM     12  C   UNL A   1      38.490  32.691  31.792  1.00  0.00     0.010 A 
ATOM     13  C   UNL A   1      40.090  30.960  32.303  1.00  0.00     0.010 A 
ATOM     14  C   UNL A   1      39.637  32.273  32.448  1.00  0.00    -0.014 A 
BRANCH  14  15
ATOM     15  C   UNL A   1      40.469  33.326  33.045  1.00  0.00     0.031 A 
ATOM     16  C   UNL A   1      41.337  34.105  32.105  1.00  0.00     0.074 A 
ATOM     17  C   UNL A   1      40.280  33.692  34.323  1.00  0.00     0.049 A 
ATOM     18  N   UNL A   1      42.233  35.011  32.367  1.00  0.00    -0.248 NA
ATOM     19  C   UNL A   1      41.149  33.842  30.663  1.00  0.00     0.031 C 
ATOM     20  C   UNL A   1      39.276  33.122  35.228  1.00  0.00     0.029 A 
ATOM     21  N   UNL A   1      40.891  34.658  35.071  1.00  0.00    -0.354 N 
ATOM     22  C   UNL A   1      42.732  35.406  31.131  1.00  0.00     0.074 A 
ATOM     23  C   UNL A   1      42.045  34.647  30.116  1.00  0.00     0.031 C 
ATOM     24  C   UNL A   1      39.335  33.764  36.407  1.00  0.00     0.029 A 
ATOM     25  C   UNL A   1      40.432  34.723  36.367  1.00  0.00     0.049 A 
ATOM     26  H   UNL A   1      41.592  35.251  34.718  1.00  0.00     0.167 HD
ATOM     27  C   UNL A   1      43.691  36.325  30.887  1.00  0.00     0.034 A 
ATOM     28  C   UNL A   1      40.897  35.449  37.402  1.00  0.00     0.034 A 
ATOM     29  C   UNL A   1      44.342  37.050  31.941  1.00  0.00     0.049 A 
ATOM     30  C   UNL A   1      42.090  36.333  37.135  1.00  0.00     0.074 A 
ATOM     31  C   UNL A   1      45.416  37.912  31.867  1.00  0.00     0.029 A 
ATOM     32  N   UNL A   1      43.955  36.994  33.276  1.00  0.00    -0.354 N 
ATOM     33  N   UNL A   1      42.693  36.577  35.991  1.00  0.00    -0.248 NA
ATOM     34  C   UNL A   1      42.685  37.015  38.289  1.00  0.00     0.031 C 
ATOM     35  C   UNL A   1      45.710  38.339  33.166  1.00  0.00     0.029 A 
ATOM     36  C   UNL A   1      44.776  37.796  34.039  1.00  0.00     0.049 A 
ATOM     37  H   UNL A   1      43.205  36.459  33.623  1.00  0.00     0.167 HD
ATOM     38  C   UNL A   1      43.726  37.459  36.285  1.00  0.00     0.074 A 
ATOM     39  C   UNL A   1      43.656  37.711  37.713  1.00  0.00     0.031 C 
ATOM     40  C   UNL A   1      44.651  38.013  35.460  1.00  0.00     0.034 A 
BRANCH  27  41
ATOM     41  C   UNL A   1      44.130  36.509  29.462  1.00  0.00     0.023 A 
ATOM     42  C   UNL A   1      44.980  35.590  28.825  1.00  0.00     0.031 A 
ATOM     43  C   UNL A   1      43.719  37.646  28.743  1.00  0.00     0.131 A 
ATOM     44  C   UNL A   1      45.419  35.841  27.516  1.00  0.00     0.055 A 
ATOM     45  C   UNL A   1      44.113  37.861  27.423  1.00  0.00     0.041 A 
ATOM     46  F   UNL A   1      42.940  38.573  29.321  1.00  0.00    -0.206 F 
ATOM     47  C   UNL A   1      44.971  36.958  26.802  1.00  0.00     0.022 A 
BRANCH  44  48
ATOM     48  S   UNL A   1      46.641  34.727  26.772  1.00  0.00     0.124 S 
ATOM     49  O   UNL A   1      46.183  34.670  25.386  1.00  0.00    -0.237 OA
ATOM     50  O   UNL A   1      47.897  35.432  26.999  1.00  0.00    -0.237 OA
ATOM     51  O   UNL A   1      46.480  33.487  27.529  1.00  0.00    -0.744 OA
ENDBRANCH  44  48
ENDBRANCH  27  41
BRANCH  28  52
ATOM     52  C   UNL A   1      40.313  35.310  38.767  1.00  0.00     0.023 A 
ATOM     53  C   UNL A   1      40.622  34.211  39.581  1.00  0.00     0.031 A 
ATOM     54  C   UNL A   1      39.398  36.258  39.265  1.00  0.00     0.131 A 
ATOM     55  C   UNL A   1      39.999  34.069  40.834  1.00  0.00     0.055 A 
ATOM     56  C   UNL A   1      38.819  36.138  40.530  1.00  0.00     0.041 A 
ATOM     57  F   UNL A   1      39.056  37.327  38.528  1.00  0.00    -0.206 F 
ATOM     58  C   UNL A   1      39.111  35.031  41.318  1.00  0.00     0.022 A 
BRANCH  55  59
ATOM     59  S   UNL A   1      40.318  32.565  41.799  1.00  0.00     0.124 S 
ATOM     60  O   UNL A   1      41.140  31.790  40.878  1.00  0.00    -0.237 OA
ATOM     61  O   UNL A   1      40.998  33.099  42.975  1.00  0.00    -0.237 OA
ATOM     62  O   UNL A   1      38.981  32.030  42.047  1.00  0.00    -0.744 OA
ENDBRANCH  55  59
ENDBRANCH  28  52
BRANCH  40  63
ATOM     63  C   UNL A   1      45.624  38.972  36.081  1.00  0.00     0.023 A 
ATOM     64  C   UNL A   1      45.288  40.318  36.284  1.00  0.00     0.031 A 
ATOM     65  C   UNL A   1      46.873  38.510  36.531  1.00  0.00     0.131 A 
ATOM     66  C   UNL A   1      46.212  41.173  36.899  1.00  0.00     0.055 A 
ATOM     67  C   UNL A   1      47.764  39.352  37.191  1.00  0.00     0.041 A 
ATOM     68  F   UNL A   1      47.227  37.226  36.363  1.00  0.00    -0.206 F 
ATOM     69  C   UNL A   1      47.437  40.694  37.372  1.00  0.00     0.022 A 
BRANCH  66  70
ATOM     70  S   UNL A   1      45.802  42.931  37.034  1.00  0.00     0.124 S 
ATOM     71  O   UNL A   1      44.797  42.925  38.092  1.00  0.00    -0.237 OA
ATOM     72  O   UNL A   1      47.087  43.529  37.381  1.00  0.00    -0.237 OA
ATOM     73  O   UNL A   1      45.301  43.269  35.703  1.00  0.00    -0.744 OA
ENDBRANCH  66  70
ENDBRANCH  40  63
ENDBRANCH  14  15
ENDBRANCH   7   9
ENDBRANCH   6   7
ENDBRANCH   5   6
ENDBRANCH   4   5
ENDBRANCH   3   4
ENDBRANCH   2   3
ENDBRANCH   1   2
BRANCH   1  74
ATOM     74  O   UNL A   1      42.655  25.985  25.379  1.00  0.00    -0.377 OA
BRANCH  74  75
ATOM     75  C   UNL A   1      42.553  24.703  25.983  1.00  0.00     0.188 C 
BRANCH  75  76
ATOM     76  C   UNL A   1      43.170  23.476  25.296  1.00  0.00     0.188 C 
BRANCH  76  77
ATOM     77  O   UNL A   1      42.286  22.373  25.200  1.00  0.00    -0.376 OA
BRANCH  77  78
ATOM     78  C   UNL A   1      42.784  21.167  25.770  1.00  0.00     0.202 C 
BRANCH  78  79
ATOM     79  C   UNL A   1      42.256  20.819  27.172  1.00  0.00     0.261 C 
BRANCH  79  80
ATOM     80  O   UNL A   1      40.823  20.843  27.342  1.00  0.00    -0.463 OA
BRANCH  80  81
ATOM     81  C   UNL A   1      39.994  20.452  26.347  1.00  0.00     0.310 C 
ATOM     82  O   UNL A   1      40.176  19.450  25.662  1.00  0.00    -0.252 OA
BRANCH  81  83
ATOM     83  C   UNL A   1      38.750  21.348  26.229  1.00  0.00     0.118 C 
ATOM     84  C   UNL A   1      39.129  22.833  26.437  1.00  0.00     0.019 C 
ATOM     85  C   UNL A   1      37.951  21.074  24.942  1.00  0.00     0.133 C 
ATOM     86  C   UNL A   1      38.028  23.818  26.041  1.00  0.00     0.022 C 
ATOM     87  N   UNL A   1      37.004  22.145  24.614  1.00  0.00    -0.356 N 
ATOM     88  C   UNL A   1      37.451  23.523  24.658  1.00  0.00     0.118 C 
BRANCH  87  89
ATOM     89  C   UNL A   1      35.675  21.826  24.757  1.00  0.00     0.133 A 
ATOM     90  C   UNL A   1      34.690  22.786  24.728  1.00  0.00     0.077 A 
ATOM     91  N   UNL A   1      35.376  20.528  24.802  1.00  0.00    -0.211 NA
ATOM     92  C   UNL A   1      33.381  22.337  24.667  1.00  0.00     0.095 A 
ATOM     93  C   UNL A   1      34.090  20.173  24.740  1.00  0.00     0.165 A 
ATOM     94  N   UNL A   1      33.062  21.022  24.665  1.00  0.00    -0.226 NA
BRANCH  92  95
ATOM     95  C   UNL A   1      32.262  23.282  24.530  1.00  0.00     0.089 A 
ATOM     96  C   UNL A   1      31.859  23.768  23.283  1.00  0.00     0.030 A 
ATOM     97  N   UNL A   1      31.656  23.670  25.682  1.00  0.00    -0.255 NA
ATOM     98  C   UNL A   1      30.798  24.668  23.216  1.00  0.00     0.004 A 
ATOM     99  C   UNL A   1      30.626  24.536  25.585  1.00  0.00     0.112 A 
ATOM    100  C   UNL A   1      30.166  25.060  24.389  1.00  0.00     0.020 A 
ENDBRANCH  92  95
BRANCH  93 101
ATOM    101  C   UNL A   1      33.868  18.738  24.748  1.00  0.00     0.055 A 
ATOM    102  C   UNL A   1      32.580  18.226  25.000  1.00  0.00     0.015 A 
ATOM    103  C   UNL A   1      34.924  17.832  24.633  1.00  0.00     0.134 A 
ATOM    104  C   UNL A   1      32.358  16.853  25.111  1.00  0.00     0.001 A 
ATOM    105  C   UNL A   1      34.711  16.459  24.750  1.00  0.00     0.040 A 
ATOM    106  F   UNL A   1      36.183  18.266  24.472  1.00  0.00    -0.206 F 
ATOM    107  C   UNL A   1      33.426  15.969  24.983  1.00  0.00     0.003 A 
ENDBRANCH  93 101
ENDBRANCH  87  89
ENDBRANCH  81  83
ENDBRANCH  80  81
ENDBRANCH  79  80
ENDBRANCH  78  79
ENDBRANCH  77  78
ENDBRANCH  76  77
ENDBRANCH  75  76
ENDBRANCH  74  75
ENDBRANCH   1  74
TORSDOF 26
ENDMDL
MODEL 2
REMARK VINA RESULT:      -9.3      2.709      5.078
REMARK SMILES O=C(OCCOCCOCCOCCOC(=O)[C@H]1CCCN(c2cc(-c3ccccn3)nc(-c3ccccc3F)n2)C1)c1ccc(-c2c3nc(c(-c4cc(S(=O)(=O)[O-])ccc4F)c4ccc([nH]4)c(-c4cc(S(=O)(=O)[O-])ccc4F)c4nc(c(-c5cc(S(=O)(=O)[O-])ccc5F)c5ccc2[nH]5)C=C4)C=C3)cc1
REMARK SMILES IDX 8 1 7 2 6 3 5 4 4 5 3 6 2 7 1 8 43 9 44 10 105 11 45 12
REMARK SMILES IDX 104 13 46 14 47 15 48 16 98 17 49 18 103 19 97 20 99 21
REMARK SMILES IDX 50 22 102 23 96 24 95 25 51 27 83 28 63 29 82 30 64 31 67 32
REMARK SMILES IDX 81 33 100 34 65 35 66 36 80 38 101 39 68 40 52 41 53 42
REMARK SMILES IDX 61 43 54 44 60 45 62 46 59 47 55 48 56 49 57 50 58 51 84 52
REMARK SMILES IDX 85 53 93 54 86 55 92 56 94 57 91 58 87 59 88 60 89 61 90 62
REMARK SMILES IDX 69 63 70 64 78 65 71 66 77 67 79 68 76 69 72 70 73 71 74 72
REMARK SMILES IDX 75 73 9 74 10 75 11 76 12 77 13 78 14 79 15 80 16 81 17 82
REMARK SMILES IDX 18 83 19 84 42 85 20 86 22 87 21 88 23 89 24 90 41 91 25 92
REMARK SMILES IDX 33 93 32 94 26 95 27 96 31 97 28 98 30 99 29 100 34 101
REMARK SMILES IDX 35 102 39 103 36 104 38 105 40 106 37 107
REMARK H PARENT 99 26 67 37
REMARK Flexibility Score: inf
ROOT
ATOM      1  C   UNL A   1      39.954  24.867  26.800  1.00  0.00     0.188 C 
ENDROOT
BRANCH   1   2
ATOM      2  C   UNL A   1      39.757  25.499  28.175  1.00  0.00     0.188 C 
BRANCH   2   3
ATOM      3  O   UNL A   1      39.741  26.925  28.097  1.00  0.00    -0.376 OA
BRANCH   3   4
ATOM      4  C   UNL A   1      39.020  27.608  29.127  1.00  0.00     0.202 C 
BRANCH   4   5
ATOM      5  C   UNL A   1      38.129  28.745  28.639  1.00  0.00     0.261 C 
BRANCH   5   6
ATOM      6  O   UNL A   1      37.166  29.152  29.618  1.00  0.00    -0.460 OA
BRANCH   6   7
ATOM      7  C   UNL A   1      37.387  29.479  30.915  1.00  0.00     0.338 C 
ATOM      8  O   UNL A   1      36.727  28.885  31.769  1.00  0.00    -0.246 OA
BRANCH   7   9
ATOM      9  C   UNL A   1      38.348  30.531  31.388  1.00  0.00     0.060 A 
ATOM     10  C   UNL A   1      39.663  30.322  31.810  1.00  0.00     0.016 A 
ATOM     11  C   UNL A   1      37.895  31.861  31.325  1.00  0.00     0.016 A 
ATOM     12  C   UNL A   1      40.505  31.365  32.150  1.00  0.00     0.010 A 
ATOM     13  C   UNL A   1      38.720  32.923  31.702  1.00  0.00     0.010 A 
ATOM     14  C   UNL A   1      40.024  32.665  32.131  1.00  0.00    -0.014 A 
BRANCH  14  15
ATOM     15  C   UNL A   1      40.832  33.672  32.830  1.00  0.00     0.031 A 
ATOM     16  C   UNL A   1      41.724  34.521  31.978  1.00  0.00     0.074 A 
ATOM     17  C   UNL A   1      40.603  33.941  34.126  1.00  0.00     0.049 A 
ATOM     18  N   UNL A   1      42.608  35.407  32.334  1.00  0.00    -0.248 NA
ATOM     19  C   UNL A   1      41.581  34.366  30.516  1.00  0.00     0.031 C 
ATOM     20  C   UNL A   1      39.574  33.302  34.954  1.00  0.00     0.029 A 
ATOM     21  N   UNL A   1      41.186  34.849  34.963  1.00  0.00    -0.354 N 
ATOM     22  C   UNL A   1      43.142  35.895  31.147  1.00  0.00     0.074 A 
ATOM     23  C   UNL A   1      42.490  35.212  30.058  1.00  0.00     0.031 C 
ATOM     24  C   UNL A   1      39.595  33.853  36.180  1.00  0.00     0.029 A 
ATOM     25  C   UNL A   1      40.688  34.816  36.245  1.00  0.00     0.049 A 
ATOM     26  H   UNL A   1      41.895  35.469  34.676  1.00  0.00     0.167 HD
ATOM     27  C   UNL A   1      44.103  36.832  31.002  1.00  0.00     0.034 A 
ATOM     28  C   UNL A   1      41.118  35.463  37.345  1.00  0.00     0.034 A 
ATOM     29  C   UNL A   1      44.719  37.477  32.127  1.00  0.00     0.049 A 
ATOM     30  C   UNL A   1      42.315  36.368  37.181  1.00  0.00     0.074 A 
ATOM     31  C   UNL A   1      45.791  38.345  32.150  1.00  0.00     0.029 A 
ATOM     32  N   UNL A   1      44.292  37.320  33.441  1.00  0.00    -0.354 N 
ATOM     33  N   UNL A   1      42.950  36.698  36.078  1.00  0.00    -0.248 NA
ATOM     34  C   UNL A   1      42.871  36.962  38.401  1.00  0.00     0.031 C 
ATOM     35  C   UNL A   1      46.043  38.674  33.486  1.00  0.00     0.029 A 
ATOM     36  C   UNL A   1      45.086  38.065  34.287  1.00  0.00     0.049 A 
ATOM     37  H   UNL A   1      43.535  36.759  33.725  1.00  0.00     0.167 HD
ATOM     38  C   UNL A   1      43.970  37.558  36.468  1.00  0.00     0.074 A 
ATOM     39  C   UNL A   1      43.856  37.702  37.908  1.00  0.00     0.031 C 
ATOM     40  C   UNL A   1      44.917  38.174  35.716  1.00  0.00     0.034 A 
BRANCH  27  41
ATOM     41  C   UNL A   1      44.585  37.123  29.609  1.00  0.00     0.023 A 
ATOM     42  C   UNL A   1      45.580  36.347  28.992  1.00  0.00     0.031 A 
ATOM     43  C   UNL A   1      44.063  38.221  28.903  1.00  0.00     0.131 A 
ATOM     44  C   UNL A   1      46.046  36.701  27.717  1.00  0.00     0.055 A 
ATOM     45  C   UNL A   1      44.490  38.534  27.612  1.00  0.00     0.041 A 
ATOM     46  F   UNL A   1      43.139  39.017  29.465  1.00  0.00    -0.206 F 
ATOM     47  C   UNL A   1      45.490  37.774  27.013  1.00  0.00     0.022 A 
BRANCH  44  48
ATOM     48  S   UNL A   1      47.441  35.784  27.008  1.00  0.00     0.124 S 
ATOM     49  O   UNL A   1      48.438  36.840  26.850  1.00  0.00    -0.237 OA
ATOM     50  O   UNL A   1      47.726  34.789  28.036  1.00  0.00    -0.237 OA
ATOM     51  O   UNL A   1      46.902  35.250  25.760  1.00  0.00    -0.744 OA
ENDBRANCH  44  48
ENDBRANCH  27  41
BRANCH  28  52
ATOM     52  C   UNL A   1      40.494  35.221  38.677  1.00  0.00     0.023 A 
ATOM     53  C   UNL A   1      40.798  34.074  39.426  1.00  0.00     0.031 A 
ATOM     54  C   UNL A   1      39.544  36.116  39.207  1.00  0.00     0.131 A 
ATOM     55  C   UNL A   1      40.139  33.836  40.644  1.00  0.00     0.055 A 
ATOM     56  C   UNL A   1      38.927  35.899  40.442  1.00  0.00     0.041 A 
ATOM     57  F   UNL A   1      39.204  37.227  38.534  1.00  0.00    -0.206 F 
ATOM     58  C   UNL A   1      39.217  34.747  41.163  1.00  0.00     0.022 A 
BRANCH  55  59
ATOM     59  S   UNL A   1      40.457  32.277  41.516  1.00  0.00     0.124 S 
ATOM     60  O   UNL A   1      39.204  31.561  41.309  1.00  0.00    -0.237 OA
ATOM     61  O   UNL A   1      41.618  31.760  40.799  1.00  0.00    -0.237 OA
ATOM     62  O   UNL A   1      40.715  32.701  42.890  1.00  0.00    -0.744 OA
ENDBRANCH  55  59
ENDBRANCH  28  52
BRANCH  40  63
ATOM     63  C   UNL A   1      45.866  39.086  36.436  1.00  0.00     0.023 A 
ATOM     64  C   UNL A   1      45.517  40.411  36.733  1.00  0.00     0.031 A 
ATOM     65  C   UNL A   1      47.105  38.596  36.884  1.00  0.00     0.131 A 
ATOM     66  C   UNL A   1      46.417  41.220  37.438  1.00  0.00     0.055 A 
ATOM     67  C   UNL A   1      47.972  39.388  37.633  1.00  0.00     0.041 A 
ATOM     68  F   UNL A   1      47.472  37.330  36.628  1.00  0.00    -0.206 F 
ATOM     69  C   UNL A   1      47.632  40.711  37.908  1.00  0.00     0.022 A 
BRANCH  66  70
ATOM     70  S   UNL A   1      45.993  42.960  37.697  1.00  0.00     0.124 S 
ATOM     71  O   UNL A   1      46.600  43.596  36.533  1.00  0.00    -0.237 OA
ATOM     72  O   UNL A   1      44.534  42.930  37.717  1.00  0.00    -0.237 OA
ATOM     73  O   UNL A   1      46.622  43.279  38.977  1.00  0.00    -0.744 OA
ENDBRANCH  66  70
ENDBRANCH  40  63
ENDBRANCH  14  15
ENDBRANCH   7   9
ENDBRANCH   6   7
ENDBRANCH   5   6
ENDBRANCH   4   5
ENDBRANCH   3   4
ENDBRANCH   2   3
ENDBRANCH   1   2
BRANCH   1  74
ATOM     74  O   UNL A   1      39.601  23.489  26.738  1.00  0.00    -0.377 OA
BRANCH  74  75
ATOM     75  C   UNL A   1      38.343  23.200  26.145  1.00  0.00     0.188 C 
BRANCH  75  76
ATOM     76  C   UNL A   1      38.017  21.772  25.686  1.00  0.00     0.188 C 
BRANCH  76  77
ATOM     77  O   UNL A   1      37.310  21.716  24.460  1.00  0.00    -0.376 OA
BRANCH  77  78
ATOM     78  C   UNL A   1      36.022  22.320  24.494  1.00  0.00     0.202 C 
BRANCH  78  79
ATOM     79  C   UNL A   1      35.762  23.410  23.441  1.00  0.00     0.261 C 
BRANCH  79  80
ATOM     80  O   UNL A   1      34.492  23.353  22.757  1.00  0.00    -0.463 OA
BRANCH  80  81
ATOM     81  C   UNL A   1      33.408  22.793  23.343  1.00  0.00     0.310 C 
ATOM     82  O   UNL A   1      33.211  21.583  23.398  1.00  0.00    -0.252 OA
BRANCH  81  83
ATOM     83  C   UNL A   1      32.497  23.834  24.014  1.00  0.00     0.118 C 
ATOM     84  C   UNL A   1      31.431  23.138  24.891  1.00  0.00     0.019 C 
ATOM     85  C   UNL A   1      33.297  24.930  24.741  1.00  0.00     0.133 C 
ATOM     86  C   UNL A   1      30.680  24.086  25.828  1.00  0.00     0.022 C 
ATOM     87  N   UNL A   1      32.486  25.699  25.691  1.00  0.00    -0.356 N 
ATOM     88  C   UNL A   1      31.621  24.994  26.617  1.00  0.00     0.118 C 
BRANCH  87  89
ATOM     89  C   UNL A   1      32.233  27.002  25.336  1.00  0.00     0.133 A 
ATOM     90  C   UNL A   1      31.300  27.325  24.377  1.00  0.00     0.077 A 
ATOM     91  N   UNL A   1      32.846  27.944  26.050  1.00  0.00    -0.211 NA
ATOM     92  C   UNL A   1      30.972  28.665  24.250  1.00  0.00     0.095 A 
ATOM     93  C   UNL A   1      32.477  29.215  25.871  1.00  0.00     0.165 A 
ATOM     94  N   UNL A   1      31.552  29.630  25.001  1.00  0.00    -0.226 NA
BRANCH  92  95
ATOM     95  C   UNL A   1      29.914  29.101  23.327  1.00  0.00     0.089 A 
ATOM     96  C   UNL A   1      30.153  30.056  22.335  1.00  0.00     0.030 A 
ATOM     97  N   UNL A   1      28.689  28.541  23.505  1.00  0.00    -0.255 NA
ATOM     98  C   UNL A   1      29.109  30.437  21.494  1.00  0.00     0.004 A 
ATOM     99  C   UNL A   1      27.700  28.924  22.671  1.00  0.00     0.112 A 
ATOM    100  C   UNL A   1      27.858  29.860  21.662  1.00  0.00     0.020 A 
ENDBRANCH  92  95
BRANCH  93 101
ATOM    101  C   UNL A   1      33.167  30.161  26.728  1.00  0.00     0.055 A 
ATOM    102  C   UNL A   1      32.582  31.412  27.009  1.00  0.00     0.015 A 
ATOM    103  C   UNL A   1      34.462  29.924  27.190  1.00  0.00     0.134 A 
ATOM    104  C   UNL A   1      33.266  32.378  27.749  1.00  0.00     0.001 A 
ATOM    105  C   UNL A   1      35.154  30.887  27.923  1.00  0.00     0.040 A 
ATOM    106  F   UNL A   1      35.099  28.783  26.885  1.00  0.00    -0.206 F 
ATOM    107  C   UNL A   1      34.553  32.114  28.207  1.00  0.00     0.003 A 
ENDBRANCH  93 101
ENDBRANCH  87  89
ENDBRANCH  81  83
ENDBRANCH  80  81
ENDBRANCH  79  80
ENDBRANCH  78  79
ENDBRANCH  77  78
ENDBRANCH  76  77
ENDBRANCH  75  76
ENDBRANCH  74  75
ENDBRANCH   1  74
TORSDOF 26
ENDMDL
MODEL 3
REMARK VINA RESULT:      -9.3      6.386     14.036
REMARK SMILES O=C(OCCOCCOCCOCCOC(=O)[C@H]1CCCN(c2cc(-c3ccccn3)nc(-c3ccccc3F)n2)C1)c1ccc(-c2c3nc(c(-c4cc(S(=O)(=O)[O-])ccc4F)c4ccc([nH]4)c(-c4cc(S(=O)(=O)[O-])ccc4F)c4nc(c(-c5cc(S(=O)(=O)[O-])ccc5F)c5ccc2[nH]5)C=C4)C=C3)cc1
REMARK SMILES IDX 8 1 7 2 6 3 5 4 4 5 3 6 2 7 1 8 43 9 44 10 105 11 45 12
REMARK SMILES IDX 104 13 46 14 47 15 48 16 98 17 49 18 103 19 97 20 99 21
REMARK SMILES IDX 50 22 102 23 96 24 95 25 51 27 83 28 63 29 82 30 64 31 67 32
REMARK SMILES IDX 81 33 100 34 65 35 66 36 80 38 101 39 68 40 52 41 53 42
REMARK SMILES IDX 61 43 54 44 60 45 62 46 59 47 55 48 56 49 57 50 58 51 84 52
REMARK SMILES IDX 85 53 93 54 86 55 92 56 94 57 91 58 87 59 88 60 89 61 90 62
REMARK SMILES IDX 69 63 70 64 78 65 71 66 77 67 79 68 76 69 72 70 73 71 74 72
REMARK SMILES IDX 75 73 9 74 10 75 11 76 12 77 13 78 14 79 15 80 16 81 17 82
REMARK SMILES IDX 18 83 19 84 42 85 20 86 22 87 21 88 23 89 24 90 41 91 25 92
REMARK SMILES IDX 33 93 32 94 26 95 27 96 31 97 28 98 30 99 29 100 34 101
REMARK SMILES IDX 35 102 39 103 36 104 38 105 40 106 37 107
REMARK H PARENT 99 26 67 37
REMARK Flexibility Score: inf
ROOT
ATOM      1  C   UNL A   1      44.509  38.173  40.635  1.00  0.00     0.188 C 
ENDROOT
BRANCH   1   2
ATOM      2  C   UNL A   1      43.446  37.407  41.417  1.00  0.00     0.188 C 
BRANCH   2   3
ATOM      3  O   UNL A   1      42.657  36.582  40.558  1.00  0.00    -0.376 OA
BRANCH   3   4
ATOM      4  C   UNL A   1      41.779  35.655  41.201  1.00  0.00     0.202 C 
BRANCH   4   5
ATOM      5  C   UNL A   1      41.680  34.292  40.525  1.00  0.00     0.261 C 
BRANCH   5   6
ATOM      6  O   UNL A   1      42.861  33.501  40.697  1.00  0.00    -0.460 OA
BRANCH   6   7
ATOM      7  C   UNL A   1      43.948  33.443  39.889  1.00  0.00     0.338 C 
ATOM      8  O   UNL A   1      44.929  34.117  40.209  1.00  0.00    -0.246 OA
BRANCH   7   9
ATOM      9  C   UNL A   1      44.037  32.648  38.618  1.00  0.00     0.060 A 
ATOM     10  C   UNL A   1      45.169  32.493  37.815  1.00  0.00     0.016 A 
ATOM     11  C   UNL A   1      42.882  31.934  38.250  1.00  0.00     0.016 A 
ATOM     12  C   UNL A   1      45.180  31.671  36.703  1.00  0.00     0.010 A 
ATOM     13  C   UNL A   1      42.865  31.130  37.108  1.00  0.00     0.010 A 
ATOM     14  C   UNL A   1      44.017  31.017  36.327  1.00  0.00    -0.014 A 
BRANCH  14  15
ATOM     15  C   UNL A   1      43.991  30.458  34.970  1.00  0.00     0.031 A 
ATOM     16  C   UNL A   1      44.193  28.979  34.852  1.00  0.00     0.074 A 
ATOM     17  C   UNL A   1      43.591  31.216  33.935  1.00  0.00     0.049 A 
ATOM     18  N   UNL A   1      44.315  28.244  33.785  1.00  0.00    -0.248 NA
ATOM     19  C   UNL A   1      44.239  28.217  36.116  1.00  0.00     0.031 C 
ATOM     20  C   UNL A   1      43.153  32.613  34.029  1.00  0.00     0.029 A 
ATOM     21  N   UNL A   1      43.445  30.910  32.612  1.00  0.00    -0.354 N 
ATOM     22  C   UNL A   1      44.477  26.943  34.248  1.00  0.00     0.074 A 
ATOM     23  C   UNL A   1      44.439  26.981  35.688  1.00  0.00     0.031 C 
ATOM     24  C   UNL A   1      42.774  33.035  32.811  1.00  0.00     0.029 A 
ATOM     25  C   UNL A   1      43.024  31.972  31.845  1.00  0.00     0.049 A 
ATOM     26  H   UNL A   1      43.624  30.015  32.242  1.00  0.00     0.167 HD
ATOM     27  C   UNL A   1      44.649  25.824  33.513  1.00  0.00     0.034 A 
ATOM     28  C   UNL A   1      42.911  32.065  30.506  1.00  0.00     0.034 A 
ATOM     29  C   UNL A   1      44.681  25.849  32.078  1.00  0.00     0.049 A 
ATOM     30  C   UNL A   1      43.287  30.845  29.701  1.00  0.00     0.074 A 
ATOM     31  C   UNL A   1      44.975  24.828  31.198  1.00  0.00     0.029 A 
ATOM     32  N   UNL A   1      44.391  26.975  31.314  1.00  0.00    -0.354 N 
ATOM     33  N   UNL A   1      43.622  29.649  30.132  1.00  0.00    -0.248 NA
ATOM     34  C   UNL A   1      43.300  30.989  28.242  1.00  0.00     0.031 C 
ATOM     35  C   UNL A   1      44.911  25.350  29.903  1.00  0.00     0.029 A 
ATOM     36  C   UNL A   1      44.511  26.678  29.973  1.00  0.00     0.049 A 
ATOM     37  H   UNL A   1      44.138  27.853  31.679  1.00  0.00     0.167 HD
ATOM     38  C   UNL A   1      43.866  28.889  28.994  1.00  0.00     0.074 A 
ATOM     39  C   UNL A   1      43.627  29.762  27.859  1.00  0.00     0.031 C 
ATOM     40  C   UNL A   1      44.252  27.592  28.886  1.00  0.00     0.034 A 
BRANCH  27  41
ATOM     41  C   UNL A   1      44.901  24.540  34.251  1.00  0.00     0.023 A 
ATOM     42  C   UNL A   1      46.201  24.104  34.556  1.00  0.00     0.031 A 
ATOM     43  C   UNL A   1      43.819  23.721  34.621  1.00  0.00     0.131 A 
ATOM     44  C   UNL A   1      46.388  22.863  35.184  1.00  0.00     0.055 A 
ATOM     45  C   UNL A   1      44.009  22.516  35.297  1.00  0.00     0.041 A 
ATOM     46  F   UNL A   1      42.561  24.075  34.317  1.00  0.00    -0.206 F 
ATOM     47  C   UNL A   1      45.300  22.079  35.579  1.00  0.00     0.022 A 
BRANCH  44  48
ATOM     48  S   UNL A   1      48.077  22.247  35.422  1.00  0.00     0.124 S 
ATOM     49  O   UNL A   1      48.170  21.231  34.377  1.00  0.00    -0.237 OA
ATOM     50  O   UNL A   1      48.886  23.444  35.219  1.00  0.00    -0.237 OA
ATOM     51  O   UNL A   1      48.064  21.731  36.789  1.00  0.00    -0.744 OA
ENDBRANCH  44  48
ENDBRANCH  27  41
BRANCH  28  52
ATOM     52  C   UNL A   1      42.519  33.347  29.851  1.00  0.00     0.023 A 
ATOM     53  C   UNL A   1      43.477  34.184  29.260  1.00  0.00     0.031 A 
ATOM     54  C   UNL A   1      41.178  33.779  29.846  1.00  0.00     0.131 A 
ATOM     55  C   UNL A   1      43.088  35.420  28.716  1.00  0.00     0.055 A 
ATOM     56  C   UNL A   1      40.790  34.986  29.260  1.00  0.00     0.041 A 
ATOM     57  F   UNL A   1      40.217  33.026  30.404  1.00  0.00    -0.206 F 
ATOM     58  C   UNL A   1      41.751  35.820  28.701  1.00  0.00     0.022 A 
BRANCH  55  59
ATOM     59  S   UNL A   1      44.372  36.536  28.084  1.00  0.00     0.124 S 
ATOM     60  O   UNL A   1      43.638  37.789  27.955  1.00  0.00    -0.237 OA
ATOM     61  O   UNL A   1      45.370  36.482  29.147  1.00  0.00    -0.237 OA
ATOM     62  O   UNL A   1      44.774  35.914  26.825  1.00  0.00    -0.744 OA
ENDBRANCH  55  59
ENDBRANCH  28  52
BRANCH  40  63
ATOM     63  C   UNL A   1      44.393  27.041  27.498  1.00  0.00     0.023 A 
ATOM     64  C   UNL A   1      45.603  27.139  26.797  1.00  0.00     0.031 A 
ATOM     65  C   UNL A   1      43.320  26.353  26.904  1.00  0.00     0.131 A 
ATOM     66  C   UNL A   1      45.705  26.581  25.516  1.00  0.00     0.055 A 
ATOM     67  C   UNL A   1      43.445  25.752  25.654  1.00  0.00     0.041 A 
ATOM     68  F   UNL A   1      42.148  26.230  27.548  1.00  0.00    -0.206 F 
ATOM     69  C   UNL A   1      44.641  25.870  24.950  1.00  0.00     0.022 A 
BRANCH  66  70
ATOM     70  S   UNL A   1      47.237  26.832  24.585  1.00  0.00     0.124 S 
ATOM     71  O   UNL A   1      47.515  25.486  24.094  1.00  0.00    -0.237 OA
ATOM     72  O   UNL A   1      46.837  27.807  23.576  1.00  0.00    -0.237 OA
ATOM     73  O   UNL A   1      48.171  27.331  25.592  1.00  0.00    -0.744 OA
ENDBRANCH  66  70
ENDBRANCH  40  63
ENDBRANCH  14  15
ENDBRANCH   7   9
ENDBRANCH   6   7
ENDBRANCH   5   6
ENDBRANCH   4   5
ENDBRANCH   3   4
ENDBRANCH   2   3
ENDBRANCH   1   2
BRANCH   1  74
ATOM     74  O   UNL A   1      45.409  37.342  39.910  1.00  0.00    -0.377 OA
BRANCH  74  75
ATOM     75  C   UNL A   1      45.370  37.475  38.496  1.00  0.00     0.188 C 
BRANCH  75  76
ATOM     76  C   UNL A   1      44.253  38.290  37.828  1.00  0.00     0.188 C 
BRANCH  76  77
ATOM     77  O   UNL A   1      43.300  37.496  37.146  1.00  0.00    -0.376 OA
BRANCH  77  78
ATOM     78  C   UNL A   1      43.583  36.101  37.148  1.00  0.00     0.202 C 
BRANCH  78  79
ATOM     79  C   UNL A   1      42.438  35.182  36.692  1.00  0.00     0.261 C 
BRANCH  79  80
ATOM     80  O   UNL A   1      41.715  35.593  35.512  1.00  0.00    -0.463 OA
BRANCH  80  81
ATOM     81  C   UNL A   1      40.363  35.557  35.472  1.00  0.00     0.310 C 
ATOM     82  O   UNL A   1      39.646  36.500  35.792  1.00  0.00    -0.252 OA
BRANCH  81  83
ATOM     83  C   UNL A   1      39.826  34.237  34.895  1.00  0.00     0.118 C 
ATOM     84  C   UNL A   1      39.865  33.121  35.963  1.00  0.00     0.019 C 
ATOM     85  C   UNL A   1      38.457  34.411  34.212  1.00  0.00     0.133 C 
ATOM     86  C   UNL A   1      39.077  31.866  35.582  1.00  0.00     0.022 C 
ATOM     87  N   UNL A   1      37.756  33.142  33.999  1.00  0.00    -0.356 N 
ATOM     88  C   UNL A   1      37.669  32.189  35.088  1.00  0.00     0.118 C 
BRANCH  87  89
ATOM     89  C   UNL A   1      37.650  32.735  32.691  1.00  0.00     0.133 A 
ATOM     90  C   UNL A   1      38.329  31.637  32.215  1.00  0.00     0.077 A 
ATOM     91  N   UNL A   1      36.764  33.382  31.936  1.00  0.00    -0.211 NA
ATOM     92  C   UNL A   1      37.988  31.191  30.948  1.00  0.00     0.095 A 
ATOM     93  C   UNL A   1      36.488  32.892  30.724  1.00  0.00     0.165 A 
ATOM     94  N   UNL A   1      37.056  31.810  30.186  1.00  0.00    -0.226 NA
BRANCH  92  95
ATOM     95  C   UNL A   1      38.582  29.967  30.390  1.00  0.00     0.089 A 
ATOM     96  C   UNL A   1      39.476  30.008  29.318  1.00  0.00     0.030 A 
ATOM     97  N   UNL A   1      38.199  28.796  30.962  1.00  0.00    -0.255 NA
ATOM     98  C   UNL A   1      40.000  28.815  28.825  1.00  0.00     0.004 A 
ATOM     99  C   UNL A   1      38.729  27.657  30.469  1.00  0.00     0.112 A 
ATOM    100  C   UNL A   1      39.622  27.615  29.412  1.00  0.00     0.020 A 
ENDBRANCH  92  95
BRANCH  93 101
ATOM    101  C   UNL A   1      35.477  33.638  29.997  1.00  0.00     0.055 A 
ATOM    102  C   UNL A   1      34.428  34.268  30.696  1.00  0.00     0.015 A 
ATOM    103  C   UNL A   1      35.436  33.651  28.602  1.00  0.00     0.134 A 
ATOM    104  C   UNL A   1      33.389  34.907  30.017  1.00  0.00     0.001 A 
ATOM    105  C   UNL A   1      34.397  34.280  27.917  1.00  0.00     0.040 A 
ATOM    106  F   UNL A   1      36.364  32.999  27.885  1.00  0.00    -0.206 F 
ATOM    107  C   UNL A   1      33.376  34.914  28.626  1.00  0.00     0.003 A 
ENDBRANCH  93 101
ENDBRANCH  87  89
ENDBRANCH  81  83
ENDBRANCH  80  81
ENDBRANCH  79  80
ENDBRANCH  78  79
ENDBRANCH  77  78
ENDBRANCH  76  77
ENDBRANCH  75  76
ENDBRANCH  74  75
ENDBRANCH   1  74
TORSDOF 26
ENDMDL
