MODEL 1
REMARK VINA RESULT:      -9.6      0.000      0.000
REMARK SMILES Cc1cc(C)n(C)c(=O)c1C(=O)[NH+]1CCC2(CC1)C[NH2+][C@@H](C(=O)OCCOCCOCCOCCOC(=O)c1ccc(-c3c4nc(c(-c5cc(S(=O)(=O)[O-])ccc5F)c5ccc([nH]5)c(-c5cc(S(=O)(=O)[O-])ccc5F)c5nc(c(-c6cc(S(=O)(=O)[O-])ccc6F)c6ccc3[nH]6)C=C5)C=C4)cc1)C2
REMARK SMILES IDX 31 1 30 2 29 3 28 4 27 5 26 6 25 7 24 8 22 9 23 10 21 11
REMARK SMILES IDX 13 12 14 13 18 14 15 16 17 17 16 18 19 19 102 20 20 21 11 24
REMARK SMILES IDX 12 25 10 26 1 27 2 28 3 29 4 30 8 31 5 32 6 33 9 34 7 35
REMARK SMILES IDX 32 36 33 37 34 38 35 39 36 40 37 41 38 42 39 43 40 44 101 45
REMARK SMILES IDX 41 46 100 47 42 48 43 49 44 50 94 51 45 52 99 53 93 54 95 55
REMARK SMILES IDX 46 56 98 57 92 58 91 59 47 61 79 62 59 63 78 64 60 65 63 66
REMARK SMILES IDX 77 67 96 68 61 69 62 70 76 72 97 73 64 74 48 75 49 76 57 77
REMARK SMILES IDX 50 78 56 79 58 80 55 81 51 82 52 83 53 84 54 85 80 86 81 87
REMARK SMILES IDX 89 88 82 89 88 90 90 91 87 92 83 93 84 94 85 95 86 96 65 97
REMARK SMILES IDX 66 98 74 99 67 100 73 101 75 102 72 103 68 104 69 105 70 106
REMARK SMILES IDX 71 107
REMARK H PARENT 13 15 20 22 20 23 95 60 63 71
REMARK Flexibility Score: inf
ROOT
ATOM      1  C   UNL A   1      38.972  21.969  26.052  1.00  0.00     0.188 C 
ENDROOT
BRANCH   1   2
ATOM      2  O   UNL A   1      37.586  21.696  25.896  1.00  0.00    -0.377 OA
BRANCH   2   3
ATOM      3  C   UNL A   1      37.228  21.146  24.649  1.00  0.00     0.188 C 
BRANCH   3   4
ATOM      4  C   UNL A   1      37.105  19.616  24.642  1.00  0.00     0.188 C 
BRANCH   4   5
ATOM      5  O   UNL A   1      35.848  18.971  24.836  1.00  0.00    -0.376 OA
BRANCH   5   6
ATOM      6  C   UNL A   1      35.770  17.553  24.929  1.00  0.00     0.202 C 
BRANCH   6   7
ATOM      7  C   UNL A   1      34.414  16.839  24.819  1.00  0.00     0.261 C 
BRANCH   7   8
ATOM      8  O   UNL A   1      33.292  17.712  24.645  1.00  0.00    -0.459 OA
BRANCH   8   9
ATOM      9  C   UNL A   1      32.919  17.982  23.369  1.00  0.00     0.364 C 
ATOM     10  O   UNL A   1      33.102  17.240  22.407  1.00  0.00    -0.245 OA
BRANCH   9  11
ATOM     11  C   UNL A   1      32.202  19.330  23.231  1.00  0.00     0.294 C 
ATOM     12  N   UNL A   1      32.669  24.566  23.872  1.00  0.00    -0.267 N 
ATOM     13  C   UNL A   1      31.994  23.651  24.776  1.00  0.00     0.271 C 
ATOM     14  C   UNL A   1      33.840  23.985  23.228  1.00  0.00     0.271 C 
ATOM     15  H   UNL A   1      32.098  25.267  23.485  1.00  0.00     0.357 HD
ATOM     16  C   UNL A   1      31.331  22.577  23.926  1.00  0.00     0.075 C 
ATOM     17  C   UNL A   1      33.558  22.627  22.546  1.00  0.00     0.075 C 
ATOM     18  C   UNL A   1      32.340  21.780  23.060  1.00  0.00     0.036 C 
ATOM     19  C   UNL A   1      31.581  21.102  21.887  1.00  0.00     0.268 C 
ATOM     20  C   UNL A   1      32.847  20.558  23.853  1.00  0.00     0.090 C 
ATOM     21  N   UNL A   1      32.091  19.736  21.822  1.00  0.00    -0.334 N 
ATOM     22  H   UNL A   1      33.002  19.711  21.364  1.00  0.00     0.347 HD
ATOM     23  H   UNL A   1      31.485  19.118  21.282  1.00  0.00     0.347 HD
BRANCH  12  24
ATOM     24  C   UNL A   1      32.206  25.876  23.808  1.00  0.00     0.350 C 
ATOM     25  O   UNL A   1      31.470  26.214  22.876  1.00  0.00    -0.225 OA
BRANCH  24  26
ATOM     26  C   UNL A   1      32.708  26.958  24.740  1.00  0.00     0.147 A 
ATOM     27  C   UNL A   1      34.058  28.288  23.010  1.00  0.00     0.045 C 
ATOM     28  C   UNL A   1      33.472  28.006  24.355  1.00  0.00    -0.027 A 
ATOM     29  C   UNL A   1      33.712  29.123  25.244  1.00  0.00     0.026 A 
ATOM     30  C   UNL A   1      33.001  29.305  26.360  1.00  0.00     0.018 A 
ATOM     31  C   UNL A   1      32.044  27.067  26.107  1.00  0.00     0.267 A 
ATOM     32  C   UNL A   1      33.188  30.589  27.121  1.00  0.00     0.064 C 
ATOM     33  N   UNL A   1      32.130  28.308  26.774  1.00  0.00    -0.315 N 
ATOM     34  O   UNL A   1      31.444  26.109  26.597  1.00  0.00    -0.268 OA
ATOM     35  C   UNL A   1      31.309  28.500  27.963  1.00  0.00     0.153 C 
ENDBRANCH  24  26
ENDBRANCH  12  24
ENDBRANCH   9  11
ENDBRANCH   8   9
ENDBRANCH   7   8
ENDBRANCH   6   7
ENDBRANCH   5   6
ENDBRANCH   4   5
ENDBRANCH   3   4
ENDBRANCH   2   3
ENDBRANCH   1   2
BRANCH   1  36
ATOM     36  C   UNL A   1      39.892  20.754  26.314  1.00  0.00     0.188 C 
BRANCH  36  37
ATOM     37  O   UNL A   1      41.200  21.085  26.776  1.00  0.00    -0.376 OA
BRANCH  37  38
ATOM     38  C   UNL A   1      42.321  20.601  26.043  1.00  0.00     0.202 C 
BRANCH  38  39
ATOM     39  C   UNL A   1      43.502  21.565  25.812  1.00  0.00     0.261 C 
BRANCH  39  40
ATOM     40  O   UNL A   1      43.209  22.786  25.117  1.00  0.00    -0.460 OA
BRANCH  40  41
ATOM     41  C   UNL A   1      44.241  23.607  24.821  1.00  0.00     0.338 C 
ATOM     42  O   UNL A   1      45.056  23.458  23.928  1.00  0.00    -0.246 OA
BRANCH  41  43
ATOM     43  C   UNL A   1      44.073  24.841  25.618  1.00  0.00     0.060 A 
ATOM     44  C   UNL A   1      43.531  25.973  24.995  1.00  0.00     0.016 A 
ATOM     45  C   UNL A   1      44.419  24.877  26.971  1.00  0.00     0.016 A 
ATOM     46  C   UNL A   1      43.357  27.152  25.716  1.00  0.00     0.010 A 
ATOM     47  C   UNL A   1      44.279  26.071  27.684  1.00  0.00     0.010 A 
ATOM     48  C   UNL A   1      43.779  27.222  27.049  1.00  0.00    -0.014 A 
BRANCH  48  49
ATOM     49  C   UNL A   1      43.939  28.551  27.684  1.00  0.00     0.031 A 
ATOM     50  C   UNL A   1      42.732  29.159  28.346  1.00  0.00     0.074 A 
ATOM     51  C   UNL A   1      45.127  29.176  27.739  1.00  0.00     0.049 A 
ATOM     52  N   UNL A   1      42.607  30.308  28.957  1.00  0.00    -0.248 NA
ATOM     53  C   UNL A   1      41.502  28.353  28.314  1.00  0.00     0.031 C 
ATOM     54  C   UNL A   1      46.385  28.649  27.214  1.00  0.00     0.029 A 
ATOM     55  N   UNL A   1      45.468  30.390  28.282  1.00  0.00    -0.354 N 
ATOM     56  C   UNL A   1      41.290  30.353  29.399  1.00  0.00     0.074 A 
ATOM     57  C   UNL A   1      40.644  29.145  28.937  1.00  0.00     0.031 C 
ATOM     58  C   UNL A   1      47.366  29.533  27.475  1.00  0.00     0.029 A 
ATOM     59  C   UNL A   1      46.799  30.699  28.150  1.00  0.00     0.049 A 
ATOM     60  H   UNL A   1      44.818  30.982  28.724  1.00  0.00     0.167 HD
ATOM     61  C   UNL A   1      40.677  31.306  30.141  1.00  0.00     0.034 A 
ATOM     62  C   UNL A   1      47.478  31.803  28.525  1.00  0.00     0.034 A 
ATOM     63  C   UNL A   1      41.318  32.522  30.571  1.00  0.00     0.049 A 
ATOM     64  C   UNL A   1      46.743  32.927  29.212  1.00  0.00     0.074 A 
ATOM     65  C   UNL A   1      40.779  33.572  31.293  1.00  0.00     0.029 A 
ATOM     66  N   UNL A   1      42.640  32.855  30.310  1.00  0.00    -0.354 N 
ATOM     67  N   UNL A   1      45.484  32.987  29.579  1.00  0.00    -0.248 NA
ATOM     68  C   UNL A   1      47.519  34.134  29.528  1.00  0.00     0.031 C 
ATOM     69  C   UNL A   1      41.754  34.567  31.410  1.00  0.00     0.029 A 
ATOM     70  C   UNL A   1      42.926  34.109  30.826  1.00  0.00     0.049 A 
ATOM     71  H   UNL A   1      43.282  32.284  29.829  1.00  0.00     0.167 HD
ATOM     72  C   UNL A   1      45.322  34.227  30.191  1.00  0.00     0.074 A 
ATOM     73  C   UNL A   1      46.614  34.884  30.142  1.00  0.00     0.031 C 
ATOM     74  C   UNL A   1      44.210  34.766  30.752  1.00  0.00     0.034 A 
BRANCH  61  75
ATOM     75  C   UNL A   1      39.228  31.075  30.486  1.00  0.00     0.023 A 
ATOM     76  C   UNL A   1      38.201  31.764  29.818  1.00  0.00     0.031 A 
ATOM     77  C   UNL A   1      38.871  30.197  31.522  1.00  0.00     0.131 A 
ATOM     78  C   UNL A   1      36.872  31.617  30.241  1.00  0.00     0.055 A 
ATOM     79  C   UNL A   1      37.539  29.997  31.889  1.00  0.00     0.041 A 
ATOM     80  F   UNL A   1      39.813  29.533  32.212  1.00  0.00    -0.206 F 
ATOM     81  C   UNL A   1      36.531  30.719  31.256  1.00  0.00     0.022 A 
BRANCH  78  82
ATOM     82  S   UNL A   1      35.614  32.718  29.539  1.00  0.00     0.124 S 
ATOM     83  O   UNL A   1      36.043  34.019  30.048  1.00  0.00    -0.237 OA
ATOM     84  O   UNL A   1      35.776  32.508  28.104  1.00  0.00    -0.237 OA
ATOM     85  O   UNL A   1      34.365  32.216  30.106  1.00  0.00    -0.744 OA
ENDBRANCH  78  82
ENDBRANCH  61  75
BRANCH  62  86
ATOM     86  C   UNL A   1      48.938  31.899  28.249  1.00  0.00     0.023 A 
ATOM     87  C   UNL A   1      49.407  32.453  27.050  1.00  0.00     0.031 A 
ATOM     88  C   UNL A   1      49.883  31.462  29.195  1.00  0.00     0.131 A 
ATOM     89  C   UNL A   1      50.788  32.556  26.823  1.00  0.00     0.055 A 
ATOM     90  C   UNL A   1      51.255  31.595  28.978  1.00  0.00     0.041 A 
ATOM     91  F   UNL A   1      49.480  30.927  30.359  1.00  0.00    -0.206 F 
ATOM     92  C   UNL A   1      51.715  32.145  27.785  1.00  0.00     0.022 A 
BRANCH  89  93
ATOM     93  S   UNL A   1      51.364  33.246  25.248  1.00  0.00     0.124 S 
ATOM     94  O   UNL A   1      50.264  34.135  24.893  1.00  0.00    -0.237 OA
ATOM     95  O   UNL A   1      52.614  33.892  25.635  1.00  0.00    -0.237 OA
ATOM     96  O   UNL A   1      51.515  32.068  24.397  1.00  0.00    -0.744 OA
ENDBRANCH  89  93
ENDBRANCH  62  86
BRANCH  74  97
ATOM     97  C   UNL A   1      44.331  36.132  31.377  1.00  0.00     0.023 A 
ATOM     98  C   UNL A   1      44.011  37.299  30.664  1.00  0.00     0.031 A 
ATOM     99  C   UNL A   1      44.710  36.261  32.725  1.00  0.00     0.131 A 
ATOM    100  C   UNL A   1      44.100  38.549  31.295  1.00  0.00     0.055 A 
ATOM    101  C   UNL A   1      44.751  37.503  33.362  1.00  0.00     0.041 A 
ATOM    102  F   UNL A   1      45.022  35.177  33.454  1.00  0.00    -0.206 F 
ATOM    103  C   UNL A   1      44.449  38.656  32.645  1.00  0.00     0.022 A 
BRANCH 100 104
ATOM    104  S   UNL A   1      43.786  40.044  30.319  1.00  0.00     0.124 S 
ATOM    105  O   UNL A   1      42.825  39.563  29.331  1.00  0.00    -0.237 OA
ATOM    106  O   UNL A   1      43.263  40.971  31.318  1.00  0.00    -0.237 OA
ATOM    107  O   UNL A   1      45.103  40.390  29.786  1.00  0.00    -0.744 OA
ENDBRANCH 100 104
ENDBRANCH  74  97
ENDBRANCH  48  49
ENDBRANCH  41  43
ENDBRANCH  40  41
ENDBRANCH  39  40
ENDBRANCH  38  39
ENDBRANCH  37  38
ENDBRANCH  36  37
ENDBRANCH   1  36
TORSDOF 25
ENDMDL
MODEL 2
REMARK VINA RESULT:      -9.5      3.056      8.505
REMARK SMILES Cc1cc(C)n(C)c(=O)c1C(=O)[NH+]1CCC2(CC1)C[NH2+][C@@H](C(=O)OCCOCCOCCOCCOC(=O)c1ccc(-c3c4nc(c(-c5cc(S(=O)(=O)[O-])ccc5F)c5ccc([nH]5)c(-c5cc(S(=O)(=O)[O-])ccc5F)c5nc(c(-c6cc(S(=O)(=O)[O-])ccc6F)c6ccc3[nH]6)C=C5)C=C4)cc1)C2
REMARK SMILES IDX 31 1 30 2 29 3 28 4 27 5 26 6 25 7 24 8 22 9 23 10 21 11
REMARK SMILES IDX 13 12 14 13 18 14 15 16 17 17 16 18 19 19 102 20 20 21 11 24
REMARK SMILES IDX 12 25 10 26 1 27 2 28 3 29 4 30 8 31 5 32 6 33 9 34 7 35
REMARK SMILES IDX 32 36 33 37 34 38 35 39 36 40 37 41 38 42 39 43 40 44 101 45
REMARK SMILES IDX 41 46 100 47 42 48 43 49 44 50 94 51 45 52 99 53 93 54 95 55
REMARK SMILES IDX 46 56 98 57 92 58 91 59 47 61 79 62 59 63 78 64 60 65 63 66
REMARK SMILES IDX 77 67 96 68 61 69 62 70 76 72 97 73 64 74 48 75 49 76 57 77
REMARK SMILES IDX 50 78 56 79 58 80 55 81 51 82 52 83 53 84 54 85 80 86 81 87
REMARK SMILES IDX 89 88 82 89 88 90 90 91 87 92 83 93 84 94 85 95 86 96 65 97
REMARK SMILES IDX 66 98 74 99 67 100 73 101 75 102 72 103 68 104 69 105 70 106
REMARK SMILES IDX 71 107
REMARK H PARENT 13 15 20 22 20 23 95 60 63 71
REMARK Flexibility Score: inf
ROOT
ATOM      1  C   UNL A   1      35.396  20.152  25.095  1.00  0.00     0.188 C 
ENDROOT
BRANCH   1   2
ATOM      2  O   UNL A   1      34.354  20.836  24.414  1.00  0.00    -0.377 OA
BRANCH   2   3
ATOM      3  C   UNL A   1      33.051  20.459  24.794  1.00  0.00     0.188 C 
BRANCH   3   4
ATOM      4  C   UNL A   1      32.075  21.632  24.966  1.00  0.00     0.188 C 
BRANCH   4   5
ATOM      5  O   UNL A   1      31.776  22.167  26.253  1.00  0.00    -0.376 OA
BRANCH   5   6
ATOM      6  C   UNL A   1      31.428  23.539  26.402  1.00  0.00     0.202 C 
BRANCH   6   7
ATOM      7  C   UNL A   1      32.315  24.638  25.796  1.00  0.00     0.261 C 
BRANCH   7   8
ATOM      8  O   UNL A   1      31.741  25.315  24.672  1.00  0.00    -0.459 OA
BRANCH   8   9
ATOM      9  C   UNL A   1      30.841  26.292  24.942  1.00  0.00     0.364 C 
ATOM     10  O   UNL A   1      29.643  26.113  25.151  1.00  0.00    -0.245 OA
BRANCH   9  11
ATOM     11  C   UNL A   1      31.473  27.688  24.989  1.00  0.00     0.294 C 
ATOM     12  N   UNL A   1      34.354  31.038  27.908  1.00  0.00    -0.267 N 
ATOM     13  C   UNL A   1      32.911  31.071  27.744  1.00  0.00     0.271 C 
ATOM     14  C   UNL A   1      34.905  29.690  27.915  1.00  0.00     0.271 C 
ATOM     15  H   UNL A   1      34.827  31.844  27.598  1.00  0.00     0.357 HD
ATOM     16  C   UNL A   1      32.605  30.646  26.316  1.00  0.00     0.075 C 
ATOM     17  C   UNL A   1      34.458  28.835  26.709  1.00  0.00     0.075 C 
ATOM     18  C   UNL A   1      33.120  29.221  25.983  1.00  0.00     0.036 C 
ATOM     19  C   UNL A   1      33.241  29.069  24.443  1.00  0.00     0.268 C 
ATOM     20  C   UNL A   1      32.024  28.187  26.315  1.00  0.00     0.090 C 
ATOM     21  N   UNL A   1      32.661  27.769  24.126  1.00  0.00    -0.334 N 
ATOM     22  H   UNL A   1      33.317  27.018  24.341  1.00  0.00     0.347 HD
ATOM     23  H   UNL A   1      32.434  27.672  23.136  1.00  0.00     0.347 HD
BRANCH  12  24
ATOM     24  C   UNL A   1      35.009  32.243  28.141  1.00  0.00     0.350 C 
ATOM     25  O   UNL A   1      35.614  32.794  27.215  1.00  0.00    -0.225 OA
BRANCH  24  26
ATOM     26  C   UNL A   1      35.160  32.827  29.529  1.00  0.00     0.147 A 
ATOM     27  C   UNL A   1      33.323  34.610  29.343  1.00  0.00     0.045 C 
ATOM     28  C   UNL A   1      34.390  33.821  30.029  1.00  0.00    -0.027 A 
ATOM     29  C   UNL A   1      34.431  34.162  31.435  1.00  0.00     0.026 A 
ATOM     30  C   UNL A   1      35.012  33.369  32.340  1.00  0.00     0.018 A 
ATOM     31  C   UNL A   1      35.986  32.036  30.535  1.00  0.00     0.267 A 
ATOM     32  C   UNL A   1      34.842  33.706  33.796  1.00  0.00     0.064 C 
ATOM     33  N   UNL A   1      35.750  32.278  31.905  1.00  0.00    -0.315 N 
ATOM     34  O   UNL A   1      36.816  31.206  30.158  1.00  0.00    -0.268 OA
ATOM     35  C   UNL A   1      36.356  31.371  32.871  1.00  0.00     0.153 C 
ENDBRANCH  24  26
ENDBRANCH  12  24
ENDBRANCH   9  11
ENDBRANCH   8   9
ENDBRANCH   7   8
ENDBRANCH   6   7
ENDBRANCH   5   6
ENDBRANCH   4   5
ENDBRANCH   3   4
ENDBRANCH   2   3
ENDBRANCH   1   2
BRANCH   1  36
ATOM     36  C   UNL A   1      36.840  20.449  24.629  1.00  0.00     0.188 C 
BRANCH  36  37
ATOM     37  O   UNL A   1      37.014  21.717  23.999  1.00  0.00    -0.376 OA
BRANCH  37  38
ATOM     38  C   UNL A   1      36.624  22.887  24.711  1.00  0.00     0.202 C 
BRANCH  38  39
ATOM     39  C   UNL A   1      37.733  23.746  25.350  1.00  0.00     0.261 C 
BRANCH  39  40
ATOM     40  O   UNL A   1      38.082  23.438  26.708  1.00  0.00    -0.460 OA
BRANCH  40  41
ATOM     41  C   UNL A   1      39.367  23.108  26.969  1.00  0.00     0.338 C 
ATOM     42  O   UNL A   1      39.932  22.076  26.654  1.00  0.00    -0.246 OA
BRANCH  41  43
ATOM     43  C   UNL A   1      40.039  24.315  27.498  1.00  0.00     0.060 A 
ATOM     44  C   UNL A   1      39.464  25.567  27.245  1.00  0.00     0.016 A 
ATOM     45  C   UNL A   1      41.207  24.214  28.258  1.00  0.00     0.016 A 
ATOM     46  C   UNL A   1      40.070  26.725  27.730  1.00  0.00     0.010 A 
ATOM     47  C   UNL A   1      41.834  25.378  28.712  1.00  0.00     0.010 A 
ATOM     48  C   UNL A   1      41.285  26.640  28.420  1.00  0.00    -0.014 A 
BRANCH  48  49
ATOM     49  C   UNL A   1      42.098  27.865  28.599  1.00  0.00     0.031 A 
ATOM     50  C   UNL A   1      43.495  27.864  28.043  1.00  0.00     0.074 A 
ATOM     51  C   UNL A   1      41.599  28.972  29.173  1.00  0.00     0.049 A 
ATOM     52  N   UNL A   1      44.408  28.800  28.078  1.00  0.00    -0.248 NA
ATOM     53  C   UNL A   1      43.915  26.637  27.348  1.00  0.00     0.031 C 
ATOM     54  C   UNL A   1      40.234  29.127  29.670  1.00  0.00     0.029 A 
ATOM     55  N   UNL A   1      42.188  30.188  29.418  1.00  0.00    -0.354 N 
ATOM     56  C   UNL A   1      45.501  28.282  27.394  1.00  0.00     0.074 A 
ATOM     57  C   UNL A   1      45.159  26.931  27.006  1.00  0.00     0.031 C 
ATOM     58  C   UNL A   1      40.086  30.375  30.149  1.00  0.00     0.029 A 
ATOM     59  C   UNL A   1      41.354  31.094  30.026  1.00  0.00     0.049 A 
ATOM     60  H   UNL A   1      43.121  30.390  29.180  1.00  0.00     0.167 HD
ATOM     61  C   UNL A   1      46.678  28.883  27.097  1.00  0.00     0.034 A 
ATOM     62  C   UNL A   1      41.592  32.354  30.443  1.00  0.00     0.034 A 
ATOM     63  C   UNL A   1      47.024  30.217  27.514  1.00  0.00     0.049 A 
ATOM     64  C   UNL A   1      42.962  32.953  30.245  1.00  0.00     0.074 A 
ATOM     65  C   UNL A   1      48.203  30.907  27.301  1.00  0.00     0.029 A 
ATOM     66  N   UNL A   1      46.193  31.061  28.239  1.00  0.00    -0.354 N 
ATOM     67  N   UNL A   1      44.009  32.437  29.645  1.00  0.00    -0.248 NA
ATOM     68  C   UNL A   1      43.183  34.301  30.787  1.00  0.00     0.031 C 
ATOM     69  C   UNL A   1      48.110  32.141  27.953  1.00  0.00     0.029 A 
ATOM     70  C   UNL A   1      46.845  32.252  28.511  1.00  0.00     0.049 A 
ATOM     71  H   UNL A   1      45.273  30.844  28.518  1.00  0.00     0.167 HD
ATOM     72  C   UNL A   1      45.007  33.406  29.716  1.00  0.00     0.074 A 
ATOM     73  C   UNL A   1      44.436  34.538  30.419  1.00  0.00     0.031 C 
ATOM     74  C   UNL A   1      46.275  33.365  29.233  1.00  0.00     0.034 A 
BRANCH  61  75
ATOM     75  C   UNL A   1      47.682  28.070  26.321  1.00  0.00     0.023 A 
ATOM     76  C   UNL A   1      48.758  27.433  26.964  1.00  0.00     0.031 A 
ATOM     77  C   UNL A   1      47.593  27.968  24.923  1.00  0.00     0.131 A 
ATOM     78  C   UNL A   1      49.741  26.784  26.204  1.00  0.00     0.055 A 
ATOM     79  C   UNL A   1      48.533  27.255  24.178  1.00  0.00     0.041 A 
ATOM     80  F   UNL A   1      46.601  28.578  24.255  1.00  0.00    -0.206 F 
ATOM     81  C   UNL A   1      49.623  26.669  24.816  1.00  0.00     0.022 A 
BRANCH  78  82
ATOM     82  S   UNL A   1      51.244  26.212  27.041  1.00  0.00     0.124 S 
ATOM     83  O   UNL A   1      51.387  24.862  26.500  1.00  0.00    -0.237 OA
ATOM     84  O   UNL A   1      52.239  27.185  26.604  1.00  0.00    -0.237 OA
ATOM     85  O   UNL A   1      50.891  26.274  28.458  1.00  0.00    -0.744 OA
ENDBRANCH  78  82
ENDBRANCH  61  75
BRANCH  62  86
ATOM     86  C   UNL A   1      40.504  33.132  31.097  1.00  0.00     0.023 A 
ATOM     87  C   UNL A   1      40.439  33.240  32.493  1.00  0.00     0.031 A 
ATOM     88  C   UNL A   1      39.531  33.799  30.331  1.00  0.00     0.131 A 
ATOM     89  C   UNL A   1      39.418  34.000  33.086  1.00  0.00     0.055 A 
ATOM     90  C   UNL A   1      38.536  34.577  30.924  1.00  0.00     0.041 A 
ATOM     91  F   UNL A   1      39.554  33.725  28.991  1.00  0.00    -0.206 F 
ATOM     92  C   UNL A   1      38.476  34.681  32.310  1.00  0.00     0.022 A 
BRANCH  89  93
ATOM     93  S   UNL A   1      39.340  34.094  34.896  1.00  0.00     0.124 S 
ATOM     94  O   UNL A   1      38.065  33.444  35.172  1.00  0.00    -0.237 OA
ATOM     95  O   UNL A   1      40.537  33.360  35.292  1.00  0.00    -0.237 OA
ATOM     96  O   UNL A   1      39.380  35.531  35.162  1.00  0.00    -0.744 OA
ENDBRANCH  89  93
ENDBRANCH  62  86
BRANCH  74  97
ATOM     97  C   UNL A   1      47.140  34.585  29.429  1.00  0.00     0.023 A 
ATOM     98  C   UNL A   1      47.081  35.677  28.548  1.00  0.00     0.031 A 
ATOM     99  C   UNL A   1      47.986  34.679  30.548  1.00  0.00     0.131 A 
ATOM    100  C   UNL A   1      47.875  36.809  28.787  1.00  0.00     0.055 A 
ATOM    101  C   UNL A   1      48.737  35.827  30.807  1.00  0.00     0.041 A 
ATOM    102  F   UNL A   1      48.077  33.666  31.424  1.00  0.00    -0.206 F 
ATOM    103  C   UNL A   1      48.686  36.899  29.921  1.00  0.00     0.022 A 
BRANCH 100 104
ATOM    104  S   UNL A   1      47.859  38.158  27.575  1.00  0.00     0.124 S 
ATOM    105  O   UNL A   1      47.723  39.332  28.432  1.00  0.00    -0.237 OA
ATOM    106  O   UNL A   1      49.148  38.001  26.909  1.00  0.00    -0.237 OA
ATOM    107  O   UNL A   1      46.693  37.860  26.744  1.00  0.00    -0.744 OA
ENDBRANCH 100 104
ENDBRANCH  74  97
ENDBRANCH  48  49
ENDBRANCH  41  43
ENDBRANCH  40  41
ENDBRANCH  39  40
ENDBRANCH  38  39
ENDBRANCH  37  38
ENDBRANCH  36  37
ENDBRANCH   1  36
TORSDOF 25
ENDMDL
MODEL 3
REMARK VINA RESULT:      -9.4      3.448      8.608
REMARK SMILES Cc1cc(C)n(C)c(=O)c1C(=O)[NH+]1CCC2(CC1)C[NH2+][C@@H](C(=O)OCCOCCOCCOCCOC(=O)c1ccc(-c3c4nc(c(-c5cc(S(=O)(=O)[O-])ccc5F)c5ccc([nH]5)c(-c5cc(S(=O)(=O)[O-])ccc5F)c5nc(c(-c6cc(S(=O)(=O)[O-])ccc6F)c6ccc3[nH]6)C=C5)C=C4)cc1)C2
REMARK SMILES IDX 31 1 30 2 29 3 28 4 27 5 26 6 25 7 24 8 22 9 23 10 21 11
REMARK SMILES IDX 13 12 14 13 18 14 15 16 17 17 16 18 19 19 102 20 20 21 11 24
REMARK SMILES IDX 12 25 10 26 1 27 2 28 3 29 4 30 8 31 5 32 6 33 9 34 7 35
REMARK SMILES IDX 32 36 33 37 34 38 35 39 36 40 37 41 38 42 39 43 40 44 101 45
REMARK SMILES IDX 41 46 100 47 42 48 43 49 44 50 94 51 45 52 99 53 93 54 95 55
REMARK SMILES IDX 46 56 98 57 92 58 91 59 47 61 79 62 59 63 78 64 60 65 63 66
REMARK SMILES IDX 77 67 96 68 61 69 62 70 76 72 97 73 64 74 48 75 49 76 57 77
REMARK SMILES IDX 50 78 56 79 58 80 55 81 51 82 52 83 53 84 54 85 80 86 81 87
REMARK SMILES IDX 89 88 82 89 88 90 90 91 87 92 83 93 84 94 85 95 86 96 65 97
REMARK SMILES IDX 66 98 74 99 67 100 73 101 75 102 72 103 68 104 69 105 70 106
REMARK SMILES IDX 71 107
REMARK H PARENT 13 15 20 22 20 23 95 60 63 71
REMARK Flexibility Score: inf
ROOT
ATOM      1  C   UNL A   1      35.099  20.009  25.038  1.00  0.00     0.188 C 
ENDROOT
BRANCH   1   2
ATOM      2  O   UNL A   1      34.117  20.652  24.238  1.00  0.00    -0.377 OA
BRANCH   2   3
ATOM      3  C   UNL A   1      32.788  20.272  24.513  1.00  0.00     0.188 C 
BRANCH   3   4
ATOM      4  C   UNL A   1      31.782  21.432  24.512  1.00  0.00     0.188 C 
BRANCH   4   5
ATOM      5  O   UNL A   1      31.284  21.984  25.728  1.00  0.00    -0.376 OA
BRANCH   5   6
ATOM      6  C   UNL A   1      31.019  23.378  25.833  1.00  0.00     0.202 C 
BRANCH   6   7
ATOM      7  C   UNL A   1      32.100  24.407  25.464  1.00  0.00     0.261 C 
BRANCH   7   8
ATOM      8  O   UNL A   1      31.913  25.037  24.192  1.00  0.00    -0.459 OA
BRANCH   8   9
ATOM      9  C   UNL A   1      31.028  26.063  24.143  1.00  0.00     0.364 C 
ATOM     10  O   UNL A   1      29.813  25.944  24.004  1.00  0.00    -0.245 OA
BRANCH   9  11
ATOM     11  C   UNL A   1      31.695  27.434  24.306  1.00  0.00     0.294 C 
ATOM     12  N   UNL A   1      34.041  30.725  27.728  1.00  0.00    -0.267 N 
ATOM     13  C   UNL A   1      32.666  30.812  27.265  1.00  0.00     0.271 C 
ATOM     14  C   UNL A   1      34.520  29.357  27.865  1.00  0.00     0.271 C 
ATOM     15  H   UNL A   1      34.602  31.505  27.515  1.00  0.00     0.357 HD
ATOM     16  C   UNL A   1      32.648  30.370  25.808  1.00  0.00     0.075 C 
ATOM     17  C   UNL A   1      34.300  28.496  26.601  1.00  0.00     0.075 C 
ATOM     18  C   UNL A   1      33.161  28.921  25.607  1.00  0.00     0.036 C 
ATOM     19  C   UNL A   1      33.595  28.734  24.128  1.00  0.00     0.268 C 
ATOM     20  C   UNL A   1      31.977  27.936  25.713  1.00  0.00     0.090 C 
ATOM     21  N   UNL A   1      33.040  27.451  23.711  1.00  0.00    -0.334 N 
ATOM     22  H   UNL A   1      33.603  26.679  24.067  1.00  0.00     0.347 HD
ATOM     23  H   UNL A   1      33.020  27.344  22.696  1.00  0.00     0.347 HD
BRANCH  12  24
ATOM     24  C   UNL A   1      34.683  31.908  28.080  1.00  0.00     0.350 C 
ATOM     25  O   UNL A   1      35.651  32.293  27.416  1.00  0.00    -0.225 OA
BRANCH  24  26
ATOM     26  C   UNL A   1      34.355  32.660  29.352  1.00  0.00     0.147 A 
ATOM     27  C   UNL A   1      35.957  31.395  30.908  1.00  0.00     0.045 C 
ATOM     28  C   UNL A   1      34.952  32.440  30.546  1.00  0.00    -0.027 A 
ATOM     29  C   UNL A   1      34.763  33.350  31.655  1.00  0.00     0.026 A 
ATOM     30  C   UNL A   1      34.224  34.562  31.492  1.00  0.00     0.018 A 
ATOM     31  C   UNL A   1      33.565  33.955  29.215  1.00  0.00     0.267 A 
ATOM     32  C   UNL A   1      34.240  35.511  32.659  1.00  0.00     0.064 C 
ATOM     33  N   UNL A   1      33.666  34.892  30.265  1.00  0.00    -0.315 N 
ATOM     34  O   UNL A   1      32.878  34.175  28.216  1.00  0.00    -0.268 OA
ATOM     35  C   UNL A   1      33.112  36.222  30.047  1.00  0.00     0.153 C 
ENDBRANCH  24  26
ENDBRANCH  12  24
ENDBRANCH   9  11
ENDBRANCH   8   9
ENDBRANCH   7   8
ENDBRANCH   6   7
ENDBRANCH   5   6
ENDBRANCH   4   5
ENDBRANCH   3   4
ENDBRANCH   2   3
ENDBRANCH   1   2
BRANCH   1  36
ATOM     36  C   UNL A   1      36.576  20.340  24.720  1.00  0.00     0.188 C 
BRANCH  36  37
ATOM     37  O   UNL A   1      36.775  21.571  24.027  1.00  0.00    -0.376 OA
BRANCH  37  38
ATOM     38  C   UNL A   1      36.377  22.781  24.664  1.00  0.00     0.202 C 
BRANCH  38  39
ATOM     39  C   UNL A   1      37.480  23.774  25.080  1.00  0.00     0.261 C 
BRANCH  39  40
ATOM     40  O   UNL A   1      37.936  23.695  26.439  1.00  0.00    -0.460 OA
BRANCH  40  41
ATOM     41  C   UNL A   1      39.226  23.350  26.652  1.00  0.00     0.338 C 
ATOM     42  O   UNL A   1      39.786  22.346  26.251  1.00  0.00    -0.246 OA
BRANCH  41  43
ATOM     43  C   UNL A   1      39.906  24.516  27.257  1.00  0.00     0.060 A 
ATOM     44  C   UNL A   1      39.558  25.799  26.815  1.00  0.00     0.016 A 
ATOM     45  C   UNL A   1      40.855  24.351  28.269  1.00  0.00     0.016 A 
ATOM     46  C   UNL A   1      40.177  26.920  27.364  1.00  0.00     0.010 A 
ATOM     47  C   UNL A   1      41.503  25.474  28.792  1.00  0.00     0.010 A 
ATOM     48  C   UNL A   1      41.189  26.760  28.317  1.00  0.00    -0.014 A 
BRANCH  48  49
ATOM     49  C   UNL A   1      42.086  27.902  28.614  1.00  0.00     0.031 A 
ATOM     50  C   UNL A   1      43.488  27.848  28.073  1.00  0.00     0.074 A 
ATOM     51  C   UNL A   1      41.658  28.987  29.280  1.00  0.00     0.049 A 
ATOM     52  N   UNL A   1      44.464  28.708  28.201  1.00  0.00    -0.248 NA
ATOM     53  C   UNL A   1      43.830  26.660  27.275  1.00  0.00     0.031 C 
ATOM     54  C   UNL A   1      40.300  29.196  29.776  1.00  0.00     0.029 A 
ATOM     55  N   UNL A   1      42.329  30.130  29.639  1.00  0.00    -0.354 N 
ATOM     56  C   UNL A   1      45.529  28.175  27.484  1.00  0.00     0.074 A 
ATOM     57  C   UNL A   1      45.097  26.893  26.973  1.00  0.00     0.031 C 
ATOM     58  C   UNL A   1      40.234  30.404  30.363  1.00  0.00     0.029 A 
ATOM     59  C   UNL A   1      41.552  31.037  30.318  1.00  0.00     0.049 A 
ATOM     60  H   UNL A   1      43.278  30.284  29.429  1.00  0.00     0.167 HD
ATOM     61  C   UNL A   1      46.750  28.712  27.254  1.00  0.00     0.034 A 
ATOM     62  C   UNL A   1      41.873  32.234  30.848  1.00  0.00     0.034 A 
ATOM     63  C   UNL A   1      47.184  29.975  27.792  1.00  0.00     0.049 A 
ATOM     64  C   UNL A   1      43.286  32.747  30.718  1.00  0.00     0.074 A 
ATOM     65  C   UNL A   1      48.414  30.594  27.654  1.00  0.00     0.029 A 
ATOM     66  N   UNL A   1      46.404  30.810  28.582  1.00  0.00    -0.354 N 
ATOM     67  N   UNL A   1      44.303  32.211  30.084  1.00  0.00    -0.248 NA
ATOM     68  C   UNL A   1      43.594  34.021  31.381  1.00  0.00     0.031 C 
ATOM     69  C   UNL A   1      48.399  31.768  28.413  1.00  0.00     0.029 A 
ATOM     70  C   UNL A   1      47.136  31.921  28.966  1.00  0.00     0.049 A 
ATOM     71  H   UNL A   1      45.467  30.637  28.831  1.00  0.00     0.167 HD
ATOM     72  C   UNL A   1      45.366  33.094  30.252  1.00  0.00     0.074 A 
ATOM     73  C   UNL A   1      44.866  34.198  31.048  1.00  0.00     0.031 C 
ATOM     74  C   UNL A   1      46.636  33.005  29.780  1.00  0.00     0.034 A 
BRANCH  61  75
ATOM     75  C   UNL A   1      47.706  27.900  26.418  1.00  0.00     0.023 A 
ATOM     76  C   UNL A   1      48.725  27.135  27.012  1.00  0.00     0.031 A 
ATOM     77  C   UNL A   1      47.631  27.927  25.016  1.00  0.00     0.131 A 
ATOM     78  C   UNL A   1      49.671  26.486  26.205  1.00  0.00     0.055 A 
ATOM     79  C   UNL A   1      48.529  27.217  24.219  1.00  0.00     0.041 A 
ATOM     80  F   UNL A   1      46.694  28.663  24.396  1.00  0.00    -0.206 F 
ATOM     81  C   UNL A   1      49.566  26.501  24.812  1.00  0.00     0.022 A 
BRANCH  78  82
ATOM     82  S   UNL A   1      51.117  25.737  27.002  1.00  0.00     0.124 S 
ATOM     83  O   UNL A   1      50.516  24.602  27.698  1.00  0.00    -0.237 OA
ATOM     84  O   UNL A   1      51.970  25.410  25.864  1.00  0.00    -0.237 OA
ATOM     85  O   UNL A   1      51.618  26.799  27.871  1.00  0.00    -0.744 OA
ENDBRANCH  78  82
ENDBRANCH  61  75
BRANCH  62  86
ATOM     86  C   UNL A   1      40.833  33.028  31.558  1.00  0.00     0.023 A 
ATOM     87  C   UNL A   1      40.696  32.948  32.952  1.00  0.00     0.031 A 
ATOM     88  C   UNL A   1      39.980  33.897  30.855  1.00  0.00     0.131 A 
ATOM     89  C   UNL A   1      39.726  33.726  33.602  1.00  0.00     0.055 A 
ATOM     90  C   UNL A   1      39.037  34.690  31.509  1.00  0.00     0.041 A 
ATOM     91  F   UNL A   1      40.076  34.008  29.520  1.00  0.00    -0.206 F 
ATOM     92  C   UNL A   1      38.905  34.607  32.892  1.00  0.00     0.022 A 
BRANCH  89  93
ATOM     93  S   UNL A   1      39.550  33.576  35.401  1.00  0.00     0.124 S 
ATOM     94  O   UNL A   1      38.450  34.494  35.670  1.00  0.00    -0.237 OA
ATOM     95  O   UNL A   1      39.258  32.156  35.563  1.00  0.00    -0.237 OA
ATOM     96  O   UNL A   1      40.855  34.000  35.905  1.00  0.00    -0.744 OA
ENDBRANCH  89  93
ENDBRANCH  62  86
BRANCH  74  97
ATOM     97  C   UNL A   1      47.583  34.136  30.093  1.00  0.00     0.023 A 
ATOM     98  C   UNL A   1      48.425  34.101  31.216  1.00  0.00     0.031 A 
ATOM     99  C   UNL A   1      47.687  35.232  29.218  1.00  0.00     0.131 A 
ATOM    100  C   UNL A   1      49.319  35.157  31.451  1.00  0.00     0.055 A 
ATOM    101  C   UNL A   1      48.612  36.256  29.430  1.00  0.00     0.041 A 
ATOM    102  F   UNL A   1      46.908  35.313  28.128  1.00  0.00    -0.206 F 
ATOM    103  C   UNL A   1      49.432  36.223  30.554  1.00  0.00     0.022 A 
BRANCH 100 104
ATOM    104  S   UNL A   1      50.315  35.136  32.965  1.00  0.00     0.124 S 
ATOM    105  O   UNL A   1      49.413  35.762  33.928  1.00  0.00    -0.237 OA
ATOM    106  O   UNL A   1      50.567  33.712  33.160  1.00  0.00    -0.237 OA
ATOM    107  O   UNL A   1      51.492  35.929  32.613  1.00  0.00    -0.744 OA
ENDBRANCH 100 104
ENDBRANCH  74  97
ENDBRANCH  48  49
ENDBRANCH  41  43
ENDBRANCH  40  41
ENDBRANCH  39  40
ENDBRANCH  38  39
ENDBRANCH  37  38
ENDBRANCH  36  37
ENDBRANCH   1  36
TORSDOF 25
ENDMDL
