MODEL 1
REMARK VINA RESULT:      -9.3      0.000      0.000
REMARK SMILES CC(C)[C@H]([NH2+]Cc1ccncc1)C(=O)OCCOCCOCCOCCOC(=O)c1ccc(-c2c3nc(c(-c4cc(S(=O)(=O)[O-])ccc4F)c4ccc([nH]4)c(-c4cc(S(=O)(=O)[O-])ccc4F)c4nc(c(-c5cc(S(=O)(=O)[O-])ccc5F)c5ccc2[nH]5)C=C4)C=C3)cc1
REMARK SMILES IDX 21 1 20 2 19 3 18 4 17 5 16 6 15 7 13 8 14 9 4 10 2 11 1 12
REMARK SMILES IDX 3 13 5 14 6 17 7 18 8 19 12 20 9 21 11 22 10 23 22 24 23 25
REMARK SMILES IDX 24 26 25 27 26 28 27 29 28 30 29 31 30 32 31 33 92 34 32 35
REMARK SMILES IDX 91 36 33 37 34 38 35 39 85 40 36 41 90 42 84 43 86 44 37 45
REMARK SMILES IDX 89 46 83 47 82 48 38 50 70 51 50 52 69 53 51 54 54 55 68 56
REMARK SMILES IDX 87 57 52 58 53 59 67 61 88 62 55 63 39 64 40 65 48 66 41 67
REMARK SMILES IDX 47 68 49 69 46 70 42 71 43 72 44 73 45 74 71 75 72 76 80 77
REMARK SMILES IDX 73 78 79 79 81 80 78 81 74 82 75 83 76 84 77 85 56 86 57 87
REMARK SMILES IDX 65 88 58 89 64 90 66 91 63 92 59 93 60 94 61 95 62 96
REMARK H PARENT 5 15 5 16 86 49 54 60
REMARK Flexibility Score: inf
ROOT
ATOM      1  O   UNL A   1      34.654  24.147  25.114  1.00  0.00    -0.377 OA
ENDROOT
BRANCH   1   2
ATOM      2  C   UNL A   1      34.441  25.267  24.282  1.00  0.00     0.188 C 
BRANCH   2   3
ATOM      3  C   UNL A   1      33.836  26.494  24.981  1.00  0.00     0.188 C 
BRANCH   3   4
ATOM      4  O   UNL A   1      32.439  26.772  24.959  1.00  0.00    -0.376 OA
BRANCH   4   5
ATOM      5  C   UNL A   1      31.549  26.063  24.112  1.00  0.00     0.202 C 
BRANCH   5   6
ATOM      6  C   UNL A   1      30.497  25.098  24.680  1.00  0.00     0.261 C 
BRANCH   6   7
ATOM      7  O   UNL A   1      30.623  23.714  24.329  1.00  0.00    -0.459 OA
BRANCH   7   8
ATOM      8  C   UNL A   1      31.457  22.995  25.122  1.00  0.00     0.365 C 
ATOM      9  O   UNL A   1      31.617  23.194  26.324  1.00  0.00    -0.245 OA
BRANCH   8  10
ATOM     10  C   UNL A   1      32.269  21.931  24.349  1.00  0.00     0.296 C 
BRANCH  10  11
ATOM     11  C   UNL A   1      32.044  22.059  22.821  1.00  0.00     0.053 C 
ATOM     12  C   UNL A   1      33.118  22.875  22.092  1.00  0.00     0.014 C 
ATOM     13  C   UNL A   1      31.906  20.691  22.139  1.00  0.00     0.014 C 
ENDBRANCH  10  11
BRANCH  10  14
ATOM     14  N   UNL A   1      32.040  20.577  24.878  1.00  0.00    -0.331 N 
ATOM     15  H   UNL A   1      31.763  19.983  24.096  1.00  0.00     0.347 HD
ATOM     16  H   UNL A   1      31.331  20.690  25.602  1.00  0.00     0.347 HD
BRANCH  14  17
ATOM     17  C   UNL A   1      33.157  19.933  25.543  1.00  0.00     0.298 C 
BRANCH  17  18
ATOM     18  C   UNL A   1      33.337  18.476  25.150  1.00  0.00     0.009 A 
ATOM     19  C   UNL A   1      34.147  18.121  24.062  1.00  0.00     0.029 A 
ATOM     20  C   UNL A   1      32.632  17.449  25.790  1.00  0.00     0.029 A 
ATOM     21  C   UNL A   1      34.203  16.789  23.665  1.00  0.00     0.111 A 
ATOM     22  C   UNL A   1      32.759  16.146  25.325  1.00  0.00     0.111 A 
ATOM     23  N   UNL A   1      33.522  15.795  24.269  1.00  0.00    -0.265 NA
ENDBRANCH  17  18
ENDBRANCH  14  17
ENDBRANCH  10  14
ENDBRANCH   8  10
ENDBRANCH   7   8
ENDBRANCH   6   7
ENDBRANCH   5   6
ENDBRANCH   4   5
ENDBRANCH   3   4
ENDBRANCH   2   3
ENDBRANCH   1   2
BRANCH   1  24
ATOM     24  C   UNL A   1      35.980  23.637  25.115  1.00  0.00     0.188 C 
BRANCH  24  25
ATOM     25  C   UNL A   1      36.162  22.156  24.715  1.00  0.00     0.188 C 
BRANCH  25  26
ATOM     26  O   UNL A   1      37.298  21.519  25.291  1.00  0.00    -0.376 OA
BRANCH  26  27
ATOM     27  C   UNL A   1      37.622  20.190  24.908  1.00  0.00     0.202 C 
BRANCH  27  28
ATOM     28  C   UNL A   1      38.866  19.517  25.517  1.00  0.00     0.261 C 
BRANCH  28  29
ATOM     29  O   UNL A   1      40.064  20.304  25.576  1.00  0.00    -0.460 OA
BRANCH  29  30
ATOM     30  C   UNL A   1      40.777  20.266  26.721  1.00  0.00     0.338 C 
ATOM     31  O   UNL A   1      41.358  19.299  27.185  1.00  0.00    -0.246 OA
BRANCH  30  32
ATOM     32  C   UNL A   1      40.929  21.655  27.206  1.00  0.00     0.060 A 
ATOM     33  C   UNL A   1      40.220  22.675  26.557  1.00  0.00     0.016 A 
ATOM     34  C   UNL A   1      41.758  21.952  28.291  1.00  0.00     0.016 A 
ATOM     35  C   UNL A   1      40.380  24.001  26.955  1.00  0.00     0.010 A 
ATOM     36  C   UNL A   1      41.942  23.284  28.670  1.00  0.00     0.010 A 
ATOM     37  C   UNL A   1      41.288  24.318  27.971  1.00  0.00    -0.014 A 
BRANCH  37  38
ATOM     38  C   UNL A   1      41.754  25.719  28.109  1.00  0.00     0.031 A 
ATOM     39  C   UNL A   1      43.124  26.054  27.578  1.00  0.00     0.074 A 
ATOM     40  C   UNL A   1      40.977  26.678  28.640  1.00  0.00     0.049 A 
ATOM     41  N   UNL A   1      43.783  27.181  27.621  1.00  0.00    -0.248 NA
ATOM     42  C   UNL A   1      43.846  24.960  26.908  1.00  0.00     0.031 C 
ATOM     43  C   UNL A   1      39.611  26.489  29.122  1.00  0.00     0.029 A 
ATOM     44  N   UNL A   1      41.231  28.009  28.863  1.00  0.00    -0.354 N 
ATOM     45  C   UNL A   1      44.999  26.931  26.993  1.00  0.00     0.074 A 
ATOM     46  C   UNL A   1      45.000  25.534  26.617  1.00  0.00     0.031 C 
ATOM     47  C   UNL A   1      39.151  27.661  29.595  1.00  0.00     0.029 A 
ATOM     48  C   UNL A   1      40.202  28.672  29.490  1.00  0.00     0.049 A 
ATOM     49  H   UNL A   1      42.072  28.447  28.598  1.00  0.00     0.167 HD
ATOM     50  C   UNL A   1      46.018  27.789  26.746  1.00  0.00     0.034 A 
ATOM     51  C   UNL A   1      40.135  29.938  29.951  1.00  0.00     0.034 A 
ATOM     52  C   UNL A   1      46.004  29.175  27.139  1.00  0.00     0.049 A 
ATOM     53  C   UNL A   1      41.327  30.850  29.762  1.00  0.00     0.074 A 
ATOM     54  C   UNL A   1      46.979  30.135  26.939  1.00  0.00     0.029 A 
ATOM     55  N   UNL A   1      44.969  29.796  27.825  1.00  0.00    -0.354 N 
ATOM     56  N   UNL A   1      42.476  30.602  29.172  1.00  0.00    -0.248 NA
ATOM     57  C   UNL A   1      41.210  32.215  30.292  1.00  0.00     0.031 C 
ATOM     58  C   UNL A   1      46.571  31.312  27.578  1.00  0.00     0.029 A 
ATOM     59  C   UNL A   1      45.298  31.117  28.090  1.00  0.00     0.049 A 
ATOM     60  H   UNL A   1      44.124  29.362  28.086  1.00  0.00     0.167 HD
ATOM     61  C   UNL A   1      43.198  31.794  29.227  1.00  0.00     0.074 A 
ATOM     62  C   UNL A   1      42.351  32.760  29.896  1.00  0.00     0.031 C 
ATOM     63  C   UNL A   1      44.444  32.068  28.761  1.00  0.00     0.034 A 
BRANCH  50  64
ATOM     64  C   UNL A   1      47.249  27.230  26.074  1.00  0.00     0.023 A 
ATOM     65  C   UNL A   1      48.217  26.497  26.782  1.00  0.00     0.031 A 
ATOM     66  C   UNL A   1      47.474  27.464  24.705  1.00  0.00     0.131 A 
ATOM     67  C   UNL A   1      49.395  26.088  26.140  1.00  0.00     0.055 A 
ATOM     68  C   UNL A   1      48.606  26.978  24.051  1.00  0.00     0.041 A 
ATOM     69  F   UNL A   1      46.600  28.182  23.982  1.00  0.00    -0.206 F 
ATOM     70  C   UNL A   1      49.583  26.299  24.772  1.00  0.00     0.022 A 
BRANCH  67  71
ATOM     71  S   UNL A   1      50.743  25.413  27.148  1.00  0.00     0.124 S 
ATOM     72  O   UNL A   1      51.239  26.612  27.820  1.00  0.00    -0.237 OA
ATOM     73  O   UNL A   1      50.051  24.446  27.994  1.00  0.00    -0.237 OA
ATOM     74  O   UNL A   1      51.656  24.839  26.161  1.00  0.00    -0.744 OA
ENDBRANCH  67  71
ENDBRANCH  50  64
BRANCH  51  75
ATOM     75  C   UNL A   1      38.924  30.418  30.682  1.00  0.00     0.023 A 
ATOM     76  C   UNL A   1      37.937  31.178  30.034  1.00  0.00     0.031 A 
ATOM     77  C   UNL A   1      38.775  30.187  32.061  1.00  0.00     0.131 A 
ATOM     78  C   UNL A   1      36.875  31.724  30.775  1.00  0.00     0.055 A 
ATOM     79  C   UNL A   1      37.684  30.679  32.780  1.00  0.00     0.041 A 
ATOM     80  F   UNL A   1      39.693  29.476  32.735  1.00  0.00    -0.206 F 
ATOM     81  C   UNL A   1      36.734  31.467  32.139  1.00  0.00     0.022 A 
BRANCH  78  82
ATOM     82  S   UNL A   1      35.737  32.869  29.946  1.00  0.00     0.124 S 
ATOM     83  O   UNL A   1      36.594  33.440  28.913  1.00  0.00    -0.237 OA
ATOM     84  O   UNL A   1      34.686  31.970  29.485  1.00  0.00    -0.237 OA
ATOM     85  O   UNL A   1      35.345  33.789  31.012  1.00  0.00    -0.744 OA
ENDBRANCH  78  82
ENDBRANCH  51  75
BRANCH  63  86
ATOM     86  C   UNL A   1      44.941  33.489  28.902  1.00  0.00     0.023 A 
ATOM     87  C   UNL A   1      45.537  33.959  30.084  1.00  0.00     0.031 A 
ATOM     88  C   UNL A   1      44.815  34.389  27.825  1.00  0.00     0.131 A 
ATOM     89  C   UNL A   1      45.929  35.303  30.184  1.00  0.00     0.055 A 
ATOM     90  C   UNL A   1      45.271  35.704  27.906  1.00  0.00     0.041 A 
ATOM     91  F   UNL A   1      44.250  33.998  26.671  1.00  0.00    -0.206 F 
ATOM     92  C   UNL A   1      45.819  36.173  29.095  1.00  0.00     0.022 A 
BRANCH  89  93
ATOM     93  S   UNL A   1      46.488  35.932  31.791  1.00  0.00     0.124 S 
ATOM     94  O   UNL A   1      45.592  37.066  32.000  1.00  0.00    -0.237 OA
ATOM     95  O   UNL A   1      46.275  34.785  32.667  1.00  0.00    -0.237 OA
ATOM     96  O   UNL A   1      47.887  36.282  31.555  1.00  0.00    -0.744 OA
ENDBRANCH  89  93
ENDBRANCH  63  86
ENDBRANCH  37  38
ENDBRANCH  30  32
ENDBRANCH  29  30
ENDBRANCH  28  29
ENDBRANCH  27  28
ENDBRANCH  26  27
ENDBRANCH  25  26
ENDBRANCH  24  25
ENDBRANCH   1  24
TORSDOF 27
ENDMDL
MODEL 2
REMARK VINA RESULT:      -9.1      1.921      2.283
REMARK SMILES CC(C)[C@H]([NH2+]Cc1ccncc1)C(=O)OCCOCCOCCOCCOC(=O)c1ccc(-c2c3nc(c(-c4cc(S(=O)(=O)[O-])ccc4F)c4ccc([nH]4)c(-c4cc(S(=O)(=O)[O-])ccc4F)c4nc(c(-c5cc(S(=O)(=O)[O-])ccc5F)c5ccc2[nH]5)C=C4)C=C3)cc1
REMARK SMILES IDX 21 1 20 2 19 3 18 4 17 5 16 6 15 7 13 8 14 9 4 10 2 11 1 12
REMARK SMILES IDX 3 13 5 14 6 17 7 18 8 19 12 20 9 21 11 22 10 23 22 24 23 25
REMARK SMILES IDX 24 26 25 27 26 28 27 29 28 30 29 31 30 32 31 33 92 34 32 35
REMARK SMILES IDX 91 36 33 37 34 38 35 39 85 40 36 41 90 42 84 43 86 44 37 45
REMARK SMILES IDX 89 46 83 47 82 48 38 50 70 51 50 52 69 53 51 54 54 55 68 56
REMARK SMILES IDX 87 57 52 58 53 59 67 61 88 62 55 63 39 64 40 65 48 66 41 67
REMARK SMILES IDX 47 68 49 69 46 70 42 71 43 72 44 73 45 74 71 75 72 76 80 77
REMARK SMILES IDX 73 78 79 79 81 80 78 81 74 82 75 83 76 84 77 85 56 86 57 87
REMARK SMILES IDX 65 88 58 89 64 90 66 91 63 92 59 93 60 94 61 95 62 96
REMARK H PARENT 5 15 5 16 86 49 54 60
REMARK Flexibility Score: inf
ROOT
ATOM      1  O   UNL A   1      34.812  24.637  25.926  1.00  0.00    -0.377 OA
ENDROOT
BRANCH   1   2
ATOM      2  C   UNL A   1      34.026  25.457  25.089  1.00  0.00     0.188 C 
BRANCH   2   3
ATOM      3  C   UNL A   1      33.000  26.340  25.817  1.00  0.00     0.188 C 
BRANCH   3   4
ATOM      4  O   UNL A   1      31.626  25.979  25.927  1.00  0.00    -0.376 OA
BRANCH   4   5
ATOM      5  C   UNL A   1      31.150  24.713  25.501  1.00  0.00     0.202 C 
BRANCH   5   6
ATOM      6  C   UNL A   1      31.396  23.442  26.329  1.00  0.00     0.261 C 
BRANCH   6   7
ATOM      7  O   UNL A   1      31.452  22.200  25.617  1.00  0.00    -0.459 OA
BRANCH   7   8
ATOM      8  C   UNL A   1      32.631  21.536  25.714  1.00  0.00     0.365 C 
ATOM      9  O   UNL A   1      33.099  21.099  26.763  1.00  0.00    -0.245 OA
BRANCH   8  10
ATOM     10  C   UNL A   1      33.393  21.444  24.372  1.00  0.00     0.296 C 
BRANCH  10  11
ATOM     11  C   UNL A   1      32.607  22.147  23.236  1.00  0.00     0.053 C 
ATOM     12  C   UNL A   1      33.451  23.103  22.385  1.00  0.00     0.014 C 
ATOM     13  C   UNL A   1      31.903  21.144  22.311  1.00  0.00     0.014 C 
ENDBRANCH  10  11
BRANCH  10  14
ATOM     14  N   UNL A   1      33.789  20.061  24.061  1.00  0.00    -0.331 N 
ATOM     15  H   UNL A   1      34.489  19.779  24.746  1.00  0.00     0.347 HD
ATOM     16  H   UNL A   1      34.120  20.090  23.096  1.00  0.00     0.347 HD
BRANCH  14  17
ATOM     17  C   UNL A   1      32.740  19.059  24.068  1.00  0.00     0.298 C 
BRANCH  17  18
ATOM     18  C   UNL A   1      33.226  17.677  24.471  1.00  0.00     0.009 A 
ATOM     19  C   UNL A   1      32.434  16.842  25.272  1.00  0.00     0.029 A 
ATOM     20  C   UNL A   1      34.510  17.224  24.144  1.00  0.00     0.029 A 
ATOM     21  C   UNL A   1      32.954  15.630  25.712  1.00  0.00     0.111 A 
ATOM     22  C   UNL A   1      34.939  15.993  24.624  1.00  0.00     0.111 A 
ATOM     23  N   UNL A   1      34.192  15.190  25.409  1.00  0.00    -0.265 NA
ENDBRANCH  17  18
ENDBRANCH  14  17
ENDBRANCH  10  14
ENDBRANCH   8  10
ENDBRANCH   7   8
ENDBRANCH   6   7
ENDBRANCH   5   6
ENDBRANCH   4   5
ENDBRANCH   3   4
ENDBRANCH   2   3
ENDBRANCH   1   2
BRANCH   1  24
ATOM     24  C   UNL A   1      35.828  23.895  25.266  1.00  0.00     0.188 C 
BRANCH  24  25
ATOM     25  C   UNL A   1      36.503  22.761  26.069  1.00  0.00     0.188 C 
BRANCH  25  26
ATOM     26  O   UNL A   1      36.328  21.459  25.522  1.00  0.00    -0.376 OA
BRANCH  26  27
ATOM     27  C   UNL A   1      37.355  20.897  24.717  1.00  0.00     0.202 C 
BRANCH  27  28
ATOM     28  C   UNL A   1      38.486  20.100  25.395  1.00  0.00     0.261 C 
BRANCH  28  29
ATOM     29  O   UNL A   1      39.789  20.699  25.397  1.00  0.00    -0.460 OA
BRANCH  29  30
ATOM     30  C   UNL A   1      40.520  20.598  26.527  1.00  0.00     0.338 C 
ATOM     31  O   UNL A   1      41.119  19.610  26.919  1.00  0.00    -0.246 OA
BRANCH  30  32
ATOM     32  C   UNL A   1      40.663  21.955  27.097  1.00  0.00     0.060 A 
ATOM     33  C   UNL A   1      39.953  23.010  26.507  1.00  0.00     0.016 A 
ATOM     34  C   UNL A   1      41.484  22.188  28.203  1.00  0.00     0.016 A 
ATOM     35  C   UNL A   1      40.104  24.309  26.987  1.00  0.00     0.010 A 
ATOM     36  C   UNL A   1      41.659  23.495  28.665  1.00  0.00     0.010 A 
ATOM     37  C   UNL A   1      41.005  24.567  28.027  1.00  0.00    -0.014 A 
BRANCH  37  38
ATOM     38  C   UNL A   1      41.463  25.959  28.253  1.00  0.00     0.031 A 
ATOM     39  C   UNL A   1      42.837  26.330  27.759  1.00  0.00     0.074 A 
ATOM     40  C   UNL A   1      40.676  26.882  28.832  1.00  0.00     0.049 A 
ATOM     41  N   UNL A   1      43.492  27.455  27.876  1.00  0.00    -0.248 NA
ATOM     42  C   UNL A   1      43.571  25.280  27.033  1.00  0.00     0.031 C 
ATOM     43  C   UNL A   1      39.306  26.659  29.286  1.00  0.00     0.029 A 
ATOM     44  N   UNL A   1      40.923  28.198  29.137  1.00  0.00    -0.354 N 
ATOM     45  C   UNL A   1      44.715  27.247  27.249  1.00  0.00     0.074 A 
ATOM     46  C   UNL A   1      44.727  25.875  26.790  1.00  0.00     0.031 C 
ATOM     47  C   UNL A   1      38.836  27.799  29.823  1.00  0.00     0.029 A 
ATOM     48  C   UNL A   1      39.884  28.818  29.791  1.00  0.00     0.049 A 
ATOM     49  H   UNL A   1      41.764  28.654  28.909  1.00  0.00     0.167 HD
ATOM     50  C   UNL A   1      45.734  28.121  27.065  1.00  0.00     0.034 A 
ATOM     51  C   UNL A   1      39.807  30.054  30.327  1.00  0.00     0.034 A 
ATOM     52  C   UNL A   1      45.710  29.482  27.540  1.00  0.00     0.049 A 
ATOM     53  C   UNL A   1      40.997  30.980  30.206  1.00  0.00     0.074 A 
ATOM     54  C   UNL A   1      46.683  30.456  27.410  1.00  0.00     0.029 A 
ATOM     55  N   UNL A   1      44.664  30.057  28.250  1.00  0.00    -0.354 N 
ATOM     56  N   UNL A   1      42.153  30.773  29.615  1.00  0.00    -0.248 NA
ATOM     57  C   UNL A   1      40.869  32.311  30.815  1.00  0.00     0.031 C 
ATOM     58  C   UNL A   1      46.263  31.590  28.113  1.00  0.00     0.029 A 
ATOM     59  C   UNL A   1      44.985  31.360  28.598  1.00  0.00     0.049 A 
ATOM     60  H   UNL A   1      43.819  29.605  28.475  1.00  0.00     0.167 HD
ATOM     61  C   UNL A   1      42.870  31.961  29.750  1.00  0.00     0.074 A 
ATOM     62  C   UNL A   1      42.012  32.882  30.465  1.00  0.00     0.031 C 
ATOM     63  C   UNL A   1      44.119  32.267  29.315  1.00  0.00     0.034 A 
BRANCH  50  64
ATOM     64  C   UNL A   1      46.974  27.608  26.374  1.00  0.00     0.023 A 
ATOM     65  C   UNL A   1      47.262  27.916  25.034  1.00  0.00     0.031 A 
ATOM     66  C   UNL A   1      47.866  26.765  27.062  1.00  0.00     0.131 A 
ATOM     67  C   UNL A   1      48.370  27.331  24.403  1.00  0.00     0.055 A 
ATOM     68  C   UNL A   1      49.015  26.257  26.455  1.00  0.00     0.041 A 
ATOM     69  F   UNL A   1      47.629  26.411  28.334  1.00  0.00    -0.206 F 
ATOM     70  C   UNL A   1      49.265  26.526  25.113  1.00  0.00     0.022 A 
BRANCH  67  71
ATOM     71  S   UNL A   1      48.542  27.513  22.607  1.00  0.00     0.124 S 
ATOM     72  O   UNL A   1      49.773  28.292  22.505  1.00  0.00    -0.237 OA
ATOM     73  O   UNL A   1      48.622  26.129  22.155  1.00  0.00    -0.237 OA
ATOM     74  O   UNL A   1      47.327  28.228  22.217  1.00  0.00    -0.744 OA
ENDBRANCH  67  71
ENDBRANCH  50  64
BRANCH  51  75
ATOM     75  C   UNL A   1      38.586  30.486  31.071  1.00  0.00     0.023 A 
ATOM     76  C   UNL A   1      37.529  31.142  30.418  1.00  0.00     0.031 A 
ATOM     77  C   UNL A   1      38.492  30.315  32.463  1.00  0.00     0.131 A 
ATOM     78  C   UNL A   1      36.453  31.650  31.165  1.00  0.00     0.055 A 
ATOM     79  C   UNL A   1      37.390  30.766  33.192  1.00  0.00     0.041 A 
ATOM     80  F   UNL A   1      39.477  29.704  33.142  1.00  0.00    -0.206 F 
ATOM     81  C   UNL A   1      36.368  31.453  32.544  1.00  0.00     0.022 A 
BRANCH  78  82
ATOM     82  S   UNL A   1      35.214  32.670  30.318  1.00  0.00     0.124 S 
ATOM     83  O   UNL A   1      34.276  32.951  31.398  1.00  0.00    -0.237 OA
ATOM     84  O   UNL A   1      36.016  33.796  29.854  1.00  0.00    -0.237 OA
ATOM     85  O   UNL A   1      34.711  31.790  29.266  1.00  0.00    -0.744 OA
ENDBRANCH  78  82
ENDBRANCH  51  75
BRANCH  63  86
ATOM     86  C   UNL A   1      44.609  33.679  29.546  1.00  0.00     0.023 A 
ATOM     87  C   UNL A   1      44.602  34.649  28.529  1.00  0.00     0.031 A 
ATOM     88  C   UNL A   1      45.090  34.058  30.813  1.00  0.00     0.131 A 
ATOM     89  C   UNL A   1      45.123  35.928  28.778  1.00  0.00     0.055 A 
ATOM     90  C   UNL A   1      45.539  35.353  31.075  1.00  0.00     0.041 A 
ATOM     91  F   UNL A   1      45.125  33.174  31.824  1.00  0.00    -0.206 F 
ATOM     92  C   UNL A   1      45.571  36.292  30.050  1.00  0.00     0.022 A 
BRANCH  89  93
ATOM     93  S   UNL A   1      45.305  37.082  27.389  1.00  0.00     0.124 S 
ATOM     94  O   UNL A   1      46.559  37.753  27.718  1.00  0.00    -0.237 OA
ATOM     95  O   UNL A   1      45.346  36.183  26.240  1.00  0.00    -0.237 OA
ATOM     96  O   UNL A   1      44.110  37.918  27.480  1.00  0.00    -0.744 OA
ENDBRANCH  89  93
ENDBRANCH  63  86
ENDBRANCH  37  38
ENDBRANCH  30  32
ENDBRANCH  29  30
ENDBRANCH  28  29
ENDBRANCH  27  28
ENDBRANCH  26  27
ENDBRANCH  25  26
ENDBRANCH  24  25
ENDBRANCH   1  24
TORSDOF 27
ENDMDL
MODEL 3
REMARK VINA RESULT:      -8.3      1.961      2.280
REMARK SMILES CC(C)[C@H]([NH2+]Cc1ccncc1)C(=O)OCCOCCOCCOCCOC(=O)c1ccc(-c2c3nc(c(-c4cc(S(=O)(=O)[O-])ccc4F)c4ccc([nH]4)c(-c4cc(S(=O)(=O)[O-])ccc4F)c4nc(c(-c5cc(S(=O)(=O)[O-])ccc5F)c5ccc2[nH]5)C=C4)C=C3)cc1
REMARK SMILES IDX 21 1 20 2 19 3 18 4 17 5 16 6 15 7 13 8 14 9 4 10 2 11 1 12
REMARK SMILES IDX 3 13 5 14 6 17 7 18 8 19 12 20 9 21 11 22 10 23 22 24 23 25
REMARK SMILES IDX 24 26 25 27 26 28 27 29 28 30 29 31 30 32 31 33 92 34 32 35
REMARK SMILES IDX 91 36 33 37 34 38 35 39 85 40 36 41 90 42 84 43 86 44 37 45
REMARK SMILES IDX 89 46 83 47 82 48 38 50 70 51 50 52 69 53 51 54 54 55 68 56
REMARK SMILES IDX 87 57 52 58 53 59 67 61 88 62 55 63 39 64 40 65 48 66 41 67
REMARK SMILES IDX 47 68 49 69 46 70 42 71 43 72 44 73 45 74 71 75 72 76 80 77
REMARK SMILES IDX 73 78 79 79 81 80 78 81 74 82 75 83 76 84 77 85 56 86 57 87
REMARK SMILES IDX 65 88 58 89 64 90 66 91 63 92 59 93 60 94 61 95 62 96
REMARK H PARENT 5 15 5 16 86 49 54 60
REMARK Flexibility Score: inf
ROOT
ATOM      1  O   UNL A   1      34.526  24.253  25.619  1.00  0.00    -0.377 OA
ENDROOT
BRANCH   1   2
ATOM      2  C   UNL A   1      34.412  25.358  24.747  1.00  0.00     0.188 C 
BRANCH   2   3
ATOM      3  C   UNL A   1      33.680  26.576  25.331  1.00  0.00     0.188 C 
BRANCH   3   4
ATOM      4  O   UNL A   1      32.532  26.449  26.164  1.00  0.00    -0.376 OA
BRANCH   4   5
ATOM      5  C   UNL A   1      31.278  26.030  25.649  1.00  0.00     0.202 C 
BRANCH   5   6
ATOM      6  C   UNL A   1      30.824  24.565  25.734  1.00  0.00     0.261 C 
BRANCH   6   7
ATOM      7  O   UNL A   1      31.131  23.721  24.617  1.00  0.00    -0.459 OA
BRANCH   7   8
ATOM      8  C   UNL A   1      31.207  22.397  24.903  1.00  0.00     0.365 C 
ATOM      9  O   UNL A   1      30.346  21.766  25.513  1.00  0.00    -0.245 OA
BRANCH   8  10
ATOM     10  C   UNL A   1      32.538  21.751  24.458  1.00  0.00     0.296 C 
BRANCH  10  11
ATOM     11  C   UNL A   1      32.791  21.981  22.946  1.00  0.00     0.053 C 
ATOM     12  C   UNL A   1      31.694  21.424  22.032  1.00  0.00     0.014 C 
ATOM     13  C   UNL A   1      33.013  23.464  22.615  1.00  0.00     0.014 C 
ENDBRANCH  10  11
BRANCH  10  14
ATOM     14  N   UNL A   1      32.630  20.342  24.874  1.00  0.00    -0.331 N 
ATOM     15  H   UNL A   1      31.716  20.065  25.232  1.00  0.00     0.347 HD
ATOM     16  H   UNL A   1      33.385  20.316  25.559  1.00  0.00     0.347 HD
BRANCH  14  17
ATOM     17  C   UNL A   1      33.012  19.380  23.857  1.00  0.00     0.298 C 
BRANCH  17  18
ATOM     18  C   UNL A   1      33.253  17.983  24.406  1.00  0.00     0.009 A 
ATOM     19  C   UNL A   1      34.082  17.079  23.727  1.00  0.00     0.029 A 
ATOM     20  C   UNL A   1      32.586  17.515  25.545  1.00  0.00     0.029 A 
ATOM     21  C   UNL A   1      34.193  15.776  24.199  1.00  0.00     0.111 A 
ATOM     22  C   UNL A   1      32.767  16.197  25.944  1.00  0.00     0.111 A 
ATOM     23  N   UNL A   1      33.549  15.314  25.289  1.00  0.00    -0.265 NA
ENDBRANCH  17  18
ENDBRANCH  14  17
ENDBRANCH  10  14
ENDBRANCH   8  10
ENDBRANCH   7   8
ENDBRANCH   6   7
ENDBRANCH   5   6
ENDBRANCH   4   5
ENDBRANCH   3   4
ENDBRANCH   2   3
ENDBRANCH   1   2
BRANCH   1  24
ATOM     24  C   UNL A   1      35.682  23.449  25.429  1.00  0.00     0.188 C 
BRANCH  24  25
ATOM     25  C   UNL A   1      35.710  22.082  26.148  1.00  0.00     0.188 C 
BRANCH  25  26
ATOM     26  O   UNL A   1      36.277  21.021  25.387  1.00  0.00    -0.376 OA
BRANCH  26  27
ATOM     27  C   UNL A   1      37.615  21.134  24.921  1.00  0.00     0.202 C 
BRANCH  27  28
ATOM     28  C   UNL A   1      38.719  20.308  25.607  1.00  0.00     0.261 C 
BRANCH  28  29
ATOM     29  O   UNL A   1      40.015  20.916  25.708  1.00  0.00    -0.460 OA
BRANCH  29  30
ATOM     30  C   UNL A   1      40.639  20.856  26.903  1.00  0.00     0.338 C 
ATOM     31  O   UNL A   1      41.105  19.859  27.430  1.00  0.00    -0.246 OA
BRANCH  30  32
ATOM     32  C   UNL A   1      40.868  22.241  27.365  1.00  0.00     0.060 A 
ATOM     33  C   UNL A   1      40.294  23.295  26.641  1.00  0.00     0.016 A 
ATOM     34  C   UNL A   1      41.638  22.503  28.502  1.00  0.00     0.016 A 
ATOM     35  C   UNL A   1      40.531  24.615  27.019  1.00  0.00     0.010 A 
ATOM     36  C   UNL A   1      41.902  23.828  28.862  1.00  0.00     0.010 A 
ATOM     37  C   UNL A   1      41.387  24.889  28.093  1.00  0.00    -0.014 A 
BRANCH  37  38
ATOM     38  C   UNL A   1      41.954  26.252  28.232  1.00  0.00     0.031 A 
ATOM     39  C   UNL A   1      43.330  26.495  27.668  1.00  0.00     0.074 A 
ATOM     40  C   UNL A   1      41.260  27.257  28.792  1.00  0.00     0.049 A 
ATOM     41  N   UNL A   1      44.068  27.573  27.704  1.00  0.00    -0.248 NA
ATOM     42  C   UNL A   1      43.955  25.361  26.969  1.00  0.00     0.031 C 
ATOM     43  C   UNL A   1      39.897  27.159  29.308  1.00  0.00     0.029 A 
ATOM     44  N   UNL A   1      41.614  28.564  29.022  1.00  0.00    -0.354 N 
ATOM     45  C   UNL A   1      45.246  27.245  27.042  1.00  0.00     0.074 A 
ATOM     46  C   UNL A   1      45.139  25.856  26.653  1.00  0.00     0.031 C 
ATOM     47  C   UNL A   1      39.533  28.355  29.805  1.00  0.00     0.029 A 
ATOM     48  C   UNL A   1      40.651  29.290  29.682  1.00  0.00     0.049 A 
ATOM     49  H   UNL A   1      42.476  28.945  28.739  1.00  0.00     0.167 HD
ATOM     50  C   UNL A   1      46.317  28.032  26.776  1.00  0.00     0.034 A 
ATOM     51  C   UNL A   1      40.685  30.552  30.158  1.00  0.00     0.034 A 
ATOM     52  C   UNL A   1      46.411  29.411  27.184  1.00  0.00     0.049 A 
ATOM     53  C   UNL A   1      41.934  31.381  29.946  1.00  0.00     0.074 A 
ATOM     54  C   UNL A   1      47.446  30.303  26.968  1.00  0.00     0.029 A 
ATOM     55  N   UNL A   1      45.440  30.096  27.903  1.00  0.00    -0.354 N 
ATOM     56  N   UNL A   1      43.047  31.060  29.324  1.00  0.00    -0.248 NA
ATOM     57  C   UNL A   1      41.927  32.744  30.492  1.00  0.00     0.031 C 
ATOM     58  C   UNL A   1      47.139  31.497  27.629  1.00  0.00     0.029 A 
ATOM     59  C   UNL A   1      45.869  31.386  28.172  1.00  0.00     0.049 A 
ATOM     60  H   UNL A   1      44.574  29.719  28.182  1.00  0.00     0.167 HD
ATOM     61  C   UNL A   1      43.852  32.196  29.371  1.00  0.00     0.074 A 
ATOM     62  C   UNL A   1      43.093  33.212  30.072  1.00  0.00     0.031 C 
ATOM     63  C   UNL A   1      45.102  32.388  28.875  1.00  0.00     0.034 A 
BRANCH  50  64
ATOM     64  C   UNL A   1      47.488  27.395  26.067  1.00  0.00     0.023 A 
ATOM     65  C   UNL A   1      48.423  26.595  26.744  1.00  0.00     0.031 A 
ATOM     66  C   UNL A   1      47.689  27.623  24.694  1.00  0.00     0.131 A 
ATOM     67  C   UNL A   1      49.552  26.111  26.066  1.00  0.00     0.055 A 
ATOM     68  C   UNL A   1      48.767  27.066  24.005  1.00  0.00     0.041 A 
ATOM     69  F   UNL A   1      46.846  28.403  23.999  1.00  0.00    -0.206 F 
ATOM     70  C   UNL A   1      49.716  26.317  24.694  1.00  0.00     0.022 A 
BRANCH  67  71
ATOM     71  S   UNL A   1      50.880  25.340  27.032  1.00  0.00     0.124 S 
ATOM     72  O   UNL A   1      50.147  24.321  27.780  1.00  0.00    -0.237 OA
ATOM     73  O   UNL A   1      51.780  24.848  25.995  1.00  0.00    -0.237 OA
ATOM     74  O   UNL A   1      51.401  26.442  27.840  1.00  0.00    -0.744 OA
ENDBRANCH  67  71
ENDBRANCH  50  64
BRANCH  51  75
ATOM     75  C   UNL A   1      39.530  31.108  30.925  1.00  0.00     0.023 A 
ATOM     76  C   UNL A   1      39.537  31.141  32.329  1.00  0.00     0.031 A 
ATOM     77  C   UNL A   1      38.369  31.545  30.263  1.00  0.00     0.131 A 
ATOM     78  C   UNL A   1      38.388  31.549  33.025  1.00  0.00     0.055 A 
ATOM     79  C   UNL A   1      37.251  32.010  30.960  1.00  0.00     0.041 A 
ATOM     80  F   UNL A   1      38.302  31.527  28.923  1.00  0.00    -0.206 F 
ATOM     81  C   UNL A   1      37.251  31.999  32.350  1.00  0.00     0.022 A 
BRANCH  78  82
ATOM     82  S   UNL A   1      38.361  31.381  34.832  1.00  0.00     0.124 S 
ATOM     83  O   UNL A   1      39.650  31.954  35.200  1.00  0.00    -0.237 OA
ATOM     84  O   UNL A   1      37.183  32.162  35.191  1.00  0.00    -0.237 OA
ATOM     85  O   UNL A   1      38.237  29.939  35.036  1.00  0.00    -0.744 OA
ENDBRANCH  78  82
ENDBRANCH  51  75
BRANCH  63  86
ATOM     86  C   UNL A   1      45.702  33.769  29.016  1.00  0.00     0.023 A 
ATOM     87  C   UNL A   1      45.623  34.727  27.991  1.00  0.00     0.031 A 
ATOM     88  C   UNL A   1      46.364  34.130  30.205  1.00  0.00     0.131 A 
ATOM     89  C   UNL A   1      46.247  35.973  28.150  1.00  0.00     0.055 A 
ATOM     90  C   UNL A   1      46.920  35.396  30.384  1.00  0.00     0.041 A 
ATOM     91  F   UNL A   1      46.475  33.255  31.219  1.00  0.00    -0.206 F 
ATOM     92  C   UNL A   1      46.877  36.322  29.347  1.00  0.00     0.022 A 
BRANCH  89  93
ATOM     93  S   UNL A   1      46.318  37.100  26.729  1.00  0.00     0.124 S 
ATOM     94  O   UNL A   1      47.419  37.984  27.099  1.00  0.00    -0.237 OA
ATOM     95  O   UNL A   1      46.580  36.188  25.620  1.00  0.00    -0.237 OA
ATOM     96  O   UNL A   1      44.997  37.725  26.720  1.00  0.00    -0.744 OA
ENDBRANCH  89  93
ENDBRANCH  63  86
ENDBRANCH  37  38
ENDBRANCH  30  32
ENDBRANCH  29  30
ENDBRANCH  28  29
ENDBRANCH  27  28
ENDBRANCH  26  27
ENDBRANCH  25  26
ENDBRANCH  24  25
ENDBRANCH   1  24
TORSDOF 27
ENDMDL
