MODEL 1
REMARK VINA RESULT:      -9.6      0.000      0.000
REMARK SMILES CC1(C)CCC[C@H]1NC(=O)N[C@@H]1COC[C@@]1(C)C(=O)OCCOCCOCCOCCOC(=O)c1ccc(-c2c3nc(c(-c4cc(S(=O)(=O)[O-])ccc4F)c4ccc([nH]4)c(-c4cc(S(=O)(=O)[O-])ccc4F)c4nc(c(-c5cc(S(=O)(=O)[O-])ccc5F)c5ccc2[nH]5)C=C4)C=C3)cc1
REMARK SMILES IDX 27 1 26 2 25 3 24 4 23 5 22 6 21 7 20 8 18 9 19 10 16 11
REMARK SMILES IDX 12 12 13 13 14 14 15 15 17 16 11 17 8 18 9 19 10 21 7 23
REMARK SMILES IDX 1 24 2 25 3 26 4 27 5 28 6 29 28 30 29 31 30 32 31 33 32 34
REMARK SMILES IDX 33 35 34 36 35 37 36 38 97 39 37 40 96 41 38 42 39 43 40 44
REMARK SMILES IDX 90 45 41 46 95 47 89 48 91 49 42 50 94 51 88 52 87 53 43 55
REMARK SMILES IDX 75 56 55 57 74 58 56 59 59 60 73 61 92 62 57 63 58 64 72 66
REMARK SMILES IDX 93 67 60 68 44 69 45 70 53 71 46 72 52 73 54 74 51 75 47 76
REMARK SMILES IDX 48 77 49 78 50 79 76 80 77 81 85 82 78 83 84 84 86 85 83 86
REMARK SMILES IDX 79 87 80 88 81 89 82 90 61 91 62 92 70 93 63 94 69 95 71 96
REMARK SMILES IDX 68 97 64 98 65 99 66 100 67 101
REMARK H PARENT 8 20 11 22 91 54 59 65
REMARK Flexibility Score: inf
ROOT
ATOM      1  C   UNL A   1      41.569  21.719  26.132  1.00  0.00     0.188 C 
ENDROOT
BRANCH   1   2
ATOM      2  O   UNL A   1      40.544  22.707  26.152  1.00  0.00    -0.377 OA
BRANCH   2   3
ATOM      3  C   UNL A   1      39.204  22.327  26.412  1.00  0.00     0.188 C 
BRANCH   3   4
ATOM      4  C   UNL A   1      38.322  23.574  26.529  1.00  0.00     0.188 C 
BRANCH   4   5
ATOM      5  O   UNL A   1      37.523  23.861  25.380  1.00  0.00    -0.376 OA
BRANCH   5   6
ATOM      6  C   UNL A   1      36.413  22.989  25.117  1.00  0.00     0.202 C 
BRANCH   6   7
ATOM      7  C   UNL A   1      35.025  23.654  25.179  1.00  0.00     0.261 C 
BRANCH   7   8
ATOM      8  O   UNL A   1      34.088  22.755  25.798  1.00  0.00    -0.463 OA
BRANCH   8   9
ATOM      9  C   UNL A   1      32.886  23.184  26.281  1.00  0.00     0.316 C 
ATOM     10  O   UNL A   1      32.737  23.852  27.293  1.00  0.00    -0.251 OA
BRANCH   9  11
ATOM     11  C   UNL A   1      31.768  22.846  25.277  1.00  0.00     0.111 C 
ATOM     12  C   UNL A   1      31.632  23.826  24.105  1.00  0.00     0.129 C 
ATOM     13  C   UNL A   1      31.969  23.047  22.839  1.00  0.00     0.186 C 
ATOM     14  O   UNL A   1      32.050  21.664  23.172  1.00  0.00    -0.378 OA
ATOM     15  C   UNL A   1      32.192  21.541  24.592  1.00  0.00     0.181 C 
ATOM     16  C   UNL A   1      30.474  22.721  26.065  1.00  0.00     0.028 C 
BRANCH  12  17
ATOM     17  N   UNL A   1      30.380  24.609  23.989  1.00  0.00    -0.332 N 
ATOM     18  N   UNL A   1      30.462  26.879  24.762  1.00  0.00    -0.335 N 
ATOM     19  C   UNL A   1      29.865  25.816  24.224  1.00  0.00     0.315 C 
ATOM     20  H   UNL A   1      29.905  27.685  24.662  1.00  0.00     0.165 HD
ATOM     21  O   UNL A   1      28.689  25.970  23.874  1.00  0.00    -0.249 OA
ATOM     22  H   UNL A   1      29.682  24.035  23.601  1.00  0.00     0.165 HD
BRANCH  18  23
ATOM     23  C   UNL A   1      31.710  27.188  25.460  1.00  0.00     0.089 C 
ATOM     24  C   UNL A   1      32.208  28.943  23.509  1.00  0.00     0.013 C 
ATOM     25  C   UNL A   1      32.451  28.482  24.957  1.00  0.00    -0.015 C 
ATOM     26  C   UNL A   1      33.976  28.303  25.140  1.00  0.00     0.013 C 
ATOM     27  C   UNL A   1      31.926  29.573  25.901  1.00  0.00     0.008 C 
ATOM     28  C   UNL A   1      31.832  28.894  27.252  1.00  0.00     0.003 C 
ATOM     29  C   UNL A   1      31.401  27.461  26.950  1.00  0.00     0.025 C 
ENDBRANCH  18  23
ENDBRANCH  12  17
ENDBRANCH   9  11
ENDBRANCH   8   9
ENDBRANCH   7   8
ENDBRANCH   6   7
ENDBRANCH   5   6
ENDBRANCH   4   5
ENDBRANCH   3   4
ENDBRANCH   2   3
ENDBRANCH   1   2
BRANCH   1  30
ATOM     30  C   UNL A   1      41.182  20.309  26.585  1.00  0.00     0.188 C 
BRANCH  30  31
ATOM     31  O   UNL A   1      42.262  19.397  26.818  1.00  0.00    -0.376 OA
BRANCH  31  32
ATOM     32  C   UNL A   1      42.609  18.471  25.790  1.00  0.00     0.202 C 
BRANCH  32  33
ATOM     33  C   UNL A   1      44.078  18.463  25.372  1.00  0.00     0.261 C 
BRANCH  33  34
ATOM     34  O   UNL A   1      44.303  19.301  24.229  1.00  0.00    -0.460 OA
BRANCH  34  35
ATOM     35  C   UNL A   1      45.405  20.084  24.315  1.00  0.00     0.338 C 
ATOM     36  O   UNL A   1      46.501  19.864  23.835  1.00  0.00    -0.246 OA
BRANCH  35  37
ATOM     37  C   UNL A   1      45.043  21.367  24.943  1.00  0.00     0.060 A 
ATOM     38  C   UNL A   1      44.693  22.429  24.100  1.00  0.00     0.016 A 
ATOM     39  C   UNL A   1      45.150  21.551  26.324  1.00  0.00     0.016 A 
ATOM     40  C   UNL A   1      44.525  23.702  24.629  1.00  0.00     0.010 A 
ATOM     41  C   UNL A   1      44.993  22.833  26.853  1.00  0.00     0.010 A 
ATOM     42  C   UNL A   1      44.740  23.918  25.995  1.00  0.00    -0.014 A 
BRANCH  42  43
ATOM     43  C   UNL A   1      44.953  25.307  26.462  1.00  0.00     0.031 A 
ATOM     44  C   UNL A   1      46.330  25.897  26.311  1.00  0.00     0.074 A 
ATOM     45  C   UNL A   1      43.929  26.039  26.930  1.00  0.00     0.049 A 
ATOM     46  N   UNL A   1      46.764  27.087  26.627  1.00  0.00    -0.248 NA
ATOM     47  C   UNL A   1      47.355  25.018  25.725  1.00  0.00     0.031 C 
ATOM     48  C   UNL A   1      42.549  25.574  27.058  1.00  0.00     0.029 A 
ATOM     49  N   UNL A   1      43.894  27.333  27.375  1.00  0.00    -0.354 N 
ATOM     50  C   UNL A   1      48.111  27.102  26.276  1.00  0.00     0.074 A 
ATOM     51  C   UNL A   1      48.432  25.786  25.771  1.00  0.00     0.031 C 
ATOM     52  C   UNL A   1      41.799  26.573  27.553  1.00  0.00     0.029 A 
ATOM     53  C   UNL A   1      42.652  27.733  27.807  1.00  0.00     0.049 A 
ATOM     54  H   UNL A   1      44.683  27.922  27.385  1.00  0.00     0.167 HD
ATOM     55  C   UNL A   1      48.995  28.126  26.358  1.00  0.00     0.034 A 
ATOM     56  C   UNL A   1      42.261  28.898  28.359  1.00  0.00     0.034 A 
ATOM     57  C   UNL A   1      48.653  29.425  26.885  1.00  0.00     0.049 A 
ATOM     58  C   UNL A   1      43.283  29.998  28.518  1.00  0.00     0.074 A 
ATOM     59  C   UNL A   1      49.460  30.538  27.032  1.00  0.00     0.029 A 
ATOM     60  N   UNL A   1      47.395  29.780  27.361  1.00  0.00    -0.354 N 
ATOM     61  N   UNL A   1      44.555  30.003  28.188  1.00  0.00    -0.248 NA
ATOM     62  C   UNL A   1      42.811  31.254  29.110  1.00  0.00     0.031 C 
ATOM     63  C   UNL A   1      48.713  31.539  27.662  1.00  0.00     0.029 A 
ATOM     64  C   UNL A   1      47.413  31.085  27.829  1.00  0.00     0.049 A 
ATOM     65  H   UNL A   1      46.607  29.191  27.365  1.00  0.00     0.167 HD
ATOM     66  C   UNL A   1      45.026  31.276  28.500  1.00  0.00     0.074 A 
ATOM     67  C   UNL A   1      43.894  32.013  29.027  1.00  0.00     0.031 C 
ATOM     68  C   UNL A   1      46.273  31.795  28.360  1.00  0.00     0.034 A 
BRANCH  55  69
ATOM     69  C   UNL A   1      50.417  27.850  25.927  1.00  0.00     0.023 A 
ATOM     70  C   UNL A   1      50.816  27.931  24.581  1.00  0.00     0.031 A 
ATOM     71  C   UNL A   1      51.377  27.447  26.872  1.00  0.00     0.131 A 
ATOM     72  C   UNL A   1      52.112  27.543  24.208  1.00  0.00     0.055 A 
ATOM     73  C   UNL A   1      52.690  27.143  26.505  1.00  0.00     0.041 A 
ATOM     74  F   UNL A   1      51.051  27.322  28.168  1.00  0.00    -0.206 F 
ATOM     75  C   UNL A   1      53.061  27.175  25.165  1.00  0.00     0.022 A 
BRANCH  72  76
ATOM     76  S   UNL A   1      52.497  27.377  22.443  1.00  0.00     0.124 S 
ATOM     77  O   UNL A   1      51.193  27.012  21.891  1.00  0.00    -0.237 OA
ATOM     78  O   UNL A   1      52.986  28.707  22.099  1.00  0.00    -0.237 OA
ATOM     79  O   UNL A   1      53.499  26.315  22.408  1.00  0.00    -0.744 OA
ENDBRANCH  72  76
ENDBRANCH  55  69
BRANCH  56  80
ATOM     80  C   UNL A   1      40.856  29.081  28.826  1.00  0.00     0.023 A 
ATOM     81  C   UNL A   1      40.531  29.048  30.191  1.00  0.00     0.031 A 
ATOM     82  C   UNL A   1      39.807  29.240  27.903  1.00  0.00     0.131 A 
ATOM     83  C   UNL A   1      39.187  29.123  30.592  1.00  0.00     0.055 A 
ATOM     84  C   UNL A   1      38.478  29.371  28.309  1.00  0.00     0.041 A 
ATOM     85  F   UNL A   1      40.061  29.278  26.585  1.00  0.00    -0.206 F 
ATOM     86  C   UNL A   1      38.160  29.298  29.661  1.00  0.00     0.022 A 
BRANCH  83  87
ATOM     87  S   UNL A   1      38.792  28.900  32.347  1.00  0.00     0.124 S 
ATOM     88  O   UNL A   1      39.140  30.205  32.899  1.00  0.00    -0.237 OA
ATOM     89  O   UNL A   1      37.368  28.582  32.299  1.00  0.00    -0.237 OA
ATOM     90  O   UNL A   1      39.661  27.797  32.754  1.00  0.00    -0.744 OA
ENDBRANCH  83  87
ENDBRANCH  56  80
BRANCH  68  91
ATOM     91  C   UNL A   1      46.455  33.247  28.738  1.00  0.00     0.023 A 
ATOM     92  C   UNL A   1      46.435  34.273  27.777  1.00  0.00     0.031 A 
ATOM     93  C   UNL A   1      46.677  33.604  30.080  1.00  0.00     0.131 A 
ATOM     94  C   UNL A   1      46.711  35.593  28.159  1.00  0.00     0.055 A 
ATOM     95  C   UNL A   1      46.878  34.930  30.465  1.00  0.00     0.041 A 
ATOM     96  F   UNL A   1      46.708  32.667  31.041  1.00  0.00    -0.206 F 
ATOM     97  C   UNL A   1      46.914  35.931  29.499  1.00  0.00     0.022 A 
BRANCH  94  98
ATOM     98  S   UNL A   1      46.928  36.845  26.864  1.00  0.00     0.124 S 
ATOM     99  O   UNL A   1      46.359  36.176  25.698  1.00  0.00    -0.237 OA
ATOM    100  O   UNL A   1      46.162  37.971  27.390  1.00  0.00    -0.237 OA
ATOM    101  O   UNL A   1      48.375  37.045  26.820  1.00  0.00    -0.744 OA
ENDBRANCH  94  98
ENDBRANCH  68  91
ENDBRANCH  42  43
ENDBRANCH  35  37
ENDBRANCH  34  35
ENDBRANCH  33  34
ENDBRANCH  32  33
ENDBRANCH  31  32
ENDBRANCH  30  31
ENDBRANCH   1  30
TORSDOF 25
ENDMDL
MODEL 2
REMARK VINA RESULT:      -8.8      5.412     10.505
REMARK SMILES CC1(C)CCC[C@H]1NC(=O)N[C@@H]1COC[C@@]1(C)C(=O)OCCOCCOCCOCCOC(=O)c1ccc(-c2c3nc(c(-c4cc(S(=O)(=O)[O-])ccc4F)c4ccc([nH]4)c(-c4cc(S(=O)(=O)[O-])ccc4F)c4nc(c(-c5cc(S(=O)(=O)[O-])ccc5F)c5ccc2[nH]5)C=C4)C=C3)cc1
REMARK SMILES IDX 27 1 26 2 25 3 24 4 23 5 22 6 21 7 20 8 18 9 19 10 16 11
REMARK SMILES IDX 12 12 13 13 14 14 15 15 17 16 11 17 8 18 9 19 10 21 7 23
REMARK SMILES IDX 1 24 2 25 3 26 4 27 5 28 6 29 28 30 29 31 30 32 31 33 32 34
REMARK SMILES IDX 33 35 34 36 35 37 36 38 97 39 37 40 96 41 38 42 39 43 40 44
REMARK SMILES IDX 90 45 41 46 95 47 89 48 91 49 42 50 94 51 88 52 87 53 43 55
REMARK SMILES IDX 75 56 55 57 74 58 56 59 59 60 73 61 92 62 57 63 58 64 72 66
REMARK SMILES IDX 93 67 60 68 44 69 45 70 53 71 46 72 52 73 54 74 51 75 47 76
REMARK SMILES IDX 48 77 49 78 50 79 76 80 77 81 85 82 78 83 84 84 86 85 83 86
REMARK SMILES IDX 79 87 80 88 81 89 82 90 61 91 62 92 70 93 63 94 69 95 71 96
REMARK SMILES IDX 68 97 64 98 65 99 66 100 67 101
REMARK H PARENT 8 20 11 22 91 54 59 65
REMARK Flexibility Score: inf
ROOT
ATOM      1  C   UNL A   1      31.078  30.945  24.796  1.00  0.00     0.188 C 
ENDROOT
BRANCH   1   2
ATOM      2  O   UNL A   1      29.964  30.184  24.343  1.00  0.00    -0.377 OA
BRANCH   2   3
ATOM      3  C   UNL A   1      29.202  30.640  23.238  1.00  0.00     0.188 C 
BRANCH   3   4
ATOM      4  C   UNL A   1      29.740  30.024  21.943  1.00  0.00     0.188 C 
BRANCH   4   5
ATOM      5  O   UNL A   1      29.718  28.596  21.897  1.00  0.00    -0.376 OA
BRANCH   5   6
ATOM      6  C   UNL A   1      30.308  27.894  23.003  1.00  0.00     0.202 C 
BRANCH   6   7
ATOM      7  C   UNL A   1      29.690  26.518  23.313  1.00  0.00     0.261 C 
BRANCH   7   8
ATOM      8  O   UNL A   1      30.731  25.595  23.678  1.00  0.00    -0.463 OA
BRANCH   8   9
ATOM      9  C   UNL A   1      31.141  25.442  24.971  1.00  0.00     0.316 C 
ATOM     10  O   UNL A   1      30.570  25.906  25.946  1.00  0.00    -0.251 OA
BRANCH   9  11
ATOM     11  C   UNL A   1      32.328  24.461  25.030  1.00  0.00     0.111 C 
ATOM     12  C   UNL A   1      32.038  23.134  25.743  1.00  0.00     0.129 C 
ATOM     13  C   UNL A   1      32.159  22.036  24.693  1.00  0.00     0.186 C 
ATOM     14  O   UNL A   1      32.722  22.604  23.513  1.00  0.00    -0.378 OA
ATOM     15  C   UNL A   1      32.595  24.028  23.584  1.00  0.00     0.181 C 
ATOM     16  C   UNL A   1      33.496  25.202  25.663  1.00  0.00     0.028 C 
BRANCH  12  17
ATOM     17  N   UNL A   1      32.780  22.831  26.988  1.00  0.00    -0.332 N 
ATOM     18  N   UNL A   1      35.070  22.159  26.733  1.00  0.00    -0.335 N 
ATOM     19  C   UNL A   1      33.977  22.451  27.437  1.00  0.00     0.315 C 
ATOM     20  H   UNL A   1      35.856  22.076  27.320  1.00  0.00     0.165 HD
ATOM     21  O   UNL A   1      34.086  22.386  28.668  1.00  0.00    -0.249 OA
ATOM     22  H   UNL A   1      32.176  22.953  27.755  1.00  0.00     0.165 HD
BRANCH  18  23
ATOM     23  C   UNL A   1      35.432  21.927  25.335  1.00  0.00     0.089 C 
ATOM     24  C   UNL A   1      37.223  23.888  25.616  1.00  0.00     0.013 C 
ATOM     25  C   UNL A   1      36.764  22.625  24.868  1.00  0.00    -0.015 C 
ATOM     26  C   UNL A   1      36.656  22.982  23.368  1.00  0.00     0.013 C 
ATOM     27  C   UNL A   1      37.821  21.532  25.081  1.00  0.00     0.008 C 
ATOM     28  C   UNL A   1      37.129  20.247  24.674  1.00  0.00     0.003 C 
ATOM     29  C   UNL A   1      35.679  20.416  25.122  1.00  0.00     0.025 C 
ENDBRANCH  18  23
ENDBRANCH  12  17
ENDBRANCH   9  11
ENDBRANCH   8   9
ENDBRANCH   7   8
ENDBRANCH   6   7
ENDBRANCH   5   6
ENDBRANCH   4   5
ENDBRANCH   3   4
ENDBRANCH   2   3
ENDBRANCH   1   2
BRANCH   1  30
ATOM     30  C   UNL A   1      31.377  30.912  26.297  1.00  0.00     0.188 C 
BRANCH  30  31
ATOM     31  O   UNL A   1      31.305  32.164  26.988  1.00  0.00    -0.376 OA
BRANCH  31  32
ATOM     32  C   UNL A   1      32.501  32.714  27.536  1.00  0.00     0.202 C 
BRANCH  32  33
ATOM     33  C   UNL A   1      33.773  31.898  27.308  1.00  0.00     0.261 C 
BRANCH  33  34
ATOM     34  O   UNL A   1      33.787  30.712  28.114  1.00  0.00    -0.460 OA
BRANCH  34  35
ATOM     35  C   UNL A   1      34.532  29.699  27.609  1.00  0.00     0.338 C 
ATOM     36  O   UNL A   1      34.236  28.958  26.690  1.00  0.00    -0.246 OA
BRANCH  35  37
ATOM     37  C   UNL A   1      35.870  29.723  28.226  1.00  0.00     0.060 A 
ATOM     38  C   UNL A   1      36.964  30.004  27.399  1.00  0.00     0.016 A 
ATOM     39  C   UNL A   1      36.054  29.372  29.566  1.00  0.00     0.016 A 
ATOM     40  C   UNL A   1      38.255  29.857  27.889  1.00  0.00     0.010 A 
ATOM     41  C   UNL A   1      37.351  29.213  30.055  1.00  0.00     0.010 A 
ATOM     42  C   UNL A   1      38.450  29.397  29.198  1.00  0.00    -0.014 A 
BRANCH  42  43
ATOM     43  C   UNL A   1      39.783  28.869  29.565  1.00  0.00     0.031 A 
ATOM     44  C   UNL A   1      40.540  29.570  30.662  1.00  0.00     0.074 A 
ATOM     45  C   UNL A   1      40.263  27.755  28.990  1.00  0.00     0.049 A 
ATOM     46  N   UNL A   1      41.711  29.294  31.172  1.00  0.00    -0.248 NA
ATOM     47  C   UNL A   1      39.884  30.743  31.260  1.00  0.00     0.031 C 
ATOM     48  C   UNL A   1      39.577  26.974  27.962  1.00  0.00     0.029 A 
ATOM     49  N   UNL A   1      41.437  27.082  29.200  1.00  0.00    -0.354 N 
ATOM     50  C   UNL A   1      41.930  30.258  32.153  1.00  0.00     0.074 A 
ATOM     51  C   UNL A   1      40.794  31.152  32.130  1.00  0.00     0.031 C 
ATOM     52  C   UNL A   1      40.348  25.925  27.628  1.00  0.00     0.029 A 
ATOM     53  C   UNL A   1      41.592  25.980  28.393  1.00  0.00     0.049 A 
ATOM     54  H   UNL A   1      42.107  27.360  29.865  1.00  0.00     0.167 HD
ATOM     55  C   UNL A   1      42.980  30.376  33.003  1.00  0.00     0.034 A 
ATOM     56  C   UNL A   1      42.630  25.129  28.280  1.00  0.00     0.034 A 
ATOM     57  C   UNL A   1      44.110  29.480  32.991  1.00  0.00     0.049 A 
ATOM     58  C   UNL A   1      43.826  25.329  29.179  1.00  0.00     0.074 A 
ATOM     59  C   UNL A   1      45.238  29.501  33.790  1.00  0.00     0.029 A 
ATOM     60  N   UNL A   1      44.257  28.401  32.124  1.00  0.00    -0.354 N 
ATOM     61  N   UNL A   1      44.028  26.244  30.101  1.00  0.00    -0.248 NA
ATOM     62  C   UNL A   1      44.927  24.371  29.032  1.00  0.00     0.031 C 
ATOM     63  C   UNL A   1      46.098  28.484  33.360  1.00  0.00     0.029 A 
ATOM     64  C   UNL A   1      45.470  27.770  32.351  1.00  0.00     0.049 A 
ATOM     65  H   UNL A   1      43.596  28.127  31.449  1.00  0.00     0.167 HD
ATOM     66  C   UNL A   1      45.265  25.948  30.669  1.00  0.00     0.074 A 
ATOM     67  C   UNL A   1      45.750  24.760  29.996  1.00  0.00     0.031 C 
ATOM     68  C   UNL A   1      45.938  26.591  31.658  1.00  0.00     0.034 A 
BRANCH  55  69
ATOM     69  C   UNL A   1      42.969  31.547  33.957  1.00  0.00     0.023 A 
ATOM     70  C   UNL A   1      42.418  31.450  35.248  1.00  0.00     0.031 A 
ATOM     71  C   UNL A   1      43.472  32.795  33.551  1.00  0.00     0.131 A 
ATOM     72  C   UNL A   1      42.313  32.594  36.054  1.00  0.00     0.055 A 
ATOM     73  C   UNL A   1      43.442  33.911  34.391  1.00  0.00     0.041 A 
ATOM     74  F   UNL A   1      43.984  32.959  32.321  1.00  0.00    -0.206 F 
ATOM     75  C   UNL A   1      42.846  33.819  35.645  1.00  0.00     0.022 A 
BRANCH  72  76
ATOM     76  S   UNL A   1      41.336  32.498  37.579  1.00  0.00     0.124 S 
ATOM     77  O   UNL A   1      40.088  31.911  37.092  1.00  0.00    -0.237 OA
ATOM     78  O   UNL A   1      42.157  31.642  38.428  1.00  0.00    -0.237 OA
ATOM     79  O   UNL A   1      41.233  33.890  38.010  1.00  0.00    -0.744 OA
ENDBRANCH  72  76
ENDBRANCH  55  69
BRANCH  56  80
ATOM     80  C   UNL A   1      42.604  24.033  27.268  1.00  0.00     0.023 A 
ATOM     81  C   UNL A   1      41.998  22.798  27.547  1.00  0.00     0.031 A 
ATOM     82  C   UNL A   1      43.234  24.190  26.021  1.00  0.00     0.131 A 
ATOM     83  C   UNL A   1      42.078  21.753  26.612  1.00  0.00     0.055 A 
ATOM     84  C   UNL A   1      43.262  23.167  25.072  1.00  0.00     0.041 A 
ATOM     85  F   UNL A   1      43.829  25.351  25.702  1.00  0.00    -0.206 F 
ATOM     86  C   UNL A   1      42.693  21.934  25.372  1.00  0.00     0.022 A 
BRANCH  83  87
ATOM     87  S   UNL A   1      41.439  20.121  27.079  1.00  0.00     0.124 S 
ATOM     88  O   UNL A   1      40.655  19.761  25.902  1.00  0.00    -0.237 OA
ATOM     89  O   UNL A   1      42.669  19.364  27.287  1.00  0.00    -0.237 OA
ATOM     90  O   UNL A   1      40.663  20.393  28.287  1.00  0.00    -0.744 OA
ENDBRANCH  83  87
ENDBRANCH  56  80
BRANCH  68  91
ATOM     91  C   UNL A   1      47.248  25.981  32.100  1.00  0.00     0.023 A 
ATOM     92  C   UNL A   1      47.328  25.112  33.202  1.00  0.00     0.031 A 
ATOM     93  C   UNL A   1      48.438  26.299  31.421  1.00  0.00     0.131 A 
ATOM     94  C   UNL A   1      48.579  24.652  33.639  1.00  0.00     0.055 A 
ATOM     95  C   UNL A   1      49.671  25.779  31.816  1.00  0.00     0.041 A 
ATOM     96  F   UNL A   1      48.423  27.124  30.363  1.00  0.00    -0.206 F 
ATOM     97  C   UNL A   1      49.748  24.966  32.943  1.00  0.00     0.022 A 
BRANCH  94  98
ATOM     98  S   UNL A   1      48.671  23.743  35.206  1.00  0.00     0.124 S 
ATOM     99  O   UNL A   1      48.331  24.778  36.177  1.00  0.00    -0.237 OA
ATOM    100  O   UNL A   1      47.673  22.695  35.016  1.00  0.00    -0.237 OA
ATOM    101  O   UNL A   1      50.056  23.280  35.252  1.00  0.00    -0.744 OA
ENDBRANCH  94  98
ENDBRANCH  68  91
ENDBRANCH  42  43
ENDBRANCH  35  37
ENDBRANCH  34  35
ENDBRANCH  33  34
ENDBRANCH  32  33
ENDBRANCH  31  32
ENDBRANCH  30  31
ENDBRANCH   1  30
TORSDOF 25
ENDMDL
MODEL 3
REMARK VINA RESULT:      -8.8      6.066     10.897
REMARK SMILES CC1(C)CCC[C@H]1NC(=O)N[C@@H]1COC[C@@]1(C)C(=O)OCCOCCOCCOCCOC(=O)c1ccc(-c2c3nc(c(-c4cc(S(=O)(=O)[O-])ccc4F)c4ccc([nH]4)c(-c4cc(S(=O)(=O)[O-])ccc4F)c4nc(c(-c5cc(S(=O)(=O)[O-])ccc5F)c5ccc2[nH]5)C=C4)C=C3)cc1
REMARK SMILES IDX 27 1 26 2 25 3 24 4 23 5 22 6 21 7 20 8 18 9 19 10 16 11
REMARK SMILES IDX 12 12 13 13 14 14 15 15 17 16 11 17 8 18 9 19 10 21 7 23
REMARK SMILES IDX 1 24 2 25 3 26 4 27 5 28 6 29 28 30 29 31 30 32 31 33 32 34
REMARK SMILES IDX 33 35 34 36 35 37 36 38 97 39 37 40 96 41 38 42 39 43 40 44
REMARK SMILES IDX 90 45 41 46 95 47 89 48 91 49 42 50 94 51 88 52 87 53 43 55
REMARK SMILES IDX 75 56 55 57 74 58 56 59 59 60 73 61 92 62 57 63 58 64 72 66
REMARK SMILES IDX 93 67 60 68 44 69 45 70 53 71 46 72 52 73 54 74 51 75 47 76
REMARK SMILES IDX 48 77 49 78 50 79 76 80 77 81 85 82 78 83 84 84 86 85 83 86
REMARK SMILES IDX 79 87 80 88 81 89 82 90 61 91 62 92 70 93 63 94 69 95 71 96
REMARK SMILES IDX 68 97 64 98 65 99 66 100 67 101
REMARK H PARENT 8 20 11 22 91 54 59 65
REMARK Flexibility Score: inf
ROOT
ATOM      1  C   UNL A   1      35.842  29.634  27.483  1.00  0.00     0.188 C 
ENDROOT
BRANCH   1   2
ATOM      2  O   UNL A   1      34.454  29.934  27.579  1.00  0.00    -0.377 OA
BRANCH   2   3
ATOM      3  C   UNL A   1      33.495  28.946  27.241  1.00  0.00     0.188 C 
BRANCH   3   4
ATOM      4  C   UNL A   1      32.092  29.561  27.239  1.00  0.00     0.188 C 
BRANCH   4   5
ATOM      5  O   UNL A   1      31.633  30.018  25.965  1.00  0.00    -0.376 OA
BRANCH   5   6
ATOM      6  C   UNL A   1      32.371  29.591  24.810  1.00  0.00     0.202 C 
BRANCH   6   7
ATOM      7  C   UNL A   1      31.655  28.561  23.916  1.00  0.00     0.261 C 
BRANCH   7   8
ATOM      8  O   UNL A   1      31.554  27.307  24.613  1.00  0.00    -0.463 OA
BRANCH   8   9
ATOM      9  C   UNL A   1      31.881  26.122  24.020  1.00  0.00     0.316 C 
ATOM     10  O   UNL A   1      32.872  25.934  23.331  1.00  0.00    -0.251 OA
BRANCH   9  11
ATOM     11  C   UNL A   1      30.910  25.020  24.485  1.00  0.00     0.111 C 
ATOM     12  C   UNL A   1      31.504  24.007  25.472  1.00  0.00     0.129 C 
ATOM     13  C   UNL A   1      30.747  24.176  26.784  1.00  0.00     0.186 C 
ATOM     14  O   UNL A   1      29.627  25.025  26.548  1.00  0.00    -0.378 OA
ATOM     15  C   UNL A   1      29.832  25.725  25.316  1.00  0.00     0.181 C 
ATOM     16  C   UNL A   1      30.364  24.343  23.237  1.00  0.00     0.028 C 
BRANCH  12  17
ATOM     17  N   UNL A   1      31.615  22.594  25.044  1.00  0.00    -0.332 N 
ATOM     18  N   UNL A   1      33.821  21.802  24.526  1.00  0.00    -0.335 N 
ATOM     19  C   UNL A   1      32.502  21.671  24.668  1.00  0.00     0.315 C 
ATOM     20  H   UNL A   1      34.251  20.924  24.405  1.00  0.00     0.165 HD
ATOM     21  O   UNL A   1      32.038  20.547  24.445  1.00  0.00    -0.249 OA
ATOM     22  H   UNL A   1      30.716  22.194  25.033  1.00  0.00     0.165 HD
BRANCH  18  23
ATOM     23  C   UNL A   1      34.810  22.880  24.499  1.00  0.00     0.089 C 
ATOM     24  C   UNL A   1      36.266  21.400  26.180  1.00  0.00     0.013 C 
ATOM     25  C   UNL A   1      36.210  22.513  25.119  1.00  0.00    -0.015 C 
ATOM     26  C   UNL A   1      36.843  23.780  25.738  1.00  0.00     0.013 C 
ATOM     27  C   UNL A   1      37.021  22.054  23.899  1.00  0.00     0.008 C 
ATOM     28  C   UNL A   1      36.596  22.988  22.785  1.00  0.00     0.003 C 
ATOM     29  C   UNL A   1      35.112  23.251  23.029  1.00  0.00     0.025 C 
ENDBRANCH  18  23
ENDBRANCH  12  17
ENDBRANCH   9  11
ENDBRANCH   8   9
ENDBRANCH   7   8
ENDBRANCH   6   7
ENDBRANCH   5   6
ENDBRANCH   4   5
ENDBRANCH   3   4
ENDBRANCH   2   3
ENDBRANCH   1   2
BRANCH   1  30
ATOM     30  C   UNL A   1      36.782  30.386  28.428  1.00  0.00     0.188 C 
BRANCH  30  31
ATOM     31  O   UNL A   1      36.706  31.816  28.395  1.00  0.00    -0.376 OA
BRANCH  31  32
ATOM     32  C   UNL A   1      36.894  32.539  29.610  1.00  0.00     0.202 C 
BRANCH  32  33
ATOM     33  C   UNL A   1      37.991  32.013  30.535  1.00  0.00     0.261 C 
BRANCH  33  34
ATOM     34  O   UNL A   1      37.475  31.699  31.836  1.00  0.00    -0.460 OA
BRANCH  34  35
ATOM     35  C   UNL A   1      37.187  30.388  32.024  1.00  0.00     0.338 C 
ATOM     36  O   UNL A   1      36.164  29.809  31.709  1.00  0.00    -0.246 OA
BRANCH  35  37
ATOM     37  C   UNL A   1      38.386  29.692  32.521  1.00  0.00     0.060 A 
ATOM     38  C   UNL A   1      39.387  30.465  33.121  1.00  0.00     0.016 A 
ATOM     39  C   UNL A   1      38.568  28.324  32.305  1.00  0.00     0.016 A 
ATOM     40  C   UNL A   1      40.610  29.887  33.436  1.00  0.00     0.010 A 
ATOM     41  C   UNL A   1      39.801  27.746  32.610  1.00  0.00     0.010 A 
ATOM     42  C   UNL A   1      40.841  28.542  33.121  1.00  0.00    -0.014 A 
BRANCH  42  43
ATOM     43  C   UNL A   1      42.240  28.060  33.088  1.00  0.00     0.031 A 
ATOM     44  C   UNL A   1      42.936  27.828  34.402  1.00  0.00     0.074 A 
ATOM     45  C   UNL A   1      42.837  27.764  31.922  1.00  0.00     0.049 A 
ATOM     46  N   UNL A   1      44.147  27.397  34.638  1.00  0.00    -0.248 NA
ATOM     47  C   UNL A   1      42.157  28.127  35.614  1.00  0.00     0.031 C 
ATOM     48  C   UNL A   1      42.223  27.899  30.602  1.00  0.00     0.029 A 
ATOM     49  N   UNL A   1      44.092  27.279  31.664  1.00  0.00    -0.354 N 
ATOM     50  C   UNL A   1      44.274  27.371  36.024  1.00  0.00     0.074 A 
ATOM     51  C   UNL A   1      43.035  27.877  36.572  1.00  0.00     0.031 C 
ATOM     52  C   UNL A   1      43.108  27.506  29.670  1.00  0.00     0.029 A 
ATOM     53  C   UNL A   1      44.358  27.125  30.326  1.00  0.00     0.049 A 
ATOM     54  H   UNL A   1      44.741  27.061  32.371  1.00  0.00     0.167 HD
ATOM     55  C   UNL A   1      45.325  26.951  36.769  1.00  0.00     0.034 A 
ATOM     56  C   UNL A   1      45.490  26.737  29.707  1.00  0.00     0.034 A 
ATOM     57  C   UNL A   1      46.557  26.469  36.196  1.00  0.00     0.049 A 
ATOM     58  C   UNL A   1      46.679  26.353  30.556  1.00  0.00     0.074 A 
ATOM     59  C   UNL A   1      47.698  26.028  36.842  1.00  0.00     0.029 A 
ATOM     60  N   UNL A   1      46.812  26.373  34.831  1.00  0.00    -0.354 N 
ATOM     61  N   UNL A   1      46.792  26.335  31.865  1.00  0.00    -0.248 NA
ATOM     62  C   UNL A   1      47.886  25.923  29.842  1.00  0.00     0.031 C 
ATOM     63  C   UNL A   1      48.664  25.735  35.873  1.00  0.00     0.029 A 
ATOM     64  C   UNL A   1      48.100  25.908  34.617  1.00  0.00     0.049 A 
ATOM     65  H   UNL A   1      46.170  26.602  34.121  1.00  0.00     0.167 HD
ATOM     66  C   UNL A   1      48.073  25.855  32.130  1.00  0.00     0.074 A 
ATOM     67  C   UNL A   1      48.682  25.581  30.844  1.00  0.00     0.031 C 
ATOM     68  C   UNL A   1      48.690  25.653  33.324  1.00  0.00     0.034 A 
BRANCH  55  69
ATOM     69  C   UNL A   1      45.197  27.061  38.271  1.00  0.00     0.023 A 
ATOM     70  C   UNL A   1      45.592  28.216  38.969  1.00  0.00     0.031 A 
ATOM     71  C   UNL A   1      44.720  25.972  39.022  1.00  0.00     0.131 A 
ATOM     72  C   UNL A   1      45.575  28.229  40.372  1.00  0.00     0.055 A 
ATOM     73  C   UNL A   1      44.626  26.022  40.414  1.00  0.00     0.041 A 
ATOM     74  F   UNL A   1      44.355  24.831  38.417  1.00  0.00    -0.206 F 
ATOM     75  C   UNL A   1      45.069  27.149  41.099  1.00  0.00     0.022 A 
BRANCH  72  76
ATOM     76  S   UNL A   1      46.365  29.613  41.240  1.00  0.00     0.124 S 
ATOM     77  O   UNL A   1      47.568  29.817  40.434  1.00  0.00    -0.237 OA
ATOM     78  O   UNL A   1      45.353  30.659  41.154  1.00  0.00    -0.237 OA
ATOM     79  O   UNL A   1      46.605  29.085  42.581  1.00  0.00    -0.744 OA
ENDBRANCH  72  76
ENDBRANCH  55  69
BRANCH  56  80
ATOM     80  C   UNL A   1      45.570  26.715  28.218  1.00  0.00     0.023 A 
ATOM     81  C   UNL A   1      45.419  25.521  27.496  1.00  0.00     0.031 A 
ATOM     82  C   UNL A   1      45.853  27.888  27.495  1.00  0.00     0.131 A 
ATOM     83  C   UNL A   1      45.599  25.517  26.104  1.00  0.00     0.055 A 
ATOM     84  C   UNL A   1      45.977  27.890  26.105  1.00  0.00     0.041 A 
ATOM     85  F   UNL A   1      46.009  29.059  28.135  1.00  0.00    -0.206 F 
ATOM     86  C   UNL A   1      45.863  26.695  25.402  1.00  0.00     0.022 A 
BRANCH  83  87
ATOM     87  S   UNL A   1      45.570  23.927  25.230  1.00  0.00     0.124 S 
ATOM     88  O   UNL A   1      46.329  24.238  24.023  1.00  0.00    -0.237 OA
ATOM     89  O   UNL A   1      46.224  23.043  26.190  1.00  0.00    -0.237 OA
ATOM     90  O   UNL A   1      44.145  23.678  25.026  1.00  0.00    -0.744 OA
ENDBRANCH  83  87
ENDBRANCH  56  80
BRANCH  68  91
ATOM     91  C   UNL A   1      50.079  25.058  33.281  1.00  0.00     0.023 A 
ATOM     92  C   UNL A   1      50.289  23.673  33.161  1.00  0.00     0.031 A 
ATOM     93  C   UNL A   1      51.206  25.891  33.391  1.00  0.00     0.131 A 
ATOM     94  C   UNL A   1      51.591  23.157  33.231  1.00  0.00     0.055 A 
ATOM     95  C   UNL A   1      52.503  25.378  33.385  1.00  0.00     0.041 A 
ATOM     96  F   UNL A   1      51.066  27.221  33.509  1.00  0.00    -0.206 F 
ATOM     97  C   UNL A   1      52.700  24.001  33.323  1.00  0.00     0.022 A 
BRANCH  94  98
ATOM     98  S   UNL A   1      51.808  21.359  33.327  1.00  0.00     0.124 S 
ATOM     99  O   UNL A   1      52.533  21.208  34.585  1.00  0.00    -0.237 OA
ATOM    100  O   UNL A   1      50.430  20.879  33.324  1.00  0.00    -0.237 OA
ATOM    101  O   UNL A   1      52.578  21.042  32.126  1.00  0.00    -0.744 OA
ENDBRANCH  94  98
ENDBRANCH  68  91
ENDBRANCH  42  43
ENDBRANCH  35  37
ENDBRANCH  34  35
ENDBRANCH  33  34
ENDBRANCH  32  33
ENDBRANCH  31  32
ENDBRANCH  30  31
ENDBRANCH   1  30
TORSDOF 25
ENDMDL
