MODEL 1
REMARK VINA RESULT:      -8.6      0.000      0.000
REMARK SMILES CC[NH+]1CCN(c2ccc(NC(=O)C3CCCC3)c(C(=O)OCCOCCOCCOCCOC(=O)c3ccc(-c4c5nc(c(-c6cc(S(=O)(=O)[O-])ccc6F)c6ccc([nH]6)c(-c6cc(S(=O)(=O)[O-])ccc6F)c6nc(c(-c7cc(S(=O)(=O)[O-])ccc7F)c7ccc4[nH]7)C=C6)C=C5)cc3)c2)CC1
REMARK SMILES IDX 29 1 28 2 27 3 26 4 25 5 24 6 23 7 22 8 20 9 21 10 19 11
REMARK SMILES IDX 7 12 8 13 100 14 9 15 10 16 6 17 3 18 4 19 102 20 5 22
REMARK SMILES IDX 101 23 2 24 1 25 11 26 12 27 13 29 14 30 15 31 18 32 16 33
REMARK SMILES IDX 17 34 30 35 31 36 32 37 33 38 34 39 35 40 36 41 37 42 38 43
REMARK SMILES IDX 99 44 39 45 98 46 40 47 41 48 42 49 92 50 43 51 97 52 91 53
REMARK SMILES IDX 93 54 44 55 96 56 90 57 89 58 45 60 77 61 57 62 76 63 58 64
REMARK SMILES IDX 61 65 75 66 94 67 59 68 60 69 74 71 95 72 62 73 46 74 47 75
REMARK SMILES IDX 55 76 48 77 54 78 56 79 53 80 49 81 50 82 51 83 52 84 78 85
REMARK SMILES IDX 79 86 87 87 80 88 86 89 88 90 85 91 81 92 82 93 83 94 84 95
REMARK SMILES IDX 63 96 64 97 72 98 65 99 71 100 73 101 70 102 66 103 67 104
REMARK SMILES IDX 68 105 69 106
REMARK H PARENT 3 21 11 28 93 59 61 70
REMARK Flexibility Score: inf
ROOT
ATOM      1  C   UNL A   1      37.731  31.876  30.063  1.00  0.00     0.188 C 
ENDROOT
BRANCH   1   2
ATOM      2  O   UNL A   1      37.209  31.184  28.938  1.00  0.00    -0.377 OA
BRANCH   2   3
ATOM      3  C   UNL A   1      35.809  31.129  28.738  1.00  0.00     0.188 C 
BRANCH   3   4
ATOM      4  C   UNL A   1      35.259  30.515  27.438  1.00  0.00     0.188 C 
BRANCH   4   5
ATOM      5  O   UNL A   1      34.112  29.695  27.620  1.00  0.00    -0.376 OA
BRANCH   5   6
ATOM      6  C   UNL A   1      33.897  28.699  26.629  1.00  0.00     0.202 C 
BRANCH   6   7
ATOM      7  C   UNL A   1      32.655  27.842  26.886  1.00  0.00     0.261 C 
BRANCH   7   8
ATOM      8  O   UNL A   1      32.479  26.750  25.967  1.00  0.00    -0.460 OA
BRANCH   8   9
ATOM      9  C   UNL A   1      31.481  25.862  26.177  1.00  0.00     0.340 C 
ATOM     10  O   UNL A   1      30.450  26.051  26.801  1.00  0.00    -0.246 OA
BRANCH   9  11
ATOM     11  C   UNL A   1      31.735  24.705  25.277  1.00  0.00     0.085 A 
ATOM     12  C   UNL A   1      33.425  23.130  24.425  1.00  0.00     0.038 A 
ATOM     13  C   UNL A   1      32.590  22.957  23.323  1.00  0.00     0.028 A 
ATOM     14  C   UNL A   1      32.971  24.021  25.404  1.00  0.00     0.043 A 
ATOM     15  C   UNL A   1      31.367  23.615  23.206  1.00  0.00     0.029 A 
ATOM     16  C   UNL A   1      30.874  24.444  24.194  1.00  0.00     0.055 A 
BRANCH  12  17
ATOM     17  N   UNL A   1      34.681  22.539  24.480  1.00  0.00    -0.360 N 
ATOM     18  N   UNL A   1      37.379  21.363  24.780  1.00  0.00    -0.332 N 
ATOM     19  C   UNL A   1      36.172  20.631  25.172  1.00  0.00     0.283 C 
ATOM     20  C   UNL A   1      37.056  22.340  23.729  1.00  0.00     0.283 C 
ATOM     21  H   UNL A   1      38.017  20.679  24.373  1.00  0.00     0.348 HD
ATOM     22  C   UNL A   1      34.932  21.489  25.485  1.00  0.00     0.178 C 
ATOM     23  C   UNL A   1      35.857  23.276  23.995  1.00  0.00     0.178 C 
BRANCH  18  24
ATOM     24  C   UNL A   1      38.223  21.850  25.866  1.00  0.00     0.258 C 
ATOM     25  C   UNL A   1      39.670  21.382  25.950  1.00  0.00     0.071 C 
ENDBRANCH  18  24
ENDBRANCH  12  17
BRANCH  16  26
ATOM     26  N   UNL A   1      29.634  25.102  24.047  1.00  0.00    -0.325 N 
ATOM     27  C   UNL A   1      29.250  26.367  23.715  1.00  0.00     0.227 C 
ATOM     28  H   UNL A   1      28.869  24.509  24.225  1.00  0.00     0.169 HD
ATOM     29  O   UNL A   1      28.071  26.660  23.967  1.00  0.00    -0.274 OA
BRANCH  27  30
ATOM     30  C   UNL A   1      30.113  27.439  23.035  1.00  0.00     0.079 C 
ATOM     31  C   UNL A   1      30.501  28.633  23.907  1.00  0.00     0.013 C 
ATOM     32  C   UNL A   1      31.364  27.004  22.264  1.00  0.00     0.013 C 
ATOM     33  C   UNL A   1      31.791  29.165  23.290  1.00  0.00     0.001 C 
ATOM     34  C   UNL A   1      32.485  27.959  22.675  1.00  0.00     0.001 C 
ENDBRANCH  27  30
ENDBRANCH  16  26
ENDBRANCH   9  11
ENDBRANCH   8   9
ENDBRANCH   7   8
ENDBRANCH   6   7
ENDBRANCH   5   6
ENDBRANCH   4   5
ENDBRANCH   3   4
ENDBRANCH   2   3
ENDBRANCH   1   2
BRANCH   1  35
ATOM     35  C   UNL A   1      36.874  32.086  31.329  1.00  0.00     0.188 C 
BRANCH  35  36
ATOM     36  O   UNL A   1      36.460  30.891  31.983  1.00  0.00    -0.376 OA
BRANCH  36  37
ATOM     37  C   UNL A   1      37.120  30.587  33.204  1.00  0.00     0.202 C 
BRANCH  37  38
ATOM     38  C   UNL A   1      37.662  31.822  33.932  1.00  0.00     0.261 C 
BRANCH  38  39
ATOM     39  O   UNL A   1      37.218  31.962  35.290  1.00  0.00    -0.460 OA
BRANCH  39  40
ATOM     40  C   UNL A   1      38.167  31.887  36.251  1.00  0.00     0.338 C 
ATOM     41  O   UNL A   1      38.220  31.094  37.172  1.00  0.00    -0.246 OA
BRANCH  40  42
ATOM     42  C   UNL A   1      39.240  32.830  35.888  1.00  0.00     0.060 A 
ATOM     43  C   UNL A   1      38.917  34.174  35.664  1.00  0.00     0.016 A 
ATOM     44  C   UNL A   1      40.560  32.384  35.785  1.00  0.00     0.016 A 
ATOM     45  C   UNL A   1      39.918  35.076  35.306  1.00  0.00     0.010 A 
ATOM     46  C   UNL A   1      41.556  33.282  35.404  1.00  0.00     0.010 A 
ATOM     47  C   UNL A   1      41.234  34.624  35.134  1.00  0.00    -0.014 A 
BRANCH  47  48
ATOM     48  C   UNL A   1      42.231  35.488  34.463  1.00  0.00     0.031 A 
ATOM     49  C   UNL A   1      42.973  36.489  35.307  1.00  0.00     0.074 A 
ATOM     50  C   UNL A   1      42.467  35.396  33.143  1.00  0.00     0.049 A 
ATOM     51  N   UNL A   1      43.837  37.402  34.951  1.00  0.00    -0.248 NA
ATOM     52  C   UNL A   1      42.690  36.455  36.752  1.00  0.00     0.031 C 
ATOM     53  C   UNL A   1      41.836  34.441  32.236  1.00  0.00     0.029 A 
ATOM     54  N   UNL A   1      43.299  36.131  32.335  1.00  0.00    -0.354 N 
ATOM     55  C   UNL A   1      44.203  38.050  36.125  1.00  0.00     0.074 A 
ATOM     56  C   UNL A   1      43.438  37.450  37.197  1.00  0.00     0.031 C 
ATOM     57  C   UNL A   1      42.290  34.659  30.989  1.00  0.00     0.029 A 
ATOM     58  C   UNL A   1      43.215  35.792  31.004  1.00  0.00     0.049 A 
ATOM     59  H   UNL A   1      43.897  36.834  32.675  1.00  0.00     0.167 HD
ATOM     60  C   UNL A   1      45.100  39.052  36.294  1.00  0.00     0.034 A 
ATOM     61  C   UNL A   1      43.799  36.355  29.926  1.00  0.00     0.034 A 
ATOM     62  C   UNL A   1      45.833  39.657  35.211  1.00  0.00     0.049 A 
ATOM     63  C   UNL A   1      44.725  37.533  30.127  1.00  0.00     0.074 A 
ATOM     64  C   UNL A   1      46.770  40.674  35.266  1.00  0.00     0.029 A 
ATOM     65  N   UNL A   1      45.698  39.313  33.872  1.00  0.00    -0.354 N 
ATOM     66  N   UNL A   1      45.079  38.129  31.243  1.00  0.00    -0.248 NA
ATOM     67  C   UNL A   1      45.337  38.109  28.921  1.00  0.00     0.031 C 
ATOM     68  C   UNL A   1      47.149  40.990  33.957  1.00  0.00     0.029 A 
ATOM     69  C   UNL A   1      46.509  40.119  33.090  1.00  0.00     0.049 A 
ATOM     70  H   UNL A   1      45.112  38.600  33.529  1.00  0.00     0.167 HD
ATOM     71  C   UNL A   1      45.978  39.128  30.876  1.00  0.00     0.074 A 
ATOM     72  C   UNL A   1      46.121  39.046  29.436  1.00  0.00     0.031 C 
ATOM     73  C   UNL A   1      46.634  40.027  31.654  1.00  0.00     0.034 A 
BRANCH  60  74
ATOM     74  C   UNL A   1      45.283  39.583  37.693  1.00  0.00     0.023 A 
ATOM     75  C   UNL A   1      44.310  40.389  38.312  1.00  0.00     0.031 A 
ATOM     76  C   UNL A   1      46.465  39.313  38.404  1.00  0.00     0.131 A 
ATOM     77  C   UNL A   1      44.566  40.952  39.570  1.00  0.00     0.055 A 
ATOM     78  C   UNL A   1      46.681  39.813  39.689  1.00  0.00     0.041 A 
ATOM     79  F   UNL A   1      47.439  38.571  37.854  1.00  0.00    -0.206 F 
ATOM     80  C   UNL A   1      45.735  40.650  40.274  1.00  0.00     0.022 A 
BRANCH  77  81
ATOM     81  S   UNL A   1      43.413  42.194  40.216  1.00  0.00     0.124 S 
ATOM     82  O   UNL A   1      42.486  42.346  39.097  1.00  0.00    -0.237 OA
ATOM     83  O   UNL A   1      42.878  41.541  41.404  1.00  0.00    -0.237 OA
ATOM     84  O   UNL A   1      44.265  43.354  40.471  1.00  0.00    -0.744 OA
ENDBRANCH  77  81
ENDBRANCH  60  74
BRANCH  61  85
ATOM     85  C   UNL A   1      43.498  35.857  28.552  1.00  0.00     0.023 A 
ATOM     86  C   UNL A   1      44.211  34.784  27.994  1.00  0.00     0.031 A 
ATOM     87  C   UNL A   1      42.537  36.499  27.749  1.00  0.00     0.131 A 
ATOM     88  C   UNL A   1      43.988  34.417  26.656  1.00  0.00     0.055 A 
ATOM     89  C   UNL A   1      42.282  36.096  26.437  1.00  0.00     0.041 A 
ATOM     90  F   UNL A   1      41.831  37.533  28.231  1.00  0.00    -0.206 F 
ATOM     91  C   UNL A   1      43.020  35.057  25.879  1.00  0.00     0.022 A 
BRANCH  88  92
ATOM     92  S   UNL A   1      45.051  33.147  25.914  1.00  0.00     0.124 S 
ATOM     93  O   UNL A   1      46.345  33.818  25.894  1.00  0.00    -0.237 OA
ATOM     94  O   UNL A   1      44.913  32.047  26.862  1.00  0.00    -0.237 OA
ATOM     95  O   UNL A   1      44.444  32.918  24.605  1.00  0.00    -0.744 OA
ENDBRANCH  88  92
ENDBRANCH  61  85
BRANCH  73  96
ATOM     96  C   UNL A   1      47.605  40.956  30.967  1.00  0.00     0.023 A 
ATOM     97  C   UNL A   1      48.922  40.567  30.669  1.00  0.00     0.031 A 
ATOM     98  C   UNL A   1      47.199  42.254  30.604  1.00  0.00     0.131 A 
ATOM     99  C   UNL A   1      49.803  41.483  30.072  1.00  0.00     0.055 A 
ATOM    100  C   UNL A   1      48.062  43.139  29.957  1.00  0.00     0.041 A 
ATOM    101  F   UNL A   1      45.952  42.678  30.863  1.00  0.00    -0.206 F 
ATOM    102  C   UNL A   1      49.376  42.760  29.699  1.00  0.00     0.022 A 
BRANCH  99 103
ATOM    103  S   UNL A   1      51.543  41.012  29.862  1.00  0.00     0.124 S 
ATOM    104  O   UNL A   1      52.237  42.238  30.241  1.00  0.00    -0.237 OA
ATOM    105  O   UNL A   1      51.677  39.891  30.786  1.00  0.00    -0.237 OA
ATOM    106  O   UNL A   1      51.633  40.661  28.446  1.00  0.00    -0.744 OA
ENDBRANCH  99 103
ENDBRANCH  73  96
ENDBRANCH  47  48
ENDBRANCH  40  42
ENDBRANCH  39  40
ENDBRANCH  38  39
ENDBRANCH  37  38
ENDBRANCH  36  37
ENDBRANCH  35  36
ENDBRANCH   1  35
TORSDOF 27
ENDMDL
MODEL 2
REMARK VINA RESULT:      -8.3      6.788     10.011
REMARK SMILES CC[NH+]1CCN(c2ccc(NC(=O)C3CCCC3)c(C(=O)OCCOCCOCCOCCOC(=O)c3ccc(-c4c5nc(c(-c6cc(S(=O)(=O)[O-])ccc6F)c6ccc([nH]6)c(-c6cc(S(=O)(=O)[O-])ccc6F)c6nc(c(-c7cc(S(=O)(=O)[O-])ccc7F)c7ccc4[nH]7)C=C6)C=C5)cc3)c2)CC1
REMARK SMILES IDX 29 1 28 2 27 3 26 4 25 5 24 6 23 7 22 8 20 9 21 10 19 11
REMARK SMILES IDX 7 12 8 13 100 14 9 15 10 16 6 17 3 18 4 19 102 20 5 22
REMARK SMILES IDX 101 23 2 24 1 25 11 26 12 27 13 29 14 30 15 31 18 32 16 33
REMARK SMILES IDX 17 34 30 35 31 36 32 37 33 38 34 39 35 40 36 41 37 42 38 43
REMARK SMILES IDX 99 44 39 45 98 46 40 47 41 48 42 49 92 50 43 51 97 52 91 53
REMARK SMILES IDX 93 54 44 55 96 56 90 57 89 58 45 60 77 61 57 62 76 63 58 64
REMARK SMILES IDX 61 65 75 66 94 67 59 68 60 69 74 71 95 72 62 73 46 74 47 75
REMARK SMILES IDX 55 76 48 77 54 78 56 79 53 80 49 81 50 82 51 83 52 84 78 85
REMARK SMILES IDX 79 86 87 87 80 88 86 89 88 90 85 91 81 92 82 93 83 94 84 95
REMARK SMILES IDX 63 96 64 97 72 98 65 99 71 100 73 101 70 102 66 103 67 104
REMARK SMILES IDX 68 105 69 106
REMARK H PARENT 3 21 11 28 93 59 61 70
REMARK Flexibility Score: inf
ROOT
ATOM      1  C   UNL A   1      35.881  31.771  27.954  1.00  0.00     0.188 C 
ENDROOT
BRANCH   1   2
ATOM      2  O   UNL A   1      35.085  30.694  28.426  1.00  0.00    -0.377 OA
BRANCH   2   3
ATOM      3  C   UNL A   1      34.584  29.738  27.512  1.00  0.00     0.188 C 
BRANCH   3   4
ATOM      4  C   UNL A   1      33.504  30.159  26.499  1.00  0.00     0.188 C 
BRANCH   4   5
ATOM      5  O   UNL A   1      32.251  29.510  26.680  1.00  0.00    -0.376 OA
BRANCH   5   6
ATOM      6  C   UNL A   1      32.294  28.252  27.340  1.00  0.00     0.202 C 
BRANCH   6   7
ATOM      7  C   UNL A   1      31.189  27.292  26.894  1.00  0.00     0.261 C 
BRANCH   7   8
ATOM      8  O   UNL A   1      31.580  25.911  26.836  1.00  0.00    -0.460 OA
BRANCH   8   9
ATOM      9  C   UNL A   1      30.680  24.983  26.437  1.00  0.00     0.340 C 
ATOM     10  O   UNL A   1      29.538  24.847  26.842  1.00  0.00    -0.246 OA
BRANCH   9  11
ATOM     11  C   UNL A   1      31.238  24.334  25.221  1.00  0.00     0.085 A 
ATOM     12  C   UNL A   1      33.225  23.291  24.206  1.00  0.00     0.038 A 
ATOM     13  C   UNL A   1      32.664  23.614  22.973  1.00  0.00     0.028 A 
ATOM     14  C   UNL A   1      32.484  23.665  25.333  1.00  0.00     0.043 A 
ATOM     15  C   UNL A   1      31.431  24.254  22.860  1.00  0.00     0.029 A 
ATOM     16  C   UNL A   1      30.657  24.569  23.960  1.00  0.00     0.055 A 
BRANCH  12  17
ATOM     17  N   UNL A   1      34.495  22.738  24.300  1.00  0.00    -0.360 N 
ATOM     18  N   UNL A   1      37.221  21.649  24.678  1.00  0.00    -0.332 N 
ATOM     19  C   UNL A   1      36.029  20.901  25.085  1.00  0.00     0.283 C 
ATOM     20  C   UNL A   1      36.885  22.575  23.585  1.00  0.00     0.283 C 
ATOM     21  H   UNL A   1      37.882  20.968  24.306  1.00  0.00     0.348 HD
ATOM     22  C   UNL A   1      34.762  21.735  25.349  1.00  0.00     0.178 C 
ATOM     23  C   UNL A   1      35.657  23.487  23.799  1.00  0.00     0.178 C 
BRANCH  18  24
ATOM     24  C   UNL A   1      38.037  22.203  25.753  1.00  0.00     0.258 C 
ATOM     25  C   UNL A   1      39.403  21.592  26.040  1.00  0.00     0.071 C 
ENDBRANCH  18  24
ENDBRANCH  12  17
BRANCH  16  26
ATOM     26  N   UNL A   1      29.414  25.223  23.818  1.00  0.00    -0.325 N 
ATOM     27  C   UNL A   1      29.008  26.523  23.804  1.00  0.00     0.227 C 
ATOM     28  H   UNL A   1      28.667  24.592  23.701  1.00  0.00     0.169 HD
ATOM     29  O   UNL A   1      27.789  26.713  23.946  1.00  0.00    -0.274 OA
BRANCH  27  30
ATOM     30  C   UNL A   1      29.894  27.759  23.596  1.00  0.00     0.079 C 
ATOM     31  C   UNL A   1      30.912  27.666  22.459  1.00  0.00     0.013 C 
ATOM     32  C   UNL A   1      29.234  29.139  23.513  1.00  0.00     0.013 C 
ATOM     33  C   UNL A   1      31.172  29.111  22.047  1.00  0.00     0.001 C 
ATOM     34  C   UNL A   1      29.879  29.862  22.331  1.00  0.00     0.001 C 
ENDBRANCH  27  30
ENDBRANCH  16  26
ENDBRANCH   9  11
ENDBRANCH   8   9
ENDBRANCH   7   8
ENDBRANCH   6   7
ENDBRANCH   5   6
ENDBRANCH   4   5
ENDBRANCH   3   4
ENDBRANCH   2   3
ENDBRANCH   1   2
BRANCH   1  35
ATOM     35  C   UNL A   1      36.999  32.371  28.832  1.00  0.00     0.188 C 
BRANCH  35  36
ATOM     36  O   UNL A   1      37.506  31.503  29.841  1.00  0.00    -0.376 OA
BRANCH  36  37
ATOM     37  C   UNL A   1      37.544  32.032  31.159  1.00  0.00     0.202 C 
BRANCH  37  38
ATOM     38  C   UNL A   1      38.684  33.029  31.387  1.00  0.00     0.261 C 
BRANCH  38  39
ATOM     39  O   UNL A   1      38.261  34.364  31.700  1.00  0.00    -0.460 OA
BRANCH  39  40
ATOM     40  C   UNL A   1      37.310  34.494  32.653  1.00  0.00     0.338 C 
ATOM     41  O   UNL A   1      36.126  34.718  32.486  1.00  0.00    -0.246 OA
BRANCH  40  42
ATOM     42  C   UNL A   1      37.926  34.135  33.943  1.00  0.00     0.060 A 
ATOM     43  C   UNL A   1      38.991  34.906  34.426  1.00  0.00     0.016 A 
ATOM     44  C   UNL A   1      37.439  33.049  34.675  1.00  0.00     0.016 A 
ATOM     45  C   UNL A   1      39.594  34.571  35.638  1.00  0.00     0.010 A 
ATOM     46  C   UNL A   1      38.057  32.702  35.875  1.00  0.00     0.010 A 
ATOM     47  C   UNL A   1      39.155  33.443  36.345  1.00  0.00    -0.014 A 
BRANCH  47  48
ATOM     48  C   UNL A   1      39.974  32.902  37.455  1.00  0.00     0.031 A 
ATOM     49  C   UNL A   1      39.423  33.014  38.851  1.00  0.00     0.074 A 
ATOM     50  C   UNL A   1      41.173  32.337  37.235  1.00  0.00     0.049 A 
ATOM     51  N   UNL A   1      39.970  32.684  39.991  1.00  0.00    -0.248 NA
ATOM     52  C   UNL A   1      38.071  33.583  38.971  1.00  0.00     0.031 C 
ATOM     53  C   UNL A   1      41.788  32.143  35.923  1.00  0.00     0.029 A 
ATOM     54  N   UNL A   1      42.095  31.832  38.117  1.00  0.00    -0.354 N 
ATOM     55  C   UNL A   1      39.031  33.005  40.964  1.00  0.00     0.074 A 
ATOM     56  C   UNL A   1      37.896  33.589  40.282  1.00  0.00     0.031 C 
ATOM     57  C   UNL A   1      42.996  31.576  36.089  1.00  0.00     0.029 A 
ATOM     58  C   UNL A   1      43.254  31.400  37.517  1.00  0.00     0.049 A 
ATOM     59  H   UNL A   1      41.940  31.786  39.088  1.00  0.00     0.167 HD
ATOM     60  C   UNL A   1      39.105  32.823  42.305  1.00  0.00     0.034 A 
ATOM     61  C   UNL A   1      44.400  30.945  38.067  1.00  0.00     0.034 A 
ATOM     62  C   UNL A   1      40.255  32.265  42.971  1.00  0.00     0.049 A 
ATOM     63  C   UNL A   1      44.497  30.838  39.572  1.00  0.00     0.074 A 
ATOM     64  C   UNL A   1      40.439  32.031  44.322  1.00  0.00     0.029 A 
ATOM     65  N   UNL A   1      41.426  31.871  42.336  1.00  0.00    -0.354 N 
ATOM     66  N   UNL A   1      43.597  31.128  40.484  1.00  0.00    -0.248 NA
ATOM     67  C   UNL A   1      45.764  30.335  40.121  1.00  0.00     0.031 C 
ATOM     68  C   UNL A   1      41.744  31.560  44.510  1.00  0.00     0.029 A 
ATOM     69  C   UNL A   1      42.347  31.427  43.270  1.00  0.00     0.049 A 
ATOM     70  H   UNL A   1      41.579  31.903  41.364  1.00  0.00     0.167 HD
ATOM     71  C   UNL A   1      44.178  30.811  41.710  1.00  0.00     0.074 A 
ATOM     72  C   UNL A   1      45.501  30.298  41.419  1.00  0.00     0.031 C 
ATOM     73  C   UNL A   1      43.666  30.925  42.962  1.00  0.00     0.034 A 
BRANCH  60  74
ATOM     74  C   UNL A   1      37.932  33.289  43.129  1.00  0.00     0.023 A 
ATOM     75  C   UNL A   1      36.744  32.539  43.214  1.00  0.00     0.031 A 
ATOM     76  C   UNL A   1      37.985  34.520  43.805  1.00  0.00     0.131 A 
ATOM     77  C   UNL A   1      35.638  33.058  43.901  1.00  0.00     0.055 A 
ATOM     78  C   UNL A   1      36.905  34.996  44.552  1.00  0.00     0.041 A 
ATOM     79  F   UNL A   1      39.082  35.290  43.738  1.00  0.00    -0.206 F 
ATOM     80  C   UNL A   1      35.718  34.271  44.591  1.00  0.00     0.022 A 
BRANCH  77  81
ATOM     81  S   UNL A   1      34.049  32.195  43.767  1.00  0.00     0.124 S 
ATOM     82  O   UNL A   1      33.142  33.295  43.446  1.00  0.00    -0.237 OA
ATOM     83  O   UNL A   1      34.297  31.239  42.694  1.00  0.00    -0.237 OA
ATOM     84  O   UNL A   1      33.862  31.610  45.093  1.00  0.00    -0.744 OA
ENDBRANCH  77  81
ENDBRANCH  60  74
BRANCH  61  85
ATOM     85  C   UNL A   1      45.570  30.600  37.208  1.00  0.00     0.023 A 
ATOM     86  C   UNL A   1      46.500  31.578  36.819  1.00  0.00     0.031 A 
ATOM     87  C   UNL A   1      45.734  29.297  36.705  1.00  0.00     0.131 A 
ATOM     88  C   UNL A   1      47.522  31.249  35.913  1.00  0.00     0.055 A 
ATOM     89  C   UNL A   1      46.783  28.963  35.846  1.00  0.00     0.041 A 
ATOM     90  F   UNL A   1      44.872  28.326  37.041  1.00  0.00    -0.206 F 
ATOM     91  C   UNL A   1      47.677  29.946  35.434  1.00  0.00     0.022 A 
BRANCH  88  92
ATOM     92  S   UNL A   1      48.595  32.575  35.293  1.00  0.00     0.124 S 
ATOM     93  O   UNL A   1      48.128  33.720  36.066  1.00  0.00    -0.237 OA
ATOM     94  O   UNL A   1      49.922  32.073  35.631  1.00  0.00    -0.237 OA
ATOM     95  O   UNL A   1      48.291  32.619  33.865  1.00  0.00    -0.744 OA
ENDBRANCH  88  92
ENDBRANCH  61  85
BRANCH  73  96
ATOM     96  C   UNL A   1      44.522  30.435  44.105  1.00  0.00     0.023 A 
ATOM     97  C   UNL A   1      45.456  31.268  44.744  1.00  0.00     0.031 A 
ATOM     98  C   UNL A   1      44.395  29.110  44.561  1.00  0.00     0.131 A 
ATOM     99  C   UNL A   1      46.263  30.753  45.772  1.00  0.00     0.055 A 
ATOM    100  C   UNL A   1      45.158  28.622  45.622  1.00  0.00     0.041 A 
ATOM    101  F   UNL A   1      43.518  28.271  43.988  1.00  0.00    -0.206 F 
ATOM    102  C   UNL A   1      46.107  29.441  46.226  1.00  0.00     0.022 A 
BRANCH  99 103
ATOM    103  S   UNL A   1      47.578  31.799  46.456  1.00  0.00     0.124 S 
ATOM    104  O   UNL A   1      48.520  30.807  46.966  1.00  0.00    -0.237 OA
ATOM    105  O   UNL A   1      48.018  32.554  45.288  1.00  0.00    -0.237 OA
ATOM    106  O   UNL A   1      46.893  32.586  47.479  1.00  0.00    -0.744 OA
ENDBRANCH  99 103
ENDBRANCH  73  96
ENDBRANCH  47  48
ENDBRANCH  40  42
ENDBRANCH  39  40
ENDBRANCH  38  39
ENDBRANCH  37  38
ENDBRANCH  36  37
ENDBRANCH  35  36
ENDBRANCH   1  35
TORSDOF 27
ENDMDL
MODEL 3
REMARK VINA RESULT:      -8.1      5.932     11.513
REMARK SMILES CC[NH+]1CCN(c2ccc(NC(=O)C3CCCC3)c(C(=O)OCCOCCOCCOCCOC(=O)c3ccc(-c4c5nc(c(-c6cc(S(=O)(=O)[O-])ccc6F)c6ccc([nH]6)c(-c6cc(S(=O)(=O)[O-])ccc6F)c6nc(c(-c7cc(S(=O)(=O)[O-])ccc7F)c7ccc4[nH]7)C=C6)C=C5)cc3)c2)CC1
REMARK SMILES IDX 29 1 28 2 27 3 26 4 25 5 24 6 23 7 22 8 20 9 21 10 19 11
REMARK SMILES IDX 7 12 8 13 100 14 9 15 10 16 6 17 3 18 4 19 102 20 5 22
REMARK SMILES IDX 101 23 2 24 1 25 11 26 12 27 13 29 14 30 15 31 18 32 16 33
REMARK SMILES IDX 17 34 30 35 31 36 32 37 33 38 34 39 35 40 36 41 37 42 38 43
REMARK SMILES IDX 99 44 39 45 98 46 40 47 41 48 42 49 92 50 43 51 97 52 91 53
REMARK SMILES IDX 93 54 44 55 96 56 90 57 89 58 45 60 77 61 57 62 76 63 58 64
REMARK SMILES IDX 61 65 75 66 94 67 59 68 60 69 74 71 95 72 62 73 46 74 47 75
REMARK SMILES IDX 55 76 48 77 54 78 56 79 53 80 49 81 50 82 51 83 52 84 78 85
REMARK SMILES IDX 79 86 87 87 80 88 86 89 88 90 85 91 81 92 82 93 83 94 84 95
REMARK SMILES IDX 63 96 64 97 72 98 65 99 71 100 73 101 70 102 66 103 67 104
REMARK SMILES IDX 68 105 69 106
REMARK H PARENT 3 21 11 28 93 59 61 70
REMARK Flexibility Score: inf
ROOT
ATOM      1  C   UNL A   1      45.773  25.351  26.429  1.00  0.00     0.188 C 
ENDROOT
BRANCH   1   2
ATOM      2  O   UNL A   1      44.564  26.090  26.519  1.00  0.00    -0.377 OA
BRANCH   2   3
ATOM      3  C   UNL A   1      44.405  27.053  27.544  1.00  0.00     0.188 C 
BRANCH   3   4
ATOM      4  C   UNL A   1      43.635  26.673  28.821  1.00  0.00     0.188 C 
BRANCH   4   5
ATOM      5  O   UNL A   1      43.168  25.330  28.841  1.00  0.00    -0.376 OA
BRANCH   5   6
ATOM      6  C   UNL A   1      41.869  25.118  28.305  1.00  0.00     0.202 C 
BRANCH   6   7
ATOM      7  C   UNL A   1      41.806  23.965  27.300  1.00  0.00     0.261 C 
BRANCH   7   8
ATOM      8  O   UNL A   1      40.661  23.107  27.440  1.00  0.00    -0.460 OA
BRANCH   8   9
ATOM      9  C   UNL A   1      40.840  21.769  27.517  1.00  0.00     0.340 C 
ATOM     10  O   UNL A   1      41.407  21.155  28.405  1.00  0.00    -0.246 OA
BRANCH   9  11
ATOM     11  C   UNL A   1      39.982  21.156  26.468  1.00  0.00     0.085 A 
ATOM     12  C   UNL A   1      37.852  21.311  25.243  1.00  0.00     0.038 A 
ATOM     13  C   UNL A   1      37.991  19.947  24.992  1.00  0.00     0.028 A 
ATOM     14  C   UNL A   1      38.874  21.903  25.992  1.00  0.00     0.043 A 
ATOM     15  C   UNL A   1      39.088  19.216  25.444  1.00  0.00     0.029 A 
ATOM     16  C   UNL A   1      40.138  19.799  26.126  1.00  0.00     0.055 A 
BRANCH  12  17
ATOM     17  N   UNL A   1      36.708  22.002  24.866  1.00  0.00    -0.360 N 
ATOM     18  N   UNL A   1      34.370  23.646  24.099  1.00  0.00    -0.332 N 
ATOM     19  C   UNL A   1      35.344  23.181  23.108  1.00  0.00     0.283 C 
ATOM     20  C   UNL A   1      34.348  22.730  25.250  1.00  0.00     0.283 C 
ATOM     21  H   UNL A   1      33.453  23.597  23.654  1.00  0.00     0.348 HD
ATOM     22  C   UNL A   1      36.743  22.830  23.646  1.00  0.00     0.178 C 
ATOM     23  C   UNL A   1      35.711  22.374  25.882  1.00  0.00     0.178 C 
BRANCH  18  24
ATOM     24  C   UNL A   1      34.398  25.069  24.418  1.00  0.00     0.258 C 
ATOM     25  C   UNL A   1      33.641  25.571  25.641  1.00  0.00     0.071 C 
ENDBRANCH  18  24
ENDBRANCH  12  17
BRANCH  16  26
ATOM     26  N   UNL A   1      41.234  19.034  26.576  1.00  0.00    -0.325 N 
ATOM     27  C   UNL A   1      42.503  18.817  26.131  1.00  0.00     0.227 C 
ATOM     28  H   UNL A   1      41.036  18.542  27.406  1.00  0.00     0.169 HD
ATOM     29  O   UNL A   1      43.098  17.849  26.632  1.00  0.00    -0.274 OA
BRANCH  27  30
ATOM     30  C   UNL A   1      43.274  19.664  25.108  1.00  0.00     0.079 C 
ATOM     31  C   UNL A   1      43.738  21.037  25.596  1.00  0.00     0.013 C 
ATOM     32  C   UNL A   1      44.440  19.027  24.345  1.00  0.00     0.013 C 
ATOM     33  C   UNL A   1      44.947  21.372  24.728  1.00  0.00     0.001 C 
ATOM     34  C   UNL A   1      45.585  20.037  24.373  1.00  0.00     0.001 C 
ENDBRANCH  27  30
ENDBRANCH  16  26
ENDBRANCH   9  11
ENDBRANCH   8   9
ENDBRANCH   7   8
ENDBRANCH   6   7
ENDBRANCH   5   6
ENDBRANCH   4   5
ENDBRANCH   3   4
ENDBRANCH   2   3
ENDBRANCH   1   2
BRANCH   1  35
ATOM     35  C   UNL A   1      46.551  24.951  27.701  1.00  0.00     0.188 C 
BRANCH  35  36
ATOM     36  O   UNL A   1      47.751  25.682  27.928  1.00  0.00    -0.376 OA
BRANCH  36  37
ATOM     37  C   UNL A   1      48.952  25.064  27.487  1.00  0.00     0.202 C 
BRANCH  37  38
ATOM     38  C   UNL A   1      49.751  25.915  26.494  1.00  0.00     0.261 C 
BRANCH  38  39
ATOM     39  O   UNL A   1      49.308  27.276  26.378  1.00  0.00    -0.460 OA
BRANCH  39  40
ATOM     40  C   UNL A   1      49.946  28.190  27.144  1.00  0.00     0.338 C 
ATOM     41  O   UNL A   1      51.105  28.548  27.051  1.00  0.00    -0.246 OA
BRANCH  40  42
ATOM     42  C   UNL A   1      48.936  28.821  28.013  1.00  0.00     0.060 A 
ATOM     43  C   UNL A   1      49.293  29.184  29.317  1.00  0.00     0.016 A 
ATOM     44  C   UNL A   1      47.648  29.063  27.529  1.00  0.00     0.016 A 
ATOM     45  C   UNL A   1      48.344  29.769  30.156  1.00  0.00     0.010 A 
ATOM     46  C   UNL A   1      46.695  29.627  28.376  1.00  0.00     0.010 A 
ATOM     47  C   UNL A   1      47.032  29.954  29.701  1.00  0.00    -0.014 A 
BRANCH  47  48
ATOM     48  C   UNL A   1      45.955  30.280  30.664  1.00  0.00     0.031 A 
ATOM     49  C   UNL A   1      45.447  31.695  30.696  1.00  0.00     0.074 A 
ATOM     50  C   UNL A   1      45.447  29.351  31.492  1.00  0.00     0.049 A 
ATOM     51  N   UNL A   1      44.567  32.247  31.488  1.00  0.00    -0.248 NA
ATOM     52  C   UNL A   1      46.021  32.612  29.697  1.00  0.00     0.031 C 
ATOM     53  C   UNL A   1      45.836  27.943  31.524  1.00  0.00     0.029 A 
ATOM     54  N   UNL A   1      44.498  29.461  32.478  1.00  0.00    -0.354 N 
ATOM     55  C   UNL A   1      44.480  33.575  31.085  1.00  0.00     0.074 A 
ATOM     56  C   UNL A   1      45.424  33.752  30.003  1.00  0.00     0.031 C 
ATOM     57  C   UNL A   1      45.143  27.322  32.495  1.00  0.00     0.029 A 
ATOM     58  C   UNL A   1      44.290  28.294  33.177  1.00  0.00     0.049 A 
ATOM     59  H   UNL A   1      44.014  30.296  32.668  1.00  0.00     0.167 HD
ATOM     60  C   UNL A   1      43.681  34.556  31.570  1.00  0.00     0.034 A 
ATOM     61  C   UNL A   1      43.520  28.055  34.259  1.00  0.00     0.034 A 
ATOM     62  C   UNL A   1      42.766  34.369  32.667  1.00  0.00     0.049 A 
ATOM     63  C   UNL A   1      42.707  29.188  34.843  1.00  0.00     0.074 A 
ATOM     64  C   UNL A   1      41.904  35.290  33.238  1.00  0.00     0.029 A 
ATOM     65  N   UNL A   1      42.606  33.184  33.374  1.00  0.00    -0.354 N 
ATOM     66  N   UNL A   1      42.617  30.437  34.444  1.00  0.00    -0.248 NA
ATOM     67  C   UNL A   1      41.884  28.875  36.020  1.00  0.00     0.031 C 
ATOM     68  C   UNL A   1      41.276  34.681  34.331  1.00  0.00     0.029 A 
ATOM     69  C   UNL A   1      41.686  33.359  34.395  1.00  0.00     0.049 A 
ATOM     70  H   UNL A   1      43.078  32.343  33.178  1.00  0.00     0.167 HD
ATOM     71  C   UNL A   1      41.705  31.048  35.301  1.00  0.00     0.074 A 
ATOM     72  C   UNL A   1      41.264  30.028  36.230  1.00  0.00     0.031 C 
ATOM     73  C   UNL A   1      41.263  32.331  35.317  1.00  0.00     0.034 A 
BRANCH  60  74
ATOM     74  C   UNL A   1      43.814  35.923  30.947  1.00  0.00     0.023 A 
ATOM     75  C   UNL A   1      43.138  36.264  29.762  1.00  0.00     0.031 A 
ATOM     76  C   UNL A   1      44.661  36.885  31.524  1.00  0.00     0.131 A 
ATOM     77  C   UNL A   1      43.373  37.507  29.156  1.00  0.00     0.055 A 
ATOM     78  C   UNL A   1      44.832  38.149  30.958  1.00  0.00     0.041 A 
ATOM     79  F   UNL A   1      45.351  36.605  32.641  1.00  0.00    -0.206 F 
ATOM     80  C   UNL A   1      44.197  38.461  29.758  1.00  0.00     0.022 A 
BRANCH  77  81
ATOM     81  S   UNL A   1      42.698  37.808  27.500  1.00  0.00     0.124 S 
ATOM     82  O   UNL A   1      42.058  36.527  27.206  1.00  0.00    -0.237 OA
ATOM     83  O   UNL A   1      41.799  38.934  27.725  1.00  0.00    -0.237 OA
ATOM     84  O   UNL A   1      43.881  38.104  26.695  1.00  0.00    -0.744 OA
ENDBRANCH  77  81
ENDBRANCH  60  74
BRANCH  61  85
ATOM     85  C   UNL A   1      43.510  26.708  34.901  1.00  0.00     0.023 A 
ATOM     86  C   UNL A   1      44.654  26.194  35.533  1.00  0.00     0.031 A 
ATOM     87  C   UNL A   1      42.371  25.885  34.827  1.00  0.00     0.131 A 
ATOM     88  C   UNL A   1      44.651  24.877  36.021  1.00  0.00     0.055 A 
ATOM     89  C   UNL A   1      42.356  24.596  35.362  1.00  0.00     0.041 A 
ATOM     90  F   UNL A   1      41.253  26.324  34.231  1.00  0.00    -0.206 F 
ATOM     91  C   UNL A   1      43.506  24.079  35.951  1.00  0.00     0.022 A 
BRANCH  88  92
ATOM     92  S   UNL A   1      46.198  24.186  36.669  1.00  0.00     0.124 S 
ATOM     93  O   UNL A   1      46.095  24.504  38.088  1.00  0.00    -0.237 OA
ATOM     94  O   UNL A   1      46.070  22.776  36.316  1.00  0.00    -0.237 OA
ATOM     95  O   UNL A   1      47.230  24.918  35.937  1.00  0.00    -0.744 OA
ENDBRANCH  88  92
ENDBRANCH  61  85
BRANCH  73  96
ATOM     96  C   UNL A   1      40.211  32.687  36.340  1.00  0.00     0.023 A 
ATOM     97  C   UNL A   1      40.529  32.891  37.694  1.00  0.00     0.031 A 
ATOM     98  C   UNL A   1      38.867  32.826  35.947  1.00  0.00     0.131 A 
ATOM     99  C   UNL A   1      39.509  33.173  38.616  1.00  0.00     0.055 A 
ATOM    100  C   UNL A   1      37.867  33.165  36.858  1.00  0.00     0.041 A 
ATOM    101  F   UNL A   1      38.507  32.643  34.667  1.00  0.00    -0.206 F 
ATOM    102  C   UNL A   1      38.183  33.329  38.204  1.00  0.00     0.022 A 
BRANCH  99 103
ATOM    103  S   UNL A   1      39.925  33.257  40.380  1.00  0.00     0.124 S 
ATOM    104  O   UNL A   1      40.372  34.639  40.521  1.00  0.00    -0.237 OA
ATOM    105  O   UNL A   1      38.654  32.929  41.017  1.00  0.00    -0.237 OA
ATOM    106  O   UNL A   1      40.972  32.249  40.533  1.00  0.00    -0.744 OA
ENDBRANCH  99 103
ENDBRANCH  73  96
ENDBRANCH  47  48
ENDBRANCH  40  42
ENDBRANCH  39  40
ENDBRANCH  38  39
ENDBRANCH  37  38
ENDBRANCH  36  37
ENDBRANCH  35  36
ENDBRANCH   1  35
TORSDOF 27
ENDMDL
