MODEL 1
REMARK VINA RESULT:      -9.5      0.000      0.000
REMARK SMILES CC[C@@H](C)N1C(=O)c2ccc(C(=O)OCCOCCOCCOCCOC(=O)c3ccc(-c4c5nc(c(-c6cc(S(=O)(=O)[O-])ccc6F)c6ccc([nH]6)c(-c6cc(S(=O)(=O)[O-])ccc6F)c6nc(c(-c7cc(S(=O)(=O)[O-])ccc7F)c7ccc4[nH]7)C=C6)C=C5)cc3)cc2S1(=O)=O
REMARK SMILES IDX 21 1 20 2 19 3 18 4 17 5 16 6 15 7 14 8 12 9 13 10 11 11
REMARK SMILES IDX 5 12 6 13 94 14 7 15 8 16 93 17 95 18 96 19 9 20 92 21 10 22
REMARK SMILES IDX 3 23 4 24 2 25 1 26 22 27 23 28 24 29 25 30 26 31 27 32
REMARK SMILES IDX 28 33 29 34 30 35 91 36 31 37 90 38 32 39 33 40 34 41 84 42
REMARK SMILES IDX 35 43 89 44 83 45 85 46 36 47 88 48 82 49 81 50 37 52 69 53
REMARK SMILES IDX 49 54 68 55 50 56 53 57 67 58 86 59 51 60 52 61 66 63 87 64
REMARK SMILES IDX 54 65 38 66 39 67 47 68 40 69 46 70 48 71 45 72 41 73 42 74
REMARK SMILES IDX 43 75 44 76 70 77 71 78 79 79 72 80 78 81 80 82 77 83 73 84
REMARK SMILES IDX 74 85 75 86 76 87 55 88 56 89 64 90 57 91 63 92 65 93 62 94
REMARK SMILES IDX 58 95 59 96 60 97 61 98
REMARK H PARENT 85 51 53 62
REMARK Flexibility Score: inf
ROOT
ATOM      1  C   UNL A   1      34.345  36.670  32.669  1.00  0.00     0.188 C 
ENDROOT
BRANCH   1   2
ATOM      2  O   UNL A   1      33.406  36.746  31.597  1.00  0.00    -0.377 OA
BRANCH   2   3
ATOM      3  C   UNL A   1      33.060  35.548  30.929  1.00  0.00     0.188 C 
BRANCH   3   4
ATOM      4  C   UNL A   1      32.981  35.687  29.397  1.00  0.00     0.188 C 
BRANCH   4   5
ATOM      5  O   UNL A   1      32.964  34.494  28.642  1.00  0.00    -0.376 OA
BRANCH   5   6
ATOM      6  C   UNL A   1      33.841  33.406  28.876  1.00  0.00     0.202 C 
BRANCH   6   7
ATOM      7  C   UNL A   1      34.379  32.393  27.843  1.00  0.00     0.261 C 
BRANCH   7   8
ATOM      8  O   UNL A   1      33.602  31.236  27.558  1.00  0.00    -0.460 OA
BRANCH   8   9
ATOM      9  C   UNL A   1      34.280  30.097  27.331  1.00  0.00     0.338 C 
ATOM     10  O   UNL A   1      35.300  29.717  27.876  1.00  0.00    -0.246 OA
BRANCH   9  11
ATOM     11  C   UNL A   1      33.445  29.245  26.455  1.00  0.00     0.061 A 
ATOM     12  N   UNL A   1      31.777  25.238  24.514  1.00  0.00    -0.229 N 
ATOM     13  C   UNL A   1      31.320  26.506  24.034  1.00  0.00     0.269 C 
ATOM     14  S   UNL A   1      32.419  25.371  26.077  1.00  0.00     0.267 S 
ATOM     15  O   UNL A   1      30.613  26.706  23.071  1.00  0.00    -0.268 OA
ATOM     16  C   UNL A   1      31.904  27.580  24.862  1.00  0.00     0.061 A 
ATOM     17  C   UNL A   1      32.584  27.092  25.966  1.00  0.00     0.101 A 
ATOM     18  O   UNL A   1      31.380  25.077  27.037  1.00  0.00    -0.201 OA
ATOM     19  O   UNL A   1      33.743  24.806  26.131  1.00  0.00    -0.201 OA
ATOM     20  C   UNL A   1      31.917  28.937  24.572  1.00  0.00     0.016 A 
ATOM     21  C   UNL A   1      33.384  27.882  26.764  1.00  0.00     0.038 A 
ATOM     22  C   UNL A   1      32.686  29.779  25.388  1.00  0.00     0.016 A 
BRANCH  12  23
ATOM     23  C   UNL A   1      31.417  23.902  23.951  1.00  0.00     0.100 C 
ATOM     24  C   UNL A   1      30.954  22.918  25.034  1.00  0.00     0.032 C 
BRANCH  23  25
ATOM     25  C   UNL A   1      32.635  23.323  23.193  1.00  0.00     0.023 C 
ATOM     26  C   UNL A   1      32.380  21.999  22.484  1.00  0.00     0.006 C 
ENDBRANCH  23  25
ENDBRANCH  12  23
ENDBRANCH   9  11
ENDBRANCH   8   9
ENDBRANCH   7   8
ENDBRANCH   6   7
ENDBRANCH   5   6
ENDBRANCH   4   5
ENDBRANCH   3   4
ENDBRANCH   2   3
ENDBRANCH   1   2
BRANCH   1  27
ATOM     27  C   UNL A   1      34.577  35.354  33.452  1.00  0.00     0.188 C 
BRANCH  27  28
ATOM     28  O   UNL A   1      35.878  34.800  33.309  1.00  0.00    -0.376 OA
BRANCH  28  29
ATOM     29  C   UNL A   1      36.078  33.777  32.349  1.00  0.00     0.202 C 
BRANCH  29  30
ATOM     30  C   UNL A   1      35.580  32.375  32.731  1.00  0.00     0.261 C 
BRANCH  30  31
ATOM     31  O   UNL A   1      36.590  31.448  33.150  1.00  0.00    -0.460 OA
BRANCH  31  32
ATOM     32  C   UNL A   1      36.778  30.370  32.354  1.00  0.00     0.338 C 
ATOM     33  O   UNL A   1      36.099  30.051  31.396  1.00  0.00    -0.246 OA
BRANCH  32  34
ATOM     34  C   UNL A   1      38.067  29.747  32.714  1.00  0.00     0.060 A 
ATOM     35  C   UNL A   1      39.095  30.570  33.190  1.00  0.00     0.016 A 
ATOM     36  C   UNL A   1      38.272  28.373  32.560  1.00  0.00     0.016 A 
ATOM     37  C   UNL A   1      40.354  30.032  33.446  1.00  0.00     0.010 A 
ATOM     38  C   UNL A   1      39.541  27.838  32.803  1.00  0.00     0.010 A 
ATOM     39  C   UNL A   1      40.600  28.676  33.194  1.00  0.00    -0.014 A 
BRANCH  39  40
ATOM     40  C   UNL A   1      42.008  28.212  33.107  1.00  0.00     0.031 A 
ATOM     41  C   UNL A   1      42.749  27.950  34.394  1.00  0.00     0.074 A 
ATOM     42  C   UNL A   1      42.587  27.945  31.924  1.00  0.00     0.049 A 
ATOM     43  N   UNL A   1      43.967  27.514  34.580  1.00  0.00    -0.248 NA
ATOM     44  C   UNL A   1      42.011  28.222  35.638  1.00  0.00     0.031 C 
ATOM     45  C   UNL A   1      41.952  28.109  30.617  1.00  0.00     0.029 A 
ATOM     46  N   UNL A   1      43.840  27.470  31.631  1.00  0.00    -0.354 N 
ATOM     47  C   UNL A   1      44.142  27.459  35.960  1.00  0.00     0.074 A 
ATOM     48  C   UNL A   1      42.922  27.956  36.558  1.00  0.00     0.031 C 
ATOM     49  C   UNL A   1      42.820  27.734  29.661  1.00  0.00     0.029 A 
ATOM     50  C   UNL A   1      44.083  27.339  30.284  1.00  0.00     0.049 A 
ATOM     51  H   UNL A   1      44.505  27.243  32.321  1.00  0.00     0.167 HD
ATOM     52  C   UNL A   1      45.214  27.020  36.665  1.00  0.00     0.034 A 
ATOM     53  C   UNL A   1      45.200  26.958  29.631  1.00  0.00     0.034 A 
ATOM     54  C   UNL A   1      46.428  26.537  36.053  1.00  0.00     0.049 A 
ATOM     55  C   UNL A   1      46.415  26.556  30.437  1.00  0.00     0.074 A 
ATOM     56  C   UNL A   1      47.575  26.067  36.667  1.00  0.00     0.029 A 
ATOM     57  N   UNL A   1      46.660  26.477  34.684  1.00  0.00    -0.354 N 
ATOM     58  N   UNL A   1      46.565  26.501  31.742  1.00  0.00    -0.248 NA
ATOM     59  C   UNL A   1      47.602  26.148  29.678  1.00  0.00     0.031 C 
ATOM     60  C   UNL A   1      48.528  25.803  35.677  1.00  0.00     0.029 A 
ATOM     61  C   UNL A   1      47.944  26.012  34.437  1.00  0.00     0.049 A 
ATOM     62  H   UNL A   1      46.009  26.729  33.989  1.00  0.00     0.167 HD
ATOM     63  C   UNL A   1      47.855  26.016  31.956  1.00  0.00     0.074 A 
ATOM     64  C   UNL A   1      48.424  25.774  30.646  1.00  0.00     0.031 C 
ATOM     65  C   UNL A   1      48.508  25.789  33.126  1.00  0.00     0.034 A 
BRANCH  52  66
ATOM     66  C   UNL A   1      45.134  27.099  38.172  1.00  0.00     0.023 A 
ATOM     67  C   UNL A   1      45.529  28.250  38.879  1.00  0.00     0.031 A 
ATOM     68  C   UNL A   1      44.694  25.992  38.916  1.00  0.00     0.131 A 
ATOM     69  C   UNL A   1      45.545  28.238  40.282  1.00  0.00     0.055 A 
ATOM     70  C   UNL A   1      44.627  26.017  40.311  1.00  0.00     0.041 A 
ATOM     71  F   UNL A   1      44.332  24.854  38.300  1.00  0.00    -0.206 F 
ATOM     72  C   UNL A   1      45.069  27.140  41.003  1.00  0.00     0.022 A 
BRANCH  69  73
ATOM     73  S   UNL A   1      46.346  29.615  41.153  1.00  0.00     0.124 S 
ATOM     74  O   UNL A   1      46.379  29.115  42.525  1.00  0.00    -0.237 OA
ATOM     75  O   UNL A   1      47.633  29.710  40.476  1.00  0.00    -0.237 OA
ATOM     76  O   UNL A   1      45.437  30.736  40.929  1.00  0.00    -0.744 OA
ENDBRANCH  69  73
ENDBRANCH  52  66
BRANCH  53  77
ATOM     77  C   UNL A   1      45.250  26.967  28.139  1.00  0.00     0.023 A 
ATOM     78  C   UNL A   1      45.156  25.778  27.397  1.00  0.00     0.031 A 
ATOM     79  C   UNL A   1      45.466  28.165  27.434  1.00  0.00     0.131 A 
ATOM     80  C   UNL A   1      45.331  25.807  26.004  1.00  0.00     0.055 A 
ATOM     81  C   UNL A   1      45.577  28.196  26.043  1.00  0.00     0.041 A 
ATOM     82  F   UNL A   1      45.571  29.331  28.092  1.00  0.00    -0.206 F 
ATOM     83  C   UNL A   1      45.525  27.009  25.320  1.00  0.00     0.022 A 
BRANCH  80  84
ATOM     84  S   UNL A   1      45.405  24.233  25.103  1.00  0.00     0.124 S 
ATOM     85  O   UNL A   1      45.463  23.270  26.196  1.00  0.00    -0.237 OA
ATOM     86  O   UNL A   1      44.161  24.264  24.339  1.00  0.00    -0.237 OA
ATOM     87  O   UNL A   1      46.624  24.353  24.308  1.00  0.00    -0.744 OA
ENDBRANCH  80  84
ENDBRANCH  53  77
BRANCH  65  88
ATOM     88  C   UNL A   1      49.900  25.200  33.032  1.00  0.00     0.023 A 
ATOM     89  C   UNL A   1      50.117  23.812  32.975  1.00  0.00     0.031 A 
ATOM     90  C   UNL A   1      51.029  26.041  33.045  1.00  0.00     0.131 A 
ATOM     91  C   UNL A   1      51.424  23.305  33.030  1.00  0.00     0.055 A 
ATOM     92  C   UNL A   1      52.328  25.532  33.011  1.00  0.00     0.041 A 
ATOM     93  F   UNL A   1      50.888  27.375  33.101  1.00  0.00    -0.206 F 
ATOM     94  C   UNL A   1      52.532  24.155  33.026  1.00  0.00     0.022 A 
BRANCH  91  95
ATOM     95  S   UNL A   1      51.652  21.520  33.263  1.00  0.00     0.124 S 
ATOM     96  O   UNL A   1      52.226  21.462  34.604  1.00  0.00    -0.237 OA
ATOM     97  O   UNL A   1      50.291  21.011  33.129  1.00  0.00    -0.237 OA
ATOM     98  O   UNL A   1      52.564  21.147  32.182  1.00  0.00    -0.744 OA
ENDBRANCH  91  95
ENDBRANCH  65  88
ENDBRANCH  39  40
ENDBRANCH  32  34
ENDBRANCH  31  32
ENDBRANCH  30  31
ENDBRANCH  29  30
ENDBRANCH  28  29
ENDBRANCH  27  28
ENDBRANCH   1  27
TORSDOF 25
ENDMDL
MODEL 2
REMARK VINA RESULT:      -9.1      6.606     12.203
REMARK SMILES CC[C@@H](C)N1C(=O)c2ccc(C(=O)OCCOCCOCCOCCOC(=O)c3ccc(-c4c5nc(c(-c6cc(S(=O)(=O)[O-])ccc6F)c6ccc([nH]6)c(-c6cc(S(=O)(=O)[O-])ccc6F)c6nc(c(-c7cc(S(=O)(=O)[O-])ccc7F)c7ccc4[nH]7)C=C6)C=C5)cc3)cc2S1(=O)=O
REMARK SMILES IDX 21 1 20 2 19 3 18 4 17 5 16 6 15 7 14 8 12 9 13 10 11 11
REMARK SMILES IDX 5 12 6 13 94 14 7 15 8 16 93 17 95 18 96 19 9 20 92 21 10 22
REMARK SMILES IDX 3 23 4 24 2 25 1 26 22 27 23 28 24 29 25 30 26 31 27 32
REMARK SMILES IDX 28 33 29 34 30 35 91 36 31 37 90 38 32 39 33 40 34 41 84 42
REMARK SMILES IDX 35 43 89 44 83 45 85 46 36 47 88 48 82 49 81 50 37 52 69 53
REMARK SMILES IDX 49 54 68 55 50 56 53 57 67 58 86 59 51 60 52 61 66 63 87 64
REMARK SMILES IDX 54 65 38 66 39 67 47 68 40 69 46 70 48 71 45 72 41 73 42 74
REMARK SMILES IDX 43 75 44 76 70 77 71 78 79 79 72 80 78 81 80 82 77 83 73 84
REMARK SMILES IDX 74 85 75 86 76 87 55 88 56 89 64 90 57 91 63 92 65 93 62 94
REMARK SMILES IDX 58 95 59 96 60 97 61 98
REMARK H PARENT 85 51 53 62
REMARK Flexibility Score: inf
ROOT
ATOM      1  C   UNL A   1      37.034  21.218  24.705  1.00  0.00     0.188 C 
ENDROOT
BRANCH   1   2
ATOM      2  O   UNL A   1      35.966  20.327  25.026  1.00  0.00    -0.377 OA
BRANCH   2   3
ATOM      3  C   UNL A   1      36.063  18.986  24.587  1.00  0.00     0.188 C 
BRANCH   3   4
ATOM      4  C   UNL A   1      34.776  18.166  24.794  1.00  0.00     0.188 C 
BRANCH   4   5
ATOM      5  O   UNL A   1      33.631  18.571  24.073  1.00  0.00    -0.376 OA
BRANCH   5   6
ATOM      6  C   UNL A   1      32.600  19.372  24.626  1.00  0.00     0.202 C 
BRANCH   6   7
ATOM      7  C   UNL A   1      32.589  20.905  24.795  1.00  0.00     0.261 C 
BRANCH   7   8
ATOM      8  O   UNL A   1      32.208  21.446  26.055  1.00  0.00    -0.460 OA
BRANCH   8   9
ATOM      9  C   UNL A   1      33.185  22.013  26.786  1.00  0.00     0.338 C 
ATOM     10  O   UNL A   1      33.933  21.470  27.578  1.00  0.00    -0.246 OA
BRANCH   9  11
ATOM     11  C   UNL A   1      33.368  23.397  26.292  1.00  0.00     0.061 A 
ATOM     12  N   UNL A   1      32.119  27.760  24.877  1.00  0.00    -0.229 N 
ATOM     13  C   UNL A   1      33.488  27.351  24.802  1.00  0.00     0.269 C 
ATOM     14  S   UNL A   1      31.258  26.810  25.985  1.00  0.00     0.267 S 
ATOM     15  O   UNL A   1      34.402  27.962  24.292  1.00  0.00    -0.268 OA
ATOM     16  C   UNL A   1      33.628  26.005  25.391  1.00  0.00     0.061 A 
ATOM     17  C   UNL A   1      32.466  25.569  26.006  1.00  0.00     0.101 A 
ATOM     18  O   UNL A   1      31.263  27.469  27.271  1.00  0.00    -0.201 OA
ATOM     19  O   UNL A   1      30.076  26.262  25.371  1.00  0.00    -0.201 OA
ATOM     20  C   UNL A   1      34.724  25.161  25.282  1.00  0.00     0.016 A 
ATOM     21  C   UNL A   1      32.287  24.272  26.439  1.00  0.00     0.038 A 
ATOM     22  C   UNL A   1      34.595  23.845  25.751  1.00  0.00     0.016 A 
BRANCH  12  23
ATOM     23  C   UNL A   1      31.561  29.057  24.391  1.00  0.00     0.100 C 
ATOM     24  C   UNL A   1      31.407  30.086  25.520  1.00  0.00     0.032 C 
BRANCH  23  25
ATOM     25  C   UNL A   1      30.192  28.802  23.716  1.00  0.00     0.023 C 
ATOM     26  C   UNL A   1      30.257  28.038  22.400  1.00  0.00     0.006 C 
ENDBRANCH  23  25
ENDBRANCH  12  23
ENDBRANCH   9  11
ENDBRANCH   8   9
ENDBRANCH   7   8
ENDBRANCH   6   7
ENDBRANCH   5   6
ENDBRANCH   4   5
ENDBRANCH   3   4
ENDBRANCH   2   3
ENDBRANCH   1   2
BRANCH   1  27
ATOM     27  C   UNL A   1      38.224  21.439  25.670  1.00  0.00     0.188 C 
BRANCH  27  28
ATOM     28  O   UNL A   1      38.410  22.787  26.084  1.00  0.00    -0.376 OA
BRANCH  28  29
ATOM     29  C   UNL A   1      39.552  23.108  26.859  1.00  0.00     0.202 C 
BRANCH  29  30
ATOM     30  C   UNL A   1      39.724  24.587  27.240  1.00  0.00     0.261 C 
BRANCH  30  31
ATOM     31  O   UNL A   1      41.074  25.071  27.260  1.00  0.00    -0.460 OA
BRANCH  31  32
ATOM     32  C   UNL A   1      41.461  25.802  26.190  1.00  0.00     0.338 C 
ATOM     33  O   UNL A   1      41.268  25.532  25.020  1.00  0.00    -0.246 OA
BRANCH  32  34
ATOM     34  C   UNL A   1      41.987  27.093  26.678  1.00  0.00     0.060 A 
ATOM     35  C   UNL A   1      42.966  27.078  27.679  1.00  0.00     0.016 A 
ATOM     36  C   UNL A   1      41.503  28.305  26.177  1.00  0.00     0.016 A 
ATOM     37  C   UNL A   1      43.413  28.276  28.232  1.00  0.00     0.010 A 
ATOM     38  C   UNL A   1      41.942  29.505  26.744  1.00  0.00     0.010 A 
ATOM     39  C   UNL A   1      42.858  29.491  27.810  1.00  0.00    -0.014 A 
BRANCH  39  40
ATOM     40  C   UNL A   1      43.060  30.696  28.655  1.00  0.00     0.031 A 
ATOM     41  C   UNL A   1      44.167  31.648  28.281  1.00  0.00     0.074 A 
ATOM     42  C   UNL A   1      42.230  30.987  29.672  1.00  0.00     0.049 A 
ATOM     43  N   UNL A   1      44.522  32.776  28.838  1.00  0.00    -0.248 NA
ATOM     44  C   UNL A   1      44.987  31.268  27.118  1.00  0.00     0.031 C 
ATOM     45  C   UNL A   1      41.092  30.170  30.094  1.00  0.00     0.029 A 
ATOM     46  N   UNL A   1      42.211  32.057  30.531  1.00  0.00    -0.354 N 
ATOM     47  C   UNL A   1      45.603  33.241  28.096  1.00  0.00     0.074 A 
ATOM     48  C   UNL A   1      45.877  32.245  27.083  1.00  0.00     0.031 C 
ATOM     49  C   UNL A   1      40.484  30.775  31.130  1.00  0.00     0.029 A 
ATOM     50  C   UNL A   1      41.207  32.000  31.468  1.00  0.00     0.049 A 
ATOM     51  H   UNL A   1      42.858  32.799  30.480  1.00  0.00     0.167 HD
ATOM     52  C   UNL A   1      46.296  34.398  28.235  1.00  0.00     0.034 A 
ATOM     53  C   UNL A   1      40.917  32.832  32.489  1.00  0.00     0.034 A 
ATOM     54  C   UNL A   1      46.017  35.377  29.259  1.00  0.00     0.049 A 
ATOM     55  C   UNL A   1      41.759  34.074  32.679  1.00  0.00     0.074 A 
ATOM     56  C   UNL A   1      46.652  36.584  29.492  1.00  0.00     0.029 A 
ATOM     57  N   UNL A   1      45.031  35.254  30.229  1.00  0.00    -0.354 N 
ATOM     58  N   UNL A   1      42.775  34.506  31.966  1.00  0.00    -0.248 NA
ATOM     59  C   UNL A   1      41.399  34.946  33.803  1.00  0.00     0.031 C 
ATOM     60  C   UNL A   1      46.107  37.149  30.651  1.00  0.00     0.029 A 
ATOM     61  C   UNL A   1      45.064  36.346  31.085  1.00  0.00     0.049 A 
ATOM     62  H   UNL A   1      44.400  34.502  30.301  1.00  0.00     0.167 HD
ATOM     63  C   UNL A   1      43.150  35.722  32.537  1.00  0.00     0.074 A 
ATOM     64  C   UNL A   1      42.234  35.959  33.634  1.00  0.00     0.031 C 
ATOM     65  C   UNL A   1      44.155  36.566  32.187  1.00  0.00     0.034 A 
BRANCH  52  66
ATOM     66  C   UNL A   1      47.454  34.633  27.292  1.00  0.00     0.023 A 
ATOM     67  C   UNL A   1      48.770  34.266  27.624  1.00  0.00     0.031 A 
ATOM     68  C   UNL A   1      47.243  35.271  26.058  1.00  0.00     0.131 A 
ATOM     69  C   UNL A   1      49.829  34.605  26.768  1.00  0.00     0.055 A 
ATOM     70  C   UNL A   1      48.289  35.525  25.169  1.00  0.00     0.041 A 
ATOM     71  F   UNL A   1      46.013  35.672  25.697  1.00  0.00    -0.206 F 
ATOM     72  C   UNL A   1      49.595  35.206  25.529  1.00  0.00     0.022 A 
BRANCH  69  73
ATOM     73  S   UNL A   1      51.530  34.396  27.365  1.00  0.00     0.124 S 
ATOM     74  O   UNL A   1      51.490  33.035  27.895  1.00  0.00    -0.237 OA
ATOM     75  O   UNL A   1      52.316  34.586  26.151  1.00  0.00    -0.237 OA
ATOM     76  O   UNL A   1      51.672  35.444  28.373  1.00  0.00    -0.744 OA
ENDBRANCH  69  73
ENDBRANCH  52  66
BRANCH  53  77
ATOM     77  C   UNL A   1      39.807  32.516  33.436  1.00  0.00     0.023 A 
ATOM     78  C   UNL A   1      38.521  33.051  33.260  1.00  0.00     0.031 A 
ATOM     79  C   UNL A   1      40.039  31.727  34.578  1.00  0.00     0.131 A 
ATOM     80  C   UNL A   1      37.533  32.836  34.236  1.00  0.00     0.055 A 
ATOM     81  C   UNL A   1      39.037  31.465  35.513  1.00  0.00     0.041 A 
ATOM     82  F   UNL A   1      41.252  31.196  34.801  1.00  0.00    -0.206 F 
ATOM     83  C   UNL A   1      37.778  32.033  35.351  1.00  0.00     0.022 A 
BRANCH  80  84
ATOM     84  S   UNL A   1      35.949  33.706  34.077  1.00  0.00     0.124 S 
ATOM     85  O   UNL A   1      35.537  33.827  35.471  1.00  0.00    -0.237 OA
ATOM     86  O   UNL A   1      36.349  34.944  33.416  1.00  0.00    -0.237 OA
ATOM     87  O   UNL A   1      35.143  32.800  33.262  1.00  0.00    -0.744 OA
ENDBRANCH  80  84
ENDBRANCH  53  77
BRANCH  65  88
ATOM     88  C   UNL A   1      44.278  37.853  32.975  1.00  0.00     0.023 A 
ATOM     89  C   UNL A   1      43.548  39.005  32.635  1.00  0.00     0.031 A 
ATOM     90  C   UNL A   1      45.175  37.940  34.056  1.00  0.00     0.131 A 
ATOM     91  C   UNL A   1      43.795  40.213  33.303  1.00  0.00     0.055 A 
ATOM     92  C   UNL A   1      45.353  39.123  34.774  1.00  0.00     0.041 A 
ATOM     93  F   UNL A   1      45.904  36.875  34.429  1.00  0.00    -0.206 F 
ATOM     94  C   UNL A   1      44.677  40.276  34.385  1.00  0.00     0.022 A 
BRANCH  91  95
ATOM     95  S   UNL A   1      43.064  41.736  32.641  1.00  0.00     0.124 S 
ATOM     96  O   UNL A   1      44.150  42.257  31.815  1.00  0.00    -0.237 OA
ATOM     97  O   UNL A   1      41.899  41.234  31.920  1.00  0.00    -0.237 OA
ATOM     98  O   UNL A   1      42.764  42.522  33.837  1.00  0.00    -0.744 OA
ENDBRANCH  91  95
ENDBRANCH  65  88
ENDBRANCH  39  40
ENDBRANCH  32  34
ENDBRANCH  31  32
ENDBRANCH  30  31
ENDBRANCH  29  30
ENDBRANCH  28  29
ENDBRANCH  27  28
ENDBRANCH   1  27
TORSDOF 25
ENDMDL
MODEL 3
REMARK VINA RESULT:      -8.9      7.611     12.421
REMARK SMILES CC[C@@H](C)N1C(=O)c2ccc(C(=O)OCCOCCOCCOCCOC(=O)c3ccc(-c4c5nc(c(-c6cc(S(=O)(=O)[O-])ccc6F)c6ccc([nH]6)c(-c6cc(S(=O)(=O)[O-])ccc6F)c6nc(c(-c7cc(S(=O)(=O)[O-])ccc7F)c7ccc4[nH]7)C=C6)C=C5)cc3)cc2S1(=O)=O
REMARK SMILES IDX 21 1 20 2 19 3 18 4 17 5 16 6 15 7 14 8 12 9 13 10 11 11
REMARK SMILES IDX 5 12 6 13 94 14 7 15 8 16 93 17 95 18 96 19 9 20 92 21 10 22
REMARK SMILES IDX 3 23 4 24 2 25 1 26 22 27 23 28 24 29 25 30 26 31 27 32
REMARK SMILES IDX 28 33 29 34 30 35 91 36 31 37 90 38 32 39 33 40 34 41 84 42
REMARK SMILES IDX 35 43 89 44 83 45 85 46 36 47 88 48 82 49 81 50 37 52 69 53
REMARK SMILES IDX 49 54 68 55 50 56 53 57 67 58 86 59 51 60 52 61 66 63 87 64
REMARK SMILES IDX 54 65 38 66 39 67 47 68 40 69 46 70 48 71 45 72 41 73 42 74
REMARK SMILES IDX 43 75 44 76 70 77 71 78 79 79 72 80 78 81 80 82 77 83 73 84
REMARK SMILES IDX 74 85 75 86 76 87 55 88 56 89 64 90 57 91 63 92 65 93 62 94
REMARK SMILES IDX 58 95 59 96 60 97 61 98
REMARK H PARENT 85 51 53 62
REMARK Flexibility Score: inf
ROOT
ATOM      1  C   UNL A   1      43.873  17.979  26.112  1.00  0.00     0.188 C 
ENDROOT
BRANCH   1   2
ATOM      2  O   UNL A   1      42.614  18.261  26.723  1.00  0.00    -0.377 OA
BRANCH   2   3
ATOM      3  C   UNL A   1      41.764  19.202  26.094  1.00  0.00     0.188 C 
BRANCH   3   4
ATOM      4  C   UNL A   1      41.001  20.110  27.077  1.00  0.00     0.188 C 
BRANCH   4   5
ATOM      5  O   UNL A   1      41.773  20.948  27.911  1.00  0.00    -0.376 OA
BRANCH   5   6
ATOM      6  C   UNL A   1      41.351  22.231  28.339  1.00  0.00     0.202 C 
BRANCH   6   7
ATOM      7  C   UNL A   1      40.788  23.374  27.469  1.00  0.00     0.261 C 
BRANCH   7   8
ATOM      8  O   UNL A   1      39.691  23.094  26.607  1.00  0.00    -0.460 OA
BRANCH   8   9
ATOM      9  C   UNL A   1      38.714  24.017  26.559  1.00  0.00     0.338 C 
ATOM     10  O   UNL A   1      38.810  25.215  26.754  1.00  0.00    -0.246 OA
BRANCH   9  11
ATOM     11  C   UNL A   1      37.511  23.367  25.990  1.00  0.00     0.061 A 
ATOM     12  N   UNL A   1      32.960  22.908  24.693  1.00  0.00    -0.229 N 
ATOM     13  C   UNL A   1      33.857  21.802  24.553  1.00  0.00     0.269 C 
ATOM     14  S   UNL A   1      33.808  24.373  24.777  1.00  0.00     0.267 S 
ATOM     15  O   UNL A   1      33.567  20.668  24.237  1.00  0.00    -0.268 OA
ATOM     16  C   UNL A   1      35.220  22.228  24.925  1.00  0.00     0.061 A 
ATOM     17  C   UNL A   1      35.312  23.593  25.138  1.00  0.00     0.101 A 
ATOM     18  O   UNL A   1      33.899  24.939  23.450  1.00  0.00    -0.201 OA
ATOM     19  O   UNL A   1      33.411  25.122  25.942  1.00  0.00    -0.201 OA
ATOM     20  C   UNL A   1      36.310  21.404  25.168  1.00  0.00     0.016 A 
ATOM     21  C   UNL A   1      36.422  24.193  25.695  1.00  0.00     0.038 A 
ATOM     22  C   UNL A   1      37.473  21.985  25.695  1.00  0.00     0.016 A 
BRANCH  12  23
ATOM     23  C   UNL A   1      31.493  22.893  24.416  1.00  0.00     0.100 C 
ATOM     24  C   UNL A   1      31.154  23.477  23.037  1.00  0.00     0.032 C 
BRANCH  23  25
ATOM     25  C   UNL A   1      30.756  23.683  25.522  1.00  0.00     0.023 C 
ATOM     26  C   UNL A   1      30.726  23.004  26.885  1.00  0.00     0.006 C 
ENDBRANCH  23  25
ENDBRANCH  12  23
ENDBRANCH   9  11
ENDBRANCH   8   9
ENDBRANCH   7   8
ENDBRANCH   6   7
ENDBRANCH   5   6
ENDBRANCH   4   5
ENDBRANCH   3   4
ENDBRANCH   2   3
ENDBRANCH   1   2
BRANCH   1  27
ATOM     27  C   UNL A   1      44.517  18.954  25.096  1.00  0.00     0.188 C 
BRANCH  27  28
ATOM     28  O   UNL A   1      45.872  19.286  25.371  1.00  0.00    -0.376 OA
BRANCH  28  29
ATOM     29  C   UNL A   1      46.582  20.078  24.434  1.00  0.00     0.202 C 
BRANCH  29  30
ATOM     30  C   UNL A   1      46.379  21.597  24.531  1.00  0.00     0.261 C 
BRANCH  30  31
ATOM     31  O   UNL A   1      46.144  22.110  25.849  1.00  0.00    -0.460 OA
BRANCH  31  32
ATOM     32  C   UNL A   1      45.000  22.813  26.020  1.00  0.00     0.338 C 
ATOM     33  O   UNL A   1      43.882  22.354  26.160  1.00  0.00    -0.246 OA
BRANCH  32  34
ATOM     34  C   UNL A   1      45.354  24.234  26.211  1.00  0.00     0.060 A 
ATOM     35  C   UNL A   1      45.185  25.113  25.134  1.00  0.00     0.016 A 
ATOM     36  C   UNL A   1      45.873  24.692  27.425  1.00  0.00     0.016 A 
ATOM     37  C   UNL A   1      45.600  26.437  25.246  1.00  0.00     0.010 A 
ATOM     38  C   UNL A   1      46.302  26.018  27.530  1.00  0.00     0.010 A 
ATOM     39  C   UNL A   1      46.217  26.880  26.423  1.00  0.00    -0.014 A 
BRANCH  39  40
ATOM     40  C   UNL A   1      46.981  28.153  26.390  1.00  0.00     0.031 A 
ATOM     41  C   UNL A   1      48.470  28.081  26.165  1.00  0.00     0.074 A 
ATOM     42  C   UNL A   1      46.364  29.345  26.470  1.00  0.00     0.049 A 
ATOM     43  N   UNL A   1      49.346  29.046  26.067  1.00  0.00    -0.248 NA
ATOM     44  C   UNL A   1      49.045  26.732  26.037  1.00  0.00     0.031 C 
ATOM     45  C   UNL A   1      44.923  29.540  26.634  1.00  0.00     0.029 A 
ATOM     46  N   UNL A   1      46.871  30.618  26.412  1.00  0.00    -0.354 N 
ATOM     47  C   UNL A   1      50.574  28.423  25.865  1.00  0.00     0.074 A 
ATOM     48  C   UNL A   1      50.334  26.997  25.909  1.00  0.00     0.031 C 
ATOM     49  C   UNL A   1      44.664  30.859  26.659  1.00  0.00     0.029 A 
ATOM     50  C   UNL A   1      45.919  31.601  26.549  1.00  0.00     0.049 A 
ATOM     51  H   UNL A   1      47.828  30.811  26.285  1.00  0.00     0.167 HD
ATOM     52  C   UNL A   1      51.788  28.987  25.648  1.00  0.00     0.034 A 
ATOM     53  C   UNL A   1      46.051  32.943  26.595  1.00  0.00     0.034 A 
ATOM     54  C   UNL A   1      52.014  30.411  25.619  1.00  0.00     0.049 A 
ATOM     55  C   UNL A   1      47.428  33.547  26.439  1.00  0.00     0.074 A 
ATOM     56  C   UNL A   1      53.199  31.092  25.406  1.00  0.00     0.029 A 
ATOM     57  N   UNL A   1      51.035  31.376  25.824  1.00  0.00    -0.354 N 
ATOM     58  N   UNL A   1      48.580  32.947  26.241  1.00  0.00    -0.248 NA
ATOM     59  C   UNL A   1      47.514  35.011  26.494  1.00  0.00     0.031 C 
ATOM     60  C   UNL A   1      52.954  32.461  25.566  1.00  0.00     0.029 A 
ATOM     61  C   UNL A   1      51.596  32.644  25.778  1.00  0.00     0.049 A 
ATOM     62  H   UNL A   1      50.081  31.188  25.979  1.00  0.00     0.167 HD
ATOM     63  C   UNL A   1      49.523  33.967  26.112  1.00  0.00     0.074 A 
ATOM     64  C   UNL A   1      48.795  35.214  26.230  1.00  0.00     0.031 C 
ATOM     65  C   UNL A   1      50.864  33.882  25.912  1.00  0.00     0.034 A 
BRANCH  52  66
ATOM     66  C   UNL A   1      52.967  28.055  25.485  1.00  0.00     0.023 A 
ATOM     67  C   UNL A   1      53.745  27.639  26.581  1.00  0.00     0.031 A 
ATOM     68  C   UNL A   1      53.343  27.607  24.207  1.00  0.00     0.131 A 
ATOM     69  C   UNL A   1      54.897  26.866  26.369  1.00  0.00     0.055 A 
ATOM     70  C   UNL A   1      54.439  26.763  24.012  1.00  0.00     0.041 A 
ATOM     71  F   UNL A   1      52.658  27.993  23.118  1.00  0.00    -0.206 F 
ATOM     72  C   UNL A   1      55.233  26.401  25.095  1.00  0.00     0.022 A 
BRANCH  69  73
ATOM     73  S   UNL A   1      56.039  26.609  27.756  1.00  0.00     0.124 S 
ATOM     74  O   UNL A   1      56.754  27.883  27.787  1.00  0.00    -0.237 OA
ATOM     75  O   UNL A   1      55.130  26.359  28.869  1.00  0.00    -0.237 OA
ATOM     76  O   UNL A   1      56.840  25.463  27.334  1.00  0.00    -0.744 OA
ENDBRANCH  69  73
ENDBRANCH  52  66
BRANCH  53  77
ATOM     77  C   UNL A   1      44.862  33.816  26.831  1.00  0.00     0.023 A 
ATOM     78  C   UNL A   1      44.339  34.006  28.120  1.00  0.00     0.031 A 
ATOM     79  C   UNL A   1      44.187  34.416  25.753  1.00  0.00     0.131 A 
ATOM     80  C   UNL A   1      43.148  34.731  28.292  1.00  0.00     0.055 A 
ATOM     81  C   UNL A   1      43.038  35.188  25.936  1.00  0.00     0.041 A 
ATOM     82  F   UNL A   1      44.638  34.261  24.498  1.00  0.00    -0.206 F 
ATOM     83  C   UNL A   1      42.504  35.337  27.212  1.00  0.00     0.022 A 
BRANCH  80  84
ATOM     84  S   UNL A   1      42.394  34.787  29.942  1.00  0.00     0.124 S 
ATOM     85  O   UNL A   1      42.719  33.464  30.461  1.00  0.00    -0.237 OA
ATOM     86  O   UNL A   1      43.097  35.909  30.558  1.00  0.00    -0.237 OA
ATOM     87  O   UNL A   1      40.979  35.020  29.661  1.00  0.00    -0.744 OA
ENDBRANCH  80  84
ENDBRANCH  53  77
BRANCH  65  88
ATOM     88  C   UNL A   1      51.619  35.185  25.758  1.00  0.00     0.023 A 
ATOM     89  C   UNL A   1      52.027  35.944  26.869  1.00  0.00     0.031 A 
ATOM     90  C   UNL A   1      51.895  35.698  24.476  1.00  0.00     0.131 A 
ATOM     91  C   UNL A   1      52.599  37.211  26.680  1.00  0.00     0.055 A 
ATOM     92  C   UNL A   1      52.545  36.920  24.294  1.00  0.00     0.041 A 
ATOM     93  F   UNL A   1      51.530  35.022  23.375  1.00  0.00    -0.206 F 
ATOM     94  C   UNL A   1      52.881  37.695  25.400  1.00  0.00     0.022 A 
BRANCH  91  95
ATOM     95  S   UNL A   1      52.830  38.283  28.125  1.00  0.00     0.124 S 
ATOM     96  O   UNL A   1      52.209  39.527  27.680  1.00  0.00    -0.237 OA
ATOM     97  O   UNL A   1      52.119  37.554  29.170  1.00  0.00    -0.237 OA
ATOM     98  O   UNL A   1      54.282  38.337  28.284  1.00  0.00    -0.744 OA
ENDBRANCH  91  95
ENDBRANCH  65  88
ENDBRANCH  39  40
ENDBRANCH  32  34
ENDBRANCH  31  32
ENDBRANCH  30  31
ENDBRANCH  29  30
ENDBRANCH  28  29
ENDBRANCH  27  28
ENDBRANCH   1  27
TORSDOF 25
ENDMDL
