MODEL 1
REMARK VINA RESULT:     -10.7      0.000      0.000
REMARK SMILES Cc1ccccc1S(=O)(=O)Nc1ccc(N2CCOCC2)cc1C(=O)OCCOCCOCCOCCOC(=O)c1ccc(-c2c3nc(c(-c4cc(S(=O)(=O)[O-])ccc4F)c4ccc([nH]4)c(-c4cc(S(=O)(=O)[O-])ccc4F)c4nc(c(-c5cc(S(=O)(=O)[O-])ccc5F)c5ccc2[nH]5)C=C4)C=C3)cc1
REMARK SMILES IDX 32 1 31 2 30 3 29 4 28 5 27 6 26 7 24 8 25 9 23 10 12 11
REMARK SMILES IDX 13 12 14 13 22 14 15 15 11 16 8 18 9 19 10 20 7 21 1 22 2 23
REMARK SMILES IDX 3 24 4 25 6 26 5 27 16 28 17 29 21 30 18 31 20 32 19 33
REMARK SMILES IDX 33 34 34 35 35 36 36 37 37 38 38 39 39 40 40 41 41 42 42 43
REMARK SMILES IDX 103 44 43 45 102 46 44 47 45 48 46 49 96 50 47 51 101 52
REMARK SMILES IDX 95 53 97 54 48 55 100 56 94 57 93 58 49 60 81 61 61 62 80 63
REMARK SMILES IDX 62 64 65 65 79 66 98 67 63 68 64 69 78 71 99 72 66 73 50 74
REMARK SMILES IDX 51 75 59 76 52 77 58 78 60 79 57 80 53 81 54 82 55 83 56 84
REMARK SMILES IDX 82 85 83 86 91 87 84 88 90 89 92 90 89 91 85 92 86 93 87 94
REMARK SMILES IDX 88 95 67 96 68 97 76 98 69 99 75 100 77 101 74 102 70 103
REMARK SMILES IDX 71 104 72 105 73 106
REMARK H PARENT 11 17 97 59 65 70
REMARK Flexibility Score: inf
ROOT
ATOM      1  O   UNL A   1      42.444  20.505  26.212  1.00  0.00    -0.377 OA
ENDROOT
BRANCH   1   2
ATOM      2  C   UNL A   1      41.047  20.426  26.034  1.00  0.00     0.188 C 
BRANCH   2   3
ATOM      3  C   UNL A   1      40.170  21.513  26.643  1.00  0.00     0.188 C 
BRANCH   3   4
ATOM      4  O   UNL A   1      39.010  21.842  25.888  1.00  0.00    -0.376 OA
BRANCH   4   5
ATOM      5  C   UNL A   1      38.436  23.113  26.224  1.00  0.00     0.202 C 
BRANCH   5   6
ATOM      6  C   UNL A   1      37.358  23.710  25.320  1.00  0.00     0.261 C 
BRANCH   6   7
ATOM      7  O   UNL A   1      36.121  23.007  25.326  1.00  0.00    -0.460 OA
BRANCH   7   8
ATOM      8  C   UNL A   1      35.642  22.784  24.111  1.00  0.00     0.340 C 
ATOM      9  O   UNL A   1      36.217  22.995  23.036  1.00  0.00    -0.246 OA
BRANCH   8  10
ATOM     10  C   UNL A   1      34.541  21.835  24.203  1.00  0.00     0.086 A 
ATOM     11  C   UNL A   1      33.345  22.271  23.614  1.00  0.00     0.064 A 
ATOM     12  C   UNL A   1      32.187  21.621  23.971  1.00  0.00     0.030 A 
ATOM     13  C   UNL A   1      32.294  20.352  24.577  1.00  0.00     0.028 A 
ATOM     14  C   UNL A   1      34.671  20.532  24.717  1.00  0.00     0.043 A 
ATOM     15  C   UNL A   1      33.542  19.704  24.762  1.00  0.00     0.038 A 
BRANCH  11  16
ATOM     16  N   UNL A   1      33.428  23.258  22.583  1.00  0.00    -0.279 N 
ATOM     17  H   UNL A   1      33.851  22.938  21.754  1.00  0.00     0.180 HD
BRANCH  16  18
ATOM     18  S   UNL A   1      32.940  24.856  22.525  1.00  0.00     0.262 S 
ATOM     19  O   UNL A   1      31.701  24.738  21.766  1.00  0.00    -0.201 OA
ATOM     20  O   UNL A   1      34.028  25.631  21.965  1.00  0.00    -0.201 OA
BRANCH  18  21
ATOM     21  C   UNL A   1      32.435  25.758  24.022  1.00  0.00     0.090 A 
ATOM     22  C   UNL A   1      31.267  27.805  23.040  1.00  0.00     0.046 C 
ATOM     23  C   UNL A   1      31.586  26.870  24.133  1.00  0.00    -0.031 A 
ATOM     24  C   UNL A   1      31.110  27.314  25.390  1.00  0.00     0.005 A 
ATOM     25  C   UNL A   1      31.544  26.733  26.561  1.00  0.00     0.000 A 
ATOM     26  C   UNL A   1      32.876  25.193  25.237  1.00  0.00     0.022 A 
ATOM     27  C   UNL A   1      32.435  25.674  26.482  1.00  0.00     0.001 A 
ENDBRANCH  18  21
ENDBRANCH  16  18
ENDBRANCH  11  16
BRANCH  15  28
ATOM     28  N   UNL A   1      33.634  18.314  24.786  1.00  0.00    -0.367 N 
ATOM     29  C   UNL A   1      32.454  17.438  24.940  1.00  0.00     0.145 C 
ATOM     30  C   UNL A   1      34.878  17.642  24.346  1.00  0.00     0.145 C 
ATOM     31  C   UNL A   1      32.816  16.046  25.501  1.00  0.00     0.181 C 
ATOM     32  C   UNL A   1      35.071  16.260  24.988  1.00  0.00     0.181 C 
ATOM     33  O   UNL A   1      33.910  15.446  24.790  1.00  0.00    -0.378 OA
ENDBRANCH  15  28
ENDBRANCH   8  10
ENDBRANCH   7   8
ENDBRANCH   6   7
ENDBRANCH   5   6
ENDBRANCH   4   5
ENDBRANCH   3   4
ENDBRANCH   2   3
ENDBRANCH   1   2
BRANCH   1  34
ATOM     34  C   UNL A   1      42.950  21.824  26.233  1.00  0.00     0.188 C 
BRANCH  34  35
ATOM     35  C   UNL A   1      43.693  22.342  25.004  1.00  0.00     0.188 C 
BRANCH  35  36
ATOM     36  O   UNL A   1      44.707  23.242  25.474  1.00  0.00    -0.376 OA
BRANCH  36  37
ATOM     37  C   UNL A   1      44.294  24.413  26.161  1.00  0.00     0.202 C 
BRANCH  37  38
ATOM     38  C   UNL A   1      43.533  25.454  25.332  1.00  0.00     0.261 C 
BRANCH  38  39
ATOM     39  O   UNL A   1      42.976  26.451  26.213  1.00  0.00    -0.460 OA
BRANCH  39  40
ATOM     40  C   UNL A   1      42.579  27.602  25.608  1.00  0.00     0.338 C 
ATOM     41  O   UNL A   1      42.658  27.819  24.411  1.00  0.00    -0.246 OA
BRANCH  40  42
ATOM     42  C   UNL A   1      42.121  28.595  26.626  1.00  0.00     0.060 A 
ATOM     43  C   UNL A   1      43.042  29.469  27.228  1.00  0.00     0.016 A 
ATOM     44  C   UNL A   1      40.835  28.495  27.150  1.00  0.00     0.016 A 
ATOM     45  C   UNL A   1      42.709  30.159  28.411  1.00  0.00     0.010 A 
ATOM     46  C   UNL A   1      40.549  29.098  28.362  1.00  0.00     0.010 A 
ATOM     47  C   UNL A   1      41.471  29.936  29.022  1.00  0.00    -0.014 A 
BRANCH  47  48
ATOM     48  C   UNL A   1      41.115  30.291  30.421  1.00  0.00     0.031 A 
ATOM     49  C   UNL A   1      40.182  31.470  30.687  1.00  0.00     0.074 A 
ATOM     50  C   UNL A   1      41.288  29.332  31.368  1.00  0.00     0.049 A 
ATOM     51  N   UNL A   1      39.678  31.845  31.825  1.00  0.00    -0.248 NA
ATOM     52  C   UNL A   1      39.767  32.379  29.618  1.00  0.00     0.031 C 
ATOM     53  C   UNL A   1      40.349  29.097  32.434  1.00  0.00     0.029 A 
ATOM     54  N   UNL A   1      42.145  28.246  31.507  1.00  0.00    -0.354 N 
ATOM     55  C   UNL A   1      38.667  32.785  31.605  1.00  0.00     0.074 A 
ATOM     56  C   UNL A   1      38.853  33.146  30.222  1.00  0.00     0.031 C 
ATOM     57  C   UNL A   1      40.599  27.983  33.116  1.00  0.00     0.029 A 
ATOM     58  C   UNL A   1      41.923  27.628  32.767  1.00  0.00     0.049 A 
ATOM     59  H   UNL A   1      42.801  27.950  30.837  1.00  0.00     0.167 HD
ATOM     60  C   UNL A   1      37.716  33.065  32.568  1.00  0.00     0.034 A 
ATOM     61  C   UNL A   1      42.895  27.593  33.715  1.00  0.00     0.034 A 
ATOM     62  C   UNL A   1      38.026  32.430  33.891  1.00  0.00     0.049 A 
ATOM     63  C   UNL A   1      42.696  28.735  34.758  1.00  0.00     0.074 A 
ATOM     64  C   UNL A   1      37.300  31.819  34.912  1.00  0.00     0.029 A 
ATOM     65  N   UNL A   1      39.358  32.199  34.248  1.00  0.00    -0.354 N 
ATOM     66  N   UNL A   1      41.566  29.407  34.939  1.00  0.00    -0.248 NA
ATOM     67  C   UNL A   1      43.729  29.240  35.656  1.00  0.00     0.031 C 
ATOM     68  C   UNL A   1      38.209  31.189  35.821  1.00  0.00     0.029 A 
ATOM     69  C   UNL A   1      39.497  31.462  35.403  1.00  0.00     0.049 A 
ATOM     70  H   UNL A   1      40.122  32.530  33.723  1.00  0.00     0.167 HD
ATOM     71  C   UNL A   1      41.738  30.474  35.789  1.00  0.00     0.074 A 
ATOM     72  C   UNL A   1      43.115  30.292  36.239  1.00  0.00     0.031 C 
ATOM     73  C   UNL A   1      40.800  31.453  36.053  1.00  0.00     0.034 A 
BRANCH  60  74
ATOM     74  C   UNL A   1      36.334  33.766  32.313  1.00  0.00     0.023 A 
ATOM     75  C   UNL A   1      35.687  33.613  31.057  1.00  0.00     0.031 A 
ATOM     76  C   UNL A   1      35.655  34.667  33.169  1.00  0.00     0.131 A 
ATOM     77  C   UNL A   1      34.546  34.365  30.674  1.00  0.00     0.055 A 
ATOM     78  C   UNL A   1      34.470  35.354  32.823  1.00  0.00     0.041 A 
ATOM     79  F   UNL A   1      36.094  34.982  34.389  1.00  0.00    -0.206 F 
ATOM     80  C   UNL A   1      33.921  35.226  31.562  1.00  0.00     0.022 A 
BRANCH  77  81
ATOM     81  S   UNL A   1      33.891  34.232  28.980  1.00  0.00     0.124 S 
ATOM     82  O   UNL A   1      32.518  34.695  29.146  1.00  0.00    -0.237 OA
ATOM     83  O   UNL A   1      34.781  35.107  28.225  1.00  0.00    -0.237 OA
ATOM     84  O   UNL A   1      34.028  32.808  28.674  1.00  0.00    -0.744 OA
ENDBRANCH  77  81
ENDBRANCH  60  74
BRANCH  61  85
ATOM     85  C   UNL A   1      44.019  26.800  33.081  1.00  0.00     0.023 A 
ATOM     86  C   UNL A   1      45.117  27.642  32.687  1.00  0.00     0.031 A 
ATOM     87  C   UNL A   1      44.362  25.543  33.620  1.00  0.00     0.131 A 
ATOM     88  C   UNL A   1      46.430  27.372  33.131  1.00  0.00     0.055 A 
ATOM     89  C   UNL A   1      45.689  25.255  34.006  1.00  0.00     0.041 A 
ATOM     90  F   UNL A   1      43.401  24.695  34.017  1.00  0.00    -0.206 F 
ATOM     91  C   UNL A   1      46.711  26.191  33.820  1.00  0.00     0.022 A 
BRANCH  88  92
ATOM     92  S   UNL A   1      47.711  28.693  33.121  1.00  0.00     0.124 S 
ATOM     93  O   UNL A   1      48.945  27.913  33.123  1.00  0.00    -0.237 OA
ATOM     94  O   UNL A   1      47.445  29.432  31.891  1.00  0.00    -0.237 OA
ATOM     95  O   UNL A   1      47.447  29.428  34.359  1.00  0.00    -0.744 OA
ENDBRANCH  88  92
ENDBRANCH  61  85
BRANCH  73  96
ATOM     96  C   UNL A   1      41.030  32.639  36.973  1.00  0.00     0.023 A 
ATOM     97  C   UNL A   1      40.191  32.882  38.054  1.00  0.00     0.031 A 
ATOM     98  C   UNL A   1      42.060  33.601  36.759  1.00  0.00     0.131 A 
ATOM     99  C   UNL A   1      40.496  33.898  38.971  1.00  0.00     0.055 A 
ATOM    100  C   UNL A   1      42.281  34.687  37.605  1.00  0.00     0.041 A 
ATOM    101  F   UNL A   1      42.928  33.520  35.741  1.00  0.00    -0.206 F 
ATOM    102  C   UNL A   1      41.522  34.815  38.752  1.00  0.00     0.022 A 
BRANCH  99 103
ATOM    103  S   UNL A   1      39.622  33.857  40.547  1.00  0.00     0.124 S 
ATOM    104  O   UNL A   1      40.340  34.859  41.329  1.00  0.00    -0.237 OA
ATOM    105  O   UNL A   1      38.269  34.224  40.137  1.00  0.00    -0.237 OA
ATOM    106  O   UNL A   1      39.782  32.477  40.996  1.00  0.00    -0.744 OA
ENDBRANCH  99 103
ENDBRANCH  73  96
ENDBRANCH  47  48
ENDBRANCH  40  42
ENDBRANCH  39  40
ENDBRANCH  38  39
ENDBRANCH  37  38
ENDBRANCH  36  37
ENDBRANCH  35  36
ENDBRANCH  34  35
ENDBRANCH   1  34
TORSDOF 27
ENDMDL
MODEL 2
REMARK VINA RESULT:     -10.0      5.622     10.374
REMARK SMILES Cc1ccccc1S(=O)(=O)Nc1ccc(N2CCOCC2)cc1C(=O)OCCOCCOCCOCCOC(=O)c1ccc(-c2c3nc(c(-c4cc(S(=O)(=O)[O-])ccc4F)c4ccc([nH]4)c(-c4cc(S(=O)(=O)[O-])ccc4F)c4nc(c(-c5cc(S(=O)(=O)[O-])ccc5F)c5ccc2[nH]5)C=C4)C=C3)cc1
REMARK SMILES IDX 32 1 31 2 30 3 29 4 28 5 27 6 26 7 24 8 25 9 23 10 12 11
REMARK SMILES IDX 13 12 14 13 22 14 15 15 11 16 8 18 9 19 10 20 7 21 1 22 2 23
REMARK SMILES IDX 3 24 4 25 6 26 5 27 16 28 17 29 21 30 18 31 20 32 19 33
REMARK SMILES IDX 33 34 34 35 35 36 36 37 37 38 38 39 39 40 40 41 41 42 42 43
REMARK SMILES IDX 103 44 43 45 102 46 44 47 45 48 46 49 96 50 47 51 101 52
REMARK SMILES IDX 95 53 97 54 48 55 100 56 94 57 93 58 49 60 81 61 61 62 80 63
REMARK SMILES IDX 62 64 65 65 79 66 98 67 63 68 64 69 78 71 99 72 66 73 50 74
REMARK SMILES IDX 51 75 59 76 52 77 58 78 60 79 57 80 53 81 54 82 55 83 56 84
REMARK SMILES IDX 82 85 83 86 91 87 84 88 90 89 92 90 89 91 85 92 86 93 87 94
REMARK SMILES IDX 88 95 67 96 68 97 76 98 69 99 75 100 77 101 74 102 70 103
REMARK SMILES IDX 71 104 72 105 73 106
REMARK H PARENT 11 17 97 59 65 70
REMARK Flexibility Score: inf
ROOT
ATOM      1  O   UNL A   1      42.605  19.896  26.298  1.00  0.00    -0.377 OA
ENDROOT
BRANCH   1   2
ATOM      2  C   UNL A   1      41.501  19.930  27.175  1.00  0.00     0.188 C 
BRANCH   2   3
ATOM      3  C   UNL A   1      40.768  21.252  27.375  1.00  0.00     0.188 C 
BRANCH   3   4
ATOM      4  O   UNL A   1      39.735  21.513  26.434  1.00  0.00    -0.376 OA
BRANCH   4   5
ATOM      5  C   UNL A   1      39.142  22.813  26.564  1.00  0.00     0.202 C 
BRANCH   5   6
ATOM      6  C   UNL A   1      38.083  23.258  25.555  1.00  0.00     0.261 C 
BRANCH   6   7
ATOM      7  O   UNL A   1      36.932  22.425  25.497  1.00  0.00    -0.460 OA
BRANCH   7   8
ATOM      8  C   UNL A   1      36.252  22.555  24.366  1.00  0.00     0.340 C 
ATOM      9  O   UNL A   1      36.689  22.944  23.277  1.00  0.00    -0.246 OA
BRANCH   8  10
ATOM     10  C   UNL A   1      35.042  21.749  24.448  1.00  0.00     0.086 A 
ATOM     11  C   UNL A   1      33.890  22.375  23.947  1.00  0.00     0.064 A 
ATOM     12  C   UNL A   1      32.672  21.852  24.315  1.00  0.00     0.030 A 
ATOM     13  C   UNL A   1      32.637  20.539  24.828  1.00  0.00     0.028 A 
ATOM     14  C   UNL A   1      35.021  20.406  24.865  1.00  0.00     0.043 A 
ATOM     15  C   UNL A   1      33.797  19.727  24.910  1.00  0.00     0.038 A 
BRANCH  11  16
ATOM     16  N   UNL A   1      34.060  23.415  22.982  1.00  0.00    -0.279 N 
ATOM     17  H   UNL A   1      34.796  23.258  22.348  1.00  0.00     0.180 HD
BRANCH  16  18
ATOM     18  S   UNL A   1      33.240  24.851  22.732  1.00  0.00     0.262 S 
ATOM     19  O   UNL A   1      31.858  24.401  22.836  1.00  0.00    -0.201 OA
ATOM     20  O   UNL A   1      33.697  25.409  21.476  1.00  0.00    -0.201 OA
BRANCH  18  21
ATOM     21  C   UNL A   1      33.330  26.225  23.922  1.00  0.00     0.090 A 
ATOM     22  C   UNL A   1      33.752  24.996  26.120  1.00  0.00     0.046 C 
ATOM     23  C   UNL A   1      33.731  26.196  25.267  1.00  0.00    -0.031 A 
ATOM     24  C   UNL A   1      33.965  27.388  25.993  1.00  0.00     0.005 A 
ATOM     25  C   UNL A   1      33.709  28.623  25.437  1.00  0.00     0.000 A 
ATOM     26  C   UNL A   1      33.061  27.500  23.383  1.00  0.00     0.022 A 
ATOM     27  C   UNL A   1      33.250  28.675  24.131  1.00  0.00     0.001 A 
ENDBRANCH  18  21
ENDBRANCH  16  18
ENDBRANCH  11  16
BRANCH  15  28
ATOM     28  N   UNL A   1      33.709  18.338  24.835  1.00  0.00    -0.367 N 
ATOM     29  C   UNL A   1      32.418  17.619  24.837  1.00  0.00     0.145 C 
ATOM     30  C   UNL A   1      34.889  17.536  24.438  1.00  0.00     0.145 C 
ATOM     31  C   UNL A   1      32.553  16.157  25.317  1.00  0.00     0.181 C 
ATOM     32  C   UNL A   1      34.850  16.102  24.987  1.00  0.00     0.181 C 
ATOM     33  O   UNL A   1      33.616  15.464  24.644  1.00  0.00    -0.378 OA
ENDBRANCH  15  28
ENDBRANCH   8  10
ENDBRANCH   7   8
ENDBRANCH   6   7
ENDBRANCH   5   6
ENDBRANCH   4   5
ENDBRANCH   3   4
ENDBRANCH   2   3
ENDBRANCH   1   2
BRANCH   1  34
ATOM     34  C   UNL A   1      43.387  21.073  26.306  1.00  0.00     0.188 C 
BRANCH  34  35
ATOM     35  C   UNL A   1      44.103  21.484  25.022  1.00  0.00     0.188 C 
BRANCH  35  36
ATOM     36  O   UNL A   1      43.701  22.829  24.727  1.00  0.00    -0.376 OA
BRANCH  36  37
ATOM     37  C   UNL A   1      43.157  23.610  25.780  1.00  0.00     0.202 C 
BRANCH  37  38
ATOM     38  C   UNL A   1      43.111  25.124  25.548  1.00  0.00     0.261 C 
BRANCH  38  39
ATOM     39  O   UNL A   1      43.558  25.803  26.738  1.00  0.00    -0.460 OA
BRANCH  39  40
ATOM     40  C   UNL A   1      42.657  25.845  27.755  1.00  0.00     0.338 C 
ATOM     41  O   UNL A   1      41.456  25.999  27.611  1.00  0.00    -0.246 OA
BRANCH  40  42
ATOM     42  C   UNL A   1      43.354  25.772  29.074  1.00  0.00     0.060 A 
ATOM     43  C   UNL A   1      43.715  26.950  29.751  1.00  0.00     0.016 A 
ATOM     44  C   UNL A   1      43.856  24.551  29.517  1.00  0.00     0.016 A 
ATOM     45  C   UNL A   1      44.656  26.915  30.800  1.00  0.00     0.010 A 
ATOM     46  C   UNL A   1      44.851  24.538  30.479  1.00  0.00     0.010 A 
ATOM     47  C   UNL A   1      45.278  25.709  31.138  1.00  0.00    -0.014 A 
BRANCH  47  48
ATOM     48  C   UNL A   1      46.518  25.565  31.945  1.00  0.00     0.031 A 
ATOM     49  C   UNL A   1      47.879  25.736  31.276  1.00  0.00     0.074 A 
ATOM     50  C   UNL A   1      46.399  25.698  33.292  1.00  0.00     0.049 A 
ATOM     51  N   UNL A   1      49.047  25.760  31.844  1.00  0.00    -0.248 NA
ATOM     52  C   UNL A   1      48.013  25.859  29.824  1.00  0.00     0.031 C 
ATOM     53  C   UNL A   1      47.358  26.403  34.103  1.00  0.00     0.029 A 
ATOM     54  N   UNL A   1      45.377  25.468  34.207  1.00  0.00    -0.354 N 
ATOM     55  C   UNL A   1      50.006  26.208  30.930  1.00  0.00     0.074 A 
ATOM     56  C   UNL A   1      49.310  26.147  29.670  1.00  0.00     0.031 C 
ATOM     57  C   UNL A   1      46.945  26.597  35.353  1.00  0.00     0.029 A 
ATOM     58  C   UNL A   1      45.856  25.709  35.522  1.00  0.00     0.049 A 
ATOM     59  H   UNL A   1      44.463  25.183  33.979  1.00  0.00     0.167 HD
ATOM     60  C   UNL A   1      51.232  26.694  31.346  1.00  0.00     0.034 A 
ATOM     61  C   UNL A   1      45.923  24.712  36.442  1.00  0.00     0.034 A 
ATOM     62  C   UNL A   1      51.475  26.478  32.810  1.00  0.00     0.049 A 
ATOM     63  C   UNL A   1      47.364  24.123  36.520  1.00  0.00     0.074 A 
ATOM     64  C   UNL A   1      52.065  27.193  33.851  1.00  0.00     0.029 A 
ATOM     65  N   UNL A   1      50.884  25.386  33.452  1.00  0.00    -0.354 N 
ATOM     66  N   UNL A   1      48.454  24.724  36.061  1.00  0.00    -0.248 NA
ATOM     67  C   UNL A   1      47.709  22.821  37.083  1.00  0.00     0.031 C 
ATOM     68  C   UNL A   1      51.766  26.546  35.093  1.00  0.00     0.029 A 
ATOM     69  C   UNL A   1      51.047  25.398  34.820  1.00  0.00     0.049 A 
ATOM     70  H   UNL A   1      50.397  24.677  32.973  1.00  0.00     0.167 HD
ATOM     71  C   UNL A   1      49.549  23.892  36.098  1.00  0.00     0.074 A 
ATOM     72  C   UNL A   1      49.023  22.720  36.790  1.00  0.00     0.031 C 
ATOM     73  C   UNL A   1      50.787  24.165  35.548  1.00  0.00     0.034 A 
BRANCH  60  74
ATOM     74  C   UNL A   1      52.203  27.582  30.488  1.00  0.00     0.023 A 
ATOM     75  C   UNL A   1      52.362  28.958  30.802  1.00  0.00     0.031 A 
ATOM     76  C   UNL A   1      52.900  27.207  29.313  1.00  0.00     0.131 A 
ATOM     77  C   UNL A   1      53.057  29.871  29.967  1.00  0.00     0.055 A 
ATOM     78  C   UNL A   1      53.664  28.096  28.524  1.00  0.00     0.041 A 
ATOM     79  F   UNL A   1      52.874  25.970  28.816  1.00  0.00    -0.206 F 
ATOM     80  C   UNL A   1      53.727  29.441  28.832  1.00  0.00     0.022 A 
BRANCH  77  81
ATOM     81  S   UNL A   1      53.057  31.649  30.358  1.00  0.00     0.124 S 
ATOM     82  O   UNL A   1      51.836  31.789  31.144  1.00  0.00    -0.237 OA
ATOM     83  O   UNL A   1      54.312  31.816  31.081  1.00  0.00    -0.237 OA
ATOM     84  O   UNL A   1      53.018  32.286  29.042  1.00  0.00    -0.744 OA
ENDBRANCH  77  81
ENDBRANCH  60  74
BRANCH  61  85
ATOM     85  C   UNL A   1      44.487  24.263  36.623  1.00  0.00     0.023 A 
ATOM     86  C   UNL A   1      43.627  25.352  37.007  1.00  0.00     0.031 A 
ATOM     87  C   UNL A   1      43.942  23.327  35.722  1.00  0.00     0.131 A 
ATOM     88  C   UNL A   1      42.461  25.645  36.266  1.00  0.00     0.055 A 
ATOM     89  C   UNL A   1      42.742  23.598  35.029  1.00  0.00     0.041 A 
ATOM     90  F   UNL A   1      44.675  22.282  35.309  1.00  0.00    -0.206 F 
ATOM     91  C   UNL A   1      42.035  24.783  35.254  1.00  0.00     0.022 A 
BRANCH  88  92
ATOM     92  S   UNL A   1      41.678  27.306  36.374  1.00  0.00     0.124 S 
ATOM     93  O   UNL A   1      40.597  27.067  37.326  1.00  0.00    -0.237 OA
ATOM     94  O   UNL A   1      42.751  28.170  36.858  1.00  0.00    -0.237 OA
ATOM     95  O   UNL A   1      41.241  27.563  35.001  1.00  0.00    -0.744 OA
ENDBRANCH  88  92
ENDBRANCH  61  85
BRANCH  73  96
ATOM     96  C   UNL A   1      51.969  23.213  35.577  1.00  0.00     0.023 A 
ATOM     97  C   UNL A   1      51.942  22.011  34.878  1.00  0.00     0.031 A 
ATOM     98  C   UNL A   1      53.138  23.449  36.358  1.00  0.00     0.131 A 
ATOM     99  C   UNL A   1      53.089  21.210  34.803  1.00  0.00     0.055 A 
ATOM    100  C   UNL A   1      54.231  22.582  36.381  1.00  0.00     0.041 A 
ATOM    101  F   UNL A   1      53.299  24.547  37.109  1.00  0.00    -0.206 F 
ATOM    102  C   UNL A   1      54.230  21.472  35.560  1.00  0.00     0.022 A 
BRANCH  99 103
ATOM    103  S   UNL A   1      53.100  19.924  33.541  1.00  0.00     0.124 S 
ATOM    104  O   UNL A   1      54.314  19.180  33.862  1.00  0.00    -0.237 OA
ATOM    105  O   UNL A   1      51.842  19.234  33.819  1.00  0.00    -0.237 OA
ATOM    106  O   UNL A   1      53.134  20.671  32.287  1.00  0.00    -0.744 OA
ENDBRANCH  99 103
ENDBRANCH  73  96
ENDBRANCH  47  48
ENDBRANCH  40  42
ENDBRANCH  39  40
ENDBRANCH  38  39
ENDBRANCH  37  38
ENDBRANCH  36  37
ENDBRANCH  35  36
ENDBRANCH  34  35
ENDBRANCH   1  34
TORSDOF 27
ENDMDL
MODEL 3
REMARK VINA RESULT:      -9.1      4.860      7.611
REMARK SMILES Cc1ccccc1S(=O)(=O)Nc1ccc(N2CCOCC2)cc1C(=O)OCCOCCOCCOCCOC(=O)c1ccc(-c2c3nc(c(-c4cc(S(=O)(=O)[O-])ccc4F)c4ccc([nH]4)c(-c4cc(S(=O)(=O)[O-])ccc4F)c4nc(c(-c5cc(S(=O)(=O)[O-])ccc5F)c5ccc2[nH]5)C=C4)C=C3)cc1
REMARK SMILES IDX 32 1 31 2 30 3 29 4 28 5 27 6 26 7 24 8 25 9 23 10 12 11
REMARK SMILES IDX 13 12 14 13 22 14 15 15 11 16 8 18 9 19 10 20 7 21 1 22 2 23
REMARK SMILES IDX 3 24 4 25 6 26 5 27 16 28 17 29 21 30 18 31 20 32 19 33
REMARK SMILES IDX 33 34 34 35 35 36 36 37 37 38 38 39 39 40 40 41 41 42 42 43
REMARK SMILES IDX 103 44 43 45 102 46 44 47 45 48 46 49 96 50 47 51 101 52
REMARK SMILES IDX 95 53 97 54 48 55 100 56 94 57 93 58 49 60 81 61 61 62 80 63
REMARK SMILES IDX 62 64 65 65 79 66 98 67 63 68 64 69 78 71 99 72 66 73 50 74
REMARK SMILES IDX 51 75 59 76 52 77 58 78 60 79 57 80 53 81 54 82 55 83 56 84
REMARK SMILES IDX 82 85 83 86 91 87 84 88 90 89 92 90 89 91 85 92 86 93 87 94
REMARK SMILES IDX 88 95 67 96 68 97 76 98 69 99 75 100 77 101 74 102 70 103
REMARK SMILES IDX 71 104 72 105 73 106
REMARK H PARENT 11 17 97 59 65 70
REMARK Flexibility Score: inf
ROOT
ATOM      1  O   UNL A   1      42.176  20.739  25.953  1.00  0.00    -0.377 OA
ENDROOT
BRANCH   1   2
ATOM      2  C   UNL A   1      41.009  20.662  26.743  1.00  0.00     0.188 C 
BRANCH   2   3
ATOM      3  C   UNL A   1      40.238  21.944  27.033  1.00  0.00     0.188 C 
BRANCH   3   4
ATOM      4  O   UNL A   1      39.159  22.209  26.145  1.00  0.00    -0.376 OA
BRANCH   4   5
ATOM      5  C   UNL A   1      38.568  23.505  26.316  1.00  0.00     0.202 C 
BRANCH   5   6
ATOM      6  C   UNL A   1      37.366  23.899  25.457  1.00  0.00     0.261 C 
BRANCH   6   7
ATOM      7  O   UNL A   1      36.481  22.830  25.148  1.00  0.00    -0.460 OA
BRANCH   7   8
ATOM      8  C   UNL A   1      35.239  23.047  25.557  1.00  0.00     0.340 C 
ATOM      9  O   UNL A   1      34.779  24.104  26.007  1.00  0.00    -0.246 OA
BRANCH   8  10
ATOM     10  C   UNL A   1      34.369  22.029  24.985  1.00  0.00     0.086 A 
ATOM     11  C   UNL A   1      33.494  22.500  23.994  1.00  0.00     0.064 A 
ATOM     12  C   UNL A   1      32.412  21.713  23.674  1.00  0.00     0.030 A 
ATOM     13  C   UNL A   1      32.442  20.354  24.051  1.00  0.00     0.028 A 
ATOM     14  C   UNL A   1      34.463  20.658  25.285  1.00  0.00     0.043 A 
ATOM     15  C   UNL A   1      33.570  19.766  24.678  1.00  0.00     0.038 A 
BRANCH  11  16
ATOM     16  N   UNL A   1      33.862  23.687  23.287  1.00  0.00    -0.279 N 
ATOM     17  H   UNL A   1      34.830  23.783  23.140  1.00  0.00     0.180 HD
BRANCH  16  18
ATOM     18  S   UNL A   1      32.950  24.943  22.664  1.00  0.00     0.262 S 
ATOM     19  O   UNL A   1      31.606  24.394  22.785  1.00  0.00    -0.201 OA
ATOM     20  O   UNL A   1      33.462  25.249  21.344  1.00  0.00    -0.201 OA
BRANCH  18  21
ATOM     21  C   UNL A   1      32.830  26.549  23.510  1.00  0.00     0.090 A 
ATOM     22  C   UNL A   1      30.808  27.603  22.361  1.00  0.00     0.046 C 
ATOM     23  C   UNL A   1      31.800  27.500  23.445  1.00  0.00    -0.031 A 
ATOM     24  C   UNL A   1      31.748  28.596  24.341  1.00  0.00     0.005 A 
ATOM     25  C   UNL A   1      32.763  28.826  25.243  1.00  0.00     0.000 A 
ATOM     26  C   UNL A   1      33.863  26.818  24.432  1.00  0.00     0.022 A 
ATOM     27  C   UNL A   1      33.825  27.937  25.282  1.00  0.00     0.001 A 
ENDBRANCH  18  21
ENDBRANCH  16  18
ENDBRANCH  11  16
BRANCH  15  28
ATOM     28  N   UNL A   1      33.858  18.412  24.518  1.00  0.00    -0.367 N 
ATOM     29  C   UNL A   1      32.909  17.463  23.901  1.00  0.00     0.145 C 
ATOM     30  C   UNL A   1      35.245  17.921  24.674  1.00  0.00     0.145 C 
ATOM     31  C   UNL A   1      33.165  16.002  24.332  1.00  0.00     0.181 C 
ATOM     32  C   UNL A   1      35.314  16.444  25.089  1.00  0.00     0.181 C 
ATOM     33  O   UNL A   1      34.546  15.633  24.194  1.00  0.00    -0.378 OA
ENDBRANCH  15  28
ENDBRANCH   8  10
ENDBRANCH   7   8
ENDBRANCH   6   7
ENDBRANCH   5   6
ENDBRANCH   4   5
ENDBRANCH   3   4
ENDBRANCH   2   3
ENDBRANCH   1   2
BRANCH   1  34
ATOM     34  C   UNL A   1      42.998  21.850  26.244  1.00  0.00     0.188 C 
BRANCH  34  35
ATOM     35  C   UNL A   1      43.899  22.402  25.142  1.00  0.00     0.188 C 
BRANCH  35  36
ATOM     36  O   UNL A   1      43.381  23.690  24.779  1.00  0.00    -0.376 OA
BRANCH  36  37
ATOM     37  C   UNL A   1      42.807  24.491  25.800  1.00  0.00     0.202 C 
BRANCH  37  38
ATOM     38  C   UNL A   1      41.587  25.329  25.400  1.00  0.00     0.261 C 
BRANCH  38  39
ATOM     39  O   UNL A   1      41.872  26.724  25.628  1.00  0.00    -0.460 OA
BRANCH  39  40
ATOM     40  C   UNL A   1      41.332  27.248  26.760  1.00  0.00     0.338 C 
ATOM     41  O   UNL A   1      40.216  26.993  27.179  1.00  0.00    -0.246 OA
BRANCH  40  42
ATOM     42  C   UNL A   1      42.260  28.250  27.365  1.00  0.00     0.060 A 
ATOM     43  C   UNL A   1      42.622  28.154  28.720  1.00  0.00     0.016 A 
ATOM     44  C   UNL A   1      42.577  29.406  26.656  1.00  0.00     0.016 A 
ATOM     45  C   UNL A   1      43.202  29.251  29.387  1.00  0.00     0.010 A 
ATOM     46  C   UNL A   1      43.056  30.510  27.341  1.00  0.00     0.010 A 
ATOM     47  C   UNL A   1      43.375  30.464  28.713  1.00  0.00    -0.014 A 
BRANCH  47  48
ATOM     48  C   UNL A   1      43.627  31.785  29.348  1.00  0.00     0.031 A 
ATOM     49  C   UNL A   1      44.966  32.485  29.132  1.00  0.00     0.074 A 
ATOM     50  C   UNL A   1      42.541  32.499  29.745  1.00  0.00     0.049 A 
ATOM     51  N   UNL A   1      45.309  33.680  29.510  1.00  0.00    -0.248 NA
ATOM     52  C   UNL A   1      46.084  31.817  28.466  1.00  0.00     0.031 C 
ATOM     53  C   UNL A   1      42.427  33.924  29.570  1.00  0.00     0.029 A 
ATOM     54  N   UNL A   1      41.257  32.167  30.163  1.00  0.00    -0.354 N 
ATOM     55  C   UNL A   1      46.505  34.045  28.885  1.00  0.00     0.074 A 
ATOM     56  C   UNL A   1      46.982  32.800  28.338  1.00  0.00     0.031 C 
ATOM     57  C   UNL A   1      41.207  34.387  29.829  1.00  0.00     0.029 A 
ATOM     58  C   UNL A   1      40.561  33.347  30.537  1.00  0.00     0.049 A 
ATOM     59  H   UNL A   1      40.887  31.255  30.193  1.00  0.00     0.167 HD
ATOM     60  C   UNL A   1      46.900  35.367  28.794  1.00  0.00     0.034 A 
ATOM     61  C   UNL A   1      40.145  33.545  31.815  1.00  0.00     0.034 A 
ATOM     62  C   UNL A   1      46.038  36.288  29.606  1.00  0.00     0.049 A 
ATOM     63  C   UNL A   1      41.152  34.443  32.595  1.00  0.00     0.074 A 
ATOM     64  C   UNL A   1      45.514  37.571  29.458  1.00  0.00     0.029 A 
ATOM     65  N   UNL A   1      45.415  35.806  30.761  1.00  0.00    -0.354 N 
ATOM     66  N   UNL A   1      42.071  35.216  32.031  1.00  0.00    -0.248 NA
ATOM     67  C   UNL A   1      41.241  34.536  34.049  1.00  0.00     0.031 C 
ATOM     68  C   UNL A   1      44.552  37.805  30.492  1.00  0.00     0.029 A 
ATOM     69  C   UNL A   1      44.523  36.697  31.316  1.00  0.00     0.049 A 
ATOM     70  H   UNL A   1      45.596  34.916  31.140  1.00  0.00     0.167 HD
ATOM     71  C   UNL A   1      42.933  35.746  32.963  1.00  0.00     0.074 A 
ATOM     72  C   UNL A   1      42.333  35.311  34.221  1.00  0.00     0.031 C 
ATOM     73  C   UNL A   1      44.083  36.458  32.683  1.00  0.00     0.034 A 
BRANCH  60  74
ATOM     74  C   UNL A   1      47.971  35.935  27.794  1.00  0.00     0.023 A 
ATOM     75  C   UNL A   1      49.093  36.648  28.295  1.00  0.00     0.031 A 
ATOM     76  C   UNL A   1      47.915  35.930  26.379  1.00  0.00     0.131 A 
ATOM     77  C   UNL A   1      49.995  37.361  27.462  1.00  0.00     0.055 A 
ATOM     78  C   UNL A   1      48.860  36.567  25.544  1.00  0.00     0.041 A 
ATOM     79  F   UNL A   1      46.935  35.341  25.692  1.00  0.00    -0.206 F 
ATOM     80  C   UNL A   1      49.893  37.309  26.081  1.00  0.00     0.022 A 
BRANCH  77  81
ATOM     81  S   UNL A   1      51.301  38.392  28.203  1.00  0.00     0.124 S 
ATOM     82  O   UNL A   1      52.137  37.396  28.865  1.00  0.00    -0.237 OA
ATOM     83  O   UNL A   1      51.881  39.054  27.041  1.00  0.00    -0.237 OA
ATOM     84  O   UNL A   1      50.563  39.275  29.106  1.00  0.00    -0.744 OA
ENDBRANCH  77  81
ENDBRANCH  60  74
BRANCH  61  85
ATOM     85  C   UNL A   1      39.171  32.414  32.078  1.00  0.00     0.023 A 
ATOM     86  C   UNL A   1      39.614  31.559  33.147  1.00  0.00     0.031 A 
ATOM     87  C   UNL A   1      37.787  32.675  32.023  1.00  0.00     0.131 A 
ATOM     88  C   UNL A   1      38.776  31.292  34.252  1.00  0.00     0.055 A 
ATOM     89  C   UNL A   1      36.941  32.349  33.106  1.00  0.00     0.041 A 
ATOM     90  F   UNL A   1      37.286  33.464  31.060  1.00  0.00    -0.206 F 
ATOM     91  C   UNL A   1      37.446  31.716  34.246  1.00  0.00     0.022 A 
BRANCH  88  92
ATOM     92  S   UNL A   1      39.487  30.698  35.842  1.00  0.00     0.124 S 
ATOM     93  O   UNL A   1      38.287  30.330  36.587  1.00  0.00    -0.237 OA
ATOM     94  O   UNL A   1      40.341  29.581  35.450  1.00  0.00    -0.237 OA
ATOM     95  O   UNL A   1      40.194  31.873  36.356  1.00  0.00    -0.744 OA
ENDBRANCH  88  92
ENDBRANCH  61  85
BRANCH  73  96
ATOM     96  C   UNL A   1      45.034  37.003  33.734  1.00  0.00     0.023 A 
ATOM     97  C   UNL A   1      44.975  38.333  34.135  1.00  0.00     0.031 A 
ATOM     98  C   UNL A   1      46.072  36.224  34.322  1.00  0.00     0.131 A 
ATOM     99  C   UNL A   1      45.765  38.786  35.200  1.00  0.00     0.055 A 
ATOM    100  C   UNL A   1      46.943  36.717  35.294  1.00  0.00     0.041 A 
ATOM    101  F   UNL A   1      46.275  34.936  34.015  1.00  0.00    -0.206 F 
ATOM    102  C   UNL A   1      46.761  37.999  35.775  1.00  0.00     0.022 A 
BRANCH  99 103
ATOM    103  S   UNL A   1      45.315  40.372  35.928  1.00  0.00     0.124 S 
ATOM    104  O   UNL A   1      44.703  41.071  34.802  1.00  0.00    -0.237 OA
ATOM    105  O   UNL A   1      44.399  39.955  36.987  1.00  0.00    -0.237 OA
ATOM    106  O   UNL A   1      46.590  40.916  36.388  1.00  0.00    -0.744 OA
ENDBRANCH  99 103
ENDBRANCH  73  96
ENDBRANCH  47  48
ENDBRANCH  40  42
ENDBRANCH  39  40
ENDBRANCH  38  39
ENDBRANCH  37  38
ENDBRANCH  36  37
ENDBRANCH  35  36
ENDBRANCH  34  35
ENDBRANCH   1  34
TORSDOF 27
ENDMDL
