MODEL 1
REMARK VINA RESULT:     -10.4      0.000      0.000
REMARK SMILES Cc1c(CC(=O)OCCOCCOCCOCCOC(=O)c2ccc(-c3c4nc(c(-c5cc(S(=O)(=O)[O-])ccc5F)c5ccc([nH]5)c(-c5cc(S(=O)(=O)[O-])ccc5F)c5nc(c(-c6cc(S(=O)(=O)[O-])ccc6F)c6ccc3[nH]6)C=C5)C=C4)cc2)cc(-c2ccccc2)cc1-c1ccccc1
REMARK SMILES IDX 14 1 13 2 12 3 11 4 10 5 9 6 8 7 7 8 5 9 6 10 4 11 3 12 1 13
REMARK SMILES IDX 2 14 94 15 85 16 93 17 86 18 95 19 96 20 100 21 97 22 99 23
REMARK SMILES IDX 98 24 87 25 88 26 92 27 89 28 91 29 90 30 15 31 16 32 17 33
REMARK SMILES IDX 18 34 19 35 20 36 21 37 22 38 23 39 84 40 24 41 83 42 25 43
REMARK SMILES IDX 26 44 27 45 77 46 28 47 82 48 76 49 78 50 29 51 81 52 75 53
REMARK SMILES IDX 74 54 30 56 62 57 42 58 61 59 43 60 46 61 60 62 79 63 44 64
REMARK SMILES IDX 45 65 59 67 80 68 47 69 31 70 32 71 40 72 33 73 39 74 41 75
REMARK SMILES IDX 38 76 34 77 35 78 36 79 37 80 63 81 64 82 72 83 65 84 71 85
REMARK SMILES IDX 73 86 70 87 66 88 67 89 68 90 69 91 48 92 49 93 57 94 50 95
REMARK SMILES IDX 56 96 58 97 55 98 51 99 52 100 53 101 54 102
REMARK H PARENT 78 55 46 66
REMARK Flexibility Score: inf
ROOT
ATOM      1  C   UNL A   1      34.634  23.497  23.179  1.00  0.00     0.188 C 
ENDROOT
BRANCH   1   2
ATOM      2  O   UNL A   1      33.822  24.612  23.420  1.00  0.00    -0.377 OA
BRANCH   2   3
ATOM      3  C   UNL A   1      32.734  24.897  22.583  1.00  0.00     0.188 C 
BRANCH   3   4
ATOM      4  C   UNL A   1      31.409  25.594  22.953  1.00  0.00     0.188 C 
BRANCH   4   5
ATOM      5  O   UNL A   1      30.841  25.573  24.248  1.00  0.00    -0.376 OA
BRANCH   5   6
ATOM      6  C   UNL A   1      30.590  26.825  24.848  1.00  0.00     0.202 C 
BRANCH   6   7
ATOM      7  C   UNL A   1      31.644  27.919  24.680  1.00  0.00     0.261 C 
BRANCH   7   8
ATOM      8  O   UNL A   1      32.598  27.980  25.759  1.00  0.00    -0.463 OA
BRANCH   8   9
ATOM      9  C   UNL A   1      32.321  28.859  26.752  1.00  0.00     0.310 C 
ATOM     10  O   UNL A   1      31.759  28.569  27.803  1.00  0.00    -0.252 OA
BRANCH   9  11
ATOM     11  C   UNL A   1      32.697  30.285  26.414  1.00  0.00     0.158 C 
BRANCH  11  12
ATOM     12  C   UNL A   1      33.709  31.033  27.279  1.00  0.00    -0.033 A 
ATOM     13  C   UNL A   1      32.220  33.102  27.296  1.00  0.00     0.045 C 
ATOM     14  C   UNL A   1      33.436  32.336  27.765  1.00  0.00    -0.039 A 
ATOM     15  C   UNL A   1      34.315  32.927  28.704  1.00  0.00    -0.015 A 
ATOM     16  C   UNL A   1      34.927  30.406  27.666  1.00  0.00     0.013 A 
ATOM     17  C   UNL A   1      35.568  32.338  28.930  1.00  0.00     0.017 A 
ATOM     18  C   UNL A   1      35.918  31.094  28.405  1.00  0.00    -0.017 A 
BRANCH  15  19
ATOM     19  C   UNL A   1      33.916  34.009  29.620  1.00  0.00    -0.018 A 
ATOM     20  C   UNL A   1      33.289  35.182  29.184  1.00  0.00     0.009 A 
ATOM     21  C   UNL A   1      34.351  33.948  30.955  1.00  0.00     0.009 A 
ATOM     22  C   UNL A   1      33.125  36.269  30.046  1.00  0.00     0.001 A 
ATOM     23  C   UNL A   1      34.182  35.025  31.821  1.00  0.00     0.001 A 
ATOM     24  C   UNL A   1      33.578  36.192  31.362  1.00  0.00     0.000 A 
ENDBRANCH  15  19
BRANCH  18  25
ATOM     25  C   UNL A   1      37.320  30.637  28.567  1.00  0.00    -0.018 A 
ATOM     26  C   UNL A   1      37.816  29.609  27.734  1.00  0.00     0.009 A 
ATOM     27  C   UNL A   1      38.204  31.175  29.505  1.00  0.00     0.009 A 
ATOM     28  C   UNL A   1      39.111  29.095  27.870  1.00  0.00     0.001 A 
ATOM     29  C   UNL A   1      39.517  30.684  29.622  1.00  0.00     0.001 A 
ATOM     30  C   UNL A   1      39.962  29.630  28.823  1.00  0.00     0.000 A 
ENDBRANCH  18  25
ENDBRANCH  11  12
ENDBRANCH   9  11
ENDBRANCH   8   9
ENDBRANCH   7   8
ENDBRANCH   6   7
ENDBRANCH   5   6
ENDBRANCH   4   5
ENDBRANCH   3   4
ENDBRANCH   2   3
ENDBRANCH   1   2
BRANCH   1  31
ATOM     31  C   UNL A   1      34.615  22.315  24.078  1.00  0.00     0.188 C 
BRANCH  31  32
ATOM     32  O   UNL A   1      35.416  22.640  25.205  1.00  0.00    -0.376 OA
BRANCH  32  33
ATOM     33  C   UNL A   1      36.701  23.116  24.863  1.00  0.00     0.202 C 
BRANCH  33  34
ATOM     34  C   UNL A   1      37.767  22.031  25.044  1.00  0.00     0.261 C 
BRANCH  34  35
ATOM     35  O   UNL A   1      38.272  22.095  26.401  1.00  0.00    -0.460 OA
BRANCH  35  36
ATOM     36  C   UNL A   1      39.595  21.817  26.575  1.00  0.00     0.338 C 
ATOM     37  O   UNL A   1      40.138  20.776  26.213  1.00  0.00    -0.246 OA
BRANCH  36  38
ATOM     38  C   UNL A   1      40.259  22.866  27.416  1.00  0.00     0.060 A 
ATOM     39  C   UNL A   1      40.099  24.239  27.133  1.00  0.00     0.016 A 
ATOM     40  C   UNL A   1      41.270  22.475  28.285  1.00  0.00     0.016 A 
ATOM     41  C   UNL A   1      41.050  25.190  27.582  1.00  0.00     0.010 A 
ATOM     42  C   UNL A   1      42.246  23.396  28.637  1.00  0.00     0.010 A 
ATOM     43  C   UNL A   1      42.188  24.760  28.264  1.00  0.00    -0.014 A 
BRANCH  43  44
ATOM     44  C   UNL A   1      43.469  25.513  28.445  1.00  0.00     0.031 A 
ATOM     45  C   UNL A   1      43.452  26.652  29.428  1.00  0.00     0.074 A 
ATOM     46  C   UNL A   1      44.675  24.973  28.080  1.00  0.00     0.049 A 
ATOM     47  N   UNL A   1      44.496  27.249  29.881  1.00  0.00    -0.248 NA
ATOM     48  C   UNL A   1      42.237  27.177  30.056  1.00  0.00     0.031 C 
ATOM     49  C   UNL A   1      45.998  25.233  28.683  1.00  0.00     0.029 A 
ATOM     50  N   UNL A   1      44.991  23.972  27.151  1.00  0.00    -0.354 N 
ATOM     51  C   UNL A   1      44.166  28.002  30.987  1.00  0.00     0.074 A 
ATOM     52  C   UNL A   1      42.730  27.937  31.042  1.00  0.00     0.031 C 
ATOM     53  C   UNL A   1      46.968  24.535  28.072  1.00  0.00     0.029 A 
ATOM     54  C   UNL A   1      46.379  24.028  26.860  1.00  0.00     0.049 A 
ATOM     55  H   UNL A   1      44.352  23.331  26.762  1.00  0.00     0.167 HD
ATOM     56  C   UNL A   1      45.182  28.512  31.745  1.00  0.00     0.034 A 
ATOM     57  C   UNL A   1      46.794  24.354  25.605  1.00  0.00     0.034 A 
ATOM     58  C   UNL A   1      46.468  28.420  31.016  1.00  0.00     0.049 A 
ATOM     59  C   UNL A   1      47.303  25.797  25.661  1.00  0.00     0.074 A 
ATOM     60  C   UNL A   1      47.737  27.936  31.281  1.00  0.00     0.029 A 
ATOM     61  N   UNL A   1      46.487  28.774  29.660  1.00  0.00    -0.354 N 
ATOM     62  N   UNL A   1      46.993  26.623  26.637  1.00  0.00    -0.248 NA
ATOM     63  C   UNL A   1      48.332  26.364  24.795  1.00  0.00     0.031 C 
ATOM     64  C   UNL A   1      48.421  27.800  30.028  1.00  0.00     0.029 A 
ATOM     65  C   UNL A   1      47.614  28.308  29.017  1.00  0.00     0.049 A 
ATOM     66  H   UNL A   1      45.778  29.296  29.218  1.00  0.00     0.167 HD
ATOM     67  C   UNL A   1      47.824  27.698  26.642  1.00  0.00     0.074 A 
ATOM     68  C   UNL A   1      48.601  27.529  25.420  1.00  0.00     0.031 C 
ATOM     69  C   UNL A   1      47.852  28.655  27.620  1.00  0.00     0.034 A 
BRANCH  56  70
ATOM     70  C   UNL A   1      45.074  29.017  33.184  1.00  0.00     0.023 A 
ATOM     71  C   UNL A   1      43.969  28.617  33.973  1.00  0.00     0.031 A 
ATOM     72  C   UNL A   1      45.928  29.953  33.814  1.00  0.00     0.131 A 
ATOM     73  C   UNL A   1      43.744  29.131  35.269  1.00  0.00     0.055 A 
ATOM     74  C   UNL A   1      45.736  30.419  35.127  1.00  0.00     0.041 A 
ATOM     75  F   UNL A   1      46.969  30.510  33.188  1.00  0.00    -0.206 F 
ATOM     76  C   UNL A   1      44.635  30.018  35.862  1.00  0.00     0.022 A 
BRANCH  73  77
ATOM     77  S   UNL A   1      42.238  28.653  36.167  1.00  0.00     0.124 S 
ATOM     78  O   UNL A   1      42.711  27.538  36.981  1.00  0.00    -0.237 OA
ATOM     79  O   UNL A   1      41.898  29.876  36.882  1.00  0.00    -0.237 OA
ATOM     80  O   UNL A   1      41.307  28.286  35.100  1.00  0.00    -0.744 OA
ENDBRANCH  73  77
ENDBRANCH  56  70
BRANCH  57  81
ATOM     81  C   UNL A   1      45.971  23.555  24.625  1.00  0.00     0.023 A 
ATOM     82  C   UNL A   1      46.370  22.187  24.487  1.00  0.00     0.031 A 
ATOM     83  C   UNL A   1      44.610  23.840  24.434  1.00  0.00     0.131 A 
ATOM     84  C   UNL A   1      45.407  21.159  24.423  1.00  0.00     0.055 A 
ATOM     85  C   UNL A   1      43.659  22.807  24.328  1.00  0.00     0.041 A 
ATOM     86  F   UNL A   1      44.154  25.095  24.551  1.00  0.00    -0.206 F 
ATOM     87  C   UNL A   1      44.048  21.467  24.388  1.00  0.00     0.022 A 
BRANCH  84  88
ATOM     88  S   UNL A   1      45.887  19.414  24.684  1.00  0.00     0.124 S 
ATOM     89  O   UNL A   1      46.637  19.487  25.933  1.00  0.00    -0.237 OA
ATOM     90  O   UNL A   1      44.609  18.718  24.757  1.00  0.00    -0.237 OA
ATOM     91  O   UNL A   1      46.672  19.092  23.492  1.00  0.00    -0.744 OA
ENDBRANCH  84  88
ENDBRANCH  57  81
BRANCH  69  92
ATOM     92  C   UNL A   1      48.121  30.093  27.283  1.00  0.00     0.023 A 
ATOM     93  C   UNL A   1      47.061  30.980  27.087  1.00  0.00     0.031 A 
ATOM     94  C   UNL A   1      49.415  30.660  27.307  1.00  0.00     0.131 A 
ATOM     95  C   UNL A   1      47.291  32.317  26.774  1.00  0.00     0.055 A 
ATOM     96  C   UNL A   1      49.636  32.026  27.120  1.00  0.00     0.041 A 
ATOM     97  F   UNL A   1      50.513  29.925  27.538  1.00  0.00    -0.206 F 
ATOM     98  C   UNL A   1      48.569  32.862  26.817  1.00  0.00     0.022 A 
BRANCH  95  99
ATOM     99  S   UNL A   1      45.875  33.254  26.169  1.00  0.00     0.124 S 
ATOM    100  O   UNL A   1      45.120  32.219  25.465  1.00  0.00    -0.237 OA
ATOM    101  O   UNL A   1      45.270  33.747  27.402  1.00  0.00    -0.237 OA
ATOM    102  O   UNL A   1      46.479  34.273  25.316  1.00  0.00    -0.744 OA
ENDBRANCH  95  99
ENDBRANCH  69  92
ENDBRANCH  43  44
ENDBRANCH  36  38
ENDBRANCH  35  36
ENDBRANCH  34  35
ENDBRANCH  33  34
ENDBRANCH  32  33
ENDBRANCH  31  32
ENDBRANCH   1  31
TORSDOF 26
ENDMDL
MODEL 2
REMARK VINA RESULT:     -10.1      0.761      2.838
REMARK SMILES Cc1c(CC(=O)OCCOCCOCCOCCOC(=O)c2ccc(-c3c4nc(c(-c5cc(S(=O)(=O)[O-])ccc5F)c5ccc([nH]5)c(-c5cc(S(=O)(=O)[O-])ccc5F)c5nc(c(-c6cc(S(=O)(=O)[O-])ccc6F)c6ccc3[nH]6)C=C5)C=C4)cc2)cc(-c2ccccc2)cc1-c1ccccc1
REMARK SMILES IDX 14 1 13 2 12 3 11 4 10 5 9 6 8 7 7 8 5 9 6 10 4 11 3 12 1 13
REMARK SMILES IDX 2 14 94 15 85 16 93 17 86 18 95 19 96 20 100 21 97 22 99 23
REMARK SMILES IDX 98 24 87 25 88 26 92 27 89 28 91 29 90 30 15 31 16 32 17 33
REMARK SMILES IDX 18 34 19 35 20 36 21 37 22 38 23 39 84 40 24 41 83 42 25 43
REMARK SMILES IDX 26 44 27 45 77 46 28 47 82 48 76 49 78 50 29 51 81 52 75 53
REMARK SMILES IDX 74 54 30 56 62 57 42 58 61 59 43 60 46 61 60 62 79 63 44 64
REMARK SMILES IDX 45 65 59 67 80 68 47 69 31 70 32 71 40 72 33 73 39 74 41 75
REMARK SMILES IDX 38 76 34 77 35 78 36 79 37 80 63 81 64 82 72 83 65 84 71 85
REMARK SMILES IDX 73 86 70 87 66 88 67 89 68 90 69 91 48 92 49 93 57 94 50 95
REMARK SMILES IDX 56 96 58 97 55 98 51 99 52 100 53 101 54 102
REMARK H PARENT 78 55 46 66
REMARK Flexibility Score: inf
ROOT
ATOM      1  C   UNL A   1      34.391  23.744  23.326  1.00  0.00     0.188 C 
ENDROOT
BRANCH   1   2
ATOM      2  O   UNL A   1      33.406  24.617  23.806  1.00  0.00    -0.377 OA
BRANCH   2   3
ATOM      3  C   UNL A   1      32.061  24.226  23.838  1.00  0.00     0.188 C 
BRANCH   3   4
ATOM      4  C   UNL A   1      30.924  24.808  24.703  1.00  0.00     0.188 C 
BRANCH   4   5
ATOM      5  O   UNL A   1      31.090  25.236  26.041  1.00  0.00    -0.376 OA
BRANCH   5   6
ATOM      6  C   UNL A   1      31.049  26.628  26.267  1.00  0.00     0.202 C 
BRANCH   6   7
ATOM      7  C   UNL A   1      32.260  27.455  25.839  1.00  0.00     0.261 C 
BRANCH   7   8
ATOM      8  O   UNL A   1      33.110  27.853  26.933  1.00  0.00    -0.463 OA
BRANCH   8   9
ATOM      9  C   UNL A   1      33.261  29.187  27.118  1.00  0.00     0.310 C 
ATOM     10  O   UNL A   1      32.342  29.968  27.343  1.00  0.00    -0.252 OA
BRANCH   9  11
ATOM     11  C   UNL A   1      34.685  29.662  26.935  1.00  0.00     0.158 C 
BRANCH  11  12
ATOM     12  C   UNL A   1      35.273  30.697  27.893  1.00  0.00    -0.033 A 
ATOM     13  C   UNL A   1      37.133  29.082  28.552  1.00  0.00     0.045 C 
ATOM     14  C   UNL A   1      36.482  30.445  28.590  1.00  0.00    -0.039 A 
ATOM     15  C   UNL A   1      37.088  31.489  29.329  1.00  0.00    -0.015 A 
ATOM     16  C   UNL A   1      34.646  31.963  28.058  1.00  0.00     0.013 A 
ATOM     17  C   UNL A   1      36.357  32.659  29.585  1.00  0.00     0.017 A 
ATOM     18  C   UNL A   1      35.122  32.916  28.989  1.00  0.00    -0.017 A 
BRANCH  15  19
ATOM     19  C   UNL A   1      38.520  31.515  29.674  1.00  0.00    -0.018 A 
ATOM     20  C   UNL A   1      39.423  30.535  29.244  1.00  0.00     0.009 A 
ATOM     21  C   UNL A   1      38.961  32.451  30.624  1.00  0.00     0.009 A 
ATOM     22  C   UNL A   1      40.717  30.476  29.767  1.00  0.00     0.001 A 
ATOM     23  C   UNL A   1      40.253  32.402  31.143  1.00  0.00     0.001 A 
ATOM     24  C   UNL A   1      41.129  31.406  30.721  1.00  0.00     0.000 A 
ENDBRANCH  15  19
BRANCH  18  25
ATOM     25  C   UNL A   1      34.357  34.101  29.451  1.00  0.00    -0.018 A 
ATOM     26  C   UNL A   1      34.326  34.415  30.828  1.00  0.00     0.009 A 
ATOM     27  C   UNL A   1      33.657  34.951  28.591  1.00  0.00     0.009 A 
ATOM     28  C   UNL A   1      33.582  35.486  31.335  1.00  0.00     0.001 A 
ATOM     29  C   UNL A   1      32.935  36.048  29.093  1.00  0.00     0.001 A 
ATOM     30  C   UNL A   1      32.878  36.302  30.464  1.00  0.00     0.000 A 
ENDBRANCH  18  25
ENDBRANCH  11  12
ENDBRANCH   9  11
ENDBRANCH   8   9
ENDBRANCH   7   8
ENDBRANCH   6   7
ENDBRANCH   5   6
ENDBRANCH   4   5
ENDBRANCH   3   4
ENDBRANCH   2   3
ENDBRANCH   1   2
BRANCH   1  31
ATOM     31  C   UNL A   1      34.503  22.351  23.827  1.00  0.00     0.188 C 
BRANCH  31  32
ATOM     32  O   UNL A   1      35.168  22.416  25.081  1.00  0.00    -0.376 OA
BRANCH  32  33
ATOM     33  C   UNL A   1      36.391  23.121  25.034  1.00  0.00     0.202 C 
BRANCH  33  34
ATOM     34  C   UNL A   1      37.588  22.165  25.014  1.00  0.00     0.261 C 
BRANCH  34  35
ATOM     35  O   UNL A   1      38.148  22.090  26.349  1.00  0.00    -0.460 OA
BRANCH  35  36
ATOM     36  C   UNL A   1      39.485  21.840  26.438  1.00  0.00     0.338 C 
ATOM     37  O   UNL A   1      40.038  20.850  25.964  1.00  0.00    -0.246 OA
BRANCH  36  38
ATOM     38  C   UNL A   1      40.160  22.836  27.333  1.00  0.00     0.060 A 
ATOM     39  C   UNL A   1      39.994  24.223  27.140  1.00  0.00     0.016 A 
ATOM     40  C   UNL A   1      41.186  22.394  28.160  1.00  0.00     0.016 A 
ATOM     41  C   UNL A   1      40.949  25.147  27.633  1.00  0.00     0.010 A 
ATOM     42  C   UNL A   1      42.165  23.293  28.554  1.00  0.00     0.010 A 
ATOM     43  C   UNL A   1      42.099  24.679  28.269  1.00  0.00    -0.014 A 
BRANCH  43  44
ATOM     44  C   UNL A   1      43.381  25.422  28.477  1.00  0.00     0.031 A 
ATOM     45  C   UNL A   1      43.351  26.560  29.461  1.00  0.00     0.074 A 
ATOM     46  C   UNL A   1      44.591  24.875  28.135  1.00  0.00     0.049 A 
ATOM     47  N   UNL A   1      44.390  27.149  29.936  1.00  0.00    -0.248 NA
ATOM     48  C   UNL A   1      42.127  27.092  30.065  1.00  0.00     0.031 C 
ATOM     49  C   UNL A   1      45.902  25.124  28.766  1.00  0.00     0.029 A 
ATOM     50  N   UNL A   1      44.918  23.872  27.212  1.00  0.00    -0.354 N 
ATOM     51  C   UNL A   1      44.043  27.902  31.037  1.00  0.00     0.074 A 
ATOM     52  C   UNL A   1      42.606  27.847  31.062  1.00  0.00     0.031 C 
ATOM     53  C   UNL A   1      46.880  24.420  28.173  1.00  0.00     0.029 A 
ATOM     54  C   UNL A   1      46.312  23.919  26.949  1.00  0.00     0.049 A 
ATOM     55  H   UNL A   1      44.283  23.237  26.809  1.00  0.00     0.167 HD
ATOM     56  C   UNL A   1      45.047  28.404  31.816  1.00  0.00     0.034 A 
ATOM     57  C   UNL A   1      46.754  24.245  25.703  1.00  0.00     0.034 A 
ATOM     58  C   UNL A   1      46.347  28.304  31.113  1.00  0.00     0.049 A 
ATOM     59  C   UNL A   1      47.273  25.683  25.772  1.00  0.00     0.074 A 
ATOM     60  C   UNL A   1      47.607  27.812  31.403  1.00  0.00     0.029 A 
ATOM     61  N   UNL A   1      46.396  28.660  29.758  1.00  0.00    -0.354 N 
ATOM     62  N   UNL A   1      46.949  26.511  26.743  1.00  0.00    -0.248 NA
ATOM     63  C   UNL A   1      48.323  26.245  24.928  1.00  0.00     0.031 C 
ATOM     64  C   UNL A   1      48.315  27.672  30.164  1.00  0.00     0.029 A 
ATOM     65  C   UNL A   1      47.533  28.187  29.138  1.00  0.00     0.049 A 
ATOM     66  H   UNL A   1      45.700  29.188  29.303  1.00  0.00     0.167 HD
ATOM     67  C   UNL A   1      47.786  27.580  26.766  1.00  0.00     0.074 A 
ATOM     68  C   UNL A   1      48.587  27.407  25.560  1.00  0.00     0.031 C 
ATOM     69  C   UNL A   1      47.801  28.535  27.747  1.00  0.00     0.034 A 
BRANCH  56  70
ATOM     70  C   UNL A   1      44.913  28.908  33.253  1.00  0.00     0.023 A 
ATOM     71  C   UNL A   1      43.637  28.908  33.867  1.00  0.00     0.031 A 
ATOM     72  C   UNL A   1      45.935  29.489  34.040  1.00  0.00     0.131 A 
ATOM     73  C   UNL A   1      43.418  29.461  35.148  1.00  0.00     0.055 A 
ATOM     74  C   UNL A   1      45.729  29.986  35.340  1.00  0.00     0.041 A 
ATOM     75  F   UNL A   1      47.182  29.657  33.588  1.00  0.00    -0.206 F 
ATOM     76  C   UNL A   1      44.463  29.984  35.900  1.00  0.00     0.022 A 
BRANCH  73  77
ATOM     77  S   UNL A   1      41.728  29.526  35.812  1.00  0.00     0.124 S 
ATOM     78  O   UNL A   1      41.432  28.113  36.026  1.00  0.00    -0.237 OA
ATOM     79  O   UNL A   1      41.892  30.341  37.009  1.00  0.00    -0.237 OA
ATOM     80  O   UNL A   1      40.964  30.160  34.737  1.00  0.00    -0.744 OA
ENDBRANCH  73  77
ENDBRANCH  56  70
BRANCH  57  81
ATOM     81  C   UNL A   1      45.947  23.453  24.706  1.00  0.00     0.023 A 
ATOM     82  C   UNL A   1      46.320  22.075  24.594  1.00  0.00     0.031 A 
ATOM     83  C   UNL A   1      44.598  23.765  24.468  1.00  0.00     0.131 A 
ATOM     84  C   UNL A   1      45.337  21.067  24.510  1.00  0.00     0.055 A 
ATOM     85  C   UNL A   1      43.630  22.751  24.342  1.00  0.00     0.041 A 
ATOM     86  F   UNL A   1      44.167  25.031  24.557  1.00  0.00    -0.206 F 
ATOM     87  C   UNL A   1      43.987  21.404  24.428  1.00  0.00     0.022 A 
BRANCH  84  88
ATOM     88  S   UNL A   1      45.770  19.316  24.804  1.00  0.00     0.124 S 
ATOM     89  O   UNL A   1      44.684  18.874  25.673  1.00  0.00    -0.237 OA
ATOM     90  O   UNL A   1      45.780  18.738  23.467  1.00  0.00    -0.237 OA
ATOM     91  O   UNL A   1      47.090  19.389  25.431  1.00  0.00    -0.744 OA
ENDBRANCH  84  88
ENDBRANCH  57  81
BRANCH  69  92
ATOM     92  C   UNL A   1      48.087  29.972  27.417  1.00  0.00     0.023 A 
ATOM     93  C   UNL A   1      47.038  30.864  27.193  1.00  0.00     0.031 A 
ATOM     94  C   UNL A   1      49.383  30.532  27.477  1.00  0.00     0.131 A 
ATOM     95  C   UNL A   1      47.283  32.200  26.887  1.00  0.00     0.055 A 
ATOM     96  C   UNL A   1      49.616  31.896  27.296  1.00  0.00     0.041 A 
ATOM     97  F   UNL A   1      50.470  29.791  27.737  1.00  0.00    -0.206 F 
ATOM     98  C   UNL A   1      48.562  32.738  26.965  1.00  0.00     0.022 A 
BRANCH  95  99
ATOM     99  S   UNL A   1      45.888  33.144  26.244  1.00  0.00     0.124 S 
ATOM    100  O   UNL A   1      45.115  32.102  25.573  1.00  0.00    -0.237 OA
ATOM    101  O   UNL A   1      45.290  33.692  27.456  1.00  0.00    -0.237 OA
ATOM    102  O   UNL A   1      46.517  34.120  25.358  1.00  0.00    -0.744 OA
ENDBRANCH  95  99
ENDBRANCH  69  92
ENDBRANCH  43  44
ENDBRANCH  36  38
ENDBRANCH  35  36
ENDBRANCH  34  35
ENDBRANCH  33  34
ENDBRANCH  32  33
ENDBRANCH  31  32
ENDBRANCH   1  31
TORSDOF 26
ENDMDL
MODEL 3
REMARK VINA RESULT:      -9.4      3.490      8.225
REMARK SMILES Cc1c(CC(=O)OCCOCCOCCOCCOC(=O)c2ccc(-c3c4nc(c(-c5cc(S(=O)(=O)[O-])ccc5F)c5ccc([nH]5)c(-c5cc(S(=O)(=O)[O-])ccc5F)c5nc(c(-c6cc(S(=O)(=O)[O-])ccc6F)c6ccc3[nH]6)C=C5)C=C4)cc2)cc(-c2ccccc2)cc1-c1ccccc1
REMARK SMILES IDX 14 1 13 2 12 3 11 4 10 5 9 6 8 7 7 8 5 9 6 10 4 11 3 12 1 13
REMARK SMILES IDX 2 14 94 15 85 16 93 17 86 18 95 19 96 20 100 21 97 22 99 23
REMARK SMILES IDX 98 24 87 25 88 26 92 27 89 28 91 29 90 30 15 31 16 32 17 33
REMARK SMILES IDX 18 34 19 35 20 36 21 37 22 38 23 39 84 40 24 41 83 42 25 43
REMARK SMILES IDX 26 44 27 45 77 46 28 47 82 48 76 49 78 50 29 51 81 52 75 53
REMARK SMILES IDX 74 54 30 56 62 57 42 58 61 59 43 60 46 61 60 62 79 63 44 64
REMARK SMILES IDX 45 65 59 67 80 68 47 69 31 70 32 71 40 72 33 73 39 74 41 75
REMARK SMILES IDX 38 76 34 77 35 78 36 79 37 80 63 81 64 82 72 83 65 84 71 85
REMARK SMILES IDX 73 86 70 87 66 88 67 89 68 90 69 91 48 92 49 93 57 94 50 95
REMARK SMILES IDX 56 96 58 97 55 98 51 99 52 100 53 101 54 102
REMARK H PARENT 78 55 46 66
REMARK Flexibility Score: inf
ROOT
ATOM      1  C   UNL A   1      34.292  25.074  23.895  1.00  0.00     0.188 C 
ENDROOT
BRANCH   1   2
ATOM      2  O   UNL A   1      33.156  25.823  24.223  1.00  0.00    -0.377 OA
BRANCH   2   3
ATOM      3  C   UNL A   1      32.904  26.196  25.550  1.00  0.00     0.188 C 
BRANCH   3   4
ATOM      4  C   UNL A   1      31.565  26.637  26.175  1.00  0.00     0.188 C 
BRANCH   4   5
ATOM      5  O   UNL A   1      30.787  27.715  25.694  1.00  0.00    -0.376 OA
BRANCH   5   6
ATOM      6  C   UNL A   1      31.423  28.603  24.800  1.00  0.00     0.202 C 
BRANCH   6   7
ATOM      7  C   UNL A   1      31.844  29.971  25.334  1.00  0.00     0.261 C 
BRANCH   7   8
ATOM      8  O   UNL A   1      31.958  30.027  26.769  1.00  0.00    -0.463 OA
BRANCH   8   9
ATOM      9  C   UNL A   1      33.189  29.782  27.281  1.00  0.00     0.310 C 
ATOM     10  O   UNL A   1      33.512  28.745  27.852  1.00  0.00    -0.252 OA
BRANCH   9  11
ATOM     11  C   UNL A   1      34.134  30.956  27.162  1.00  0.00     0.158 C 
BRANCH  11  12
ATOM     12  C   UNL A   1      34.792  31.537  28.412  1.00  0.00    -0.033 A 
ATOM     13  C   UNL A   1      36.295  29.489  28.617  1.00  0.00     0.045 C 
ATOM     14  C   UNL A   1      35.874  30.876  29.045  1.00  0.00    -0.039 A 
ATOM     15  C   UNL A   1      36.570  31.527  30.091  1.00  0.00    -0.015 A 
ATOM     16  C   UNL A   1      34.365  32.792  28.932  1.00  0.00     0.013 A 
ATOM     17  C   UNL A   1      36.018  32.682  30.663  1.00  0.00     0.017 A 
ATOM     18  C   UNL A   1      34.902  33.324  30.128  1.00  0.00    -0.017 A 
BRANCH  15  19
ATOM     19  C   UNL A   1      37.949  31.188  30.483  1.00  0.00    -0.018 A 
ATOM     20  C   UNL A   1      39.073  31.662  29.795  1.00  0.00     0.009 A 
ATOM     21  C   UNL A   1      38.141  30.201  31.465  1.00  0.00     0.009 A 
ATOM     22  C   UNL A   1      40.344  31.147  30.062  1.00  0.00     0.001 A 
ATOM     23  C   UNL A   1      39.407  29.692  31.741  1.00  0.00     0.001 A 
ATOM     24  C   UNL A   1      40.509  30.158  31.030  1.00  0.00     0.000 A 
ENDBRANCH  15  19
BRANCH  18  25
ATOM     25  C   UNL A   1      34.300  34.440  30.899  1.00  0.00    -0.018 A 
ATOM     26  C   UNL A   1      33.248  35.191  30.329  1.00  0.00     0.009 A 
ATOM     27  C   UNL A   1      34.710  34.798  32.185  1.00  0.00     0.009 A 
ATOM     28  C   UNL A   1      32.673  36.289  30.980  1.00  0.00     0.001 A 
ATOM     29  C   UNL A   1      34.112  35.880  32.857  1.00  0.00     0.001 A 
ATOM     30  C   UNL A   1      33.112  36.638  32.247  1.00  0.00     0.000 A 
ENDBRANCH  18  25
ENDBRANCH  11  12
ENDBRANCH   9  11
ENDBRANCH   8   9
ENDBRANCH   7   8
ENDBRANCH   6   7
ENDBRANCH   5   6
ENDBRANCH   4   5
ENDBRANCH   3   4
ENDBRANCH   2   3
ENDBRANCH   1   2
BRANCH   1  31
ATOM     31  C   UNL A   1      34.836  24.046  24.819  1.00  0.00     0.188 C 
BRANCH  31  32
ATOM     32  O   UNL A   1      35.998  24.603  25.418  1.00  0.00    -0.376 OA
BRANCH  32  33
ATOM     33  C   UNL A   1      37.073  23.692  25.514  1.00  0.00     0.202 C 
BRANCH  33  34
ATOM     34  C   UNL A   1      37.952  23.988  26.734  1.00  0.00     0.261 C 
BRANCH  34  35
ATOM     35  O   UNL A   1      39.185  24.603  26.283  1.00  0.00    -0.460 OA
BRANCH  35  36
ATOM     36  C   UNL A   1      39.838  25.393  27.181  1.00  0.00     0.338 C 
ATOM     37  O   UNL A   1      39.303  26.284  27.837  1.00  0.00    -0.246 OA
BRANCH  36  38
ATOM     38  C   UNL A   1      41.317  25.150  27.136  1.00  0.00     0.060 A 
ATOM     39  C   UNL A   1      41.932  24.219  27.999  1.00  0.00     0.016 A 
ATOM     40  C   UNL A   1      42.116  26.059  26.454  1.00  0.00     0.016 A 
ATOM     41  C   UNL A   1      43.312  24.312  28.305  1.00  0.00     0.010 A 
ATOM     42  C   UNL A   1      43.442  26.203  26.832  1.00  0.00     0.010 A 
ATOM     43  C   UNL A   1      44.065  25.368  27.792  1.00  0.00    -0.014 A 
BRANCH  43  44
ATOM     44  C   UNL A   1      45.375  25.876  28.306  1.00  0.00     0.031 A 
ATOM     45  C   UNL A   1      46.594  25.558  27.483  1.00  0.00     0.074 A 
ATOM     46  C   UNL A   1      45.441  26.899  29.216  1.00  0.00     0.049 A 
ATOM     47  N   UNL A   1      47.749  26.100  27.637  1.00  0.00    -0.248 NA
ATOM     48  C   UNL A   1      46.598  24.639  26.341  1.00  0.00     0.031 C 
ATOM     49  C   UNL A   1      46.517  27.897  29.373  1.00  0.00     0.029 A 
ATOM     50  N   UNL A   1      44.501  27.363  30.147  1.00  0.00    -0.354 N 
ATOM     51  C   UNL A   1      48.541  25.846  26.539  1.00  0.00     0.074 A 
ATOM     52  C   UNL A   1      47.776  24.907  25.763  1.00  0.00     0.031 C 
ATOM     53  C   UNL A   1      46.257  28.757  30.371  1.00  0.00     0.029 A 
ATOM     54  C   UNL A   1      45.158  28.182  31.102  1.00  0.00     0.049 A 
ATOM     55  H   UNL A   1      43.539  27.154  30.141  1.00  0.00     0.167 HD
ATOM     56  C   UNL A   1      49.711  26.540  26.414  1.00  0.00     0.034 A 
ATOM     57  C   UNL A   1      45.221  27.786  32.404  1.00  0.00     0.034 A 
ATOM     58  C   UNL A   1      50.055  27.207  27.691  1.00  0.00     0.049 A 
ATOM     59  C   UNL A   1      46.648  27.291  32.654  1.00  0.00     0.074 A 
ATOM     60  C   UNL A   1      50.403  28.485  28.091  1.00  0.00     0.029 A 
ATOM     61  N   UNL A   1      49.906  26.480  28.880  1.00  0.00    -0.354 N 
ATOM     62  N   UNL A   1      47.466  26.956  31.680  1.00  0.00    -0.248 NA
ATOM     63  C   UNL A   1      47.342  27.328  33.938  1.00  0.00     0.031 C 
ATOM     64  C   UNL A   1      50.235  28.557  29.514  1.00  0.00     0.029 A 
ATOM     65  C   UNL A   1      49.899  27.296  29.991  1.00  0.00     0.049 A 
ATOM     66  H   UNL A   1      49.817  25.500  28.917  1.00  0.00     0.167 HD
ATOM     67  C   UNL A   1      48.747  26.887  32.127  1.00  0.00     0.074 A 
ATOM     68  C   UNL A   1      48.611  27.055  33.569  1.00  0.00     0.031 C 
ATOM     69  C   UNL A   1      49.842  26.709  31.325  1.00  0.00     0.034 A 
BRANCH  56  70
ATOM     70  C   UNL A   1      50.527  26.719  25.133  1.00  0.00     0.023 A 
ATOM     71  C   UNL A   1      49.888  27.222  23.975  1.00  0.00     0.031 A 
ATOM     72  C   UNL A   1      51.873  26.332  24.932  1.00  0.00     0.131 A 
ATOM     73  C   UNL A   1      50.548  27.308  22.729  1.00  0.00     0.055 A 
ATOM     74  C   UNL A   1      52.548  26.474  23.706  1.00  0.00     0.041 A 
ATOM     75  F   UNL A   1      52.605  25.752  25.889  1.00  0.00    -0.206 F 
ATOM     76  C   UNL A   1      51.885  26.955  22.591  1.00  0.00     0.022 A 
BRANCH  73  77
ATOM     77  S   UNL A   1      49.620  27.856  21.267  1.00  0.00     0.124 S 
ATOM     78  O   UNL A   1      50.585  28.728  20.603  1.00  0.00    -0.237 OA
ATOM     79  O   UNL A   1      49.318  26.598  20.596  1.00  0.00    -0.237 OA
ATOM     80  O   UNL A   1      48.460  28.542  21.837  1.00  0.00    -0.744 OA
ENDBRANCH  73  77
ENDBRANCH  56  70
BRANCH  57  81
ATOM     81  C   UNL A   1      43.847  27.315  32.809  1.00  0.00     0.023 A 
ATOM     82  C   UNL A   1      43.803  25.986  33.341  1.00  0.00     0.031 A 
ATOM     83  C   UNL A   1      42.894  28.224  33.296  1.00  0.00     0.131 A 
ATOM     84  C   UNL A   1      43.020  25.690  34.476  1.00  0.00     0.055 A 
ATOM     85  C   UNL A   1      42.085  27.905  34.403  1.00  0.00     0.041 A 
ATOM     86  F   UNL A   1      42.870  29.489  32.853  1.00  0.00    -0.206 F 
ATOM     87  C   UNL A   1      42.193  26.663  35.035  1.00  0.00     0.022 A 
BRANCH  84  88
ATOM     88  S   UNL A   1      43.285  24.145  35.415  1.00  0.00     0.124 S 
ATOM     89  O   UNL A   1      43.887  24.636  36.650  1.00  0.00    -0.237 OA
ATOM     90  O   UNL A   1      41.944  23.592  35.546  1.00  0.00    -0.237 OA
ATOM     91  O   UNL A   1      44.168  23.364  34.548  1.00  0.00    -0.744 OA
ENDBRANCH  84  88
ENDBRANCH  57  81
BRANCH  69  92
ATOM     92  C   UNL A   1      51.015  25.897  31.793  1.00  0.00     0.023 A 
ATOM     93  C   UNL A   1      50.867  24.534  32.056  1.00  0.00     0.031 A 
ATOM     94  C   UNL A   1      52.334  26.403  31.836  1.00  0.00     0.131 A 
ATOM     95  C   UNL A   1      51.943  23.764  32.490  1.00  0.00     0.055 A 
ATOM     96  C   UNL A   1      53.432  25.599  32.147  1.00  0.00     0.041 A 
ATOM     97  F   UNL A   1      52.617  27.683  31.553  1.00  0.00    -0.206 F 
ATOM     98  C   UNL A   1      53.236  24.274  32.511  1.00  0.00     0.022 A 
BRANCH  95  99
ATOM     99  S   UNL A   1      51.547  22.138  33.160  1.00  0.00     0.124 S 
ATOM    100  O   UNL A   1      50.094  22.221  33.287  1.00  0.00    -0.237 OA
ATOM    101  O   UNL A   1      52.040  21.239  32.122  1.00  0.00    -0.237 OA
ATOM    102  O   UNL A   1      52.281  22.102  34.422  1.00  0.00    -0.744 OA
ENDBRANCH  95  99
ENDBRANCH  69  92
ENDBRANCH  43  44
ENDBRANCH  36  38
ENDBRANCH  35  36
ENDBRANCH  34  35
ENDBRANCH  33  34
ENDBRANCH  32  33
ENDBRANCH  31  32
ENDBRANCH   1  31
TORSDOF 26
ENDMDL
