MODEL 1
REMARK VINA RESULT:      -9.7      0.000      0.000
REMARK SMILES CC1=C(C)C[C@@H](C(=O)OCCOCCOCCOCCOC(=O)c2ccc(-c3c4nc(c(-c5cc(S(=O)(=O)[O-])ccc5F)c5ccc([nH]5)c(-c5cc(S(=O)(=O)[O-])ccc5F)c5nc(c(-c6cc(S(=O)(=O)[O-])ccc6F)c6ccc3[nH]6)C=C5)C=C4)cc2)[C@@H](C(=O)N2CCN(c3cccc(C(F)(F)F)c3)CC2)C1
REMARK SMILES IDX 15 1 14 2 13 3 12 4 11 5 10 6 9 7 7 8 8 9 6 10 1 11 2 12
REMARK SMILES IDX 3 13 106 14 4 15 5 16 87 17 88 18 89 19 90 20 91 21 105 22
REMARK SMILES IDX 92 23 104 24 93 25 94 26 95 27 103 28 96 29 98 30 97 31
REMARK SMILES IDX 99 32 100 33 101 34 102 35 16 36 17 37 18 38 19 39 20 40
REMARK SMILES IDX 21 41 22 42 23 43 24 44 25 45 86 46 26 47 85 48 27 49 28 50
REMARK SMILES IDX 29 51 79 52 30 53 84 54 78 55 80 56 31 57 83 58 77 59 76 60
REMARK SMILES IDX 32 62 64 63 44 64 63 65 45 66 48 67 62 68 81 69 46 70 47 71
REMARK SMILES IDX 61 73 82 74 49 75 33 76 34 77 42 78 35 79 41 80 43 81 40 82
REMARK SMILES IDX 36 83 37 84 38 85 39 86 65 87 66 88 74 89 67 90 73 91 75 92
REMARK SMILES IDX 72 93 68 94 69 95 70 96 71 97 50 98 51 99 59 100 52 101
REMARK SMILES IDX 58 102 60 103 57 104 53 105 54 106 55 107 56 108
REMARK H PARENT 80 61 48 72
REMARK Flexibility Score: inf
ROOT
ATOM      1  O   UNL A   1      38.053  30.098  28.288  1.00  0.00    -0.377 OA
ENDROOT
BRANCH   1   2
ATOM      2  C   UNL A   1      37.060  30.106  27.285  1.00  0.00     0.188 C 
BRANCH   2   3
ATOM      3  C   UNL A   1      35.695  29.597  27.743  1.00  0.00     0.188 C 
BRANCH   3   4
ATOM      4  O   UNL A   1      34.720  30.546  28.134  1.00  0.00    -0.376 OA
BRANCH   4   5
ATOM      5  C   UNL A   1      33.464  30.552  27.463  1.00  0.00     0.202 C 
BRANCH   5   6
ATOM      6  C   UNL A   1      32.852  29.232  26.945  1.00  0.00     0.261 C 
BRANCH   6   7
ATOM      7  O   UNL A   1      32.821  29.036  25.503  1.00  0.00    -0.463 OA
BRANCH   7   8
ATOM      8  C   UNL A   1      31.679  29.413  24.902  1.00  0.00     0.310 C 
ATOM      9  O   UNL A   1      31.043  30.412  25.256  1.00  0.00    -0.252 OA
BRANCH   8  10
ATOM     10  C   UNL A   1      31.133  28.596  23.730  1.00  0.00     0.116 C 
ATOM     11  C   UNL A   1      26.768  28.153  23.553  1.00  0.00     0.039 C 
ATOM     12  C   UNL A   1      28.237  28.372  23.310  1.00  0.00    -0.074 C 
ATOM     13  C   UNL A   1      28.841  29.561  23.128  1.00  0.00    -0.073 C 
ATOM     14  C   UNL A   1      29.043  27.103  23.210  1.00  0.00     0.045 C 
ATOM     15  C   UNL A   1      28.156  30.898  23.091  1.00  0.00     0.039 C 
ATOM     16  C   UNL A   1      30.324  29.596  22.869  1.00  0.00     0.046 C 
ATOM     17  C   UNL A   1      30.528  27.173  23.669  1.00  0.00     0.097 C 
BRANCH  17  18
ATOM     18  C   UNL A   1      30.611  26.171  24.822  1.00  0.00     0.227 C 
ATOM     19  O   UNL A   1      29.834  26.242  25.775  1.00  0.00    -0.275 OA
ATOM     20  N   UNL A   1      31.348  24.992  24.552  1.00  0.00    -0.339 N 
ATOM     21  C   UNL A   1      30.958  23.788  25.304  1.00  0.00     0.141 C 
ATOM     22  C   UNL A   1      32.750  25.035  24.097  1.00  0.00     0.141 C 
ATOM     23  C   UNL A   1      31.543  22.466  24.765  1.00  0.00     0.138 C 
ATOM     24  C   UNL A   1      33.325  23.697  23.582  1.00  0.00     0.138 C 
ATOM     25  N   UNL A   1      32.983  22.611  24.503  1.00  0.00    -0.368 N 
BRANCH  25  26
ATOM     26  C   UNL A   1      33.854  21.566  24.745  1.00  0.00     0.037 A 
ATOM     27  C   UNL A   1      35.222  21.767  24.967  1.00  0.00     0.026 A 
ATOM     28  C   UNL A   1      33.408  20.240  24.644  1.00  0.00     0.039 A 
ATOM     29  C   UNL A   1      36.116  20.693  25.031  1.00  0.00     0.003 A 
ATOM     30  C   UNL A   1      34.304  19.154  24.601  1.00  0.00     0.058 A 
ATOM     31  C   UNL A   1      35.665  19.393  24.822  1.00  0.00     0.013 A 
BRANCH  30  32
ATOM     32  C   UNL A   1      33.832  17.765  24.247  1.00  0.00     0.416 C 
ATOM     33  F   UNL A   1      34.654  17.148  23.352  1.00  0.00    -0.166 F 
ATOM     34  F   UNL A   1      33.772  16.938  25.327  1.00  0.00    -0.166 F 
ATOM     35  F   UNL A   1      32.591  17.741  23.686  1.00  0.00    -0.166 F 
ENDBRANCH  30  32
ENDBRANCH  25  26
ENDBRANCH  17  18
ENDBRANCH   8  10
ENDBRANCH   7   8
ENDBRANCH   6   7
ENDBRANCH   5   6
ENDBRANCH   4   5
ENDBRANCH   3   4
ENDBRANCH   2   3
ENDBRANCH   1   2
BRANCH   1  36
ATOM     36  C   UNL A   1      38.075  31.079  29.329  1.00  0.00     0.188 C 
BRANCH  36  37
ATOM     37  C   UNL A   1      37.792  32.543  28.980  1.00  0.00     0.188 C 
BRANCH  37  38
ATOM     38  O   UNL A   1      36.425  32.950  28.885  1.00  0.00    -0.376 OA
BRANCH  38  39
ATOM     39  C   UNL A   1      35.835  33.583  30.015  1.00  0.00     0.202 C 
BRANCH  39  40
ATOM     40  C   UNL A   1      35.001  32.669  30.903  1.00  0.00     0.261 C 
BRANCH  40  41
ATOM     41  O   UNL A   1      35.841  31.804  31.672  1.00  0.00    -0.460 OA
BRANCH  41  42
ATOM     42  C   UNL A   1      36.234  32.329  32.848  1.00  0.00     0.338 C 
ATOM     43  O   UNL A   1      35.583  33.052  33.593  1.00  0.00    -0.246 OA
BRANCH  42  44
ATOM     44  C   UNL A   1      37.526  31.751  33.226  1.00  0.00     0.060 A 
ATOM     45  C   UNL A   1      38.660  32.350  32.671  1.00  0.00     0.016 A 
ATOM     46  C   UNL A   1      37.628  30.612  34.033  1.00  0.00     0.016 A 
ATOM     47  C   UNL A   1      39.900  31.767  32.854  1.00  0.00     0.010 A 
ATOM     48  C   UNL A   1      38.879  30.020  34.209  1.00  0.00     0.010 A 
ATOM     49  C   UNL A   1      40.004  30.569  33.571  1.00  0.00    -0.014 A 
BRANCH  49  50
ATOM     50  C   UNL A   1      41.262  29.811  33.427  1.00  0.00     0.031 A 
ATOM     51  C   UNL A   1      41.457  28.988  32.183  1.00  0.00     0.074 A 
ATOM     52  C   UNL A   1      42.257  29.989  34.313  1.00  0.00     0.049 A 
ATOM     53  N   UNL A   1      42.511  28.331  31.780  1.00  0.00    -0.248 NA
ATOM     54  C   UNL A   1      40.310  28.908  31.264  1.00  0.00     0.031 C 
ATOM     55  C   UNL A   1      42.176  30.829  35.509  1.00  0.00     0.029 A 
ATOM     56  N   UNL A   1      43.534  29.499  34.329  1.00  0.00    -0.354 N 
ATOM     57  C   UNL A   1      42.157  27.763  30.560  1.00  0.00     0.074 A 
ATOM     58  C   UNL A   1      40.779  28.120  30.310  1.00  0.00     0.031 C 
ATOM     59  C   UNL A   1      43.362  30.802  36.138  1.00  0.00     0.029 A 
ATOM     60  C   UNL A   1      44.269  29.916  35.413  1.00  0.00     0.049 A 
ATOM     61  H   UNL A   1      43.893  28.904  33.631  1.00  0.00     0.167 HD
ATOM     62  C   UNL A   1      42.923  27.019  29.726  1.00  0.00     0.034 A 
ATOM     63  C   UNL A   1      45.524  29.596  35.781  1.00  0.00     0.034 A 
ATOM     64  C   UNL A   1      44.293  26.671  30.011  1.00  0.00     0.049 A 
ATOM     65  C   UNL A   1      46.324  28.688  34.878  1.00  0.00     0.074 A 
ATOM     66  C   UNL A   1      45.169  25.924  29.247  1.00  0.00     0.029 A 
ATOM     67  N   UNL A   1      44.981  27.037  31.162  1.00  0.00    -0.354 N 
ATOM     68  N   UNL A   1      45.983  28.157  33.725  1.00  0.00    -0.248 NA
ATOM     69  C   UNL A   1      47.680  28.347  35.320  1.00  0.00     0.031 C 
ATOM     70  C   UNL A   1      46.354  25.764  29.973  1.00  0.00     0.029 A 
ATOM     71  C   UNL A   1      46.256  26.492  31.149  1.00  0.00     0.049 A 
ATOM     72  H   UNL A   1      44.617  27.601  31.882  1.00  0.00     0.167 HD
ATOM     73  C   UNL A   1      47.093  27.436  33.294  1.00  0.00     0.074 A 
ATOM     74  C   UNL A   1      48.121  27.631  34.298  1.00  0.00     0.031 C 
ATOM     75  C   UNL A   1      47.255  26.681  32.176  1.00  0.00     0.034 A 
BRANCH  62  76
ATOM     76  C   UNL A   1      42.270  26.477  28.477  1.00  0.00     0.023 A 
ATOM     77  C   UNL A   1      41.797  25.155  28.388  1.00  0.00     0.031 A 
ATOM     78  C   UNL A   1      42.143  27.297  27.341  1.00  0.00     0.131 A 
ATOM     79  C   UNL A   1      41.277  24.677  27.175  1.00  0.00     0.055 A 
ATOM     80  C   UNL A   1      41.553  26.839  26.162  1.00  0.00     0.041 A 
ATOM     81  F   UNL A   1      42.605  28.557  27.353  1.00  0.00    -0.206 F 
ATOM     82  C   UNL A   1      41.126  25.518  26.070  1.00  0.00     0.022 A 
BRANCH  79  83
ATOM     83  S   UNL A   1      40.924  22.905  27.013  1.00  0.00     0.124 S 
ATOM     84  O   UNL A   1      41.402  22.390  28.295  1.00  0.00    -0.237 OA
ATOM     85  O   UNL A   1      39.480  22.887  26.815  1.00  0.00    -0.237 OA
ATOM     86  O   UNL A   1      41.719  22.500  25.855  1.00  0.00    -0.744 OA
ENDBRANCH  79  83
ENDBRANCH  62  76
BRANCH  63  87
ATOM     87  C   UNL A   1      46.081  30.085  37.075  1.00  0.00     0.023 A 
ATOM     88  C   UNL A   1      45.821  29.425  38.286  1.00  0.00     0.031 A 
ATOM     89  C   UNL A   1      46.841  31.270  37.123  1.00  0.00     0.131 A 
ATOM     90  C   UNL A   1      46.271  29.980  39.495  1.00  0.00     0.055 A 
ATOM     91  C   UNL A   1      47.341  31.781  38.321  1.00  0.00     0.041 A 
ATOM     92  F   UNL A   1      47.114  31.948  35.996  1.00  0.00    -0.206 F 
ATOM     93  C   UNL A   1      47.042  31.144  39.519  1.00  0.00     0.022 A 
BRANCH  90  94
ATOM     94  S   UNL A   1      45.742  29.215  41.053  1.00  0.00     0.124 S 
ATOM     95  O   UNL A   1      44.511  29.943  41.338  1.00  0.00    -0.237 OA
ATOM     96  O   UNL A   1      45.586  27.816  40.665  1.00  0.00    -0.237 OA
ATOM     97  O   UNL A   1      46.853  29.487  41.961  1.00  0.00    -0.744 OA
ENDBRANCH  90  94
ENDBRANCH  63  87
BRANCH  75  98
ATOM     98  C   UNL A   1      48.607  26.037  31.982  1.00  0.00     0.023 A 
ATOM     99  C   UNL A   1      48.989  24.894  32.705  1.00  0.00     0.031 A 
ATOM    100  C   UNL A   1      49.539  26.593  31.086  1.00  0.00     0.131 A 
ATOM    101  C   UNL A   1      50.293  24.392  32.582  1.00  0.00     0.055 A 
ATOM    102  C   UNL A   1      50.808  26.040  30.908  1.00  0.00     0.041 A 
ATOM    103  F   UNL A   1      49.231  27.687  30.370  1.00  0.00    -0.206 F 
ATOM    104  C   UNL A   1      51.198  24.945  31.673  1.00  0.00     0.022 A 
BRANCH 101 105
ATOM    105  S   UNL A   1      50.831  23.091  33.725  1.00  0.00     0.124 S 
ATOM    106  O   UNL A   1      52.282  23.240  33.690  1.00  0.00    -0.237 OA
ATOM    107  O   UNL A   1      50.180  23.481  34.972  1.00  0.00    -0.237 OA
ATOM    108  O   UNL A   1      50.317  21.866  33.115  1.00  0.00    -0.744 OA
ENDBRANCH 101 105
ENDBRANCH  75  98
ENDBRANCH  49  50
ENDBRANCH  42  44
ENDBRANCH  41  42
ENDBRANCH  40  41
ENDBRANCH  39  40
ENDBRANCH  38  39
ENDBRANCH  37  38
ENDBRANCH  36  37
ENDBRANCH   1  36
TORSDOF 26
ENDMDL
MODEL 2
REMARK VINA RESULT:      -9.7      6.209      7.716
REMARK SMILES CC1=C(C)C[C@@H](C(=O)OCCOCCOCCOCCOC(=O)c2ccc(-c3c4nc(c(-c5cc(S(=O)(=O)[O-])ccc5F)c5ccc([nH]5)c(-c5cc(S(=O)(=O)[O-])ccc5F)c5nc(c(-c6cc(S(=O)(=O)[O-])ccc6F)c6ccc3[nH]6)C=C5)C=C4)cc2)[C@@H](C(=O)N2CCN(c3cccc(C(F)(F)F)c3)CC2)C1
REMARK SMILES IDX 15 1 14 2 13 3 12 4 11 5 10 6 9 7 7 8 8 9 6 10 1 11 2 12
REMARK SMILES IDX 3 13 106 14 4 15 5 16 87 17 88 18 89 19 90 20 91 21 105 22
REMARK SMILES IDX 92 23 104 24 93 25 94 26 95 27 103 28 96 29 98 30 97 31
REMARK SMILES IDX 99 32 100 33 101 34 102 35 16 36 17 37 18 38 19 39 20 40
REMARK SMILES IDX 21 41 22 42 23 43 24 44 25 45 86 46 26 47 85 48 27 49 28 50
REMARK SMILES IDX 29 51 79 52 30 53 84 54 78 55 80 56 31 57 83 58 77 59 76 60
REMARK SMILES IDX 32 62 64 63 44 64 63 65 45 66 48 67 62 68 81 69 46 70 47 71
REMARK SMILES IDX 61 73 82 74 49 75 33 76 34 77 42 78 35 79 41 80 43 81 40 82
REMARK SMILES IDX 36 83 37 84 38 85 39 86 65 87 66 88 74 89 67 90 73 91 75 92
REMARK SMILES IDX 72 93 68 94 69 95 70 96 71 97 50 98 51 99 59 100 52 101
REMARK SMILES IDX 58 102 60 103 57 104 53 105 54 106 55 107 56 108
REMARK H PARENT 80 61 48 72
REMARK Flexibility Score: inf
ROOT
ATOM      1  O   UNL A   1      37.965  29.933  28.400  1.00  0.00    -0.377 OA
ENDROOT
BRANCH   1   2
ATOM      2  C   UNL A   1      37.013  29.936  27.359  1.00  0.00     0.188 C 
BRANCH   2   3
ATOM      3  C   UNL A   1      35.607  29.519  27.785  1.00  0.00     0.188 C 
BRANCH   3   4
ATOM      4  O   UNL A   1      34.540  30.419  27.554  1.00  0.00    -0.376 OA
BRANCH   4   5
ATOM      5  C   UNL A   1      33.239  29.890  27.317  1.00  0.00     0.202 C 
BRANCH   5   6
ATOM      6  C   UNL A   1      33.001  28.901  26.156  1.00  0.00     0.261 C 
BRANCH   6   7
ATOM      7  O   UNL A   1      32.817  29.467  24.828  1.00  0.00    -0.463 OA
BRANCH   7   8
ATOM      8  C   UNL A   1      31.537  29.656  24.461  1.00  0.00     0.310 C 
ATOM      9  O   UNL A   1      30.830  30.539  24.959  1.00  0.00    -0.252 OA
BRANCH   8  10
ATOM     10  C   UNL A   1      30.916  28.762  23.387  1.00  0.00     0.116 C 
ATOM     11  C   UNL A   1      26.636  27.889  23.839  1.00  0.00     0.039 C 
ATOM     12  C   UNL A   1      28.027  28.246  23.387  1.00  0.00    -0.074 C 
ATOM     13  C   UNL A   1      28.476  29.483  23.110  1.00  0.00    -0.073 C 
ATOM     14  C   UNL A   1      28.934  27.060  23.184  1.00  0.00     0.045 C 
ATOM     15  C   UNL A   1      27.662  30.746  23.159  1.00  0.00     0.039 C 
ATOM     16  C   UNL A   1      29.897  29.658  22.641  1.00  0.00     0.046 C 
ATOM     17  C   UNL A   1      30.454  27.286  23.425  1.00  0.00     0.097 C 
BRANCH  17  18
ATOM     18  C   UNL A   1      30.800  26.323  24.564  1.00  0.00     0.227 C 
ATOM     19  O   UNL A   1      29.994  26.105  25.469  1.00  0.00    -0.275 OA
ATOM     20  N   UNL A   1      31.892  25.457  24.317  1.00  0.00    -0.339 N 
ATOM     21  C   UNL A   1      31.878  24.165  25.023  1.00  0.00     0.141 C 
ATOM     22  C   UNL A   1      33.226  25.968  23.948  1.00  0.00     0.141 C 
ATOM     23  C   UNL A   1      32.887  23.124  24.497  1.00  0.00     0.138 C 
ATOM     24  C   UNL A   1      34.230  24.907  23.445  1.00  0.00     0.138 C 
ATOM     25  N   UNL A   1      34.214  23.737  24.325  1.00  0.00    -0.368 N 
BRANCH  25  26
ATOM     26  C   UNL A   1      35.363  23.022  24.600  1.00  0.00     0.037 A 
ATOM     27  C   UNL A   1      35.418  21.627  24.508  1.00  0.00     0.026 A 
ATOM     28  C   UNL A   1      36.491  23.676  25.117  1.00  0.00     0.039 A 
ATOM     29  C   UNL A   1      36.529  20.908  24.961  1.00  0.00     0.003 A 
ATOM     30  C   UNL A   1      37.574  22.967  25.675  1.00  0.00     0.058 A 
ATOM     31  C   UNL A   1      37.592  21.572  25.567  1.00  0.00     0.013 A 
BRANCH  30  32
ATOM     32  C   UNL A   1      38.660  23.677  26.445  1.00  0.00     0.416 C 
ATOM     33  F   UNL A   1      39.757  22.893  26.641  1.00  0.00    -0.166 F 
ATOM     34  F   UNL A   1      39.109  24.794  25.811  1.00  0.00    -0.166 F 
ATOM     35  F   UNL A   1      38.269  24.081  27.686  1.00  0.00    -0.166 F 
ENDBRANCH  30  32
ENDBRANCH  25  26
ENDBRANCH  17  18
ENDBRANCH   8  10
ENDBRANCH   7   8
ENDBRANCH   6   7
ENDBRANCH   5   6
ENDBRANCH   4   5
ENDBRANCH   3   4
ENDBRANCH   2   3
ENDBRANCH   1   2
BRANCH   1  36
ATOM     36  C   UNL A   1      37.833  30.788  29.540  1.00  0.00     0.188 C 
BRANCH  36  37
ATOM     37  C   UNL A   1      37.809  32.306  29.333  1.00  0.00     0.188 C 
BRANCH  37  38
ATOM     38  O   UNL A   1      36.699  32.861  28.624  1.00  0.00    -0.376 OA
BRANCH  38  39
ATOM     39  C   UNL A   1      35.728  33.592  29.365  1.00  0.00     0.202 C 
BRANCH  39  40
ATOM     40  C   UNL A   1      34.531  32.780  29.838  1.00  0.00     0.261 C 
BRANCH  40  41
ATOM     41  O   UNL A   1      34.850  32.048  31.025  1.00  0.00    -0.460 OA
BRANCH  41  42
ATOM     42  C   UNL A   1      34.648  32.740  32.162  1.00  0.00     0.338 C 
ATOM     43  O   UNL A   1      33.576  32.980  32.705  1.00  0.00    -0.246 OA
BRANCH  42  44
ATOM     44  C   UNL A   1      35.942  33.022  32.790  1.00  0.00     0.060 A 
ATOM     45  C   UNL A   1      36.224  34.365  33.052  1.00  0.00     0.016 A 
ATOM     46  C   UNL A   1      36.883  32.019  33.044  1.00  0.00     0.016 A 
ATOM     47  C   UNL A   1      37.483  34.725  33.497  1.00  0.00     0.010 A 
ATOM     48  C   UNL A   1      38.156  32.385  33.484  1.00  0.00     0.010 A 
ATOM     49  C   UNL A   1      38.469  33.744  33.655  1.00  0.00    -0.014 A 
BRANCH  49  50
ATOM     50  C   UNL A   1      39.864  34.211  33.772  1.00  0.00     0.031 A 
ATOM     51  C   UNL A   1      40.647  34.429  32.506  1.00  0.00     0.074 A 
ATOM     52  C   UNL A   1      40.351  34.578  34.969  1.00  0.00     0.049 A 
ATOM     53  N   UNL A   1      41.840  34.936  32.347  1.00  0.00    -0.248 NA
ATOM     54  C   UNL A   1      39.989  34.033  31.251  1.00  0.00     0.031 C 
ATOM     55  C   UNL A   1      39.629  34.467  36.238  1.00  0.00     0.029 A 
ATOM     56  N   UNL A   1      41.550  35.140  35.310  1.00  0.00    -0.354 N 
ATOM     57  C   UNL A   1      42.074  34.925  30.976  1.00  0.00     0.074 A 
ATOM     58  C   UNL A   1      40.917  34.323  30.352  1.00  0.00     0.031 C 
ATOM     59  C   UNL A   1      40.401  34.960  37.220  1.00  0.00     0.029 A 
ATOM     60  C   UNL A   1      41.681  35.382  36.657  1.00  0.00     0.049 A 
ATOM     61  H   UNL A   1      42.252  35.353  34.653  1.00  0.00     0.167 HD
ATOM     62  C   UNL A   1      43.157  35.385  30.303  1.00  0.00     0.034 A 
ATOM     63  C   UNL A   1      42.727  35.869  37.350  1.00  0.00     0.034 A 
ATOM     64  C   UNL A   1      44.301  35.971  30.957  1.00  0.00     0.049 A 
ATOM     65  C   UNL A   1      43.959  36.287  36.584  1.00  0.00     0.074 A 
ATOM     66  C   UNL A   1      45.456  36.472  30.386  1.00  0.00     0.029 A 
ATOM     67  N   UNL A   1      44.440  36.120  32.332  1.00  0.00    -0.354 N 
ATOM     68  N   UNL A   1      44.171  36.276  35.286  1.00  0.00    -0.248 NA
ATOM     69  C   UNL A   1      45.085  36.796  37.373  1.00  0.00     0.031 C 
ATOM     70  C   UNL A   1      46.327  36.842  31.417  1.00  0.00     0.029 A 
ATOM     71  C   UNL A   1      45.680  36.663  32.630  1.00  0.00     0.049 A 
ATOM     72  H   UNL A   1      43.757  35.876  32.997  1.00  0.00     0.167 HD
ATOM     73  C   UNL A   1      45.449  36.797  35.105  1.00  0.00     0.074 A 
ATOM     74  C   UNL A   1      45.942  37.141  36.425  1.00  0.00     0.031 C 
ATOM     75  C   UNL A   1      46.157  36.975  33.958  1.00  0.00     0.034 A 
BRANCH  62  76
ATOM     76  C   UNL A   1      43.178  35.202  28.805  1.00  0.00     0.023 A 
ATOM     77  C   UNL A   1      43.693  34.042  28.196  1.00  0.00     0.031 A 
ATOM     78  C   UNL A   1      42.695  36.223  27.967  1.00  0.00     0.131 A 
ATOM     79  C   UNL A   1      43.768  33.960  26.797  1.00  0.00     0.055 A 
ATOM     80  C   UNL A   1      42.700  36.102  26.576  1.00  0.00     0.041 A 
ATOM     81  F   UNL A   1      42.221  37.366  28.487  1.00  0.00    -0.206 F 
ATOM     82  C   UNL A   1      43.250  34.970  25.983  1.00  0.00     0.022 A 
BRANCH  79  83
ATOM     83  S   UNL A   1      44.676  32.578  26.050  1.00  0.00     0.124 S 
ATOM     84  O   UNL A   1      43.830  31.441  26.409  1.00  0.00    -0.237 OA
ATOM     85  O   UNL A   1      44.696  32.940  24.637  1.00  0.00    -0.237 OA
ATOM     86  O   UNL A   1      45.973  32.615  26.722  1.00  0.00    -0.744 OA
ENDBRANCH  79  83
ENDBRANCH  62  76
BRANCH  63  87
ATOM     87  C   UNL A   1      42.683  35.937  38.839  1.00  0.00     0.023 A 
ATOM     88  C   UNL A   1      42.184  37.065  39.510  1.00  0.00     0.031 A 
ATOM     89  C   UNL A   1      43.204  34.886  39.618  1.00  0.00     0.131 A 
ATOM     90  C   UNL A   1      42.263  37.136  40.911  1.00  0.00     0.055 A 
ATOM     91  C   UNL A   1      43.220  34.935  41.012  1.00  0.00     0.041 A 
ATOM     92  F   UNL A   1      43.702  33.787  39.029  1.00  0.00    -0.206 F 
ATOM     93  C   UNL A   1      42.763  36.072  41.666  1.00  0.00     0.022 A 
BRANCH  90  94
ATOM     94  S   UNL A   1      41.802  38.687  41.730  1.00  0.00     0.124 S 
ATOM     95  O   UNL A   1      42.518  39.672  40.927  1.00  0.00    -0.237 OA
ATOM     96  O   UNL A   1      40.349  38.682  41.592  1.00  0.00    -0.237 OA
ATOM     97  O   UNL A   1      42.298  38.513  43.093  1.00  0.00    -0.744 OA
ENDBRANCH  90  94
ENDBRANCH  63  87
BRANCH  75  98
ATOM     98  C   UNL A   1      47.527  37.595  34.096  1.00  0.00     0.023 A 
ATOM     99  C   UNL A   1      47.717  38.986  34.031  1.00  0.00     0.031 A 
ATOM    100  C   UNL A   1      48.663  36.781  34.262  1.00  0.00     0.131 A 
ATOM    101  C   UNL A   1      49.015  39.516  34.049  1.00  0.00     0.055 A 
ATOM    102  C   UNL A   1      49.946  37.321  34.361  1.00  0.00     0.041 A 
ATOM    103  F   UNL A   1      48.544  35.445  34.328  1.00  0.00    -0.206 F 
ATOM    104  C   UNL A   1      50.129  38.695  34.234  1.00  0.00     0.022 A 
BRANCH 101 105
ATOM    105  S   UNL A   1      49.234  41.280  33.691  1.00  0.00     0.124 S 
ATOM    106  O   UNL A   1      48.612  41.904  34.854  1.00  0.00    -0.237 OA
ATOM    107  O   UNL A   1      50.685  41.403  33.600  1.00  0.00    -0.237 OA
ATOM    108  O   UNL A   1      48.518  41.465  32.429  1.00  0.00    -0.744 OA
ENDBRANCH 101 105
ENDBRANCH  75  98
ENDBRANCH  49  50
ENDBRANCH  42  44
ENDBRANCH  41  42
ENDBRANCH  40  41
ENDBRANCH  39  40
ENDBRANCH  38  39
ENDBRANCH  37  38
ENDBRANCH  36  37
ENDBRANCH   1  36
TORSDOF 26
ENDMDL
MODEL 3
REMARK VINA RESULT:      -9.0      3.904      6.684
REMARK SMILES CC1=C(C)C[C@@H](C(=O)OCCOCCOCCOCCOC(=O)c2ccc(-c3c4nc(c(-c5cc(S(=O)(=O)[O-])ccc5F)c5ccc([nH]5)c(-c5cc(S(=O)(=O)[O-])ccc5F)c5nc(c(-c6cc(S(=O)(=O)[O-])ccc6F)c6ccc3[nH]6)C=C5)C=C4)cc2)[C@@H](C(=O)N2CCN(c3cccc(C(F)(F)F)c3)CC2)C1
REMARK SMILES IDX 15 1 14 2 13 3 12 4 11 5 10 6 9 7 7 8 8 9 6 10 1 11 2 12
REMARK SMILES IDX 3 13 106 14 4 15 5 16 87 17 88 18 89 19 90 20 91 21 105 22
REMARK SMILES IDX 92 23 104 24 93 25 94 26 95 27 103 28 96 29 98 30 97 31
REMARK SMILES IDX 99 32 100 33 101 34 102 35 16 36 17 37 18 38 19 39 20 40
REMARK SMILES IDX 21 41 22 42 23 43 24 44 25 45 86 46 26 47 85 48 27 49 28 50
REMARK SMILES IDX 29 51 79 52 30 53 84 54 78 55 80 56 31 57 83 58 77 59 76 60
REMARK SMILES IDX 32 62 64 63 44 64 63 65 45 66 48 67 62 68 81 69 46 70 47 71
REMARK SMILES IDX 61 73 82 74 49 75 33 76 34 77 42 78 35 79 41 80 43 81 40 82
REMARK SMILES IDX 36 83 37 84 38 85 39 86 65 87 66 88 74 89 67 90 73 91 75 92
REMARK SMILES IDX 72 93 68 94 69 95 70 96 71 97 50 98 51 99 59 100 52 101
REMARK SMILES IDX 58 102 60 103 57 104 53 105 54 106 55 107 56 108
REMARK H PARENT 80 61 48 72
REMARK Flexibility Score: inf
ROOT
ATOM      1  O   UNL A   1      36.824  31.459  28.137  1.00  0.00    -0.377 OA
ENDROOT
BRANCH   1   2
ATOM      2  C   UNL A   1      35.451  31.558  27.826  1.00  0.00     0.188 C 
BRANCH   2   3
ATOM      3  C   UNL A   1      34.795  30.236  27.434  1.00  0.00     0.188 C 
BRANCH   3   4
ATOM      4  O   UNL A   1      33.382  30.154  27.459  1.00  0.00    -0.376 OA
BRANCH   4   5
ATOM      5  C   UNL A   1      32.773  28.867  27.511  1.00  0.00     0.202 C 
BRANCH   5   6
ATOM      6  C   UNL A   1      32.710  27.984  26.246  1.00  0.00     0.261 C 
BRANCH   6   7
ATOM      7  O   UNL A   1      32.749  28.664  24.960  1.00  0.00    -0.463 OA
BRANCH   7   8
ATOM      8  C   UNL A   1      31.552  29.038  24.476  1.00  0.00     0.310 C 
ATOM      9  O   UNL A   1      30.995  30.086  24.826  1.00  0.00    -0.252 OA
BRANCH   8  10
ATOM     10  C   UNL A   1      30.839  28.157  23.451  1.00  0.00     0.116 C 
ATOM     11  C   UNL A   1      26.482  27.821  23.889  1.00  0.00     0.039 C 
ATOM     12  C   UNL A   1      27.909  27.983  23.438  1.00  0.00    -0.074 C 
ATOM     13  C   UNL A   1      28.503  29.139  23.091  1.00  0.00    -0.073 C 
ATOM     14  C   UNL A   1      28.671  26.688  23.324  1.00  0.00     0.045 C 
ATOM     15  C   UNL A   1      27.843  30.489  23.047  1.00  0.00     0.039 C 
ATOM     16  C   UNL A   1      29.939  29.116  22.634  1.00  0.00     0.046 C 
ATOM     17  C   UNL A   1      30.206  26.750  23.575  1.00  0.00     0.097 C 
BRANCH  17  18
ATOM     18  C   UNL A   1      30.427  25.829  24.777  1.00  0.00     0.227 C 
ATOM     19  O   UNL A   1      29.697  25.901  25.766  1.00  0.00    -0.275 OA
ATOM     20  N   UNL A   1      31.236  24.693  24.532  1.00  0.00    -0.339 N 
ATOM     21  C   UNL A   1      30.980  23.512  25.372  1.00  0.00     0.141 C 
ATOM     22  C   UNL A   1      32.605  24.811  23.997  1.00  0.00     0.141 C 
ATOM     23  C   UNL A   1      31.636  22.206  24.877  1.00  0.00     0.138 C 
ATOM     24  C   UNL A   1      33.253  23.490  23.527  1.00  0.00     0.138 C 
ATOM     25  N   UNL A   1      33.045  22.441  24.526  1.00  0.00    -0.368 N 
BRANCH  25  26
ATOM     26  C   UNL A   1      34.005  21.480  24.777  1.00  0.00     0.037 A 
ATOM     27  C   UNL A   1      35.352  21.802  24.981  1.00  0.00     0.026 A 
ATOM     28  C   UNL A   1      33.675  20.118  24.704  1.00  0.00     0.039 A 
ATOM     29  C   UNL A   1      36.337  20.811  25.054  1.00  0.00     0.003 A 
ATOM     30  C   UNL A   1      34.661  19.113  24.671  1.00  0.00     0.058 A 
ATOM     31  C   UNL A   1      35.998  19.473  24.873  1.00  0.00     0.013 A 
BRANCH  30  32
ATOM     32  C   UNL A   1      34.308  17.682  24.345  1.00  0.00     0.416 C 
ATOM     33  F   UNL A   1      35.222  16.796  24.831  1.00  0.00    -0.166 F 
ATOM     34  F   UNL A   1      33.109  17.305  24.869  1.00  0.00    -0.166 F 
ATOM     35  F   UNL A   1      34.229  17.434  23.008  1.00  0.00    -0.166 F 
ENDBRANCH  30  32
ENDBRANCH  25  26
ENDBRANCH  17  18
ENDBRANCH   8  10
ENDBRANCH   7   8
ENDBRANCH   6   7
ENDBRANCH   5   6
ENDBRANCH   4   5
ENDBRANCH   3   4
ENDBRANCH   2   3
ENDBRANCH   1   2
BRANCH   1  36
ATOM     36  C   UNL A   1      37.274  31.200  29.470  1.00  0.00     0.188 C 
BRANCH  36  37
ATOM     37  C   UNL A   1      36.931  32.199  30.579  1.00  0.00     0.188 C 
BRANCH  37  38
ATOM     38  O   UNL A   1      35.634  32.110  31.173  1.00  0.00    -0.376 OA
BRANCH  38  39
ATOM     39  C   UNL A   1      34.702  33.151  30.905  1.00  0.00     0.202 C 
BRANCH  39  40
ATOM     40  C   UNL A   1      34.038  33.755  32.135  1.00  0.00     0.261 C 
BRANCH  40  41
ATOM     41  O   UNL A   1      34.849  33.560  33.298  1.00  0.00    -0.460 OA
BRANCH  41  42
ATOM     42  C   UNL A   1      35.796  34.502  33.466  1.00  0.00     0.338 C 
ATOM     43  O   UNL A   1      35.666  35.715  33.355  1.00  0.00    -0.246 OA
BRANCH  42  44
ATOM     44  C   UNL A   1      37.008  33.875  34.002  1.00  0.00     0.060 A 
ATOM     45  C   UNL A   1      36.820  32.745  34.802  1.00  0.00     0.016 A 
ATOM     46  C   UNL A   1      38.282  34.416  33.796  1.00  0.00     0.016 A 
ATOM     47  C   UNL A   1      37.898  32.192  35.468  1.00  0.00     0.010 A 
ATOM     48  C   UNL A   1      39.367  33.863  34.478  1.00  0.00     0.010 A 
ATOM     49  C   UNL A   1      39.161  32.786  35.357  1.00  0.00    -0.014 A 
BRANCH  49  50
ATOM     50  C   UNL A   1      40.176  32.392  36.353  1.00  0.00     0.031 A 
ATOM     51  C   UNL A   1      41.110  31.266  36.006  1.00  0.00     0.074 A 
ATOM     52  C   UNL A   1      40.351  33.132  37.461  1.00  0.00     0.049 A 
ATOM     53  N   UNL A   1      42.145  30.815  36.663  1.00  0.00    -0.248 NA
ATOM     54  C   UNL A   1      40.847  30.561  34.740  1.00  0.00     0.031 C 
ATOM     55  C   UNL A   1      39.534  34.287  37.837  1.00  0.00     0.029 A 
ATOM     56  N   UNL A   1      41.284  33.039  38.456  1.00  0.00    -0.354 N 
ATOM     57  C   UNL A   1      42.659  29.779  35.890  1.00  0.00     0.074 A 
ATOM     58  C   UNL A   1      41.798  29.642  34.737  1.00  0.00     0.031 C 
ATOM     59  C   UNL A   1      40.014  34.803  38.980  1.00  0.00     0.029 A 
ATOM     60  C   UNL A   1      41.141  33.994  39.435  1.00  0.00     0.049 A 
ATOM     61  H   UNL A   1      41.992  32.354  38.471  1.00  0.00     0.167 HD
ATOM     62  C   UNL A   1      43.758  29.020  36.124  1.00  0.00     0.034 A 
ATOM     63  C   UNL A   1      41.833  34.173  40.576  1.00  0.00     0.034 A 
ATOM     64  C   UNL A   1      44.590  29.176  37.291  1.00  0.00     0.049 A 
ATOM     65  C   UNL A   1      42.996  33.252  40.858  1.00  0.00     0.074 A 
ATOM     66  C   UNL A   1      45.726  28.469  37.640  1.00  0.00     0.029 A 
ATOM     67  N   UNL A   1      44.366  30.095  38.309  1.00  0.00    -0.354 N 
ATOM     68  N   UNL A   1      43.478  32.276  40.120  1.00  0.00    -0.248 NA
ATOM     69  C   UNL A   1      43.716  33.466  42.118  1.00  0.00     0.031 C 
ATOM     70  C   UNL A   1      46.136  28.900  38.906  1.00  0.00     0.029 A 
ATOM     71  C   UNL A   1      45.315  29.943  39.307  1.00  0.00     0.049 A 
ATOM     72  H   UNL A   1      43.639  30.759  38.319  1.00  0.00     0.167 HD
ATOM     73  C   UNL A   1      44.572  31.774  40.820  1.00  0.00     0.074 A 
ATOM     74  C   UNL A   1      44.694  32.579  42.020  1.00  0.00     0.031 C 
ATOM     75  C   UNL A   1      45.401  30.744  40.507  1.00  0.00     0.034 A 
BRANCH  62  76
ATOM     76  C   UNL A   1      44.066  27.917  35.140  1.00  0.00     0.023 A 
ATOM     77  C   UNL A   1      43.752  26.570  35.397  1.00  0.00     0.031 A 
ATOM     78  C   UNL A   1      44.714  28.220  33.929  1.00  0.00     0.131 A 
ATOM     79  C   UNL A   1      44.139  25.574  34.487  1.00  0.00     0.055 A 
ATOM     80  C   UNL A   1      45.026  27.234  32.992  1.00  0.00     0.041 A 
ATOM     81  F   UNL A   1      45.069  29.482  33.641  1.00  0.00    -0.206 F 
ATOM     82  C   UNL A   1      44.750  25.900  33.273  1.00  0.00     0.022 A 
BRANCH  79  83
ATOM     83  S   UNL A   1      43.960  23.834  34.967  1.00  0.00     0.124 S 
ATOM     84  O   UNL A   1      44.908  23.180  34.067  1.00  0.00    -0.237 OA
ATOM     85  O   UNL A   1      44.329  23.856  36.377  1.00  0.00    -0.237 OA
ATOM     86  O   UNL A   1      42.554  23.544  34.693  1.00  0.00    -0.744 OA
ENDBRANCH  79  83
ENDBRANCH  62  76
BRANCH  63  87
ATOM     87  C   UNL A   1      41.421  35.219  41.555  1.00  0.00     0.023 A 
ATOM     88  C   UNL A   1      40.438  34.973  42.527  1.00  0.00     0.031 A 
ATOM     89  C   UNL A   1      41.971  36.514  41.491  1.00  0.00     0.131 A 
ATOM     90  C   UNL A   1      39.999  36.017  43.357  1.00  0.00     0.055 A 
ATOM     91  C   UNL A   1      41.577  37.530  42.361  1.00  0.00     0.041 A 
ATOM     92  F   UNL A   1      42.909  36.809  40.576  1.00  0.00    -0.206 F 
ATOM     93  C   UNL A   1      40.573  37.289  43.291  1.00  0.00     0.022 A 
BRANCH  90  94
ATOM     94  S   UNL A   1      38.587  35.719  44.455  1.00  0.00     0.124 S 
ATOM     95  O   UNL A   1      38.485  36.991  45.161  1.00  0.00    -0.237 OA
ATOM     96  O   UNL A   1      37.519  35.426  43.503  1.00  0.00    -0.237 OA
ATOM     97  O   UNL A   1      39.021  34.586  45.269  1.00  0.00    -0.744 OA
ENDBRANCH  90  94
ENDBRANCH  63  87
BRANCH  75  98
ATOM     98  C   UNL A   1      46.524  30.459  41.476  1.00  0.00     0.023 A 
ATOM     99  C   UNL A   1      46.346  29.607  42.580  1.00  0.00     0.031 A 
ATOM    100  C   UNL A   1      47.779  31.072  41.311  1.00  0.00     0.131 A 
ATOM    101  C   UNL A   1      47.375  29.457  43.520  1.00  0.00     0.055 A 
ATOM    102  C   UNL A   1      48.827  30.854  42.206  1.00  0.00     0.041 A 
ATOM    103  F   UNL A   1      48.008  31.896  40.276  1.00  0.00    -0.206 F 
ATOM    104  C   UNL A   1      48.622  30.058  43.329  1.00  0.00     0.022 A 
BRANCH 101 105
ATOM    105  S   UNL A   1      47.017  28.575  45.063  1.00  0.00     0.124 S 
ATOM    106  O   UNL A   1      48.299  27.941  45.353  1.00  0.00    -0.237 OA
ATOM    107  O   UNL A   1      46.623  29.657  45.959  1.00  0.00    -0.237 OA
ATOM    108  O   UNL A   1      45.941  27.657  44.691  1.00  0.00    -0.744 OA
ENDBRANCH 101 105
ENDBRANCH  75  98
ENDBRANCH  49  50
ENDBRANCH  42  44
ENDBRANCH  41  42
ENDBRANCH  40  41
ENDBRANCH  39  40
ENDBRANCH  38  39
ENDBRANCH  37  38
ENDBRANCH  36  37
ENDBRANCH   1  36
TORSDOF 26
ENDMDL
