MODEL 1
REMARK VINA RESULT:     -10.5      0.000      0.000
REMARK SMILES Cc1ccc(S(=O)(=O)n2cc(C(=O)C(=O)NCC(=O)NCC(=O)OCCOCCOCCOCCOC(=O)c3ccc(-c4c5nc(c(-c6cc(S(=O)(=O)[O-])ccc6F)c6ccc([nH]6)c(-c6cc(S(=O)(=O)[O-])ccc6F)c6nc(c(-c7cc(S(=O)(=O)[O-])ccc7F)c7ccc4[nH]7)C=C6)C=C5)cc3)c3ccccc32)cc1
REMARK SMILES IDX 28 1 27 2 26 3 25 4 24 5 22 6 23 7 21 8 20 9 18 10 19 11
REMARK SMILES IDX 17 13 16 14 14 15 15 16 12 18 13 19 11 20 9 21 10 22 107 23
REMARK SMILES IDX 102 24 106 25 103 26 105 27 104 28 6 29 7 30 8 31 5 32 1 33
REMARK SMILES IDX 2 34 3 35 109 36 4 37 108 38 29 39 30 40 31 41 32 42 33 43
REMARK SMILES IDX 34 44 35 45 36 46 37 47 38 48 39 49 40 50 101 51 41 52
REMARK SMILES IDX 100 53 42 54 43 55 44 56 94 57 45 58 99 59 93 60 95 61 46 62
REMARK SMILES IDX 98 63 92 64 91 65 47 67 79 68 59 69 78 70 60 71 63 72 77 73
REMARK SMILES IDX 96 74 61 75 62 76 76 78 97 79 64 80 48 81 49 82 57 83 50 84
REMARK SMILES IDX 56 85 58 86 55 87 51 88 52 89 53 90 54 91 80 92 81 93 89 94
REMARK SMILES IDX 82 95 88 96 90 97 87 98 83 99 84 100 85 101 86 102 65 103
REMARK SMILES IDX 66 104 74 105 67 106 73 107 75 108 72 109 68 110 69 111
REMARK SMILES IDX 70 112 71 113
REMARK H PARENT 20 12 16 17 95 66 63 77
REMARK Flexibility Score: inf
ROOT
ATOM      1  C   UNL A   1      31.488  29.277  25.222  1.00  0.00     0.188 C 
ENDROOT
BRANCH   1   2
ATOM      2  O   UNL A   1      30.631  29.884  24.267  1.00  0.00    -0.376 OA
BRANCH   2   3
ATOM      3  C   UNL A   1      30.168  29.057  23.197  1.00  0.00     0.202 C 
BRANCH   3   4
ATOM      4  C   UNL A   1      30.649  27.608  23.235  1.00  0.00     0.261 C 
BRANCH   4   5
ATOM      5  O   UNL A   1      30.654  27.120  21.883  1.00  0.00    -0.462 OA
BRANCH   5   6
ATOM      6  C   UNL A   1      31.743  26.426  21.492  1.00  0.00     0.325 C 
ATOM      7  O   UNL A   1      31.913  25.919  20.391  1.00  0.00    -0.250 OA
BRANCH   6   8
ATOM      8  C   UNL A   1      32.851  26.524  22.530  1.00  0.00     0.238 C 
BRANCH   8   9
ATOM      9  N   UNL A   1      33.645  25.337  22.792  1.00  0.00    -0.344 N 
ATOM     10  C   UNL A   1      33.329  24.377  23.708  1.00  0.00     0.239 C 
ATOM     11  O   UNL A   1      33.331  23.190  23.389  1.00  0.00    -0.273 OA
ATOM     12  H   UNL A   1      34.471  25.216  22.270  1.00  0.00     0.164 HD
BRANCH  10  13
ATOM     13  C   UNL A   1      32.845  24.830  25.079  1.00  0.00     0.216 C 
BRANCH  13  14
ATOM     14  N   UNL A   1      31.672  24.068  25.489  1.00  0.00    -0.340 N 
ATOM     15  C   UNL A   1      31.516  23.039  26.385  1.00  0.00     0.292 C 
ATOM     16  O   UNL A   1      30.386  22.623  26.615  1.00  0.00    -0.265 OA
ATOM     17  H   UNL A   1      30.840  24.340  25.040  1.00  0.00     0.164 HD
BRANCH  15  18
ATOM     18  C   UNL A   1      32.735  22.412  27.100  1.00  0.00     0.252 C 
ATOM     19  O   UNL A   1      32.838  22.566  28.315  1.00  0.00    -0.283 OA
BRANCH  18  20
ATOM     20  C   UNL A   1      33.756  21.669  26.352  1.00  0.00     0.054 A 
ATOM     21  N   UNL A   1      35.679  21.114  25.354  1.00  0.00    -0.240 N 
ATOM     22  C   UNL A   1      34.996  22.135  25.963  1.00  0.00     0.117 A 
ATOM     23  C   UNL A   1      34.839  20.041  25.131  1.00  0.00     0.065 A 
ATOM     24  C   UNL A   1      33.639  20.349  25.791  1.00  0.00     0.012 A 
ATOM     25  C   UNL A   1      34.999  18.848  24.405  1.00  0.00     0.028 A 
ATOM     26  C   UNL A   1      32.596  19.396  25.769  1.00  0.00     0.011 A 
ATOM     27  C   UNL A   1      33.924  17.959  24.347  1.00  0.00     0.002 A 
ATOM     28  C   UNL A   1      32.743  18.219  25.032  1.00  0.00     0.001 A 
BRANCH  21  29
ATOM     29  S   UNL A   1      37.218  21.320  24.647  1.00  0.00     0.268 S 
ATOM     30  O   UNL A   1      37.017  22.019  23.417  1.00  0.00    -0.201 OA
ATOM     31  O   UNL A   1      37.876  20.018  24.735  1.00  0.00    -0.201 OA
BRANCH  29  32
ATOM     32  C   UNL A   1      38.128  22.384  25.733  1.00  0.00     0.088 A 
ATOM     33  C   UNL A   1      40.543  24.824  28.304  1.00  0.00     0.044 C 
ATOM     34  C   UNL A   1      39.690  23.971  27.416  1.00  0.00    -0.051 A 
ATOM     35  C   UNL A   1      40.059  22.645  27.156  1.00  0.00     0.005 A 
ATOM     36  C   UNL A   1      38.520  24.485  26.846  1.00  0.00     0.005 A 
ATOM     37  C   UNL A   1      39.284  21.852  26.312  1.00  0.00     0.022 A 
ATOM     38  C   UNL A   1      37.733  23.693  26.013  1.00  0.00     0.022 A 
ENDBRANCH  29  32
ENDBRANCH  21  29
ENDBRANCH  18  20
ENDBRANCH  15  18
ENDBRANCH  13  14
ENDBRANCH  10  13
ENDBRANCH   8   9
ENDBRANCH   6   8
ENDBRANCH   5   6
ENDBRANCH   4   5
ENDBRANCH   3   4
ENDBRANCH   2   3
ENDBRANCH   1   2
BRANCH   1  39
ATOM     39  C   UNL A   1      32.073  30.150  26.334  1.00  0.00     0.188 C 
BRANCH  39  40
ATOM     40  O   UNL A   1      33.473  30.249  26.376  1.00  0.00    -0.377 OA
BRANCH  40  41
ATOM     41  C   UNL A   1      34.154  30.762  27.507  1.00  0.00     0.188 C 
BRANCH  41  42
ATOM     42  C   UNL A   1      34.704  32.187  27.674  1.00  0.00     0.188 C 
BRANCH  42  43
ATOM     43  O   UNL A   1      34.607  32.845  28.926  1.00  0.00    -0.376 OA
BRANCH  43  44
ATOM     44  C   UNL A   1      35.424  34.000  29.126  1.00  0.00     0.202 C 
BRANCH  44  45
ATOM     45  C   UNL A   1      36.325  34.051  30.373  1.00  0.00     0.261 C 
BRANCH  45  46
ATOM     46  O   UNL A   1      35.556  34.399  31.539  1.00  0.00    -0.460 OA
BRANCH  46  47
ATOM     47  C   UNL A   1      34.815  33.384  32.058  1.00  0.00     0.338 C 
ATOM     48  O   UNL A   1      33.608  33.412  32.224  1.00  0.00    -0.246 OA
BRANCH  47  49
ATOM     49  C   UNL A   1      35.706  32.263  32.463  1.00  0.00     0.060 A 
ATOM     50  C   UNL A   1      36.396  32.325  33.683  1.00  0.00     0.016 A 
ATOM     51  C   UNL A   1      36.043  31.295  31.521  1.00  0.00     0.016 A 
ATOM     52  C   UNL A   1      37.557  31.565  33.863  1.00  0.00     0.010 A 
ATOM     53  C   UNL A   1      37.234  30.616  31.666  1.00  0.00     0.010 A 
ATOM     54  C   UNL A   1      38.043  30.808  32.796  1.00  0.00    -0.014 A 
BRANCH  54  55
ATOM     55  C   UNL A   1      39.450  30.410  32.621  1.00  0.00     0.031 A 
ATOM     56  C   UNL A   1      39.798  29.397  31.583  1.00  0.00     0.074 A 
ATOM     57  C   UNL A   1      40.419  31.199  33.154  1.00  0.00     0.049 A 
ATOM     58  N   UNL A   1      40.995  29.142  31.196  1.00  0.00    -0.248 NA
ATOM     59  C   UNL A   1      38.817  28.596  30.853  1.00  0.00     0.031 C 
ATOM     60  C   UNL A   1      41.812  31.318  32.727  1.00  0.00     0.029 A 
ATOM     61  N   UNL A   1      40.382  32.104  34.195  1.00  0.00    -0.354 N 
ATOM     62  C   UNL A   1      40.971  28.350  30.074  1.00  0.00     0.074 A 
ATOM     63  C   UNL A   1      39.579  28.015  29.914  1.00  0.00     0.031 C 
ATOM     64  C   UNL A   1      42.512  32.108  33.557  1.00  0.00     0.029 A 
ATOM     65  C   UNL A   1      41.669  32.329  34.701  1.00  0.00     0.049 A 
ATOM     66  H   UNL A   1      39.564  32.532  34.536  1.00  0.00     0.167 HD
ATOM     67  C   UNL A   1      42.150  28.157  29.408  1.00  0.00     0.034 A 
ATOM     68  C   UNL A   1      41.995  31.865  35.948  1.00  0.00     0.034 A 
ATOM     69  C   UNL A   1      43.280  28.533  30.281  1.00  0.00     0.049 A 
ATOM     70  C   UNL A   1      42.806  30.556  35.846  1.00  0.00     0.074 A 
ATOM     71  C   UNL A   1      44.266  29.502  30.267  1.00  0.00     0.029 A 
ATOM     72  N   UNL A   1      43.310  27.994  31.569  1.00  0.00    -0.354 N 
ATOM     73  N   UNL A   1      43.024  29.934  34.708  1.00  0.00    -0.248 NA
ATOM     74  C   UNL A   1      43.475  29.865  36.941  1.00  0.00     0.031 C 
ATOM     75  C   UNL A   1      44.692  29.681  31.622  1.00  0.00     0.029 A 
ATOM     76  C   UNL A   1      44.158  28.679  32.410  1.00  0.00     0.049 A 
ATOM     77  H   UNL A   1      42.782  27.208  31.844  1.00  0.00     0.167 HD
ATOM     78  C   UNL A   1      43.891  28.891  34.847  1.00  0.00     0.074 A 
ATOM     79  C   UNL A   1      44.063  28.832  36.298  1.00  0.00     0.031 C 
ATOM     80  C   UNL A   1      44.403  28.193  33.771  1.00  0.00     0.034 A 
BRANCH  67  81
ATOM     81  C   UNL A   1      42.309  27.736  27.951  1.00  0.00     0.023 A 
ATOM     82  C   UNL A   1      43.340  26.836  27.580  1.00  0.00     0.031 A 
ATOM     83  C   UNL A   1      41.571  28.264  26.865  1.00  0.00     0.131 A 
ATOM     84  C   UNL A   1      43.586  26.505  26.224  1.00  0.00     0.055 A 
ATOM     85  C   UNL A   1      41.788  27.903  25.527  1.00  0.00     0.041 A 
ATOM     86  F   UNL A   1      40.630  29.199  27.023  1.00  0.00    -0.206 F 
ATOM     87  C   UNL A   1      42.803  27.026  25.199  1.00  0.00     0.022 A 
BRANCH  84  88
ATOM     88  S   UNL A   1      44.975  25.414  25.780  1.00  0.00     0.124 S 
ATOM     89  O   UNL A   1      45.363  24.858  27.071  1.00  0.00    -0.237 OA
ATOM     90  O   UNL A   1      44.361  24.502  24.823  1.00  0.00    -0.237 OA
ATOM     91  O   UNL A   1      45.955  26.333  25.196  1.00  0.00    -0.744 OA
ENDBRANCH  84  88
ENDBRANCH  67  81
BRANCH  68  92
ATOM     92  C   UNL A   1      40.965  32.378  36.923  1.00  0.00     0.023 A 
ATOM     93  C   UNL A   1      41.151  33.749  37.270  1.00  0.00     0.031 A 
ATOM     94  C   UNL A   1      39.646  31.905  36.884  1.00  0.00     0.131 A 
ATOM     95  C   UNL A   1      40.064  34.643  37.235  1.00  0.00     0.055 A 
ATOM     96  C   UNL A   1      38.557  32.797  36.935  1.00  0.00     0.041 A 
ATOM     97  F   UNL A   1      39.388  30.624  36.582  1.00  0.00    -0.206 F 
ATOM     98  C   UNL A   1      38.768  34.175  37.025  1.00  0.00     0.022 A 
BRANCH  95  99
ATOM     99  S   UNL A   1      40.378  36.439  37.098  1.00  0.00     0.124 S 
ATOM    100  O   UNL A   1      39.703  36.954  38.283  1.00  0.00    -0.237 OA
ATOM    101  O   UNL A   1      41.833  36.515  37.109  1.00  0.00    -0.237 OA
ATOM    102  O   UNL A   1      39.761  36.774  35.814  1.00  0.00    -0.744 OA
ENDBRANCH  95  99
ENDBRANCH  68  92
BRANCH  80 103
ATOM    103  C   UNL A   1      45.230  26.930  33.901  1.00  0.00     0.023 A 
ATOM    104  C   UNL A   1      44.652  25.718  34.265  1.00  0.00     0.031 A 
ATOM    105  C   UNL A   1      46.620  26.880  33.617  1.00  0.00     0.131 A 
ATOM    106  C   UNL A   1      45.336  24.513  34.059  1.00  0.00     0.055 A 
ATOM    107  C   UNL A   1      47.343  25.689  33.550  1.00  0.00     0.041 A 
ATOM    108  F   UNL A   1      47.346  27.968  33.328  1.00  0.00    -0.206 F 
ATOM    109  C   UNL A   1      46.683  24.485  33.709  1.00  0.00     0.022 A 
BRANCH 106 110
ATOM    110  S   UNL A   1      44.352  23.001  34.058  1.00  0.00     0.124 S 
ATOM    111  O   UNL A   1      43.968  22.869  32.657  1.00  0.00    -0.237 OA
ATOM    112  O   UNL A   1      45.324  22.020  34.539  1.00  0.00    -0.237 OA
ATOM    113  O   UNL A   1      43.262  23.299  34.983  1.00  0.00    -0.744 OA
ENDBRANCH 106 110
ENDBRANCH  80 103
ENDBRANCH  54  55
ENDBRANCH  47  49
ENDBRANCH  46  47
ENDBRANCH  45  46
ENDBRANCH  44  45
ENDBRANCH  43  44
ENDBRANCH  42  43
ENDBRANCH  41  42
ENDBRANCH  40  41
ENDBRANCH  39  40
ENDBRANCH   1  39
TORSDOF 30
ENDMDL
MODEL 2
REMARK VINA RESULT:     -10.1      5.342     10.203
REMARK SMILES Cc1ccc(S(=O)(=O)n2cc(C(=O)C(=O)NCC(=O)NCC(=O)OCCOCCOCCOCCOC(=O)c3ccc(-c4c5nc(c(-c6cc(S(=O)(=O)[O-])ccc6F)c6ccc([nH]6)c(-c6cc(S(=O)(=O)[O-])ccc6F)c6nc(c(-c7cc(S(=O)(=O)[O-])ccc7F)c7ccc4[nH]7)C=C6)C=C5)cc3)c3ccccc32)cc1
REMARK SMILES IDX 28 1 27 2 26 3 25 4 24 5 22 6 23 7 21 8 20 9 18 10 19 11
REMARK SMILES IDX 17 13 16 14 14 15 15 16 12 18 13 19 11 20 9 21 10 22 107 23
REMARK SMILES IDX 102 24 106 25 103 26 105 27 104 28 6 29 7 30 8 31 5 32 1 33
REMARK SMILES IDX 2 34 3 35 109 36 4 37 108 38 29 39 30 40 31 41 32 42 33 43
REMARK SMILES IDX 34 44 35 45 36 46 37 47 38 48 39 49 40 50 101 51 41 52
REMARK SMILES IDX 100 53 42 54 43 55 44 56 94 57 45 58 99 59 93 60 95 61 46 62
REMARK SMILES IDX 98 63 92 64 91 65 47 67 79 68 59 69 78 70 60 71 63 72 77 73
REMARK SMILES IDX 96 74 61 75 62 76 76 78 97 79 64 80 48 81 49 82 57 83 50 84
REMARK SMILES IDX 56 85 58 86 55 87 51 88 52 89 53 90 54 91 80 92 81 93 89 94
REMARK SMILES IDX 82 95 88 96 90 97 87 98 83 99 84 100 85 101 86 102 65 103
REMARK SMILES IDX 66 104 74 105 67 106 73 107 75 108 72 109 68 110 69 111
REMARK SMILES IDX 70 112 71 113
REMARK H PARENT 20 12 16 17 95 66 63 77
REMARK Flexibility Score: inf
ROOT
ATOM      1  C   UNL A   1      31.403  28.910  25.140  1.00  0.00     0.188 C 
ENDROOT
BRANCH   1   2
ATOM      2  O   UNL A   1      30.472  29.624  24.342  1.00  0.00    -0.376 OA
BRANCH   2   3
ATOM      3  C   UNL A   1      30.341  29.214  22.978  1.00  0.00     0.202 C 
BRANCH   3   4
ATOM      4  C   UNL A   1      31.036  27.902  22.621  1.00  0.00     0.261 C 
BRANCH   4   5
ATOM      5  O   UNL A   1      32.421  28.199  22.379  1.00  0.00    -0.462 OA
BRANCH   5   6
ATOM      6  C   UNL A   1      33.247  27.147  22.202  1.00  0.00     0.325 C 
ATOM      7  O   UNL A   1      33.798  26.836  21.155  1.00  0.00    -0.250 OA
BRANCH   6   8
ATOM      8  C   UNL A   1      33.588  26.495  23.534  1.00  0.00     0.238 C 
BRANCH   8   9
ATOM      9  N   UNL A   1      33.598  25.044  23.599  1.00  0.00    -0.344 N 
ATOM     10  C   UNL A   1      32.485  24.257  23.558  1.00  0.00     0.239 C 
ATOM     11  O   UNL A   1      32.425  23.307  22.781  1.00  0.00    -0.273 OA
ATOM     12  H   UNL A   1      34.471  24.597  23.678  1.00  0.00     0.164 HD
BRANCH  10  13
ATOM     13  C   UNL A   1      31.284  24.674  24.396  1.00  0.00     0.216 C 
BRANCH  13  14
ATOM     14  N   UNL A   1      30.596  23.503  24.927  1.00  0.00    -0.340 N 
ATOM     15  C   UNL A   1      30.960  22.579  25.875  1.00  0.00     0.292 C 
ATOM     16  O   UNL A   1      30.146  21.725  26.209  1.00  0.00    -0.265 OA
ATOM     17  H   UNL A   1      29.707  23.347  24.533  1.00  0.00     0.164 HD
BRANCH  15  18
ATOM     18  C   UNL A   1      32.364  22.609  26.520  1.00  0.00     0.252 C 
ATOM     19  O   UNL A   1      32.533  23.314  27.513  1.00  0.00    -0.283 OA
BRANCH  18  20
ATOM     20  C   UNL A   1      33.477  21.835  25.957  1.00  0.00     0.054 A 
ATOM     21  N   UNL A   1      35.492  21.273  25.167  1.00  0.00    -0.240 N 
ATOM     22  C   UNL A   1      34.708  22.324  25.570  1.00  0.00     0.117 A 
ATOM     23  C   UNL A   1      34.737  20.122  25.068  1.00  0.00     0.065 A 
ATOM     24  C   UNL A   1      33.479  20.440  25.603  1.00  0.00     0.012 A 
ATOM     25  C   UNL A   1      35.018  18.846  24.547  1.00  0.00     0.028 A 
ATOM     26  C   UNL A   1      32.500  19.423  25.671  1.00  0.00     0.011 A 
ATOM     27  C   UNL A   1      34.005  17.884  24.569  1.00  0.00     0.002 A 
ATOM     28  C   UNL A   1      32.768  18.161  25.137  1.00  0.00     0.001 A 
BRANCH  21  29
ATOM     29  S   UNL A   1      37.060  21.478  24.524  1.00  0.00     0.268 S 
ATOM     30  O   UNL A   1      36.909  22.171  23.283  1.00  0.00    -0.201 OA
ATOM     31  O   UNL A   1      37.715  20.177  24.645  1.00  0.00    -0.201 OA
BRANCH  29  32
ATOM     32  C   UNL A   1      37.922  22.548  25.643  1.00  0.00     0.088 A 
ATOM     33  C   UNL A   1      39.780  25.249  28.408  1.00  0.00     0.044 C 
ATOM     34  C   UNL A   1      39.141  24.308  27.432  1.00  0.00    -0.051 A 
ATOM     35  C   UNL A   1      37.948  24.669  26.793  1.00  0.00     0.005 A 
ATOM     36  C   UNL A   1      39.728  23.070  27.149  1.00  0.00     0.005 A 
ATOM     37  C   UNL A   1      37.334  23.790  25.902  1.00  0.00     0.022 A 
ATOM     38  C   UNL A   1      39.127  22.193  26.249  1.00  0.00     0.022 A 
ENDBRANCH  29  32
ENDBRANCH  21  29
ENDBRANCH  18  20
ENDBRANCH  15  18
ENDBRANCH  13  14
ENDBRANCH  10  13
ENDBRANCH   8   9
ENDBRANCH   6   8
ENDBRANCH   5   6
ENDBRANCH   4   5
ENDBRANCH   3   4
ENDBRANCH   2   3
ENDBRANCH   1   2
BRANCH   1  39
ATOM     39  C   UNL A   1      32.720  29.596  25.512  1.00  0.00     0.188 C 
BRANCH  39  40
ATOM     40  O   UNL A   1      32.625  30.686  26.392  1.00  0.00    -0.377 OA
BRANCH  40  41
ATOM     41  C   UNL A   1      33.514  30.844  27.485  1.00  0.00     0.188 C 
BRANCH  41  42
ATOM     42  C   UNL A   1      34.246  32.134  27.887  1.00  0.00     0.188 C 
BRANCH  42  43
ATOM     43  O   UNL A   1      35.649  32.238  27.711  1.00  0.00    -0.376 OA
BRANCH  43  44
ATOM     44  C   UNL A   1      36.469  31.290  28.398  1.00  0.00     0.202 C 
BRANCH  44  45
ATOM     45  C   UNL A   1      36.452  31.288  29.937  1.00  0.00     0.261 C 
BRANCH  45  46
ATOM     46  O   UNL A   1      37.579  32.017  30.458  1.00  0.00    -0.460 OA
BRANCH  46  47
ATOM     47  C   UNL A   1      38.717  31.285  30.596  1.00  0.00     0.338 C 
ATOM     48  O   UNL A   1      38.760  30.113  30.927  1.00  0.00    -0.246 OA
BRANCH  47  49
ATOM     49  C   UNL A   1      39.905  32.147  30.356  1.00  0.00     0.060 A 
ATOM     50  C   UNL A   1      41.166  31.743  30.821  1.00  0.00     0.016 A 
ATOM     51  C   UNL A   1      39.713  33.451  29.907  1.00  0.00     0.016 A 
ATOM     52  C   UNL A   1      42.165  32.700  31.037  1.00  0.00     0.010 A 
ATOM     53  C   UNL A   1      40.667  34.401  30.205  1.00  0.00     0.010 A 
ATOM     54  C   UNL A   1      41.862  34.049  30.849  1.00  0.00    -0.014 A 
BRANCH  54  55
ATOM     55  C   UNL A   1      42.557  35.165  31.512  1.00  0.00     0.031 A 
ATOM     56  C   UNL A   1      42.203  35.511  32.920  1.00  0.00     0.074 A 
ATOM     57  C   UNL A   1      43.713  35.626  30.967  1.00  0.00     0.049 A 
ATOM     58  N   UNL A   1      42.887  36.305  33.660  1.00  0.00    -0.248 NA
ATOM     59  C   UNL A   1      41.058  34.959  33.641  1.00  0.00     0.031 C 
ATOM     60  C   UNL A   1      44.804  36.327  31.643  1.00  0.00     0.029 A 
ATOM     61  N   UNL A   1      44.199  35.559  29.678  1.00  0.00    -0.354 N 
ATOM     62  C   UNL A   1      42.451  36.231  34.962  1.00  0.00     0.074 A 
ATOM     63  C   UNL A   1      41.285  35.390  34.890  1.00  0.00     0.031 C 
ATOM     64  C   UNL A   1      45.737  36.735  30.769  1.00  0.00     0.029 A 
ATOM     65  C   UNL A   1      45.168  36.546  29.461  1.00  0.00     0.049 A 
ATOM     66  H   UNL A   1      43.904  34.906  29.002  1.00  0.00     0.167 HD
ATOM     67  C   UNL A   1      43.205  36.853  35.919  1.00  0.00     0.034 A 
ATOM     68  C   UNL A   1      44.888  37.596  28.628  1.00  0.00     0.034 A 
ATOM     69  C   UNL A   1      44.127  37.812  35.280  1.00  0.00     0.049 A 
ATOM     70  C   UNL A   1      44.511  38.851  29.443  1.00  0.00     0.074 A 
ATOM     71  C   UNL A   1      45.498  37.937  35.150  1.00  0.00     0.029 A 
ATOM     72  N   UNL A   1      43.585  38.720  34.367  1.00  0.00    -0.354 N 
ATOM     73  N   UNL A   1      44.365  38.841  30.751  1.00  0.00    -0.248 NA
ATOM     74  C   UNL A   1      44.321  40.198  28.921  1.00  0.00     0.031 C 
ATOM     75  C   UNL A   1      45.734  38.741  33.989  1.00  0.00     0.029 A 
ATOM     76  C   UNL A   1      44.543  39.296  33.561  1.00  0.00     0.049 A 
ATOM     77  H   UNL A   1      42.624  38.926  34.307  1.00  0.00     0.167 HD
ATOM     78  C   UNL A   1      44.185  40.092  31.261  1.00  0.00     0.074 A 
ATOM     79  C   UNL A   1      44.064  40.899  30.047  1.00  0.00     0.031 C 
ATOM     80  C   UNL A   1      44.176  40.354  32.617  1.00  0.00     0.034 A 
BRANCH  67  81
ATOM     81  C   UNL A   1      43.206  36.543  37.412  1.00  0.00     0.023 A 
ATOM     82  C   UNL A   1      42.013  36.679  38.167  1.00  0.00     0.031 A 
ATOM     83  C   UNL A   1      44.352  36.229  38.179  1.00  0.00     0.131 A 
ATOM     84  C   UNL A   1      41.998  36.504  39.573  1.00  0.00     0.055 A 
ATOM     85  C   UNL A   1      44.329  36.014  39.565  1.00  0.00     0.041 A 
ATOM     86  F   UNL A   1      45.576  36.160  37.647  1.00  0.00    -0.206 F 
ATOM     87  C   UNL A   1      43.150  36.157  40.271  1.00  0.00     0.022 A 
BRANCH  84  88
ATOM     88  S   UNL A   1      40.465  36.773  40.518  1.00  0.00     0.124 S 
ATOM     89  O   UNL A   1      40.524  38.200  40.813  1.00  0.00    -0.237 OA
ATOM     90  O   UNL A   1      39.439  36.332  39.582  1.00  0.00    -0.237 OA
ATOM     91  O   UNL A   1      40.631  35.906  41.687  1.00  0.00    -0.744 OA
ENDBRANCH  84  88
ENDBRANCH  67  81
BRANCH  68  92
ATOM     92  C   UNL A   1      44.425  37.036  27.307  1.00  0.00     0.023 A 
ATOM     93  C   UNL A   1      45.341  36.101  26.739  1.00  0.00     0.031 A 
ATOM     94  C   UNL A   1      43.062  36.821  27.060  1.00  0.00     0.131 A 
ATOM     95  C   UNL A   1      44.881  34.861  26.258  1.00  0.00     0.055 A 
ATOM     96  C   UNL A   1      42.612  35.610  26.499  1.00  0.00     0.041 A 
ATOM     97  F   UNL A   1      42.139  37.663  27.545  1.00  0.00    -0.206 F 
ATOM     98  C   UNL A   1      43.516  34.595  26.176  1.00  0.00     0.022 A 
BRANCH  95  99
ATOM     99  S   UNL A   1      46.055  33.470  26.085  1.00  0.00     0.124 S 
ATOM    100  O   UNL A   1      45.237  32.467  25.414  1.00  0.00    -0.237 OA
ATOM    101  O   UNL A   1      47.130  34.051  25.291  1.00  0.00    -0.237 OA
ATOM    102  O   UNL A   1      46.413  33.180  27.473  1.00  0.00    -0.744 OA
ENDBRANCH  95  99
ENDBRANCH  68  92
BRANCH  80 103
ATOM    103  C   UNL A   1      43.811  41.700  33.213  1.00  0.00     0.023 A 
ATOM    104  C   UNL A   1      44.692  42.392  34.037  1.00  0.00     0.031 A 
ATOM    105  C   UNL A   1      42.588  42.364  32.936  1.00  0.00     0.131 A 
ATOM    106  C   UNL A   1      44.496  43.752  34.305  1.00  0.00     0.055 A 
ATOM    107  C   UNL A   1      42.328  43.678  33.324  1.00  0.00     0.041 A 
ATOM    108  F   UNL A   1      41.599  41.808  32.224  1.00  0.00    -0.206 F 
ATOM    109  C   UNL A   1      43.317  44.406  33.960  1.00  0.00     0.022 A 
BRANCH 106 110
ATOM    110  S   UNL A   1      45.916  44.679  34.923  1.00  0.00     0.124 S 
ATOM    111  O   UNL A   1      45.554  46.060  34.621  1.00  0.00    -0.237 OA
ATOM    112  O   UNL A   1      45.904  44.320  36.340  1.00  0.00    -0.237 OA
ATOM    113  O   UNL A   1      47.038  44.142  34.157  1.00  0.00    -0.744 OA
ENDBRANCH 106 110
ENDBRANCH  80 103
ENDBRANCH  54  55
ENDBRANCH  47  49
ENDBRANCH  46  47
ENDBRANCH  45  46
ENDBRANCH  44  45
ENDBRANCH  43  44
ENDBRANCH  42  43
ENDBRANCH  41  42
ENDBRANCH  40  41
ENDBRANCH  39  40
ENDBRANCH   1  39
TORSDOF 30
ENDMDL
MODEL 3
REMARK VINA RESULT:      -9.8      2.577      3.567
REMARK SMILES Cc1ccc(S(=O)(=O)n2cc(C(=O)C(=O)NCC(=O)NCC(=O)OCCOCCOCCOCCOC(=O)c3ccc(-c4c5nc(c(-c6cc(S(=O)(=O)[O-])ccc6F)c6ccc([nH]6)c(-c6cc(S(=O)(=O)[O-])ccc6F)c6nc(c(-c7cc(S(=O)(=O)[O-])ccc7F)c7ccc4[nH]7)C=C6)C=C5)cc3)c3ccccc32)cc1
REMARK SMILES IDX 28 1 27 2 26 3 25 4 24 5 22 6 23 7 21 8 20 9 18 10 19 11
REMARK SMILES IDX 17 13 16 14 14 15 15 16 12 18 13 19 11 20 9 21 10 22 107 23
REMARK SMILES IDX 102 24 106 25 103 26 105 27 104 28 6 29 7 30 8 31 5 32 1 33
REMARK SMILES IDX 2 34 3 35 109 36 4 37 108 38 29 39 30 40 31 41 32 42 33 43
REMARK SMILES IDX 34 44 35 45 36 46 37 47 38 48 39 49 40 50 101 51 41 52
REMARK SMILES IDX 100 53 42 54 43 55 44 56 94 57 45 58 99 59 93 60 95 61 46 62
REMARK SMILES IDX 98 63 92 64 91 65 47 67 79 68 59 69 78 70 60 71 63 72 77 73
REMARK SMILES IDX 96 74 61 75 62 76 76 78 97 79 64 80 48 81 49 82 57 83 50 84
REMARK SMILES IDX 56 85 58 86 55 87 51 88 52 89 53 90 54 91 80 92 81 93 89 94
REMARK SMILES IDX 82 95 88 96 90 97 87 98 83 99 84 100 85 101 86 102 65 103
REMARK SMILES IDX 66 104 74 105 67 106 73 107 75 108 72 109 68 110 69 111
REMARK SMILES IDX 70 112 71 113
REMARK H PARENT 20 12 16 17 95 66 63 77
REMARK Flexibility Score: inf
ROOT
ATOM      1  C   UNL A   1      32.225  28.111  25.782  1.00  0.00     0.188 C 
ENDROOT
BRANCH   1   2
ATOM      2  O   UNL A   1      30.941  28.169  25.181  1.00  0.00    -0.376 OA
BRANCH   2   3
ATOM      3  C   UNL A   1      30.873  28.686  23.849  1.00  0.00     0.202 C 
BRANCH   3   4
ATOM      4  C   UNL A   1      30.732  27.637  22.748  1.00  0.00     0.261 C 
BRANCH   4   5
ATOM      5  O   UNL A   1      32.046  27.125  22.470  1.00  0.00    -0.462 OA
BRANCH   5   6
ATOM      6  C   UNL A   1      32.131  26.130  21.562  1.00  0.00     0.325 C 
ATOM      7  O   UNL A   1      31.472  26.040  20.535  1.00  0.00    -0.250 OA
BRANCH   6   8
ATOM      8  C   UNL A   1      33.313  25.222  21.862  1.00  0.00     0.238 C 
BRANCH   8   9
ATOM      9  N   UNL A   1      33.040  23.918  22.440  1.00  0.00    -0.344 N 
ATOM     10  C   UNL A   1      32.452  23.714  23.654  1.00  0.00     0.239 C 
ATOM     11  O   UNL A   1      31.501  22.944  23.762  1.00  0.00    -0.273 OA
ATOM     12  H   UNL A   1      33.296  23.124  21.918  1.00  0.00     0.164 HD
BRANCH  10  13
ATOM     13  C   UNL A   1      32.919  24.567  24.826  1.00  0.00     0.216 C 
BRANCH  13  14
ATOM     14  N   UNL A   1      33.389  23.726  25.920  1.00  0.00    -0.340 N 
ATOM     15  C   UNL A   1      34.644  23.290  26.266  1.00  0.00     0.292 C 
ATOM     16  O   UNL A   1      34.782  22.652  27.304  1.00  0.00    -0.265 OA
ATOM     17  H   UNL A   1      32.674  23.412  26.520  1.00  0.00     0.164 HD
BRANCH  15  18
ATOM     18  C   UNL A   1      35.869  23.598  25.375  1.00  0.00     0.252 C 
ATOM     19  O   UNL A   1      35.679  24.171  24.304  1.00  0.00    -0.283 OA
BRANCH  18  20
ATOM     20  C   UNL A   1      37.223  23.203  25.780  1.00  0.00     0.054 A 
ATOM     21  N   UNL A   1      39.304  23.270  26.599  1.00  0.00    -0.240 N 
ATOM     22  C   UNL A   1      38.214  24.033  26.265  1.00  0.00     0.117 A 
ATOM     23  C   UNL A   1      39.143  21.978  26.140  1.00  0.00     0.065 A 
ATOM     24  C   UNL A   1      37.824  21.901  25.664  1.00  0.00     0.012 A 
ATOM     25  C   UNL A   1      40.019  20.881  26.075  1.00  0.00     0.028 A 
ATOM     26  C   UNL A   1      37.361  20.662  25.167  1.00  0.00     0.011 A 
ATOM     27  C   UNL A   1      39.549  19.691  25.515  1.00  0.00     0.002 A 
ATOM     28  C   UNL A   1      38.234  19.575  25.080  1.00  0.00     0.001 A 
BRANCH  21  29
ATOM     29  S   UNL A   1      40.772  23.943  27.148  1.00  0.00     0.268 S 
ATOM     30  O   UNL A   1      41.688  23.886  26.051  1.00  0.00    -0.201 OA
ATOM     31  O   UNL A   1      41.034  23.325  28.447  1.00  0.00    -0.201 OA
BRANCH  29  32
ATOM     32  C   UNL A   1      40.443  25.649  27.492  1.00  0.00     0.088 A 
ATOM     33  C   UNL A   1      39.700  29.732  28.574  1.00  0.00     0.044 C 
ATOM     34  C   UNL A   1      39.948  28.306  28.188  1.00  0.00    -0.051 A 
ATOM     35  C   UNL A   1      39.776  27.287  29.134  1.00  0.00     0.005 A 
ATOM     36  C   UNL A   1      40.347  27.979  26.887  1.00  0.00     0.005 A 
ATOM     37  C   UNL A   1      40.027  25.960  28.790  1.00  0.00     0.022 A 
ATOM     38  C   UNL A   1      40.585  26.654  26.534  1.00  0.00     0.022 A 
ENDBRANCH  29  32
ENDBRANCH  21  29
ENDBRANCH  18  20
ENDBRANCH  15  18
ENDBRANCH  13  14
ENDBRANCH  10  13
ENDBRANCH   8   9
ENDBRANCH   6   8
ENDBRANCH   5   6
ENDBRANCH   4   5
ENDBRANCH   3   4
ENDBRANCH   2   3
ENDBRANCH   1   2
BRANCH   1  39
ATOM     39  C   UNL A   1      33.197  29.267  25.533  1.00  0.00     0.188 C 
BRANCH  39  40
ATOM     40  O   UNL A   1      33.087  30.368  26.396  1.00  0.00    -0.377 OA
BRANCH  40  41
ATOM     41  C   UNL A   1      34.077  30.661  27.367  1.00  0.00     0.188 C 
BRANCH  41  42
ATOM     42  C   UNL A   1      34.237  31.978  28.142  1.00  0.00     0.188 C 
BRANCH  42  43
ATOM     43  O   UNL A   1      34.958  33.056  27.569  1.00  0.00    -0.376 OA
BRANCH  43  44
ATOM     44  C   UNL A   1      35.477  34.045  28.460  1.00  0.00     0.202 C 
BRANCH  44  45
ATOM     45  C   UNL A   1      35.977  33.593  29.843  1.00  0.00     0.261 C 
BRANCH  45  46
ATOM     46  O   UNL A   1      35.202  34.211  30.888  1.00  0.00    -0.460 OA
BRANCH  46  47
ATOM     47  C   UNL A   1      35.006  33.436  31.987  1.00  0.00     0.338 C 
ATOM     48  O   UNL A   1      34.003  32.780  32.212  1.00  0.00    -0.246 OA
BRANCH  47  49
ATOM     49  C   UNL A   1      36.165  33.564  32.910  1.00  0.00     0.060 A 
ATOM     50  C   UNL A   1      37.138  34.548  32.677  1.00  0.00     0.016 A 
ATOM     51  C   UNL A   1      36.406  32.552  33.835  1.00  0.00     0.016 A 
ATOM     52  C   UNL A   1      38.425  34.390  33.205  1.00  0.00     0.010 A 
ATOM     53  C   UNL A   1      37.697  32.354  34.279  1.00  0.00     0.010 A 
ATOM     54  C   UNL A   1      38.733  33.220  33.900  1.00  0.00    -0.014 A 
BRANCH  54  55
ATOM     55  C   UNL A   1      40.087  32.660  34.040  1.00  0.00     0.031 A 
ATOM     56  C   UNL A   1      40.446  31.423  33.288  1.00  0.00     0.074 A 
ATOM     57  C   UNL A   1      41.064  33.445  34.566  1.00  0.00     0.049 A 
ATOM     58  N   UNL A   1      41.643  30.978  33.160  1.00  0.00    -0.248 NA
ATOM     59  C   UNL A   1      39.486  30.586  32.571  1.00  0.00     0.031 C 
ATOM     60  C   UNL A   1      42.507  33.336  34.361  1.00  0.00     0.029 A 
ATOM     61  N   UNL A   1      40.996  34.546  35.393  1.00  0.00    -0.354 N 
ATOM     62  C   UNL A   1      41.678  29.974  32.222  1.00  0.00     0.074 A 
ATOM     63  C   UNL A   1      40.292  29.751  31.901  1.00  0.00     0.031 C 
ATOM     64  C   UNL A   1      43.177  34.210  35.128  1.00  0.00     0.029 A 
ATOM     65  C   UNL A   1      42.215  34.746  36.053  1.00  0.00     0.049 A 
ATOM     66  H   UNL A   1      40.200  35.113  35.506  1.00  0.00     0.167 HD
ATOM     67  C   UNL A   1      42.906  29.533  31.811  1.00  0.00     0.034 A 
ATOM     68  C   UNL A   1      42.297  34.524  37.403  1.00  0.00     0.034 A 
ATOM     69  C   UNL A   1      43.938  29.971  32.770  1.00  0.00     0.049 A 
ATOM     70  C   UNL A   1      42.939  33.150  37.689  1.00  0.00     0.074 A 
ATOM     71  C   UNL A   1      45.033  30.815  32.735  1.00  0.00     0.029 A 
ATOM     72  N   UNL A   1      43.714  29.713  34.125  1.00  0.00    -0.354 N 
ATOM     73  N   UNL A   1      43.235  32.285  36.743  1.00  0.00    -0.248 NA
ATOM     74  C   UNL A   1      43.350  32.641  38.991  1.00  0.00     0.031 C 
ATOM     75  C   UNL A   1      45.281  31.231  34.083  1.00  0.00     0.029 A 
ATOM     76  C   UNL A   1      44.514  30.473  34.948  1.00  0.00     0.049 A 
ATOM     77  H   UNL A   1      43.056  29.058  34.454  1.00  0.00     0.167 HD
ATOM     78  C   UNL A   1      43.932  31.214  37.221  1.00  0.00     0.074 A 
ATOM     79  C   UNL A   1      43.886  31.444  38.665  1.00  0.00     0.031 C 
ATOM     80  C   UNL A   1      44.498  30.261  36.398  1.00  0.00     0.034 A 
BRANCH  67  81
ATOM     81  C   UNL A   1      43.215  28.803  30.508  1.00  0.00     0.023 A 
ATOM     82  C   UNL A   1      43.614  27.442  30.533  1.00  0.00     0.031 A 
ATOM     83  C   UNL A   1      43.256  29.403  29.228  1.00  0.00     0.131 A 
ATOM     84  C   UNL A   1      44.013  26.762  29.356  1.00  0.00     0.055 A 
ATOM     85  C   UNL A   1      43.610  28.717  28.057  1.00  0.00     0.041 A 
ATOM     86  F   UNL A   1      43.009  30.702  29.034  1.00  0.00    -0.206 F 
ATOM     87  C   UNL A   1      43.997  27.392  28.116  1.00  0.00     0.022 A 
BRANCH  84  88
ATOM     88  S   UNL A   1      44.603  25.041  29.441  1.00  0.00     0.124 S 
ATOM     89  O   UNL A   1      43.846  24.505  30.566  1.00  0.00    -0.237 OA
ATOM     90  O   UNL A   1      44.271  24.532  28.116  1.00  0.00    -0.237 OA
ATOM     91  O   UNL A   1      46.039  25.187  29.692  1.00  0.00    -0.744 OA
ENDBRANCH  84  88
ENDBRANCH  67  81
BRANCH  68  92
ATOM     92  C   UNL A   1      41.214  35.326  38.077  1.00  0.00     0.023 A 
ATOM     93  C   UNL A   1      40.170  34.521  38.622  1.00  0.00     0.031 A 
ATOM     94  C   UNL A   1      41.522  36.513  38.757  1.00  0.00     0.131 A 
ATOM     95  C   UNL A   1      39.725  34.734  39.940  1.00  0.00     0.055 A 
ATOM     96  C   UNL A   1      41.005  36.764  40.043  1.00  0.00     0.041 A 
ATOM     97  F   UNL A   1      42.479  37.333  38.300  1.00  0.00    -0.206 F 
ATOM     98  C   UNL A   1      40.173  35.833  40.670  1.00  0.00     0.022 A 
BRANCH  95  99
ATOM     99  S   UNL A   1      38.852  33.393  40.825  1.00  0.00     0.124 S 
ATOM    100  O   UNL A   1      39.051  33.772  42.218  1.00  0.00    -0.237 OA
ATOM    101  O   UNL A   1      37.489  33.506  40.321  1.00  0.00    -0.237 OA
ATOM    102  O   UNL A   1      39.568  32.198  40.379  1.00  0.00    -0.744 OA
ENDBRANCH  95  99
ENDBRANCH  68  92
BRANCH  80 103
ATOM    103  C   UNL A   1      45.128  28.978  36.903  1.00  0.00     0.023 A 
ATOM    104  C   UNL A   1      44.407  27.790  36.965  1.00  0.00     0.031 A 
ATOM    105  C   UNL A   1      46.490  28.885  37.294  1.00  0.00     0.131 A 
ATOM    106  C   UNL A   1      45.068  26.564  37.106  1.00  0.00     0.055 A 
ATOM    107  C   UNL A   1      47.122  27.673  37.575  1.00  0.00     0.041 A 
ATOM    108  F   UNL A   1      47.304  29.946  37.367  1.00  0.00    -0.206 F 
ATOM    109  C   UNL A   1      46.423  26.491  37.418  1.00  0.00     0.022 A 
BRANCH 106 110
ATOM    110  S   UNL A   1      44.146  25.079  36.659  1.00  0.00     0.124 S 
ATOM    111  O   UNL A   1      44.316  25.018  35.211  1.00  0.00    -0.237 OA
ATOM    112  O   UNL A   1      44.857  24.053  37.421  1.00  0.00    -0.237 OA
ATOM    113  O   UNL A   1      42.789  25.365  37.120  1.00  0.00    -0.744 OA
ENDBRANCH 106 110
ENDBRANCH  80 103
ENDBRANCH  54  55
ENDBRANCH  47  49
ENDBRANCH  46  47
ENDBRANCH  45  46
ENDBRANCH  44  45
ENDBRANCH  43  44
ENDBRANCH  42  43
ENDBRANCH  41  42
ENDBRANCH  40  41
ENDBRANCH  39  40
ENDBRANCH   1  39
TORSDOF 30
ENDMDL
