MODEL 1
REMARK VINA RESULT:      -7.5      0.000      0.000
REMARK SMILES COc1cccc([C@H](CC(=O)OCCOCCOCCOCCOC(=O)c2ccc(-c3c4nc(c(-c5cc(S(=O)(=O)[O-])ccc5F)c5ccc([nH]5)c(-c5cc(S(=O)(=O)[O-])ccc5F)c5nc(c(-c6cc(S(=O)(=O)[O-])ccc6F)c6ccc3[nH]6)C=C5)C=C4)cc2)NS(=O)(=O)c2ccc3c(c2)C[C@@H](C)N3C(C)=O)c1
REMARK SMILES IDX 17 1 16 2 15 3 14 4 13 5 12 6 10 7 11 8 9 9 8 10 7 11 3 12
REMARK SMILES IDX 4 13 107 14 5 15 6 16 2 17 1 18 90 19 91 21 92 22 93 23
REMARK SMILES IDX 94 24 95 25 99 26 96 27 98 28 97 29 100 30 103 31 101 32
REMARK SMILES IDX 102 33 104 34 105 35 106 36 18 37 19 38 20 39 21 40 22 41
REMARK SMILES IDX 23 42 24 43 25 44 26 45 27 46 28 47 89 48 29 49 88 50 30 51
REMARK SMILES IDX 31 52 32 53 82 54 33 55 87 56 81 57 83 58 34 59 86 60 80 61
REMARK SMILES IDX 79 62 35 64 67 65 47 66 66 67 48 68 51 69 65 70 84 71 49 72
REMARK SMILES IDX 50 73 64 75 85 76 52 77 36 78 37 79 45 80 38 81 44 82 46 83
REMARK SMILES IDX 43 84 39 85 40 86 41 87 42 88 68 89 69 90 77 91 70 92 76 93
REMARK SMILES IDX 78 94 75 95 71 96 72 97 73 98 74 99 53 100 54 101 62 102
REMARK SMILES IDX 55 103 61 104 63 105 60 106 56 107 57 108 58 109 59 110
REMARK H PARENT 90 20 83 63 51 74
REMARK Flexibility Score: inf
ROOT
ATOM      1  C   UNL A   1      43.315  28.560  30.937  1.00  0.00     0.188 C 
ENDROOT
BRANCH   1   2
ATOM      2  C   UNL A   1      43.120  29.593  29.832  1.00  0.00     0.188 C 
BRANCH   2   3
ATOM      3  O   UNL A   1      42.309  29.149  28.773  1.00  0.00    -0.376 OA
BRANCH   3   4
ATOM      4  C   UNL A   1      41.613  27.919  28.877  1.00  0.00     0.202 C 
BRANCH   4   5
ATOM      5  C   UNL A   1      42.044  26.535  28.314  1.00  0.00     0.261 C 
BRANCH   5   6
ATOM      6  O   UNL A   1      41.072  25.515  27.992  1.00  0.00    -0.463 OA
BRANCH   6   7
ATOM      7  C   UNL A   1      40.535  25.605  26.763  1.00  0.00     0.307 C 
ATOM      8  O   UNL A   1      40.941  26.404  25.915  1.00  0.00    -0.252 OA
BRANCH   7   9
ATOM      9  C   UNL A   1      39.466  24.615  26.347  1.00  0.00     0.147 C 
BRANCH   9  10
ATOM     10  C   UNL A   1      39.281  23.085  26.589  1.00  0.00     0.111 C 
BRANCH  10  11
ATOM     11  C   UNL A   1      37.925  22.674  25.970  1.00  0.00    -0.026 A 
ATOM     12  C   UNL A   1      35.604  23.221  25.372  1.00  0.00     0.119 A 
ATOM     13  C   UNL A   1      35.574  22.125  24.517  1.00  0.00     0.046 A 
ATOM     14  C   UNL A   1      36.783  23.505  26.060  1.00  0.00     0.051 A 
ATOM     15  C   UNL A   1      36.678  21.280  24.419  1.00  0.00     0.004 A 
ATOM     16  C   UNL A   1      37.822  21.525  25.180  1.00  0.00     0.005 A 
BRANCH  12  17
ATOM     17  O   UNL A   1      34.444  23.940  25.446  1.00  0.00    -0.497 OA
ATOM     18  C   UNL A   1      34.451  25.251  24.889  1.00  0.00     0.278 C 
ENDBRANCH  12  17
ENDBRANCH  10  11
BRANCH  10  19
ATOM     19  N   UNL A   1      40.358  22.304  25.890  1.00  0.00    -0.203 NA
ATOM     20  H   UNL A   1      41.015  22.995  25.527  1.00  0.00     0.142 HD
BRANCH  19  21
ATOM     21  S   UNL A   1      41.313  21.113  26.672  1.00  0.00     0.241 S 
ATOM     22  O   UNL A   1      40.628  20.690  27.883  1.00  0.00    -0.207 OA
ATOM     23  O   UNL A   1      41.642  20.140  25.671  1.00  0.00    -0.207 OA
BRANCH  21  24
ATOM     24  C   UNL A   1      42.781  21.981  27.128  1.00  0.00     0.082 A 
ATOM     25  C   UNL A   1      42.927  22.578  28.394  1.00  0.00     0.024 A 
ATOM     26  C   UNL A   1      43.688  22.214  26.104  1.00  0.00     0.027 A 
ATOM     27  C   UNL A   1      43.901  23.560  28.585  1.00  0.00     0.028 A 
ATOM     28  C   UNL A   1      44.572  23.247  26.267  1.00  0.00    -0.021 A 
ATOM     29  C   UNL A   1      44.642  23.934  27.480  1.00  0.00     0.047 A 
ATOM     30  C   UNL A   1      45.534  23.824  25.274  1.00  0.00     0.063 C 
ATOM     31  N   UNL A   1      45.534  25.012  27.350  1.00  0.00    -0.309 N 
ATOM     32  C   UNL A   1      45.723  25.220  25.889  1.00  0.00     0.092 C 
ATOM     33  C   UNL A   1      44.638  26.165  25.335  1.00  0.00     0.032 C 
BRANCH  31  34
ATOM     34  C   UNL A   1      46.496  25.177  28.330  1.00  0.00     0.224 C 
ATOM     35  C   UNL A   1      46.040  26.028  29.491  1.00  0.00     0.115 C 
ATOM     36  O   UNL A   1      47.679  24.883  28.166  1.00  0.00    -0.275 OA
ENDBRANCH  31  34
ENDBRANCH  21  24
ENDBRANCH  19  21
ENDBRANCH  10  19
ENDBRANCH   9  10
ENDBRANCH   7   9
ENDBRANCH   6   7
ENDBRANCH   5   6
ENDBRANCH   4   5
ENDBRANCH   3   4
ENDBRANCH   2   3
ENDBRANCH   1   2
BRANCH   1  37
ATOM     37  O   UNL A   1      42.871  28.922  32.230  1.00  0.00    -0.377 OA
BRANCH  37  38
ATOM     38  C   UNL A   1      42.152  28.013  33.053  1.00  0.00     0.188 C 
BRANCH  38  39
ATOM     39  C   UNL A   1      41.157  28.503  34.107  1.00  0.00     0.188 C 
BRANCH  39  40
ATOM     40  O   UNL A   1      39.828  28.568  33.645  1.00  0.00    -0.376 OA
BRANCH  40  41
ATOM     41  C   UNL A   1      39.501  28.186  32.323  1.00  0.00     0.202 C 
BRANCH  41  42
ATOM     42  C   UNL A   1      38.953  29.150  31.255  1.00  0.00     0.261 C 
BRANCH  42  43
ATOM     43  O   UNL A   1      39.660  30.364  30.988  1.00  0.00    -0.460 OA
BRANCH  43  44
ATOM     44  C   UNL A   1      38.928  31.498  30.962  1.00  0.00     0.338 C 
ATOM     45  O   UNL A   1      37.967  31.725  30.249  1.00  0.00    -0.246 OA
BRANCH  44  46
ATOM     46  C   UNL A   1      39.392  32.388  32.051  1.00  0.00     0.060 A 
ATOM     47  C   UNL A   1      40.459  31.968  32.855  1.00  0.00     0.016 A 
ATOM     48  C   UNL A   1      38.746  33.595  32.321  1.00  0.00     0.016 A 
ATOM     49  C   UNL A   1      40.848  32.726  33.967  1.00  0.00     0.010 A 
ATOM     50  C   UNL A   1      39.135  34.349  33.438  1.00  0.00     0.010 A 
ATOM     51  C   UNL A   1      40.166  33.904  34.294  1.00  0.00    -0.014 A 
BRANCH  51  52
ATOM     52  C   UNL A   1      40.393  34.587  35.602  1.00  0.00     0.031 A 
ATOM     53  C   UNL A   1      41.549  35.552  35.714  1.00  0.00     0.074 A 
ATOM     54  C   UNL A   1      39.618  34.363  36.683  1.00  0.00     0.049 A 
ATOM     55  N   UNL A   1      42.012  36.177  36.767  1.00  0.00    -0.248 NA
ATOM     56  C   UNL A   1      42.270  35.857  34.469  1.00  0.00     0.031 C 
ATOM     57  C   UNL A   1      38.421  33.523  36.720  1.00  0.00     0.029 A 
ATOM     58  N   UNL A   1      39.767  34.777  37.987  1.00  0.00    -0.354 N 
ATOM     59  C   UNL A   1      43.046  36.982  36.302  1.00  0.00     0.074 A 
ATOM     60  C   UNL A   1      43.212  36.684  34.896  1.00  0.00     0.031 C 
ATOM     61  C   UNL A   1      38.016  33.390  37.996  1.00  0.00     0.029 A 
ATOM     62  C   UNL A   1      38.911  34.150  38.866  1.00  0.00     0.049 A 
ATOM     63  H   UNL A   1      40.423  35.456  38.265  1.00  0.00     0.167 HD
ATOM     64  C   UNL A   1      43.759  37.926  36.966  1.00  0.00     0.034 A 
ATOM     65  C   UNL A   1      38.873  34.160  40.214  1.00  0.00     0.034 A 
ATOM     66  C   UNL A   1      43.605  38.215  38.368  1.00  0.00     0.049 A 
ATOM     67  C   UNL A   1      39.808  35.073  40.976  1.00  0.00     0.074 A 
ATOM     68  C   UNL A   1      44.253  39.174  39.126  1.00  0.00     0.029 A 
ATOM     69  N   UNL A   1      42.756  37.536  39.230  1.00  0.00    -0.354 N 
ATOM     70  N   UNL A   1      40.735  35.877  40.510  1.00  0.00    -0.248 NA
ATOM     71  C   UNL A   1      39.653  35.121  42.436  1.00  0.00     0.031 C 
ATOM     72  C   UNL A   1      43.850  39.029  40.457  1.00  0.00     0.029 A 
ATOM     73  C   UNL A   1      42.889  38.035  40.517  1.00  0.00     0.049 A 
ATOM     74  H   UNL A   1      42.150  36.807  38.967  1.00  0.00     0.167 HD
ATOM     75  C   UNL A   1      41.209  36.585  41.614  1.00  0.00     0.074 A 
ATOM     76  C   UNL A   1      40.480  36.100  42.765  1.00  0.00     0.031 C 
ATOM     77  C   UNL A   1      42.144  37.568  41.662  1.00  0.00     0.034 A 
BRANCH  64  78
ATOM     78  C   UNL A   1      44.761  38.721  36.168  1.00  0.00     0.023 A 
ATOM     79  C   UNL A   1      44.405  39.941  35.566  1.00  0.00     0.031 A 
ATOM     80  C   UNL A   1      46.079  38.264  36.004  1.00  0.00     0.131 A 
ATOM     81  C   UNL A   1      45.333  40.629  34.773  1.00  0.00     0.055 A 
ATOM     82  C   UNL A   1      47.023  38.993  35.278  1.00  0.00     0.041 A 
ATOM     83  F   UNL A   1      46.470  37.097  36.540  1.00  0.00    -0.206 F 
ATOM     84  C   UNL A   1      46.649  40.178  34.646  1.00  0.00     0.022 A 
BRANCH  81  85
ATOM     85  S   UNL A   1      44.759  42.054  33.811  1.00  0.00     0.124 S 
ATOM     86  O   UNL A   1      45.033  43.157  34.729  1.00  0.00    -0.237 OA
ATOM     87  O   UNL A   1      45.597  41.992  32.620  1.00  0.00    -0.237 OA
ATOM     88  O   UNL A   1      43.342  41.771  33.593  1.00  0.00    -0.744 OA
ENDBRANCH  81  85
ENDBRANCH  64  78
BRANCH  65  89
ATOM     89  C   UNL A   1      37.940  33.266  40.962  1.00  0.00     0.023 A 
ATOM     90  C   UNL A   1      36.624  33.659  41.243  1.00  0.00     0.031 A 
ATOM     91  C   UNL A   1      38.397  32.053  41.510  1.00  0.00     0.131 A 
ATOM     92  C   UNL A   1      35.834  32.892  42.114  1.00  0.00     0.055 A 
ATOM     93  C   UNL A   1      37.591  31.267  42.336  1.00  0.00     0.041 A 
ATOM     94  F   UNL A   1      39.644  31.622  41.259  1.00  0.00    -0.206 F 
ATOM     95  C   UNL A   1      36.306  31.697  42.660  1.00  0.00     0.022 A 
BRANCH  92  96
ATOM     96  S   UNL A   1      34.219  33.550  42.618  1.00  0.00     0.124 S 
ATOM     97  O   UNL A   1      33.896  34.426  41.498  1.00  0.00    -0.237 OA
ATOM     98  O   UNL A   1      33.425  32.332  42.732  1.00  0.00    -0.237 OA
ATOM     99  O   UNL A   1      34.508  34.226  43.881  1.00  0.00    -0.744 OA
ENDBRANCH  92  96
ENDBRANCH  65  89
BRANCH  77 100
ATOM    100  C   UNL A   1      42.356  38.266  42.984  1.00  0.00     0.023 A 
ATOM    101  C   UNL A   1      43.234  37.770  43.963  1.00  0.00     0.031 A 
ATOM    102  C   UNL A   1      41.653  39.452  43.270  1.00  0.00     0.131 A 
ATOM    103  C   UNL A   1      43.340  38.423  45.201  1.00  0.00     0.055 A 
ATOM    104  C   UNL A   1      41.816  40.135  44.475  1.00  0.00     0.041 A 
ATOM    105  F   UNL A   1      40.796  39.971  42.376  1.00  0.00    -0.206 F 
ATOM    106  C   UNL A   1      42.653  39.612  45.456  1.00  0.00     0.022 A 
BRANCH 103 107
ATOM    107  S   UNL A   1      44.312  37.639  46.517  1.00  0.00     0.124 S 
ATOM    108  O   UNL A   1      43.493  37.902  47.695  1.00  0.00    -0.237 OA
ATOM    109  O   UNL A   1      44.369  36.249  46.076  1.00  0.00    -0.237 OA
ATOM    110  O   UNL A   1      45.586  38.355  46.474  1.00  0.00    -0.744 OA
ENDBRANCH 103 107
ENDBRANCH  77 100
ENDBRANCH  51  52
ENDBRANCH  44  46
ENDBRANCH  43  44
ENDBRANCH  42  43
ENDBRANCH  41  42
ENDBRANCH  40  41
ENDBRANCH  39  40
ENDBRANCH  38  39
ENDBRANCH  37  38
ENDBRANCH   1  37
TORSDOF 30
ENDMDL
MODEL 2
REMARK VINA RESULT:      -7.0      1.724      2.050
REMARK SMILES COc1cccc([C@H](CC(=O)OCCOCCOCCOCCOC(=O)c2ccc(-c3c4nc(c(-c5cc(S(=O)(=O)[O-])ccc5F)c5ccc([nH]5)c(-c5cc(S(=O)(=O)[O-])ccc5F)c5nc(c(-c6cc(S(=O)(=O)[O-])ccc6F)c6ccc3[nH]6)C=C5)C=C4)cc2)NS(=O)(=O)c2ccc3c(c2)C[C@@H](C)N3C(C)=O)c1
REMARK SMILES IDX 17 1 16 2 15 3 14 4 13 5 12 6 10 7 11 8 9 9 8 10 7 11 3 12
REMARK SMILES IDX 4 13 107 14 5 15 6 16 2 17 1 18 90 19 91 21 92 22 93 23
REMARK SMILES IDX 94 24 95 25 99 26 96 27 98 28 97 29 100 30 103 31 101 32
REMARK SMILES IDX 102 33 104 34 105 35 106 36 18 37 19 38 20 39 21 40 22 41
REMARK SMILES IDX 23 42 24 43 25 44 26 45 27 46 28 47 89 48 29 49 88 50 30 51
REMARK SMILES IDX 31 52 32 53 82 54 33 55 87 56 81 57 83 58 34 59 86 60 80 61
REMARK SMILES IDX 79 62 35 64 67 65 47 66 66 67 48 68 51 69 65 70 84 71 49 72
REMARK SMILES IDX 50 73 64 75 85 76 52 77 36 78 37 79 45 80 38 81 44 82 46 83
REMARK SMILES IDX 43 84 39 85 40 86 41 87 42 88 68 89 69 90 77 91 70 92 76 93
REMARK SMILES IDX 78 94 75 95 71 96 72 97 73 98 74 99 53 100 54 101 62 102
REMARK SMILES IDX 55 103 61 104 63 105 60 106 56 107 57 108 58 109 59 110
REMARK H PARENT 90 20 83 63 51 74
REMARK Flexibility Score: inf
ROOT
ATOM      1  C   UNL A   1      43.931  27.998  31.048  1.00  0.00     0.188 C 
ENDROOT
BRANCH   1   2
ATOM      2  C   UNL A   1      43.774  29.047  29.952  1.00  0.00     0.188 C 
BRANCH   2   3
ATOM      3  O   UNL A   1      42.684  28.817  29.094  1.00  0.00    -0.376 OA
BRANCH   3   4
ATOM      4  C   UNL A   1      41.986  27.585  29.146  1.00  0.00     0.202 C 
BRANCH   4   5
ATOM      5  C   UNL A   1      41.710  26.602  27.974  1.00  0.00     0.261 C 
BRANCH   5   6
ATOM      6  O   UNL A   1      40.546  25.744  27.966  1.00  0.00    -0.463 OA
BRANCH   6   7
ATOM      7  C   UNL A   1      40.281  25.151  26.790  1.00  0.00     0.307 C 
ATOM      8  O   UNL A   1      41.044  25.219  25.822  1.00  0.00    -0.252 OA
BRANCH   7   9
ATOM      9  C   UNL A   1      39.059  24.264  26.665  1.00  0.00     0.147 C 
BRANCH   9  10
ATOM     10  C   UNL A   1      38.876  22.728  26.463  1.00  0.00     0.111 C 
BRANCH  10  11
ATOM     11  C   UNL A   1      37.648  22.520  25.546  1.00  0.00    -0.026 A 
ATOM     12  C   UNL A   1      35.441  21.518  25.136  1.00  0.00     0.119 A 
ATOM     13  C   UNL A   1      35.232  22.419  24.099  1.00  0.00     0.046 A 
ATOM     14  C   UNL A   1      36.624  21.598  25.869  1.00  0.00     0.051 A 
ATOM     15  C   UNL A   1      36.228  23.328  23.747  1.00  0.00     0.004 A 
ATOM     16  C   UNL A   1      37.444  23.341  24.432  1.00  0.00     0.005 A 
BRANCH  12  17
ATOM     17  O   UNL A   1      34.429  20.623  25.350  1.00  0.00    -0.497 OA
ATOM     18  C   UNL A   1      34.658  19.273  24.961  1.00  0.00     0.278 C 
ENDBRANCH  12  17
ENDBRANCH  10  11
BRANCH  10  19
ATOM     19  N   UNL A   1      40.071  22.139  25.768  1.00  0.00    -0.203 NA
ATOM     20  H   UNL A   1      40.704  22.918  25.590  1.00  0.00     0.142 HD
BRANCH  19  21
ATOM     21  S   UNL A   1      41.035  20.895  26.449  1.00  0.00     0.241 S 
ATOM     22  O   UNL A   1      40.422  20.461  27.694  1.00  0.00    -0.207 OA
ATOM     23  O   UNL A   1      41.258  19.939  25.402  1.00  0.00    -0.207 OA
BRANCH  21  24
ATOM     24  C   UNL A   1      42.561  21.699  26.822  1.00  0.00     0.082 A 
ATOM     25  C   UNL A   1      42.837  22.211  28.104  1.00  0.00     0.024 A 
ATOM     26  C   UNL A   1      43.378  21.978  25.735  1.00  0.00     0.027 A 
ATOM     27  C   UNL A   1      43.851  23.156  28.265  1.00  0.00     0.028 A 
ATOM     28  C   UNL A   1      44.302  22.979  25.880  1.00  0.00    -0.021 A 
ATOM     29  C   UNL A   1      44.499  23.584  27.122  1.00  0.00     0.047 A 
ATOM     30  C   UNL A   1      45.185  23.598  24.841  1.00  0.00     0.063 C 
ATOM     31  N   UNL A   1      45.405  24.649  26.978  1.00  0.00    -0.309 N 
ATOM     32  C   UNL A   1      45.468  24.946  25.522  1.00  0.00     0.092 C 
ATOM     33  C   UNL A   1      44.363  25.948  25.130  1.00  0.00     0.032 C 
BRANCH  31  34
ATOM     34  C   UNL A   1      46.456  24.730  27.875  1.00  0.00     0.224 C 
ATOM     35  C   UNL A   1      46.178  25.627  29.057  1.00  0.00     0.115 C 
ATOM     36  O   UNL A   1      47.589  24.325  27.619  1.00  0.00    -0.275 OA
ENDBRANCH  31  34
ENDBRANCH  21  24
ENDBRANCH  19  21
ENDBRANCH  10  19
ENDBRANCH   9  10
ENDBRANCH   7   9
ENDBRANCH   6   7
ENDBRANCH   5   6
ENDBRANCH   4   5
ENDBRANCH   3   4
ENDBRANCH   2   3
ENDBRANCH   1   2
BRANCH   1  37
ATOM     37  O   UNL A   1      43.859  28.459  32.383  1.00  0.00    -0.377 OA
BRANCH  37  38
ATOM     38  C   UNL A   1      43.395  27.624  33.436  1.00  0.00     0.188 C 
BRANCH  38  39
ATOM     39  C   UNL A   1      42.640  28.197  34.637  1.00  0.00     0.188 C 
BRANCH  39  40
ATOM     40  O   UNL A   1      41.285  28.481  34.372  1.00  0.00    -0.376 OA
BRANCH  40  41
ATOM     41  C   UNL A   1      40.740  28.271  33.084  1.00  0.00     0.202 C 
BRANCH  41  42
ATOM     42  C   UNL A   1      40.356  29.403  32.113  1.00  0.00     0.261 C 
BRANCH  42  43
ATOM     43  O   UNL A   1      41.273  30.482  31.909  1.00  0.00    -0.460 OA
BRANCH  43  44
ATOM     44  C   UNL A   1      40.734  31.694  31.657  1.00  0.00     0.338 C 
ATOM     45  O   UNL A   1      40.044  31.997  30.699  1.00  0.00    -0.246 OA
BRANCH  44  46
ATOM     46  C   UNL A   1      40.994  32.580  32.815  1.00  0.00     0.060 A 
ATOM     47  C   UNL A   1      41.913  32.166  33.786  1.00  0.00     0.016 A 
ATOM     48  C   UNL A   1      40.295  33.778  32.978  1.00  0.00     0.016 A 
ATOM     49  C   UNL A   1      42.097  32.918  34.953  1.00  0.00     0.010 A 
ATOM     50  C   UNL A   1      40.479  34.527  34.150  1.00  0.00     0.010 A 
ATOM     51  C   UNL A   1      41.354  34.086  35.166  1.00  0.00    -0.014 A 
BRANCH  51  52
ATOM     52  C   UNL A   1      41.346  34.761  36.498  1.00  0.00     0.031 A 
ATOM     53  C   UNL A   1      42.329  35.882  36.739  1.00  0.00     0.074 A 
ATOM     54  C   UNL A   1      40.510  34.397  37.492  1.00  0.00     0.049 A 
ATOM     55  N   UNL A   1      42.587  36.541  37.840  1.00  0.00    -0.248 NA
ATOM     56  C   UNL A   1      43.116  36.322  35.576  1.00  0.00     0.031 C 
ATOM     57  C   UNL A   1      39.454  33.390  37.397  1.00  0.00     0.029 A 
ATOM     58  N   UNL A   1      40.466  34.794  38.809  1.00  0.00    -0.354 N 
ATOM     59  C   UNL A   1      43.531  37.501  37.492  1.00  0.00     0.074 A 
ATOM     60  C   UNL A   1      43.877  37.267  36.107  1.00  0.00     0.031 C 
ATOM     61  C   UNL A   1      38.948  33.165  38.625  1.00  0.00     0.029 A 
ATOM     62  C   UNL A   1      39.630  34.025  39.589  1.00  0.00     0.049 A 
ATOM     63  H   UNL A   1      40.982  35.555  39.160  1.00  0.00     0.167 HD
ATOM     64  C   UNL A   1      44.025  38.522  38.235  1.00  0.00     0.034 A 
ATOM     65  C   UNL A   1      39.457  33.994  40.927  1.00  0.00     0.034 A 
ATOM     66  C   UNL A   1      43.692  38.748  39.618  1.00  0.00     0.049 A 
ATOM     67  C   UNL A   1      40.165  35.015  41.789  1.00  0.00     0.074 A 
ATOM     68  C   UNL A   1      44.111  39.772  40.448  1.00  0.00     0.029 A 
ATOM     69  N   UNL A   1      42.873  37.929  40.381  1.00  0.00    -0.354 N 
ATOM     70  N   UNL A   1      41.004  35.958  41.430  1.00  0.00    -0.248 NA
ATOM     71  C   UNL A   1      39.861  35.001  43.227  1.00  0.00     0.031 C 
ATOM     72  C   UNL A   1      43.605  39.535  41.730  1.00  0.00     0.029 A 
ATOM     73  C   UNL A   1      42.801  38.408  41.680  1.00  0.00     0.049 A 
ATOM     74  H   UNL A   1      42.411  37.126  40.049  1.00  0.00     0.167 HD
ATOM     75  C   UNL A   1      41.255  36.699  42.584  1.00  0.00     0.074 A 
ATOM     76  C   UNL A   1      40.497  36.082  43.649  1.00  0.00     0.031 C 
ATOM     77  C   UNL A   1      42.024  37.808  42.738  1.00  0.00     0.034 A 
BRANCH  64  78
ATOM     78  C   UNL A   1      44.972  39.476  37.553  1.00  0.00     0.023 A 
ATOM     79  C   UNL A   1      44.493  40.610  36.872  1.00  0.00     0.031 A 
ATOM     80  C   UNL A   1      46.359  39.258  37.577  1.00  0.00     0.131 A 
ATOM     81  C   UNL A   1      45.386  41.446  36.187  1.00  0.00     0.055 A 
ATOM     82  C   UNL A   1      47.251  40.138  36.960  1.00  0.00     0.041 A 
ATOM     83  F   UNL A   1      46.872  38.183  38.195  1.00  0.00    -0.206 F 
ATOM     84  C   UNL A   1      46.765  41.233  36.249  1.00  0.00     0.022 A 
BRANCH  81  85
ATOM     85  S   UNL A   1      44.707  42.740  35.115  1.00  0.00     0.124 S 
ATOM     86  O   UNL A   1      43.324  42.812  35.582  1.00  0.00    -0.237 OA
ATOM     87  O   UNL A   1      45.548  43.888  35.432  1.00  0.00    -0.237 OA
ATOM     88  O   UNL A   1      44.875  42.194  33.771  1.00  0.00    -0.744 OA
ENDBRANCH  81  85
ENDBRANCH  64  78
BRANCH  65  89
ATOM     89  C   UNL A   1      38.598  32.954  41.566  1.00  0.00     0.023 A 
ATOM     90  C   UNL A   1      37.260  33.215  41.893  1.00  0.00     0.031 A 
ATOM     91  C   UNL A   1      39.147  31.721  41.966  1.00  0.00     0.131 A 
ATOM     92  C   UNL A   1      36.536  32.296  42.670  1.00  0.00     0.055 A 
ATOM     93  C   UNL A   1      38.407  30.787  42.695  1.00  0.00     0.041 A 
ATOM     94  F   UNL A   1      40.418  31.414  41.663  1.00  0.00    -0.206 F 
ATOM     95  C   UNL A   1      37.099  31.082  43.069  1.00  0.00     0.022 A 
BRANCH  92  96
ATOM     96  S   UNL A   1      34.884  32.772  43.251  1.00  0.00     0.124 S 
ATOM     97  O   UNL A   1      35.040  32.668  44.697  1.00  0.00    -0.237 OA
ATOM     98  O   UNL A   1      34.757  34.122  42.713  1.00  0.00    -0.237 OA
ATOM     99  O   UNL A   1      34.010  31.773  42.640  1.00  0.00    -0.744 OA
ENDBRANCH  92  96
ENDBRANCH  65  89
BRANCH  77 100
ATOM    100  C   UNL A   1      41.998  38.494  44.082  1.00  0.00     0.023 A 
ATOM    101  C   UNL A   1      41.063  39.496  44.396  1.00  0.00     0.031 A 
ATOM    102  C   UNL A   1      42.939  38.140  45.068  1.00  0.00     0.131 A 
ATOM    103  C   UNL A   1      41.128  40.148  45.638  1.00  0.00     0.055 A 
ATOM    104  C   UNL A   1      42.954  38.742  46.326  1.00  0.00     0.041 A 
ATOM    105  F   UNL A   1      43.861  37.194  44.823  1.00  0.00    -0.206 F 
ATOM    106  C   UNL A   1      42.054  39.763  46.611  1.00  0.00     0.022 A 
BRANCH 103 107
ATOM    107  S   UNL A   1      40.051  41.578  45.927  1.00  0.00     0.124 S 
ATOM    108  O   UNL A   1      38.731  40.958  45.970  1.00  0.00    -0.237 OA
ATOM    109  O   UNL A   1      40.555  42.096  47.194  1.00  0.00    -0.237 OA
ATOM    110  O   UNL A   1      40.298  42.432  44.766  1.00  0.00    -0.744 OA
ENDBRANCH 103 107
ENDBRANCH  77 100
ENDBRANCH  51  52
ENDBRANCH  44  46
ENDBRANCH  43  44
ENDBRANCH  42  43
ENDBRANCH  41  42
ENDBRANCH  40  41
ENDBRANCH  39  40
ENDBRANCH  38  39
ENDBRANCH  37  38
ENDBRANCH   1  37
TORSDOF 30
ENDMDL
MODEL 3
REMARK VINA RESULT:      -6.9      6.121     14.112
REMARK SMILES COc1cccc([C@H](CC(=O)OCCOCCOCCOCCOC(=O)c2ccc(-c3c4nc(c(-c5cc(S(=O)(=O)[O-])ccc5F)c5ccc([nH]5)c(-c5cc(S(=O)(=O)[O-])ccc5F)c5nc(c(-c6cc(S(=O)(=O)[O-])ccc6F)c6ccc3[nH]6)C=C5)C=C4)cc2)NS(=O)(=O)c2ccc3c(c2)C[C@@H](C)N3C(C)=O)c1
REMARK SMILES IDX 17 1 16 2 15 3 14 4 13 5 12 6 10 7 11 8 9 9 8 10 7 11 3 12
REMARK SMILES IDX 4 13 107 14 5 15 6 16 2 17 1 18 90 19 91 21 92 22 93 23
REMARK SMILES IDX 94 24 95 25 99 26 96 27 98 28 97 29 100 30 103 31 101 32
REMARK SMILES IDX 102 33 104 34 105 35 106 36 18 37 19 38 20 39 21 40 22 41
REMARK SMILES IDX 23 42 24 43 25 44 26 45 27 46 28 47 89 48 29 49 88 50 30 51
REMARK SMILES IDX 31 52 32 53 82 54 33 55 87 56 81 57 83 58 34 59 86 60 80 61
REMARK SMILES IDX 79 62 35 64 67 65 47 66 66 67 48 68 51 69 65 70 84 71 49 72
REMARK SMILES IDX 50 73 64 75 85 76 52 77 36 78 37 79 45 80 38 81 44 82 46 83
REMARK SMILES IDX 43 84 39 85 40 86 41 87 42 88 68 89 69 90 77 91 70 92 76 93
REMARK SMILES IDX 78 94 75 95 71 96 72 97 73 98 74 99 53 100 54 101 62 102
REMARK SMILES IDX 55 103 61 104 63 105 60 106 56 107 57 108 58 109 59 110
REMARK H PARENT 90 20 83 63 51 74
REMARK Flexibility Score: inf
ROOT
ATOM      1  C   UNL A   1      46.500  21.540  39.479  1.00  0.00     0.188 C 
ENDROOT
BRANCH   1   2
ATOM      2  C   UNL A   1      45.594  22.714  39.838  1.00  0.00     0.188 C 
BRANCH   2   3
ATOM      3  O   UNL A   1      45.867  23.887  39.112  1.00  0.00    -0.376 OA
BRANCH   3   4
ATOM      4  C   UNL A   1      45.159  25.081  39.397  1.00  0.00     0.202 C 
BRANCH   4   5
ATOM      5  C   UNL A   1      44.102  25.791  38.506  1.00  0.00     0.261 C 
BRANCH   5   6
ATOM      6  O   UNL A   1      44.140  25.691  37.064  1.00  0.00    -0.463 OA
BRANCH   6   7
ATOM      7  C   UNL A   1      45.034  26.492  36.460  1.00  0.00     0.307 C 
ATOM      8  O   UNL A   1      46.252  26.300  36.522  1.00  0.00    -0.252 OA
BRANCH   7   9
ATOM      9  C   UNL A   1      44.541  27.613  35.567  1.00  0.00     0.147 C 
BRANCH   9  10
ATOM     10  C   UNL A   1      43.324  28.585  35.655  1.00  0.00     0.111 C 
BRANCH  10  11
ATOM     11  C   UNL A   1      43.706  29.724  36.629  1.00  0.00    -0.026 A 
ATOM     12  C   UNL A   1      43.218  31.907  37.649  1.00  0.00     0.119 A 
ATOM     13  C   UNL A   1      44.139  31.635  38.655  1.00  0.00     0.046 A 
ATOM     14  C   UNL A   1      42.985  30.942  36.671  1.00  0.00     0.051 A 
ATOM     15  C   UNL A   1      44.874  30.451  38.632  1.00  0.00     0.004 A 
ATOM     16  C   UNL A   1      44.695  29.531  37.598  1.00  0.00     0.005 A 
BRANCH  12  17
ATOM     17  O   UNL A   1      42.604  33.127  37.729  1.00  0.00    -0.497 OA
ATOM     18  C   UNL A   1      42.883  34.067  36.696  1.00  0.00     0.278 C 
ENDBRANCH  12  17
ENDBRANCH  10  11
BRANCH  10  19
ATOM     19  N   UNL A   1      43.041  29.205  34.316  1.00  0.00    -0.203 NA
ATOM     20  H   UNL A   1      43.949  29.338  33.871  1.00  0.00     0.142 HD
BRANCH  19  21
ATOM     21  S   UNL A   1      42.042  28.469  33.132  1.00  0.00     0.241 S 
ATOM     22  O   UNL A   1      42.849  28.177  31.959  1.00  0.00    -0.207 OA
ATOM     23  O   UNL A   1      41.350  27.402  33.797  1.00  0.00    -0.207 OA
BRANCH  21  24
ATOM     24  C   UNL A   1      40.879  29.731  32.718  1.00  0.00     0.082 A 
ATOM     25  C   UNL A   1      40.058  30.332  33.690  1.00  0.00     0.024 A 
ATOM     26  C   UNL A   1      40.678  29.946  31.361  1.00  0.00     0.027 A 
ATOM     27  C   UNL A   1      38.912  31.023  33.294  1.00  0.00     0.028 A 
ATOM     28  C   UNL A   1      39.501  30.536  30.983  1.00  0.00    -0.021 A 
ATOM     29  C   UNL A   1      38.616  31.027  31.944  1.00  0.00     0.047 A 
ATOM     30  C   UNL A   1      38.953  30.734  29.604  1.00  0.00     0.063 C 
ATOM     31  N   UNL A   1      37.443  31.469  31.307  1.00  0.00    -0.309 N 
ATOM     32  C   UNL A   1      37.460  30.873  29.945  1.00  0.00     0.092 C 
ATOM     33  C   UNL A   1      36.816  29.473  29.963  1.00  0.00     0.032 C 
BRANCH  31  34
ATOM     34  C   UNL A   1      36.957  32.720  31.646  1.00  0.00     0.224 C 
ATOM     35  C   UNL A   1      37.826  33.859  31.170  1.00  0.00     0.115 C 
ATOM     36  O   UNL A   1      36.054  32.890  32.464  1.00  0.00    -0.275 OA
ENDBRANCH  31  34
ENDBRANCH  21  24
ENDBRANCH  19  21
ENDBRANCH  10  19
ENDBRANCH   9  10
ENDBRANCH   7   9
ENDBRANCH   6   7
ENDBRANCH   5   6
ENDBRANCH   4   5
ENDBRANCH   3   4
ENDBRANCH   2   3
ENDBRANCH   1   2
BRANCH   1  37
ATOM     37  O   UNL A   1      46.022  20.649  38.490  1.00  0.00    -0.377 OA
BRANCH  37  38
ATOM     38  C   UNL A   1      46.907  19.853  37.713  1.00  0.00     0.188 C 
BRANCH  38  39
ATOM     39  C   UNL A   1      48.365  19.641  38.128  1.00  0.00     0.188 C 
BRANCH  39  40
ATOM     40  O   UNL A   1      49.297  20.171  37.214  1.00  0.00    -0.376 OA
BRANCH  40  41
ATOM     41  C   UNL A   1      50.487  20.787  37.669  1.00  0.00     0.202 C 
BRANCH  41  42
ATOM     42  C   UNL A   1      51.342  21.746  36.821  1.00  0.00     0.261 C 
BRANCH  42  43
ATOM     43  O   UNL A   1      50.687  22.712  35.993  1.00  0.00    -0.460 OA
BRANCH  43  44
ATOM     44  C   UNL A   1      50.739  22.502  34.661  1.00  0.00     0.338 C 
ATOM     45  O   UNL A   1      51.353  21.619  34.089  1.00  0.00    -0.246 OA
BRANCH  44  46
ATOM     46  C   UNL A   1      49.804  23.438  33.996  1.00  0.00     0.060 A 
ATOM     47  C   UNL A   1      50.288  24.258  32.970  1.00  0.00     0.016 A 
ATOM     48  C   UNL A   1      48.478  23.554  34.417  1.00  0.00     0.016 A 
ATOM     49  C   UNL A   1      49.466  25.238  32.399  1.00  0.00     0.010 A 
ATOM     50  C   UNL A   1      47.659  24.540  33.847  1.00  0.00     0.010 A 
ATOM     51  C   UNL A   1      48.156  25.416  32.857  1.00  0.00    -0.014 A 
BRANCH  51  52
ATOM     52  C   UNL A   1      47.352  26.606  32.447  1.00  0.00     0.031 A 
ATOM     53  C   UNL A   1      46.493  26.498  31.210  1.00  0.00     0.074 A 
ATOM     54  C   UNL A   1      47.377  27.770  33.128  1.00  0.00     0.049 A 
ATOM     55  N   UNL A   1      45.798  27.422  30.596  1.00  0.00    -0.248 NA
ATOM     56  C   UNL A   1      46.402  25.166  30.592  1.00  0.00     0.031 C 
ATOM     57  C   UNL A   1      48.091  28.014  34.382  1.00  0.00     0.029 A 
ATOM     58  N   UNL A   1      46.833  28.995  32.818  1.00  0.00    -0.354 N 
ATOM     59  C   UNL A   1      45.153  26.774  29.549  1.00  0.00     0.074 A 
ATOM     60  C   UNL A   1      45.623  25.405  29.547  1.00  0.00     0.031 C 
ATOM     61  C   UNL A   1      48.039  29.328  34.670  1.00  0.00     0.029 A 
ATOM     62  C   UNL A   1      47.273  30.016  33.634  1.00  0.00     0.049 A 
ATOM     63  H   UNL A   1      46.191  29.130  32.085  1.00  0.00     0.167 HD
ATOM     64  C   UNL A   1      44.210  27.252  28.699  1.00  0.00     0.034 A 
ATOM     65  C   UNL A   1      47.105  31.351  33.538  1.00  0.00     0.034 A 
ATOM     66  C   UNL A   1      43.750  28.616  28.690  1.00  0.00     0.049 A 
ATOM     67  C   UNL A   1      46.203  31.910  32.461  1.00  0.00     0.074 A 
ATOM     68  C   UNL A   1      42.775  29.192  27.894  1.00  0.00     0.029 A 
ATOM     69  N   UNL A   1      44.244  29.626  29.504  1.00  0.00    -0.354 N 
ATOM     70  N   UNL A   1      45.548  31.271  31.520  1.00  0.00    -0.248 NA
ATOM     71  C   UNL A   1      45.974  33.362  32.468  1.00  0.00     0.031 C 
ATOM     72  C   UNL A   1      42.729  30.560  28.175  1.00  0.00     0.029 A 
ATOM     73  C   UNL A   1      43.616  30.825  29.205  1.00  0.00     0.049 A 
ATOM     74  H   UNL A   1      44.937  29.507  30.191  1.00  0.00     0.167 HD
ATOM     75  C   UNL A   1      44.767  32.234  30.884  1.00  0.00     0.074 A 
ATOM     76  C   UNL A   1      45.046  33.495  31.534  1.00  0.00     0.031 C 
ATOM     77  C   UNL A   1      43.876  32.079  29.870  1.00  0.00     0.034 A 
BRANCH  64  78
ATOM     78  C   UNL A   1      43.609  26.278  27.717  1.00  0.00     0.023 A 
ATOM     79  C   UNL A   1      42.354  25.690  27.956  1.00  0.00     0.031 A 
ATOM     80  C   UNL A   1      44.287  25.931  26.537  1.00  0.00     0.131 A 
ATOM     81  C   UNL A   1      41.845  24.737  27.063  1.00  0.00     0.055 A 
ATOM     82  C   UNL A   1      43.740  25.040  25.612  1.00  0.00     0.041 A 
ATOM     83  F   UNL A   1      45.497  26.446  26.267  1.00  0.00    -0.206 F 
ATOM     84  C   UNL A   1      42.517  24.427  25.878  1.00  0.00     0.022 A 
BRANCH  81  85
ATOM     85  S   UNL A   1      40.356  23.819  27.536  1.00  0.00     0.124 S 
ATOM     86  O   UNL A   1      40.930  22.607  28.115  1.00  0.00    -0.237 OA
ATOM     87  O   UNL A   1      39.707  24.728  28.473  1.00  0.00    -0.237 OA
ATOM     88  O   UNL A   1      39.656  23.625  26.268  1.00  0.00    -0.744 OA
ENDBRANCH  81  85
ENDBRANCH  64  78
BRANCH  65  89
ATOM     89  C   UNL A   1      47.816  32.282  34.464  1.00  0.00     0.023 A 
ATOM     90  C   UNL A   1      49.098  32.766  34.167  1.00  0.00     0.031 A 
ATOM     91  C   UNL A   1      47.266  32.600  35.719  1.00  0.00     0.131 A 
ATOM     92  C   UNL A   1      49.823  33.474  35.139  1.00  0.00     0.055 A 
ATOM     93  C   UNL A   1      47.970  33.348  36.665  1.00  0.00     0.041 A 
ATOM     94  F   UNL A   1      46.035  32.175  36.048  1.00  0.00    -0.206 F 
ATOM     95  C   UNL A   1      49.267  33.772  36.385  1.00  0.00     0.022 A 
BRANCH  92  96
ATOM     96  S   UNL A   1      51.553  33.893  34.789  1.00  0.00     0.124 S 
ATOM     97  O   UNL A   1      51.972  32.758  33.975  1.00  0.00    -0.237 OA
ATOM     98  O   UNL A   1      51.416  35.167  34.093  1.00  0.00    -0.237 OA
ATOM     99  O   UNL A   1      52.159  33.970  36.117  1.00  0.00    -0.744 OA
ENDBRANCH  92  96
ENDBRANCH  65  89
BRANCH  77 100
ATOM    100  C   UNL A   1      43.055  33.283  29.472  1.00  0.00     0.023 A 
ATOM    101  C   UNL A   1      43.386  34.085  28.367  1.00  0.00     0.031 A 
ATOM    102  C   UNL A   1      41.920  33.635  30.227  1.00  0.00     0.131 A 
ATOM    103  C   UNL A   1      42.626  35.232  28.085  1.00  0.00     0.055 A 
ATOM    104  C   UNL A   1      41.128  34.735  29.899  1.00  0.00     0.041 A 
ATOM    105  F   UNL A   1      41.559  32.909  31.297  1.00  0.00    -0.206 F 
ATOM    106  C   UNL A   1      41.488  35.550  28.831  1.00  0.00     0.022 A 
BRANCH 103 107
ATOM    107  S   UNL A   1      43.205  36.361  26.789  1.00  0.00     0.124 S 
ATOM    108  O   UNL A   1      42.193  37.411  26.828  1.00  0.00    -0.237 OA
ATOM    109  O   UNL A   1      44.530  36.734  27.271  1.00  0.00    -0.237 OA
ATOM    110  O   UNL A   1      43.195  35.533  25.584  1.00  0.00    -0.744 OA
ENDBRANCH 103 107
ENDBRANCH  77 100
ENDBRANCH  51  52
ENDBRANCH  44  46
ENDBRANCH  43  44
ENDBRANCH  42  43
ENDBRANCH  41  42
ENDBRANCH  40  41
ENDBRANCH  39  40
ENDBRANCH  38  39
ENDBRANCH  37  38
ENDBRANCH   1  37
TORSDOF 30
ENDMDL
