MODEL 1
REMARK VINA RESULT:      -8.7      0.000      0.000
REMARK SMILES Cc1c(CC(=O)N[C@@H](CCO)C(=O)OCCOCCOCCOCCOC(=O)c2ccc(-c3c4nc(c(-c5cc(S(=O)(=O)[O-])ccc5F)c5ccc([nH]5)c(-c5cc(S(=O)(=O)[O-])ccc5F)c5nc(c(-c6cc(S(=O)(=O)[O-])ccc6F)c6ccc3[nH]6)C=C5)C=C4)cc2)cc(-c2ccc(S(C)(=O)=O)cc2)n1-c1ccc(F)cc1
REMARK SMILES IDX 19 1 18 2 17 3 16 4 15 5 14 6 12 7 13 8 8 9 7 10 5 11 6 12
REMARK SMILES IDX 4 14 3 15 1 16 2 17 104 18 92 19 93 20 105 21 106 22 111 23
REMARK SMILES IDX 107 24 110 25 108 26 109 27 94 28 95 29 103 30 96 31 102 32
REMARK SMILES IDX 97 33 98 34 99 35 100 36 101 37 9 38 10 39 11 40 20 42 21 43
REMARK SMILES IDX 22 44 23 45 24 46 25 47 26 48 27 49 28 50 29 51 30 52 91 53
REMARK SMILES IDX 31 54 90 55 32 56 33 57 34 58 84 59 35 60 89 61 83 62 85 63
REMARK SMILES IDX 36 64 88 65 82 66 81 67 37 69 69 70 49 71 68 72 50 73 53 74
REMARK SMILES IDX 67 75 86 76 51 77 52 78 66 80 87 81 54 82 38 83 39 84 47 85
REMARK SMILES IDX 40 86 46 87 48 88 45 89 41 90 42 91 43 92 44 93 70 94 71 95
REMARK SMILES IDX 79 96 72 97 78 98 80 99 77 100 73 101 74 102 75 103 76 104
REMARK SMILES IDX 55 105 56 106 64 107 57 108 63 109 65 110 62 111 58 112
REMARK SMILES IDX 59 113 60 114 61 115
REMARK H PARENT 7 13 11 41 85 68 53 79
REMARK Flexibility Score: inf
ROOT
ATOM      1  C   UNL A   1      46.233  22.993  25.982  1.00  0.00     0.188 C 
ENDROOT
BRANCH   1   2
ATOM      2  C   UNL A   1      45.171  22.643  24.916  1.00  0.00     0.188 C 
BRANCH   2   3
ATOM      3  O   UNL A   1      45.263  21.456  24.137  1.00  0.00    -0.376 OA
BRANCH   3   4
ATOM      4  C   UNL A   1      44.585  20.282  24.565  1.00  0.00     0.202 C 
BRANCH   4   5
ATOM      5  C   UNL A   1      43.554  20.371  25.703  1.00  0.00     0.261 C 
BRANCH   5   6
ATOM      6  O   UNL A   1      42.757  21.568  25.716  1.00  0.00    -0.462 OA
BRANCH   6   7
ATOM      7  C   UNL A   1      42.431  22.046  26.942  1.00  0.00     0.328 C 
ATOM      8  O   UNL A   1      42.283  21.362  27.950  1.00  0.00    -0.250 OA
BRANCH   7   9
ATOM      9  C   UNL A   1      42.181  23.563  26.940  1.00  0.00     0.194 C 
BRANCH   9  10
ATOM     10  N   UNL A   1      40.927  24.086  27.499  1.00  0.00    -0.342 N 
ATOM     11  C   UNL A   1      39.629  23.766  27.200  1.00  0.00     0.225 C 
ATOM     12  O   UNL A   1      38.735  24.419  27.744  1.00  0.00    -0.275 OA
ATOM     13  H   UNL A   1      41.036  24.773  28.196  1.00  0.00     0.164 HD
BRANCH  11  14
ATOM     14  C   UNL A   1      39.288  22.578  26.308  1.00  0.00     0.137 C 
BRANCH  14  15
ATOM     15  C   UNL A   1      37.915  22.662  25.726  1.00  0.00    -0.017 A 
ATOM     16  C   UNL A   1      37.563  20.223  24.925  1.00  0.00     0.065 C 
ATOM     17  C   UNL A   1      37.138  21.624  25.238  1.00  0.00     0.024 A 
ATOM     18  N   UNL A   1      35.864  22.124  24.995  1.00  0.00    -0.314 N 
ATOM     19  C   UNL A   1      37.156  23.852  25.578  1.00  0.00     0.033 A 
ATOM     20  C   UNL A   1      35.873  23.505  25.201  1.00  0.00     0.053 A 
BRANCH  18  21
ATOM     21  C   UNL A   1      34.726  21.352  24.645  1.00  0.00     0.046 A 
ATOM     22  C   UNL A   1      34.497  20.126  25.278  1.00  0.00     0.029 A 
ATOM     23  C   UNL A   1      33.891  21.793  23.609  1.00  0.00     0.029 A 
ATOM     24  C   UNL A   1      33.412  19.346  24.882  1.00  0.00     0.041 A 
ATOM     25  C   UNL A   1      32.814  21.002  23.213  1.00  0.00     0.041 A 
ATOM     26  C   UNL A   1      32.584  19.788  23.855  1.00  0.00     0.123 A 
ATOM     27  F   UNL A   1      31.553  19.027  23.469  1.00  0.00    -0.207 F 
ENDBRANCH  18  21
BRANCH  20  28
ATOM     28  C   UNL A   1      34.698  24.382  25.157  1.00  0.00    -0.001 A 
ATOM     29  C   UNL A   1      33.791  24.424  26.227  1.00  0.00     0.011 A 
ATOM     30  C   UNL A   1      34.472  25.197  24.040  1.00  0.00     0.011 A 
ATOM     31  C   UNL A   1      32.629  25.191  26.146  1.00  0.00     0.021 A 
ATOM     32  C   UNL A   1      33.314  25.973  23.952  1.00  0.00     0.021 A 
ATOM     33  C   UNL A   1      32.383  25.937  24.992  1.00  0.00     0.067 A 
BRANCH  33  34
ATOM     34  S   UNL A   1      30.854  26.828  24.853  1.00  0.00     0.175 S 
ATOM     35  C   UNL A   1      30.627  26.988  23.099  1.00  0.00     0.163 C 
ATOM     36  O   UNL A   1      29.806  25.973  25.373  1.00  0.00    -0.224 OA
ATOM     37  O   UNL A   1      31.066  28.162  25.385  1.00  0.00    -0.224 OA
ENDBRANCH  33  34
ENDBRANCH  20  28
ENDBRANCH  14  15
ENDBRANCH  11  14
ENDBRANCH   9  10
BRANCH   9  38
ATOM     38  C   UNL A   1      43.377  24.276  27.584  1.00  0.00     0.065 C 
BRANCH  38  39
ATOM     39  C   UNL A   1      43.608  25.701  27.081  1.00  0.00     0.159 C 
BRANCH  39  40
ATOM     40  O   UNL A   1      43.902  25.723  25.695  1.00  0.00    -0.396 OA
ATOM     41  H   UNL A   1      44.085  26.634  25.417  1.00  0.00     0.210 HD
ENDBRANCH  39  40
ENDBRANCH  38  39
ENDBRANCH   9  38
ENDBRANCH   7   9
ENDBRANCH   6   7
ENDBRANCH   5   6
ENDBRANCH   4   5
ENDBRANCH   3   4
ENDBRANCH   2   3
ENDBRANCH   1   2
BRANCH   1  42
ATOM     42  O   UNL A   1      46.698  24.330  25.950  1.00  0.00    -0.377 OA
BRANCH  42  43
ATOM     43  C   UNL A   1      47.249  24.818  24.723  1.00  0.00     0.188 C 
BRANCH  43  44
ATOM     44  C   UNL A   1      47.942  26.181  24.792  1.00  0.00     0.188 C 
BRANCH  44  45
ATOM     45  O   UNL A   1      47.816  26.745  26.085  1.00  0.00    -0.376 OA
BRANCH  45  46
ATOM     46  C   UNL A   1      46.687  27.576  26.357  1.00  0.00     0.202 C 
BRANCH  46  47
ATOM     47  C   UNL A   1      46.383  28.849  25.511  1.00  0.00     0.261 C 
BRANCH  47  48
ATOM     48  O   UNL A   1      45.909  30.201  25.988  1.00  0.00    -0.460 OA
BRANCH  48  49
ATOM     49  C   UNL A   1      45.230  30.684  27.089  1.00  0.00     0.338 C 
ATOM     50  O   UNL A   1      44.413  29.999  27.703  1.00  0.00    -0.246 OA
BRANCH  49  51
ATOM     51  C   UNL A   1      45.636  32.168  27.504  1.00  0.00     0.060 A 
ATOM     52  C   UNL A   1      45.458  32.927  28.711  1.00  0.00     0.016 A 
ATOM     53  C   UNL A   1      46.347  32.906  26.626  1.00  0.00     0.016 A 
ATOM     54  C   UNL A   1      45.991  34.411  29.026  1.00  0.00     0.010 A 
ATOM     55  C   UNL A   1      46.830  34.238  27.004  1.00  0.00     0.010 A 
ATOM     56  C   UNL A   1      46.709  35.234  28.127  1.00  0.00    -0.014 A 
BRANCH  56  57
ATOM     57  C   UNL A   1      47.893  36.675  28.390  1.00  0.00     0.031 A 
ATOM     58  C   UNL A   1      48.395  36.708  26.977  1.00  0.00     0.074 A 
ATOM     59  C   UNL A   1      48.241  38.053  29.053  1.00  0.00     0.049 A 
ATOM     60  N   UNL A   1      47.431  36.422  26.128  1.00  0.00    -0.248 NA
ATOM     61  C   UNL A   1      49.195  37.759  26.399  1.00  0.00     0.031 C 
ATOM     62  C   UNL A   1      47.582  38.779  30.179  1.00  0.00     0.029 A 
ATOM     63  N   UNL A   1      49.274  39.301  28.729  1.00  0.00    -0.354 N 
ATOM     64  C   UNL A   1      46.866  37.677  26.073  1.00  0.00     0.074 A 
ATOM     65  C   UNL A   1      48.176  38.349  25.737  1.00  0.00     0.031 C 
ATOM     66  C   UNL A   1      47.948  40.099  30.348  1.00  0.00     0.029 A 
ATOM     67  C   UNL A   1      49.015  40.662  29.432  1.00  0.00     0.049 A 
ATOM     68  H   UNL A   1      50.030  39.187  28.109  1.00  0.00     0.167 HD
ATOM     69  C   UNL A   1      45.734  38.207  26.788  1.00  0.00     0.034 A 
ATOM     70  C   UNL A   1      49.406  42.135  29.529  1.00  0.00     0.034 A 
ATOM     71  C   UNL A   1      45.321  39.440  26.169  1.00  0.00     0.049 A 
ATOM     72  C   UNL A   1      48.119  42.603  28.924  1.00  0.00     0.074 A 
ATOM     73  C   UNL A   1      46.039  40.291  25.360  1.00  0.00     0.029 A 
ATOM     74  N   UNL A   1      44.535  40.332  26.882  1.00  0.00    -0.354 N 
ATOM     75  N   UNL A   1      47.032  42.966  29.527  1.00  0.00    -0.248 NA
ATOM     76  C   UNL A   1      48.172  42.895  27.457  1.00  0.00     0.031 C 
ATOM     77  C   UNL A   1      46.554  40.903  26.502  1.00  0.00     0.029 A 
ATOM     78  C   UNL A   1      45.451  41.247  27.298  1.00  0.00     0.049 A 
ATOM     79  H   UNL A   1      43.564  40.308  27.046  1.00  0.00     0.167 HD
ATOM     80  C   UNL A   1      46.162  43.104  28.461  1.00  0.00     0.074 A 
ATOM     81  C   UNL A   1      46.957  43.420  27.281  1.00  0.00     0.031 C 
ATOM     82  C   UNL A   1      45.219  42.129  28.402  1.00  0.00     0.034 A 
BRANCH  69  83
ATOM     83  C   UNL A   1      44.650  37.676  28.037  1.00  0.00     0.023 A 
ATOM     84  C   UNL A   1      44.657  37.901  29.471  1.00  0.00     0.031 A 
ATOM     85  C   UNL A   1      43.653  36.741  27.675  1.00  0.00     0.131 A 
ATOM     86  C   UNL A   1      43.969  37.054  30.399  1.00  0.00     0.055 A 
ATOM     87  C   UNL A   1      42.806  36.077  28.587  1.00  0.00     0.041 A 
ATOM     88  F   UNL A   1      43.475  36.401  26.391  1.00  0.00    -0.206 F 
ATOM     89  C   UNL A   1      43.003  36.175  29.954  1.00  0.00     0.022 A 
BRANCH  86  90
ATOM     90  S   UNL A   1      44.491  36.885  32.171  1.00  0.00     0.124 S 
ATOM     91  O   UNL A   1      44.863  38.251  32.529  1.00  0.00    -0.237 OA
ATOM     92  O   UNL A   1      43.303  36.360  32.834  1.00  0.00    -0.237 OA
ATOM     93  O   UNL A   1      45.627  35.965  32.108  1.00  0.00    -0.744 OA
ENDBRANCH  86  90
ENDBRANCH  69  83
BRANCH  70  94
ATOM     94  C   UNL A   1      50.229  43.740  29.331  1.00  0.00     0.023 A 
ATOM     95  C   UNL A   1      51.219  44.197  28.392  1.00  0.00     0.031 A 
ATOM     96  C   UNL A   1      50.321  44.723  30.438  1.00  0.00     0.131 A 
ATOM     97  C   UNL A   1      51.913  45.530  28.535  1.00  0.00     0.055 A 
ATOM     98  C   UNL A   1      50.741  46.070  30.470  1.00  0.00     0.041 A 
ATOM     99  F   UNL A   1      50.485  44.303  31.700  1.00  0.00    -0.206 F 
ATOM    100  C   UNL A   1      51.583  46.484  29.501  1.00  0.00     0.022 A 
BRANCH  97 101
ATOM    101  S   UNL A   1      53.423  46.094  27.609  1.00  0.00     0.124 S 
ATOM    102  O   UNL A   1      54.065  46.992  28.565  1.00  0.00    -0.237 OA
ATOM    103  O   UNL A   1      54.117  44.851  27.312  1.00  0.00    -0.237 OA
ATOM    104  O   UNL A   1      52.858  46.777  26.438  1.00  0.00    -0.744 OA
ENDBRANCH  97 101
ENDBRANCH  70  94
BRANCH  82 105
ATOM    105  C   UNL A   1      44.521  41.918  29.708  1.00  0.00     0.023 A 
ATOM    106  C   UNL A   1      45.213  42.209  30.894  1.00  0.00     0.031 A 
ATOM    107  C   UNL A   1      43.279  41.294  29.845  1.00  0.00     0.131 A 
ATOM    108  C   UNL A   1      44.691  41.843  32.142  1.00  0.00     0.055 A 
ATOM    109  C   UNL A   1      42.769  40.885  31.084  1.00  0.00     0.041 A 
ATOM    110  F   UNL A   1      42.546  41.035  28.767  1.00  0.00    -0.206 F 
ATOM    111  C   UNL A   1      43.484  41.151  32.246  1.00  0.00     0.022 A 
BRANCH 108 112
ATOM    112  S   UNL A   1      45.588  42.373  33.619  1.00  0.00     0.124 S 
ATOM    113  O   UNL A   1      46.546  41.293  33.826  1.00  0.00    -0.237 OA
ATOM    114  O   UNL A   1      46.157  43.646  33.180  1.00  0.00    -0.237 OA
ATOM    115  O   UNL A   1      44.545  42.487  34.636  1.00  0.00    -0.744 OA
ENDBRANCH 108 112
ENDBRANCH  82 105
ENDBRANCH  56  57
ENDBRANCH  49  51
ENDBRANCH  48  49
ENDBRANCH  47  48
ENDBRANCH  46  47
ENDBRANCH  45  46
ENDBRANCH  44  45
ENDBRANCH  43  44
ENDBRANCH  42  43
ENDBRANCH   1  42
TORSDOF 32
ENDMDL
MODEL 2
REMARK VINA RESULT:      -7.4      6.178     10.695
REMARK SMILES Cc1c(CC(=O)N[C@@H](CCO)C(=O)OCCOCCOCCOCCOC(=O)c2ccc(-c3c4nc(c(-c5cc(S(=O)(=O)[O-])ccc5F)c5ccc([nH]5)c(-c5cc(S(=O)(=O)[O-])ccc5F)c5nc(c(-c6cc(S(=O)(=O)[O-])ccc6F)c6ccc3[nH]6)C=C5)C=C4)cc2)cc(-c2ccc(S(C)(=O)=O)cc2)n1-c1ccc(F)cc1
REMARK SMILES IDX 19 1 18 2 17 3 16 4 15 5 14 6 12 7 13 8 8 9 7 10 5 11 6 12
REMARK SMILES IDX 4 14 3 15 1 16 2 17 104 18 92 19 93 20 105 21 106 22 111 23
REMARK SMILES IDX 107 24 110 25 108 26 109 27 94 28 95 29 103 30 96 31 102 32
REMARK SMILES IDX 97 33 98 34 99 35 100 36 101 37 9 38 10 39 11 40 20 42 21 43
REMARK SMILES IDX 22 44 23 45 24 46 25 47 26 48 27 49 28 50 29 51 30 52 91 53
REMARK SMILES IDX 31 54 90 55 32 56 33 57 34 58 84 59 35 60 89 61 83 62 85 63
REMARK SMILES IDX 36 64 88 65 82 66 81 67 37 69 69 70 49 71 68 72 50 73 53 74
REMARK SMILES IDX 67 75 86 76 51 77 52 78 66 80 87 81 54 82 38 83 39 84 47 85
REMARK SMILES IDX 40 86 46 87 48 88 45 89 41 90 42 91 43 92 44 93 70 94 71 95
REMARK SMILES IDX 79 96 72 97 78 98 80 99 77 100 73 101 74 102 75 103 76 104
REMARK SMILES IDX 55 105 56 106 64 107 57 108 63 109 65 110 62 111 58 112
REMARK SMILES IDX 59 113 60 114 61 115
REMARK H PARENT 7 13 11 41 85 68 53 79
REMARK Flexibility Score: inf
ROOT
ATOM      1  C   UNL A   1      35.356  31.941  29.513  1.00  0.00     0.188 C 
ENDROOT
BRANCH   1   2
ATOM      2  C   UNL A   1      36.293  32.626  28.494  1.00  0.00     0.188 C 
BRANCH   2   3
ATOM      3  O   UNL A   1      35.984  33.900  27.940  1.00  0.00    -0.376 OA
BRANCH   3   4
ATOM      4  C   UNL A   1      34.626  34.303  27.820  1.00  0.00     0.202 C 
BRANCH   4   5
ATOM      5  C   UNL A   1      33.568  33.702  28.762  1.00  0.00     0.261 C 
BRANCH   5   6
ATOM      6  O   UNL A   1      32.638  34.646  29.319  1.00  0.00    -0.462 OA
BRANCH   6   7
ATOM      7  C   UNL A   1      33.175  35.608  30.110  1.00  0.00     0.328 C 
ATOM      8  O   UNL A   1      33.147  36.812  29.873  1.00  0.00    -0.250 OA
BRANCH   7   9
ATOM      9  C   UNL A   1      33.909  35.031  31.330  1.00  0.00     0.194 C 
BRANCH   9  10
ATOM     10  N   UNL A   1      35.376  35.102  31.387  1.00  0.00    -0.342 N 
ATOM     11  C   UNL A   1      36.262  34.394  32.154  1.00  0.00     0.225 C 
ATOM     12  O   UNL A   1      37.455  34.705  32.092  1.00  0.00    -0.275 OA
ATOM     13  H   UNL A   1      35.786  35.760  30.779  1.00  0.00     0.164 HD
BRANCH  11  14
ATOM     14  C   UNL A   1      35.816  33.194  32.983  1.00  0.00     0.137 C 
BRANCH  14  15
ATOM     15  C   UNL A   1      36.737  32.898  34.120  1.00  0.00    -0.017 A 
ATOM     16  C   UNL A   1      38.228  31.049  33.084  1.00  0.00     0.065 C 
ATOM     17  C   UNL A   1      37.840  32.058  34.119  1.00  0.00     0.024 A 
ATOM     18  N   UNL A   1      38.520  32.247  35.316  1.00  0.00    -0.314 N 
ATOM     19  C   UNL A   1      36.637  33.446  35.425  1.00  0.00     0.033 A 
ATOM     20  C   UNL A   1      37.775  33.103  36.130  1.00  0.00     0.053 A 
BRANCH  18  21
ATOM     21  C   UNL A   1      39.788  31.701  35.642  1.00  0.00     0.046 A 
ATOM     22  C   UNL A   1      40.927  32.513  35.595  1.00  0.00     0.029 A 
ATOM     23  C   UNL A   1      39.893  30.332  35.927  1.00  0.00     0.029 A 
ATOM     24  C   UNL A   1      42.176  31.951  35.854  1.00  0.00     0.041 A 
ATOM     25  C   UNL A   1      41.147  29.778  36.175  1.00  0.00     0.041 A 
ATOM     26  C   UNL A   1      42.275  30.593  36.139  1.00  0.00     0.123 A 
ATOM     27  F   UNL A   1      43.480  30.058  36.371  1.00  0.00    -0.207 F 
ENDBRANCH  18  21
BRANCH  20  28
ATOM     28  C   UNL A   1      38.204  33.637  37.427  1.00  0.00    -0.001 A 
ATOM     29  C   UNL A   1      38.006  32.905  38.608  1.00  0.00     0.011 A 
ATOM     30  C   UNL A   1      38.828  34.889  37.499  1.00  0.00     0.011 A 
ATOM     31  C   UNL A   1      38.333  33.451  39.848  1.00  0.00     0.021 A 
ATOM     32  C   UNL A   1      39.165  35.443  38.736  1.00  0.00     0.021 A 
ATOM     33  C   UNL A   1      38.883  34.733  39.905  1.00  0.00     0.067 A 
BRANCH  33  34
ATOM     34  S   UNL A   1      39.201  35.464  41.491  1.00  0.00     0.175 S 
ATOM     35  C   UNL A   1      37.847  34.894  42.488  1.00  0.00     0.163 C 
ATOM     36  O   UNL A   1      40.424  34.875  42.001  1.00  0.00    -0.224 OA
ATOM     37  O   UNL A   1      39.062  36.903  41.355  1.00  0.00    -0.224 OA
ENDBRANCH  33  34
ENDBRANCH  20  28
ENDBRANCH  14  15
ENDBRANCH  11  14
ENDBRANCH   9  10
BRANCH   9  38
ATOM     38  C   UNL A   1      33.309  35.623  32.612  1.00  0.00     0.065 C 
BRANCH  38  39
ATOM     39  C   UNL A   1      33.998  36.896  33.103  1.00  0.00     0.159 C 
BRANCH  39  40
ATOM     40  O   UNL A   1      33.371  38.058  32.588  1.00  0.00    -0.396 OA
ATOM     41  H   UNL A   1      32.415  37.907  32.519  1.00  0.00     0.210 HD
ENDBRANCH  39  40
ENDBRANCH  38  39
ENDBRANCH   9  38
ENDBRANCH   7   9
ENDBRANCH   6   7
ENDBRANCH   5   6
ENDBRANCH   4   5
ENDBRANCH   3   4
ENDBRANCH   2   3
ENDBRANCH   1   2
BRANCH   1  42
ATOM     42  O   UNL A   1      35.937  30.873  30.240  1.00  0.00    -0.377 OA
BRANCH  42  43
ATOM     43  C   UNL A   1      36.910  30.063  29.574  1.00  0.00     0.188 C 
BRANCH  43  44
ATOM     44  C   UNL A   1      37.512  28.922  30.398  1.00  0.00     0.188 C 
BRANCH  44  45
ATOM     45  O   UNL A   1      38.745  28.497  29.846  1.00  0.00    -0.376 OA
BRANCH  45  46
ATOM     46  C   UNL A   1      39.471  29.410  29.022  1.00  0.00     0.202 C 
BRANCH  46  47
ATOM     47  C   UNL A   1      39.930  29.028  27.583  1.00  0.00     0.261 C 
BRANCH  47  48
ATOM     48  O   UNL A   1      41.309  28.626  27.115  1.00  0.00    -0.460 OA
BRANCH  48  49
ATOM     49  C   UNL A   1      42.250  29.137  26.244  1.00  0.00     0.338 C 
ATOM     50  O   UNL A   1      42.226  28.889  25.040  1.00  0.00    -0.246 OA
BRANCH  49  51
ATOM     51  C   UNL A   1      43.320  30.097  26.933  1.00  0.00     0.060 A 
ATOM     52  C   UNL A   1      43.758  30.254  28.293  1.00  0.00     0.016 A 
ATOM     53  C   UNL A   1      44.050  30.912  26.143  1.00  0.00     0.016 A 
ATOM     54  C   UNL A   1      44.916  31.223  28.846  1.00  0.00     0.010 A 
ATOM     55  C   UNL A   1      45.116  31.738  26.720  1.00  0.00     0.010 A 
ATOM     56  C   UNL A   1      45.682  32.117  28.063  1.00  0.00    -0.014 A 
BRANCH  56  57
ATOM     57  C   UNL A   1      47.384  32.887  28.310  1.00  0.00     0.031 A 
ATOM     58  C   UNL A   1      47.754  32.884  26.857  1.00  0.00     0.074 A 
ATOM     59  C   UNL A   1      48.331  33.899  29.043  1.00  0.00     0.049 A 
ATOM     60  N   UNL A   1      46.706  33.135  26.102  1.00  0.00    -0.248 NA
ATOM     61  C   UNL A   1      48.886  33.568  26.282  1.00  0.00     0.031 C 
ATOM     62  C   UNL A   1      48.124  34.687  30.294  1.00  0.00     0.029 A 
ATOM     63  N   UNL A   1      49.775  34.632  28.709  1.00  0.00    -0.354 N 
ATOM     64  C   UNL A   1      46.730  34.507  26.218  1.00  0.00     0.074 A 
ATOM     65  C   UNL A   1      48.175  34.607  25.793  1.00  0.00     0.031 C 
ATOM     66  C   UNL A   1      49.030  35.701  30.531  1.00  0.00     0.029 A 
ATOM     67  C   UNL A   1      50.171  35.876  29.550  1.00  0.00     0.049 A 
ATOM     68  H   UNL A   1      50.365  34.291  27.999  1.00  0.00     0.167 HD
ATOM     69  C   UNL A   1      45.985  35.368  27.100  1.00  0.00     0.034 A 
ATOM     70  C   UNL A   1      51.159  37.027  29.726  1.00  0.00     0.034 A 
ATOM     71  C   UNL A   1      46.098  36.727  26.639  1.00  0.00     0.049 A 
ATOM     72  C   UNL A   1      50.159  38.061  29.314  1.00  0.00     0.074 A 
ATOM     73  C   UNL A   1      47.054  37.294  25.828  1.00  0.00     0.029 A 
ATOM     74  N   UNL A   1      45.819  37.770  27.510  1.00  0.00    -0.354 N 
ATOM     75  N   UNL A   1      49.375  38.766  30.065  1.00  0.00    -0.248 NA
ATOM     76  C   UNL A   1      50.232  38.485  27.880  1.00  0.00     0.031 C 
ATOM     77  C   UNL A   1      47.857  37.487  26.951  1.00  0.00     0.029 A 
ATOM     78  C   UNL A   1      47.064  38.158  27.895  1.00  0.00     0.049 A 
ATOM     79  H   UNL A   1      44.945  38.133  27.781  1.00  0.00     0.167 HD
ATOM     80  C   UNL A   1      48.577  39.388  29.121  1.00  0.00     0.074 A 
ATOM     81  C   UNL A   1      49.349  39.487  27.889  1.00  0.00     0.031 C 
ATOM     82  C   UNL A   1      47.306  38.911  29.088  1.00  0.00     0.034 A 
BRANCH  69  83
ATOM     83  C   UNL A   1      44.864  35.186  28.415  1.00  0.00     0.023 A 
ATOM     84  C   UNL A   1      45.074  35.130  29.851  1.00  0.00     0.031 A 
ATOM     85  C   UNL A   1      43.521  34.892  28.086  1.00  0.00     0.131 A 
ATOM     86  C   UNL A   1      44.129  34.547  30.757  1.00  0.00     0.055 A 
ATOM     87  C   UNL A   1      42.524  34.545  29.021  1.00  0.00     0.041 A 
ATOM     88  F   UNL A   1      43.117  34.901  26.808  1.00  0.00    -0.206 F 
ATOM     89  C   UNL A   1      42.835  34.303  30.348  1.00  0.00     0.022 A 
BRANCH  86  90
ATOM     90  S   UNL A   1      44.626  33.853  32.404  1.00  0.00     0.124 S 
ATOM     91  O   UNL A   1      44.611  35.030  33.267  1.00  0.00    -0.237 OA
ATOM     92  O   UNL A   1      43.601  32.853  32.682  1.00  0.00    -0.237 OA
ATOM     93  O   UNL A   1      45.967  33.320  32.162  1.00  0.00    -0.744 OA
ENDBRANCH  86  90
ENDBRANCH  69  83
BRANCH  70  94
ATOM     94  C   UNL A   1      52.574  38.153  29.571  1.00  0.00     0.023 A 
ATOM     95  C   UNL A   1      52.762  39.515  29.995  1.00  0.00     0.031 A 
ATOM     96  C   UNL A   1      53.631  37.958  28.549  1.00  0.00     0.131 A 
ATOM     97  C   UNL A   1      53.966  40.329  29.586  1.00  0.00     0.055 A 
ATOM     98  C   UNL A   1      54.884  38.580  28.358  1.00  0.00     0.041 A 
ATOM     99  F   UNL A   1      53.315  37.488  27.334  1.00  0.00    -0.206 F 
ATOM    100  C   UNL A   1      55.051  39.815  28.873  1.00  0.00     0.022 A 
BRANCH  97 101
ATOM    101  S   UNL A   1      54.172  42.167  29.774  1.00  0.00     0.124 S 
ATOM    102  O   UNL A   1      55.605  42.349  29.564  1.00  0.00    -0.237 OA
ATOM    103  O   UNL A   1      53.288  42.709  28.754  1.00  0.00    -0.237 OA
ATOM    104  O   UNL A   1      53.737  42.410  31.155  1.00  0.00    -0.744 OA
ENDBRANCH  97 101
ENDBRANCH  70  94
BRANCH  82 105
ATOM    105  C   UNL A   1      46.675  38.849  30.443  1.00  0.00     0.023 A 
ATOM    106  C   UNL A   1      47.509  38.801  31.570  1.00  0.00     0.031 A 
ATOM    107  C   UNL A   1      45.308  38.670  30.667  1.00  0.00     0.131 A 
ATOM    108  C   UNL A   1      46.986  38.539  32.844  1.00  0.00     0.055 A 
ATOM    109  C   UNL A   1      44.780  38.364  31.928  1.00  0.00     0.041 A 
ATOM    110  F   UNL A   1      44.455  38.754  29.651  1.00  0.00    -0.206 F 
ATOM    111  C   UNL A   1      45.627  38.287  33.028  1.00  0.00     0.022 A 
BRANCH 108 112
ATOM    112  S   UNL A   1      48.115  38.625  34.253  1.00  0.00     0.124 S 
ATOM    113  O   UNL A   1      49.333  38.012  33.735  1.00  0.00    -0.237 OA
ATOM    114  O   UNL A   1      48.185  40.066  34.490  1.00  0.00    -0.237 OA
ATOM    115  O   UNL A   1      47.426  37.866  35.295  1.00  0.00    -0.744 OA
ENDBRANCH 108 112
ENDBRANCH  82 105
ENDBRANCH  56  57
ENDBRANCH  49  51
ENDBRANCH  48  49
ENDBRANCH  47  48
ENDBRANCH  46  47
ENDBRANCH  45  46
ENDBRANCH  44  45
ENDBRANCH  43  44
ENDBRANCH  42  43
ENDBRANCH   1  42
TORSDOF 32
ENDMDL
MODEL 3
REMARK VINA RESULT:      -7.3      5.742     10.047
REMARK SMILES Cc1c(CC(=O)N[C@@H](CCO)C(=O)OCCOCCOCCOCCOC(=O)c2ccc(-c3c4nc(c(-c5cc(S(=O)(=O)[O-])ccc5F)c5ccc([nH]5)c(-c5cc(S(=O)(=O)[O-])ccc5F)c5nc(c(-c6cc(S(=O)(=O)[O-])ccc6F)c6ccc3[nH]6)C=C5)C=C4)cc2)cc(-c2ccc(S(C)(=O)=O)cc2)n1-c1ccc(F)cc1
REMARK SMILES IDX 19 1 18 2 17 3 16 4 15 5 14 6 12 7 13 8 8 9 7 10 5 11 6 12
REMARK SMILES IDX 4 14 3 15 1 16 2 17 104 18 92 19 93 20 105 21 106 22 111 23
REMARK SMILES IDX 107 24 110 25 108 26 109 27 94 28 95 29 103 30 96 31 102 32
REMARK SMILES IDX 97 33 98 34 99 35 100 36 101 37 9 38 10 39 11 40 20 42 21 43
REMARK SMILES IDX 22 44 23 45 24 46 25 47 26 48 27 49 28 50 29 51 30 52 91 53
REMARK SMILES IDX 31 54 90 55 32 56 33 57 34 58 84 59 35 60 89 61 83 62 85 63
REMARK SMILES IDX 36 64 88 65 82 66 81 67 37 69 69 70 49 71 68 72 50 73 53 74
REMARK SMILES IDX 67 75 86 76 51 77 52 78 66 80 87 81 54 82 38 83 39 84 47 85
REMARK SMILES IDX 40 86 46 87 48 88 45 89 41 90 42 91 43 92 44 93 70 94 71 95
REMARK SMILES IDX 79 96 72 97 78 98 80 99 77 100 73 101 74 102 75 103 76 104
REMARK SMILES IDX 55 105 56 106 64 107 57 108 63 109 65 110 62 111 58 112
REMARK SMILES IDX 59 113 60 114 61 115
REMARK H PARENT 7 13 11 41 85 68 53 79
REMARK Flexibility Score: inf
ROOT
ATOM      1  C   UNL A   1      44.320  22.467  26.556  1.00  0.00     0.188 C 
ENDROOT
BRANCH   1   2
ATOM      2  C   UNL A   1      43.276  21.548  25.885  1.00  0.00     0.188 C 
BRANCH   2   3
ATOM      3  O   UNL A   1      41.942  21.985  25.651  1.00  0.00    -0.376 OA
BRANCH   3   4
ATOM      4  C   UNL A   1      41.017  22.026  26.729  1.00  0.00     0.202 C 
BRANCH   4   5
ATOM      5  C   UNL A   1      40.941  23.280  27.618  1.00  0.00     0.261 C 
BRANCH   5   6
ATOM      6  O   UNL A   1      41.507  24.471  27.047  1.00  0.00    -0.462 OA
BRANCH   6   7
ATOM      7  C   UNL A   1      41.638  25.525  27.891  1.00  0.00     0.328 C 
ATOM      8  O   UNL A   1      40.770  25.923  28.662  1.00  0.00    -0.250 OA
BRANCH   7   9
ATOM      9  C   UNL A   1      42.986  26.246  27.735  1.00  0.00     0.194 C 
BRANCH   9  10
ATOM     10  N   UNL A   1      44.110  25.866  28.602  1.00  0.00    -0.342 N 
ATOM     11  C   UNL A   1      44.467  26.338  29.837  1.00  0.00     0.225 C 
ATOM     12  O   UNL A   1      45.520  25.924  30.329  1.00  0.00    -0.275 OA
ATOM     13  H   UNL A   1      44.696  25.163  28.240  1.00  0.00     0.164 HD
BRANCH  11  14
ATOM     14  C   UNL A   1      43.552  27.265  30.630  1.00  0.00     0.137 C 
BRANCH  14  15
ATOM     15  C   UNL A   1      44.136  27.677  31.941  1.00  0.00    -0.017 A 
ATOM     16  C   UNL A   1      43.220  25.820  33.499  1.00  0.00     0.065 C 
ATOM     17  C   UNL A   1      44.083  26.990  33.144  1.00  0.00     0.024 A 
ATOM     18  N   UNL A   1      44.932  27.632  34.037  1.00  0.00    -0.314 N 
ATOM     19  C   UNL A   1      44.867  28.869  32.178  1.00  0.00     0.033 A 
ATOM     20  C   UNL A   1      45.416  28.798  33.444  1.00  0.00     0.053 A 
BRANCH  18  21
ATOM     21  C   UNL A   1      45.291  27.154  35.325  1.00  0.00     0.046 A 
ATOM     22  C   UNL A   1      46.386  26.295  35.467  1.00  0.00     0.029 A 
ATOM     23  C   UNL A   1      44.491  27.487  36.427  1.00  0.00     0.029 A 
ATOM     24  C   UNL A   1      46.690  25.781  36.726  1.00  0.00     0.041 A 
ATOM     25  C   UNL A   1      44.798  26.961  37.680  1.00  0.00     0.041 A 
ATOM     26  C   UNL A   1      45.895  26.116  37.818  1.00  0.00     0.123 A 
ATOM     27  F   UNL A   1      46.185  25.606  39.021  1.00  0.00    -0.207 F 
ENDBRANCH  18  21
BRANCH  20  28
ATOM     28  C   UNL A   1      46.427  29.693  34.019  1.00  0.00    -0.001 A 
ATOM     29  C   UNL A   1      47.753  29.673  33.558  1.00  0.00     0.011 A 
ATOM     30  C   UNL A   1      46.074  30.588  35.038  1.00  0.00     0.011 A 
ATOM     31  C   UNL A   1      48.730  30.460  34.165  1.00  0.00     0.021 A 
ATOM     32  C   UNL A   1      47.045  31.384  35.649  1.00  0.00     0.021 A 
ATOM     33  C   UNL A   1      48.374  31.288  35.231  1.00  0.00     0.067 A 
BRANCH  33  34
ATOM     34  S   UNL A   1      49.641  32.208  36.067  1.00  0.00     0.175 S 
ATOM     35  C   UNL A   1      50.181  31.101  37.346  1.00  0.00     0.163 C 
ATOM     36  O   UNL A   1      50.732  32.391  35.130  1.00  0.00    -0.224 OA
ATOM     37  O   UNL A   1      49.012  33.345  36.716  1.00  0.00    -0.224 OA
ENDBRANCH  33  34
ENDBRANCH  20  28
ENDBRANCH  14  15
ENDBRANCH  11  14
ENDBRANCH   9  10
BRANCH   9  38
ATOM     38  C   UNL A   1      43.422  26.196  26.264  1.00  0.00     0.065 C 
BRANCH  38  39
ATOM     39  C   UNL A   1      42.953  27.385  25.426  1.00  0.00     0.159 C 
BRANCH  39  40
ATOM     40  O   UNL A   1      43.644  28.573  25.775  1.00  0.00    -0.396 OA
ATOM     41  H   UNL A   1      43.161  29.341  25.429  1.00  0.00     0.210 HD
ENDBRANCH  39  40
ENDBRANCH  38  39
ENDBRANCH   9  38
ENDBRANCH   7   9
ENDBRANCH   6   7
ENDBRANCH   5   6
ENDBRANCH   4   5
ENDBRANCH   3   4
ENDBRANCH   2   3
ENDBRANCH   1   2
BRANCH   1  42
ATOM     42  O   UNL A   1      45.666  22.208  26.200  1.00  0.00    -0.377 OA
BRANCH  42  43
ATOM     43  C   UNL A   1      45.998  22.187  24.809  1.00  0.00     0.188 C 
BRANCH  43  44
ATOM     44  C   UNL A   1      46.445  23.520  24.205  1.00  0.00     0.188 C 
BRANCH  44  45
ATOM     45  O   UNL A   1      46.312  24.570  25.146  1.00  0.00    -0.376 OA
BRANCH  45  46
ATOM     46  C   UNL A   1      47.121  25.735  24.983  1.00  0.00     0.202 C 
BRANCH  46  47
ATOM     47  C   UNL A   1      46.859  27.035  25.801  1.00  0.00     0.261 C 
BRANCH  47  48
ATOM     48  O   UNL A   1      46.763  27.195  27.300  1.00  0.00    -0.460 OA
BRANCH  48  49
ATOM     49  C   UNL A   1      47.531  27.777  28.289  1.00  0.00     0.338 C 
ATOM     50  O   UNL A   1      48.529  27.224  28.748  1.00  0.00    -0.246 OA
BRANCH  49  51
ATOM     51  C   UNL A   1      47.033  29.225  28.731  1.00  0.00     0.060 A 
ATOM     52  C   UNL A   1      46.006  30.099  28.233  1.00  0.00     0.016 A 
ATOM     53  C   UNL A   1      47.591  29.787  29.824  1.00  0.00     0.016 A 
ATOM     54  C   UNL A   1      45.553  31.522  28.829  1.00  0.00     0.010 A 
ATOM     55  C   UNL A   1      47.094  31.072  30.328  1.00  0.00     0.010 A 
ATOM     56  C   UNL A   1      46.130  32.165  29.949  1.00  0.00    -0.014 A 
BRANCH  56  57
ATOM     57  C   UNL A   1      45.473  33.456  31.154  1.00  0.00     0.031 A 
ATOM     58  C   UNL A   1      46.456  33.147  32.243  1.00  0.00     0.074 A 
ATOM     59  C   UNL A   1      44.872  34.875  31.440  1.00  0.00     0.049 A 
ATOM     60  N   UNL A   1      47.633  32.837  31.743  1.00  0.00    -0.248 NA
ATOM     61  C   UNL A   1      46.675  33.948  33.422  1.00  0.00     0.031 C 
ATOM     62  C   UNL A   1      44.293  35.887  30.507  1.00  0.00     0.029 A 
ATOM     63  N   UNL A   1      44.777  35.885  32.744  1.00  0.00    -0.354 N 
ATOM     64  C   UNL A   1      48.086  34.123  31.547  1.00  0.00     0.074 A 
ATOM     65  C   UNL A   1      47.807  34.533  32.973  1.00  0.00     0.031 C 
ATOM     66  C   UNL A   1      44.104  37.153  31.024  1.00  0.00     0.029 A 
ATOM     67  C   UNL A   1      44.435  37.378  32.485  1.00  0.00     0.049 A 
ATOM     68  H   UNL A   1      44.934  35.552  33.657  1.00  0.00     0.167 HD
ATOM     69  C   UNL A   1      48.074  34.929  30.354  1.00  0.00     0.034 A 
ATOM     70  C   UNL A   1      44.313  38.775  33.089  1.00  0.00     0.034 A 
ATOM     71  C   UNL A   1      48.940  36.064  30.545  1.00  0.00     0.049 A 
ATOM     72  C   UNL A   1      45.513  39.289  32.357  1.00  0.00     0.074 A 
ATOM     73  C   UNL A   1      49.378  36.638  31.715  1.00  0.00     0.029 A 
ATOM     74  N   UNL A   1      48.798  37.175  29.727  1.00  0.00    -0.354 N 
ATOM     75  N   UNL A   1      45.559  39.905  31.220  1.00  0.00    -0.248 NA
ATOM     76  C   UNL A   1      46.789  39.283  33.140  1.00  0.00     0.031 C 
ATOM     77  C   UNL A   1      48.200  37.383  31.764  1.00  0.00     0.029 A 
ATOM     78  C   UNL A   1      48.084  38.020  30.519  1.00  0.00     0.049 A 
ATOM     79  H   UNL A   1      49.127  37.315  28.810  1.00  0.00     0.167 HD
ATOM     80  C   UNL A   1      46.922  39.952  30.989  1.00  0.00     0.074 A 
ATOM     81  C   UNL A   1      47.589  39.924  32.285  1.00  0.00     0.031 C 
ATOM     82  C   UNL A   1      47.333  39.121  29.997  1.00  0.00     0.034 A 
BRANCH  69  83
ATOM     83  C   UNL A   1      47.466  34.800  28.732  1.00  0.00     0.023 A 
ATOM     84  C   UNL A   1      46.230  35.270  28.132  1.00  0.00     0.031 A 
ATOM     85  C   UNL A   1      48.189  33.983  27.833  1.00  0.00     0.131 A 
ATOM     86  C   UNL A   1      45.685  34.716  26.929  1.00  0.00     0.055 A 
ATOM     87  C   UNL A   1      47.749  33.630  26.540  1.00  0.00     0.041 A 
ATOM     88  F   UNL A   1      49.367  33.455  28.191  1.00  0.00    -0.206 F 
ATOM     89  C   UNL A   1      46.470  33.934  26.106  1.00  0.00     0.022 A 
BRANCH  86  90
ATOM     90  S   UNL A   1      43.874  34.782  26.531  1.00  0.00     0.124 S 
ATOM     91  O   UNL A   1      43.545  36.185  26.761  1.00  0.00    -0.237 OA
ATOM     92  O   UNL A   1      43.807  34.335  25.145  1.00  0.00    -0.237 OA
ATOM     93  O   UNL A   1      43.276  33.872  27.508  1.00  0.00    -0.744 OA
ENDBRANCH  86  90
ENDBRANCH  69  83
BRANCH  70  94
ATOM     94  C   UNL A   1      44.248  40.185  34.229  1.00  0.00     0.023 A 
ATOM     95  C   UNL A   1      44.660  40.324  35.602  1.00  0.00     0.031 A 
ATOM     96  C   UNL A   1      43.315  41.322  34.030  1.00  0.00     0.131 A 
ATOM     97  C   UNL A   1      44.331  41.547  36.424  1.00  0.00     0.055 A 
ATOM     98  C   UNL A   1      43.212  42.578  34.664  1.00  0.00     0.041 A 
ATOM     99  F   UNL A   1      42.089  41.107  33.534  1.00  0.00    -0.206 F 
ATOM    100  C   UNL A   1      43.714  42.691  35.911  1.00  0.00     0.022 A 
BRANCH  97 101
ATOM    101  S   UNL A   1      44.500  41.718  38.267  1.00  0.00     0.124 S 
ATOM    102  O   UNL A   1      43.294  41.057  38.759  1.00  0.00    -0.237 OA
ATOM    103  O   UNL A   1      45.766  41.060  38.548  1.00  0.00    -0.237 OA
ATOM    104  O   UNL A   1      44.506  43.172  38.466  1.00  0.00    -0.744 OA
ENDBRANCH  97 101
ENDBRANCH  70  94
BRANCH  82 105
ATOM    105  C   UNL A   1      46.520  39.262  28.749  1.00  0.00     0.023 A 
ATOM    106  C   UNL A   1      45.141  39.496  28.869  1.00  0.00     0.031 A 
ATOM    107  C   UNL A   1      47.003  39.015  27.462  1.00  0.00     0.131 A 
ATOM    108  C   UNL A   1      44.300  39.435  27.750  1.00  0.00     0.055 A 
ATOM    109  C   UNL A   1      46.166  38.909  26.345  1.00  0.00     0.041 A 
ATOM    110  F   UNL A   1      48.307  38.836  27.269  1.00  0.00    -0.206 F 
ATOM    111  C   UNL A   1      44.798  39.110  26.489  1.00  0.00     0.022 A 
BRANCH 108 112
ATOM    112  S   UNL A   1      42.562  39.877  27.978  1.00  0.00     0.124 S 
ATOM    113  O   UNL A   1      41.959  38.622  28.414  1.00  0.00    -0.237 OA
ATOM    114  O   UNL A   1      42.652  40.922  28.996  1.00  0.00    -0.237 OA
ATOM    115  O   UNL A   1      42.147  40.344  26.656  1.00  0.00    -0.744 OA
ENDBRANCH 108 112
ENDBRANCH  82 105
ENDBRANCH  56  57
ENDBRANCH  49  51
ENDBRANCH  48  49
ENDBRANCH  47  48
ENDBRANCH  46  47
ENDBRANCH  45  46
ENDBRANCH  44  45
ENDBRANCH  43  44
ENDBRANCH  42  43
ENDBRANCH   1  42
TORSDOF 32
ENDMDL
