MODEL 1
REMARK VINA RESULT:      -9.2      0.000      0.000
REMARK SMILES Cc1cccc(CC(=O)N2CCC3(CCC(=O)N([C@H](C)C(=O)OCCOCCOCCOCCOC(=O)c4ccc(-c5c6nc(c(-c7cc(S(=O)(=O)[O-])ccc7F)c7ccc([nH]7)c(-c7cc(S(=O)(=O)[O-])ccc7F)c7nc(c(-c8cc(S(=O)(=O)[O-])ccc8F)c8ccc5[nH]8)C=C7)C=C6)cc4)C3)CC2)c1
REMARK SMILES IDX 29 1 28 2 27 3 26 4 25 5 24 6 23 7 21 8 22 9 19 10 20 11
REMARK SMILES IDX 18 12 8 13 9 14 10 15 11 16 103 17 12 18 102 19 13 20 14 21
REMARK SMILES IDX 101 22 15 23 16 24 17 25 7 26 6 27 1 28 2 29 3 30 104 31
REMARK SMILES IDX 4 32 5 33 30 34 31 35 32 36 33 37 34 38 35 39 36 40 37 41
REMARK SMILES IDX 38 42 39 43 100 44 40 45 99 46 41 47 42 48 43 49 93 50 44 51
REMARK SMILES IDX 98 52 92 53 94 54 45 55 97 56 91 57 90 58 46 60 78 61 58 62
REMARK SMILES IDX 77 63 59 64 62 65 76 66 95 67 60 68 61 69 75 71 96 72 63 73
REMARK SMILES IDX 47 74 48 75 56 76 49 77 55 78 57 79 54 80 50 81 51 82 52 83
REMARK SMILES IDX 53 84 79 85 80 86 88 87 81 88 87 89 89 90 86 91 82 92 83 93
REMARK SMILES IDX 84 94 85 95 64 96 65 97 73 98 66 99 72 100 74 101 71 102
REMARK SMILES IDX 67 103 68 104 69 105 70 106
REMARK H PARENT 94 59 62 70
REMARK Flexibility Score: inf
ROOT
ATOM      1  O   UNL A   1      35.627  33.521  27.929  1.00  0.00    -0.377 OA
ENDROOT
BRANCH   1   2
ATOM      2  C   UNL A   1      35.474  32.131  27.726  1.00  0.00     0.188 C 
BRANCH   2   3
ATOM      3  C   UNL A   1      34.217  31.440  28.282  1.00  0.00     0.188 C 
BRANCH   3   4
ATOM      4  O   UNL A   1      33.106  31.187  27.438  1.00  0.00    -0.376 OA
BRANCH   4   5
ATOM      5  C   UNL A   1      33.130  29.945  26.741  1.00  0.00     0.202 C 
BRANCH   5   6
ATOM      6  C   UNL A   1      34.366  29.060  26.900  1.00  0.00     0.261 C 
BRANCH   6   7
ATOM      7  O   UNL A   1      34.046  27.706  26.596  1.00  0.00    -0.462 OA
BRANCH   7   8
ATOM      8  C   UNL A   1      33.676  27.420  25.334  1.00  0.00     0.328 C 
ATOM      9  O   UNL A   1      34.140  27.907  24.316  1.00  0.00    -0.250 OA
BRANCH   8  10
ATOM     10  C   UNL A   1      32.731  26.224  25.346  1.00  0.00     0.192 C 
ATOM     11  C   UNL A   1      31.613  26.419  26.353  1.00  0.00     0.044 C 
BRANCH  10  12
ATOM     12  N   UNL A   1      32.303  25.887  23.990  1.00  0.00    -0.329 N 
ATOM     13  C   UNL A   1      33.103  19.886  25.115  1.00  0.00     0.226 C 
ATOM     14  O   UNL A   1      32.850  19.396  26.222  1.00  0.00    -0.275 OA
ATOM     15  N   UNL A   1      32.224  20.778  24.525  1.00  0.00    -0.342 N 
ATOM     16  C   UNL A   1      31.530  21.719  25.389  1.00  0.00     0.120 C 
ATOM     17  C   UNL A   1      32.087  21.083  23.105  1.00  0.00     0.120 C 
ATOM     18  C   UNL A   1      32.123  23.106  25.138  1.00  0.00     0.030 C 
ATOM     19  C   UNL A   1      32.757  22.403  22.798  1.00  0.00     0.030 C 
ATOM     20  C   UNL A   1      32.112  23.514  23.626  1.00  0.00    -0.008 C 
ATOM     21  C   UNL A   1      30.649  23.770  23.135  1.00  0.00     0.019 C 
ATOM     22  C   UNL A   1      32.960  24.779  23.370  1.00  0.00     0.127 C 
ATOM     23  C   UNL A   1      30.060  25.040  23.734  1.00  0.00     0.101 C 
ATOM     24  C   UNL A   1      31.056  26.130  23.434  1.00  0.00     0.223 C 
ATOM     25  O   UNL A   1      30.880  26.842  22.453  1.00  0.00    -0.275 OA
BRANCH  13  26
ATOM     26  C   UNL A   1      34.512  19.706  24.549  1.00  0.00     0.135 C 
BRANCH  26  27
ATOM     27  C   UNL A   1      35.595  20.651  24.997  1.00  0.00    -0.038 A 
ATOM     28  C   UNL A   1      35.895  24.374  25.763  1.00  0.00     0.044 C 
ATOM     29  C   UNL A   1      36.257  22.937  25.517  1.00  0.00    -0.051 A 
ATOM     30  C   UNL A   1      37.598  22.558  25.393  1.00  0.00     0.003 A 
ATOM     31  C   UNL A   1      35.263  21.970  25.349  1.00  0.00     0.007 A 
ATOM     32  C   UNL A   1      37.939  21.228  25.134  1.00  0.00     0.001 A 
ATOM     33  C   UNL A   1      36.942  20.268  24.958  1.00  0.00     0.004 A 
ENDBRANCH  26  27
ENDBRANCH  13  26
ENDBRANCH  10  12
ENDBRANCH   8  10
ENDBRANCH   7   8
ENDBRANCH   6   7
ENDBRANCH   5   6
ENDBRANCH   4   5
ENDBRANCH   3   4
ENDBRANCH   2   3
ENDBRANCH   1   2
BRANCH   1  34
ATOM     34  C   UNL A   1      36.210  34.011  29.131  1.00  0.00     0.188 C 
BRANCH  34  35
ATOM     35  C   UNL A   1      37.723  34.072  29.190  1.00  0.00     0.188 C 
BRANCH  35  36
ATOM     36  O   UNL A   1      38.117  33.493  30.438  1.00  0.00    -0.376 OA
BRANCH  36  37
ATOM     37  C   UNL A   1      39.316  32.734  30.433  1.00  0.00     0.202 C 
BRANCH  37  38
ATOM     38  C   UNL A   1      39.566  32.000  31.750  1.00  0.00     0.261 C 
BRANCH  38  39
ATOM     39  O   UNL A   1      38.825  30.760  31.764  1.00  0.00    -0.460 OA
BRANCH  39  40
ATOM     40  C   UNL A   1      37.521  30.869  32.138  1.00  0.00     0.338 C 
ATOM     41  O   UNL A   1      36.572  30.789  31.364  1.00  0.00    -0.246 OA
BRANCH  40  42
ATOM     42  C   UNL A   1      37.409  31.257  33.575  1.00  0.00     0.060 A 
ATOM     43  C   UNL A   1      36.906  32.518  33.946  1.00  0.00     0.016 A 
ATOM     44  C   UNL A   1      38.095  30.500  34.513  1.00  0.00     0.016 A 
ATOM     45  C   UNL A   1      37.249  33.086  35.189  1.00  0.00     0.010 A 
ATOM     46  C   UNL A   1      38.526  31.118  35.670  1.00  0.00     0.010 A 
ATOM     47  C   UNL A   1      38.144  32.421  36.028  1.00  0.00    -0.014 A 
BRANCH  47  48
ATOM     48  C   UNL A   1      38.902  33.003  37.166  1.00  0.00     0.031 A 
ATOM     49  C   UNL A   1      38.347  32.878  38.567  1.00  0.00     0.074 A 
ATOM     50  C   UNL A   1      40.223  33.258  36.995  1.00  0.00     0.049 A 
ATOM     51  N   UNL A   1      38.985  33.099  39.664  1.00  0.00    -0.248 NA
ATOM     52  C   UNL A   1      36.974  32.455  38.843  1.00  0.00     0.031 C 
ATOM     53  C   UNL A   1      41.270  33.073  38.000  1.00  0.00     0.029 A 
ATOM     54  N   UNL A   1      40.945  33.645  35.868  1.00  0.00    -0.354 N 
ATOM     55  C   UNL A   1      38.269  32.594  40.739  1.00  0.00     0.074 A 
ATOM     56  C   UNL A   1      36.995  32.252  40.167  1.00  0.00     0.031 C 
ATOM     57  C   UNL A   1      42.464  33.361  37.478  1.00  0.00     0.029 A 
ATOM     58  C   UNL A   1      42.231  34.055  36.257  1.00  0.00     0.049 A 
ATOM     59  H   UNL A   1      40.607  33.632  34.943  1.00  0.00     0.167 HD
ATOM     60  C   UNL A   1      38.893  32.437  41.952  1.00  0.00     0.034 A 
ATOM     61  C   UNL A   1      42.653  35.344  36.106  1.00  0.00     0.034 A 
ATOM     62  C   UNL A   1      40.225  33.066  41.936  1.00  0.00     0.049 A 
ATOM     63  C   UNL A   1      42.697  36.080  37.454  1.00  0.00     0.074 A 
ATOM     64  C   UNL A   1      41.510  32.642  42.227  1.00  0.00     0.029 A 
ATOM     65  N   UNL A   1      40.356  34.348  41.405  1.00  0.00    -0.354 N 
ATOM     66  N   UNL A   1      41.970  35.722  38.495  1.00  0.00    -0.248 NA
ATOM     67  C   UNL A   1      43.663  37.122  37.810  1.00  0.00     0.031 C 
ATOM     68  C   UNL A   1      42.407  33.654  41.791  1.00  0.00     0.029 A 
ATOM     69  C   UNL A   1      41.673  34.702  41.255  1.00  0.00     0.049 A 
ATOM     70  H   UNL A   1      39.598  34.928  41.165  1.00  0.00     0.167 HD
ATOM     71  C   UNL A   1      42.425  36.351  39.630  1.00  0.00     0.074 A 
ATOM     72  C   UNL A   1      43.452  37.255  39.135  1.00  0.00     0.031 C 
ATOM     73  C   UNL A   1      42.027  36.068  40.913  1.00  0.00     0.034 A 
BRANCH  60  74
ATOM     74  C   UNL A   1      38.437  31.595  43.158  1.00  0.00     0.023 A 
ATOM     75  C   UNL A   1      38.393  32.191  44.450  1.00  0.00     0.031 A 
ATOM     76  C   UNL A   1      38.124  30.220  43.155  1.00  0.00     0.131 A 
ATOM     77  C   UNL A   1      38.110  31.454  45.622  1.00  0.00     0.055 A 
ATOM     78  C   UNL A   1      37.788  29.496  44.315  1.00  0.00     0.041 A 
ATOM     79  F   UNL A   1      38.147  29.481  42.045  1.00  0.00    -0.206 F 
ATOM     80  C   UNL A   1      37.790  30.105  45.558  1.00  0.00     0.022 A 
BRANCH  77  81
ATOM     81  S   UNL A   1      38.192  32.269  47.248  1.00  0.00     0.124 S 
ATOM     82  O   UNL A   1      37.169  31.554  48.004  1.00  0.00    -0.237 OA
ATOM     83  O   UNL A   1      39.574  32.038  47.651  1.00  0.00    -0.237 OA
ATOM     84  O   UNL A   1      37.867  33.664  46.946  1.00  0.00    -0.744 OA
ENDBRANCH  77  81
ENDBRANCH  60  74
BRANCH  61  85
ATOM     85  C   UNL A   1      42.495  35.739  34.663  1.00  0.00     0.023 A 
ATOM     86  C   UNL A   1      42.458  37.156  34.507  1.00  0.00     0.031 A 
ATOM     87  C   UNL A   1      43.213  35.011  33.698  1.00  0.00     0.131 A 
ATOM     88  C   UNL A   1      43.409  37.795  33.687  1.00  0.00     0.055 A 
ATOM     89  C   UNL A   1      44.108  35.660  32.826  1.00  0.00     0.041 A 
ATOM     90  F   UNL A   1      43.260  33.672  33.754  1.00  0.00    -0.206 F 
ATOM     91  C   UNL A   1      44.266  37.049  32.877  1.00  0.00     0.022 A 
BRANCH  88  92
ATOM     92  S   UNL A   1      43.770  39.568  33.975  1.00  0.00     0.124 S 
ATOM     93  O   UNL A   1      44.068  39.590  35.402  1.00  0.00    -0.237 OA
ATOM     94  O   UNL A   1      44.899  39.818  33.086  1.00  0.00    -0.237 OA
ATOM     95  O   UNL A   1      42.528  40.230  33.576  1.00  0.00    -0.744 OA
ENDBRANCH  88  92
ENDBRANCH  61  85
BRANCH  73  96
ATOM     96  C   UNL A   1      41.953  37.083  42.042  1.00  0.00     0.023 A 
ATOM     97  C   UNL A   1      42.899  37.123  43.067  1.00  0.00     0.031 A 
ATOM     98  C   UNL A   1      41.030  38.168  42.022  1.00  0.00     0.131 A 
ATOM     99  C   UNL A   1      42.883  38.143  44.030  1.00  0.00     0.055 A 
ATOM    100  C   UNL A   1      41.067  39.224  42.934  1.00  0.00     0.041 A 
ATOM    101  F   UNL A   1      40.071  38.288  41.093  1.00  0.00    -0.206 F 
ATOM    102  C   UNL A   1      41.996  39.213  43.956  1.00  0.00     0.022 A 
BRANCH  99 103
ATOM    103  S   UNL A   1      44.039  38.000  45.408  1.00  0.00     0.124 S 
ATOM    104  O   UNL A   1      44.101  36.553  45.596  1.00  0.00    -0.237 OA
ATOM    105  O   UNL A   1      45.247  38.621  44.873  1.00  0.00    -0.237 OA
ATOM    106  O   UNL A   1      43.386  38.739  46.486  1.00  0.00    -0.744 OA
ENDBRANCH  99 103
ENDBRANCH  73  96
ENDBRANCH  47  48
ENDBRANCH  40  42
ENDBRANCH  39  40
ENDBRANCH  38  39
ENDBRANCH  37  38
ENDBRANCH  36  37
ENDBRANCH  35  36
ENDBRANCH  34  35
ENDBRANCH   1  34
TORSDOF 26
ENDMDL
MODEL 2
REMARK VINA RESULT:      -9.0      3.257      6.516
REMARK SMILES Cc1cccc(CC(=O)N2CCC3(CCC(=O)N([C@H](C)C(=O)OCCOCCOCCOCCOC(=O)c4ccc(-c5c6nc(c(-c7cc(S(=O)(=O)[O-])ccc7F)c7ccc([nH]7)c(-c7cc(S(=O)(=O)[O-])ccc7F)c7nc(c(-c8cc(S(=O)(=O)[O-])ccc8F)c8ccc5[nH]8)C=C7)C=C6)cc4)C3)CC2)c1
REMARK SMILES IDX 29 1 28 2 27 3 26 4 25 5 24 6 23 7 21 8 22 9 19 10 20 11
REMARK SMILES IDX 18 12 8 13 9 14 10 15 11 16 103 17 12 18 102 19 13 20 14 21
REMARK SMILES IDX 101 22 15 23 16 24 17 25 7 26 6 27 1 28 2 29 3 30 104 31
REMARK SMILES IDX 4 32 5 33 30 34 31 35 32 36 33 37 34 38 35 39 36 40 37 41
REMARK SMILES IDX 38 42 39 43 100 44 40 45 99 46 41 47 42 48 43 49 93 50 44 51
REMARK SMILES IDX 98 52 92 53 94 54 45 55 97 56 91 57 90 58 46 60 78 61 58 62
REMARK SMILES IDX 77 63 59 64 62 65 76 66 95 67 60 68 61 69 75 71 96 72 63 73
REMARK SMILES IDX 47 74 48 75 56 76 49 77 55 78 57 79 54 80 50 81 51 82 52 83
REMARK SMILES IDX 53 84 79 85 80 86 88 87 81 88 87 89 89 90 86 91 82 92 83 93
REMARK SMILES IDX 84 94 85 95 64 96 65 97 73 98 66 99 72 100 74 101 71 102
REMARK SMILES IDX 67 103 68 104 69 105 70 106
REMARK H PARENT 94 59 62 70
REMARK Flexibility Score: inf
ROOT
ATOM      1  O   UNL A   1      37.947  28.566  29.222  1.00  0.00    -0.377 OA
ENDROOT
BRANCH   1   2
ATOM      2  C   UNL A   1      39.282  28.653  28.769  1.00  0.00     0.188 C 
BRANCH   2   3
ATOM      3  C   UNL A   1      39.958  27.384  28.223  1.00  0.00     0.188 C 
BRANCH   3   4
ATOM      4  O   UNL A   1      39.175  26.273  27.816  1.00  0.00    -0.376 OA
BRANCH   4   5
ATOM      5  C   UNL A   1      39.904  25.120  27.405  1.00  0.00     0.202 C 
BRANCH   5   6
ATOM      6  C   UNL A   1      39.426  24.380  26.156  1.00  0.00     0.261 C 
BRANCH   6   7
ATOM      7  O   UNL A   1      38.017  24.182  26.209  1.00  0.00    -0.462 OA
BRANCH   7   8
ATOM      8  C   UNL A   1      37.529  23.030  25.712  1.00  0.00     0.328 C 
ATOM      9  O   UNL A   1      37.905  21.904  25.994  1.00  0.00    -0.250 OA
BRANCH   8  10
ATOM     10  C   UNL A   1      36.274  23.325  24.898  1.00  0.00     0.192 C 
ATOM     11  C   UNL A   1      36.460  22.933  23.445  1.00  0.00     0.044 C 
BRANCH  10  12
ATOM     12  N   UNL A   1      35.090  22.772  25.552  1.00  0.00    -0.329 N 
ATOM     13  C   UNL A   1      31.399  26.105  21.921  1.00  0.00     0.226 C 
ATOM     14  O   UNL A   1      31.681  26.322  20.736  1.00  0.00    -0.275 OA
ATOM     15  N   UNL A   1      31.548  24.838  22.457  1.00  0.00    -0.342 N 
ATOM     16  C   UNL A   1      32.681  24.042  22.015  1.00  0.00     0.120 C 
ATOM     17  C   UNL A   1      30.860  24.277  23.615  1.00  0.00     0.120 C 
ATOM     18  C   UNL A   1      33.677  23.967  23.173  1.00  0.00     0.030 C 
ATOM     19  C   UNL A   1      31.784  24.285  24.812  1.00  0.00     0.030 C 
ATOM     20  C   UNL A   1      33.032  23.457  24.506  1.00  0.00    -0.008 C 
ATOM     21  C   UNL A   1      32.659  21.942  24.392  1.00  0.00     0.019 C 
ATOM     22  C   UNL A   1      33.978  23.656  25.710  1.00  0.00     0.127 C 
ATOM     23  C   UNL A   1      33.892  21.050  24.363  1.00  0.00     0.101 C 
ATOM     24  C   UNL A   1      34.703  21.441  25.571  1.00  0.00     0.223 C 
ATOM     25  O   UNL A   1      34.594  20.783  26.598  1.00  0.00    -0.275 OA
BRANCH  13  26
ATOM     26  C   UNL A   1      31.156  27.305  22.838  1.00  0.00     0.135 C 
BRANCH  26  27
ATOM     27  C   UNL A   1      32.005  27.454  24.071  1.00  0.00    -0.038 A 
ATOM     28  C   UNL A   1      31.450  28.334  27.739  1.00  0.00     0.044 C 
ATOM     29  C   UNL A   1      32.130  28.023  26.437  1.00  0.00    -0.051 A 
ATOM     30  C   UNL A   1      33.514  28.185  26.306  1.00  0.00     0.003 A 
ATOM     31  C   UNL A   1      31.388  27.626  25.321  1.00  0.00     0.007 A 
ATOM     32  C   UNL A   1      34.147  27.926  25.088  1.00  0.00     0.001 A 
ATOM     33  C   UNL A   1      33.400  27.540  23.975  1.00  0.00     0.004 A 
ENDBRANCH  26  27
ENDBRANCH  13  26
ENDBRANCH  10  12
ENDBRANCH   8  10
ENDBRANCH   7   8
ENDBRANCH   6   7
ENDBRANCH   5   6
ENDBRANCH   4   5
ENDBRANCH   3   4
ENDBRANCH   2   3
ENDBRANCH   1   2
BRANCH   1  34
ATOM     34  C   UNL A   1      37.103  29.711  29.193  1.00  0.00     0.188 C 
BRANCH  34  35
ATOM     35  C   UNL A   1      36.253  29.912  27.954  1.00  0.00     0.188 C 
BRANCH  35  36
ATOM     36  O   UNL A   1      34.970  30.368  28.395  1.00  0.00    -0.376 OA
BRANCH  36  37
ATOM     37  C   UNL A   1      34.469  31.544  27.779  1.00  0.00     0.202 C 
BRANCH  37  38
ATOM     38  C   UNL A   1      35.267  32.796  28.138  1.00  0.00     0.261 C 
BRANCH  38  39
ATOM     39  O   UNL A   1      34.645  33.465  29.257  1.00  0.00    -0.460 OA
BRANCH  39  40
ATOM     40  C   UNL A   1      34.994  32.987  30.482  1.00  0.00     0.338 C 
ATOM     41  O   UNL A   1      34.191  32.703  31.366  1.00  0.00    -0.246 OA
BRANCH  40  42
ATOM     42  C   UNL A   1      36.475  33.008  30.662  1.00  0.00     0.060 A 
ATOM     43  C   UNL A   1      37.105  32.131  31.565  1.00  0.00     0.016 A 
ATOM     44  C   UNL A   1      37.179  34.101  30.179  1.00  0.00     0.016 A 
ATOM     45  C   UNL A   1      38.362  32.454  32.114  1.00  0.00     0.010 A 
ATOM     46  C   UNL A   1      38.347  34.467  30.817  1.00  0.00     0.010 A 
ATOM     47  C   UNL A   1      38.954  33.680  31.810  1.00  0.00    -0.014 A 
BRANCH  47  48
ATOM     48  C   UNL A   1      40.053  34.350  32.552  1.00  0.00     0.031 A 
ATOM     49  C   UNL A   1      39.830  34.775  33.985  1.00  0.00     0.074 A 
ATOM     50  C   UNL A   1      41.321  34.202  32.093  1.00  0.00     0.049 A 
ATOM     51  N   UNL A   1      40.738  35.131  34.827  1.00  0.00    -0.248 NA
ATOM     52  C   UNL A   1      38.505  34.812  34.606  1.00  0.00     0.031 C 
ATOM     53  C   UNL A   1      42.520  34.052  32.917  1.00  0.00     0.029 A 
ATOM     54  N   UNL A   1      41.818  34.054  30.799  1.00  0.00    -0.354 N 
ATOM     55  C   UNL A   1      40.211  35.152  36.110  1.00  0.00     0.074 A 
ATOM     56  C   UNL A   1      38.797  34.996  35.899  1.00  0.00     0.031 C 
ATOM     57  C   UNL A   1      43.591  33.865  32.143  1.00  0.00     0.029 A 
ATOM     58  C   UNL A   1      43.213  34.217  30.815  1.00  0.00     0.049 A 
ATOM     59  H   UNL A   1      41.276  33.864  30.000  1.00  0.00     0.167 HD
ATOM     60  C   UNL A   1      41.061  35.194  37.187  1.00  0.00     0.034 A 
ATOM     61  C   UNL A   1      43.825  35.259  30.179  1.00  0.00     0.034 A 
ATOM     62  C   UNL A   1      42.447  35.433  36.748  1.00  0.00     0.049 A 
ATOM     63  C   UNL A   1      44.323  36.313  31.181  1.00  0.00     0.074 A 
ATOM     64  C   UNL A   1      43.660  34.798  36.950  1.00  0.00     0.029 A 
ATOM     65  N   UNL A   1      42.690  36.433  35.808  1.00  0.00    -0.354 N 
ATOM     66  N   UNL A   1      43.806  36.464  32.385  1.00  0.00    -0.248 NA
ATOM     67  C   UNL A   1      45.524  37.132  31.008  1.00  0.00     0.031 C 
ATOM     68  C   UNL A   1      44.604  35.381  36.063  1.00  0.00     0.029 A 
ATOM     69  C   UNL A   1      43.977  36.383  35.336  1.00  0.00     0.049 A 
ATOM     70  H   UNL A   1      42.020  37.093  35.516  1.00  0.00     0.167 HD
ATOM     71  C   UNL A   1      44.626  37.253  33.158  1.00  0.00     0.074 A 
ATOM     72  C   UNL A   1      45.660  37.687  32.230  1.00  0.00     0.031 C 
ATOM     73  C   UNL A   1      44.493  37.458  34.508  1.00  0.00     0.034 A 
BRANCH  60  74
ATOM     74  C   UNL A   1      40.750  34.876  38.662  1.00  0.00     0.023 A 
ATOM     75  C   UNL A   1      40.839  35.912  39.634  1.00  0.00     0.031 A 
ATOM     76  C   UNL A   1      40.456  33.609  39.206  1.00  0.00     0.131 A 
ATOM     77  C   UNL A   1      40.695  35.672  41.020  1.00  0.00     0.055 A 
ATOM     78  C   UNL A   1      40.258  33.379  40.581  1.00  0.00     0.041 A 
ATOM     79  F   UNL A   1      40.367  32.508  38.457  1.00  0.00    -0.206 F 
ATOM     80  C   UNL A   1      40.387  34.407  41.499  1.00  0.00     0.022 A 
BRANCH  77  81
ATOM     81  S   UNL A   1      40.943  37.032  42.206  1.00  0.00     0.124 S 
ATOM     82  O   UNL A   1      41.448  36.328  43.380  1.00  0.00    -0.237 OA
ATOM     83  O   UNL A   1      41.891  37.893  41.509  1.00  0.00    -0.237 OA
ATOM     84  O   UNL A   1      39.602  37.598  42.360  1.00  0.00    -0.744 OA
ENDBRANCH  77  81
ENDBRANCH  60  74
BRANCH  61  85
ATOM     85  C   UNL A   1      43.410  35.253  28.733  1.00  0.00     0.023 A 
ATOM     86  C   UNL A   1      42.747  36.462  28.371  1.00  0.00     0.031 A 
ATOM     87  C   UNL A   1      44.305  34.712  27.793  1.00  0.00     0.131 A 
ATOM     88  C   UNL A   1      43.263  37.260  27.330  1.00  0.00     0.055 A 
ATOM     89  C   UNL A   1      44.763  35.484  26.709  1.00  0.00     0.041 A 
ATOM     90  F   UNL A   1      44.936  33.555  28.044  1.00  0.00    -0.206 F 
ATOM     91  C   UNL A   1      44.301  36.791  26.524  1.00  0.00     0.022 A 
BRANCH  88  92
ATOM     92  S   UNL A   1      42.832  39.039  27.289  1.00  0.00     0.124 S 
ATOM     93  O   UNL A   1      43.966  39.612  26.574  1.00  0.00    -0.237 OA
ATOM     94  O   UNL A   1      41.560  39.048  26.573  1.00  0.00    -0.237 OA
ATOM     95  O   UNL A   1      42.731  39.391  28.705  1.00  0.00    -0.744 OA
ENDBRANCH  88  92
ENDBRANCH  61  85
BRANCH  73  96
ATOM     96  C   UNL A   1      44.880  38.737  35.233  1.00  0.00     0.023 A 
ATOM     97  C   UNL A   1      44.337  39.977  34.894  1.00  0.00     0.031 A 
ATOM     98  C   UNL A   1      45.671  38.722  36.418  1.00  0.00     0.131 A 
ATOM     99  C   UNL A   1      44.613  41.123  35.655  1.00  0.00     0.055 A 
ATOM    100  C   UNL A   1      45.879  39.847  37.217  1.00  0.00     0.041 A 
ATOM    101  F   UNL A   1      46.250  37.608  36.891  1.00  0.00    -0.206 F 
ATOM    102  C   UNL A   1      45.353  41.065  36.832  1.00  0.00     0.022 A 
BRANCH  99 103
ATOM    103  S   UNL A   1      44.004  42.701  35.027  1.00  0.00     0.124 S 
ATOM    104  O   UNL A   1      45.028  43.626  35.504  1.00  0.00    -0.237 OA
ATOM    105  O   UNL A   1      43.977  42.477  33.584  1.00  0.00    -0.237 OA
ATOM    106  O   UNL A   1      42.694  42.842  35.658  1.00  0.00    -0.744 OA
ENDBRANCH  99 103
ENDBRANCH  73  96
ENDBRANCH  47  48
ENDBRANCH  40  42
ENDBRANCH  39  40
ENDBRANCH  38  39
ENDBRANCH  37  38
ENDBRANCH  36  37
ENDBRANCH  35  36
ENDBRANCH  34  35
ENDBRANCH   1  34
TORSDOF 26
ENDMDL
MODEL 3
REMARK VINA RESULT:      -8.9      6.968     12.593
REMARK SMILES Cc1cccc(CC(=O)N2CCC3(CCC(=O)N([C@H](C)C(=O)OCCOCCOCCOCCOC(=O)c4ccc(-c5c6nc(c(-c7cc(S(=O)(=O)[O-])ccc7F)c7ccc([nH]7)c(-c7cc(S(=O)(=O)[O-])ccc7F)c7nc(c(-c8cc(S(=O)(=O)[O-])ccc8F)c8ccc5[nH]8)C=C7)C=C6)cc4)C3)CC2)c1
REMARK SMILES IDX 29 1 28 2 27 3 26 4 25 5 24 6 23 7 21 8 22 9 19 10 20 11
REMARK SMILES IDX 18 12 8 13 9 14 10 15 11 16 103 17 12 18 102 19 13 20 14 21
REMARK SMILES IDX 101 22 15 23 16 24 17 25 7 26 6 27 1 28 2 29 3 30 104 31
REMARK SMILES IDX 4 32 5 33 30 34 31 35 32 36 33 37 34 38 35 39 36 40 37 41
REMARK SMILES IDX 38 42 39 43 100 44 40 45 99 46 41 47 42 48 43 49 93 50 44 51
REMARK SMILES IDX 98 52 92 53 94 54 45 55 97 56 91 57 90 58 46 60 78 61 58 62
REMARK SMILES IDX 77 63 59 64 62 65 76 66 95 67 60 68 61 69 75 71 96 72 63 73
REMARK SMILES IDX 47 74 48 75 56 76 49 77 55 78 57 79 54 80 50 81 51 82 52 83
REMARK SMILES IDX 53 84 79 85 80 86 88 87 81 88 87 89 89 90 86 91 82 92 83 93
REMARK SMILES IDX 84 94 85 95 64 96 65 97 73 98 66 99 72 100 74 101 71 102
REMARK SMILES IDX 67 103 68 104 69 105 70 106
REMARK H PARENT 94 59 62 70
REMARK Flexibility Score: inf
ROOT
ATOM      1  O   UNL A   1      41.435  22.058  27.986  1.00  0.00    -0.377 OA
ENDROOT
BRANCH   1   2
ATOM      2  C   UNL A   1      42.119  22.865  28.921  1.00  0.00     0.188 C 
BRANCH   2   3
ATOM      3  C   UNL A   1      43.603  22.572  29.200  1.00  0.00     0.188 C 
BRANCH   3   4
ATOM      4  O   UNL A   1      44.464  23.603  29.656  1.00  0.00    -0.376 OA
BRANCH   4   5
ATOM      5  C   UNL A   1      45.576  23.896  28.815  1.00  0.00     0.202 C 
BRANCH   5   6
ATOM      6  C   UNL A   1      45.495  23.471  27.349  1.00  0.00     0.261 C 
BRANCH   6   7
ATOM      7  O   UNL A   1      46.764  23.622  26.721  1.00  0.00    -0.462 OA
BRANCH   7   8
ATOM      8  C   UNL A   1      46.807  24.290  25.554  1.00  0.00     0.328 C 
ATOM      9  O   UNL A   1      46.254  23.968  24.515  1.00  0.00    -0.250 OA
BRANCH   8  10
ATOM     10  C   UNL A   1      47.476  25.642  25.773  1.00  0.00     0.192 C 
ATOM     11  C   UNL A   1      48.461  25.952  24.662  1.00  0.00     0.044 C 
BRANCH  10  12
ATOM     12  N   UNL A   1      46.479  26.678  26.036  1.00  0.00    -0.329 N 
ATOM     13  C   UNL A   1      48.992  27.852  31.533  1.00  0.00     0.226 C 
ATOM     14  O   UNL A   1      50.215  27.799  31.710  1.00  0.00    -0.275 OA
ATOM     15  N   UNL A   1      48.471  28.479  30.415  1.00  0.00    -0.342 N 
ATOM     16  C   UNL A   1      49.196  28.344  29.162  1.00  0.00     0.120 C 
ATOM     17  C   UNL A   1      47.140  29.054  30.258  1.00  0.00     0.120 C 
ATOM     18  C   UNL A   1      48.381  27.423  28.251  1.00  0.00     0.030 C 
ATOM     19  C   UNL A   1      46.271  28.118  29.449  1.00  0.00     0.030 C 
ATOM     20  C   UNL A   1      46.898  27.892  28.073  1.00  0.00    -0.008 C 
ATOM     21  C   UNL A   1      46.833  29.207  27.228  1.00  0.00     0.019 C 
ATOM     22  C   UNL A   1      46.036  26.808  27.388  1.00  0.00     0.127 C 
ATOM     23  C   UNL A   1      47.189  28.967  25.768  1.00  0.00     0.101 C 
ATOM     24  C   UNL A   1      46.291  27.845  25.312  1.00  0.00     0.223 C 
ATOM     25  O   UNL A   1      45.252  28.118  24.726  1.00  0.00    -0.275 OA
BRANCH  13  26
ATOM     26  C   UNL A   1      48.094  26.982  32.415  1.00  0.00     0.135 C 
BRANCH  26  27
ATOM     27  C   UNL A   1      48.071  27.241  33.897  1.00  0.00    -0.038 A 
ATOM     28  C   UNL A   1      48.160  30.287  36.188  1.00  0.00     0.044 C 
ATOM     29  C   UNL A   1      48.171  28.863  35.713  1.00  0.00    -0.051 A 
ATOM     30  C   UNL A   1      48.476  27.824  36.599  1.00  0.00     0.003 A 
ATOM     31  C   UNL A   1      47.939  28.558  34.368  1.00  0.00     0.007 A 
ATOM     32  C   UNL A   1      48.517  26.500  36.155  1.00  0.00     0.001 A 
ATOM     33  C   UNL A   1      48.294  26.202  34.810  1.00  0.00     0.004 A 
ENDBRANCH  26  27
ENDBRANCH  13  26
ENDBRANCH  10  12
ENDBRANCH   8  10
ENDBRANCH   7   8
ENDBRANCH   6   7
ENDBRANCH   5   6
ENDBRANCH   4   5
ENDBRANCH   3   4
ENDBRANCH   2   3
ENDBRANCH   1   2
BRANCH   1  34
ATOM     34  C   UNL A   1      42.073  21.659  26.778  1.00  0.00     0.188 C 
BRANCH  34  35
ATOM     35  C   UNL A   1      41.866  22.542  25.563  1.00  0.00     0.188 C 
BRANCH  35  36
ATOM     36  O   UNL A   1      43.022  23.379  25.453  1.00  0.00    -0.376 OA
BRANCH  36  37
ATOM     37  C   UNL A   1      42.935  24.661  26.056  1.00  0.00     0.202 C 
BRANCH  37  38
ATOM     38  C   UNL A   1      42.933  25.802  25.040  1.00  0.00     0.261 C 
BRANCH  38  39
ATOM     39  O   UNL A   1      41.687  26.527  25.125  1.00  0.00    -0.460 OA
BRANCH  39  40
ATOM     40  C   UNL A   1      41.784  27.787  25.630  1.00  0.00     0.338 C 
ATOM     41  O   UNL A   1      41.979  28.790  24.949  1.00  0.00    -0.246 OA
BRANCH  40  42
ATOM     42  C   UNL A   1      41.782  27.766  27.122  1.00  0.00     0.060 A 
ATOM     43  C   UNL A   1      40.670  27.283  27.836  1.00  0.00     0.016 A 
ATOM     44  C   UNL A   1      42.741  28.513  27.789  1.00  0.00     0.016 A 
ATOM     45  C   UNL A   1      40.434  27.705  29.160  1.00  0.00     0.010 A 
ATOM     46  C   UNL A   1      42.434  29.016  29.037  1.00  0.00     0.010 A 
ATOM     47  C   UNL A   1      41.274  28.654  29.742  1.00  0.00    -0.014 A 
BRANCH  47  48
ATOM     48  C   UNL A   1      40.991  29.481  30.944  1.00  0.00     0.031 A 
ATOM     49  C   UNL A   1      40.141  30.723  30.805  1.00  0.00     0.074 A 
ATOM     50  C   UNL A   1      41.141  28.911  32.165  1.00  0.00     0.049 A 
ATOM     51  N   UNL A   1      39.605  31.394  31.767  1.00  0.00    -0.248 NA
ATOM     52  C   UNL A   1      39.801  31.314  29.510  1.00  0.00     0.031 C 
ATOM     53  C   UNL A   1      40.284  29.139  33.329  1.00  0.00     0.029 A 
ATOM     54  N   UNL A   1      42.022  27.933  32.621  1.00  0.00    -0.354 N 
ATOM     55  C   UNL A   1      38.657  32.271  31.261  1.00  0.00     0.074 A 
ATOM     56  C   UNL A   1      38.865  32.213  29.839  1.00  0.00     0.031 C 
ATOM     57  C   UNL A   1      40.678  28.371  34.348  1.00  0.00     0.029 A 
ATOM     58  C   UNL A   1      41.975  27.880  34.024  1.00  0.00     0.049 A 
ATOM     59  H   UNL A   1      42.590  27.368  32.049  1.00  0.00     0.167 HD
ATOM     60  C   UNL A   1      37.752  32.851  32.115  1.00  0.00     0.034 A 
ATOM     61  C   UNL A   1      43.051  28.214  34.795  1.00  0.00     0.034 A 
ATOM     62  C   UNL A   1      38.110  32.577  33.517  1.00  0.00     0.049 A 
ATOM     63  C   UNL A   1      42.853  29.581  35.469  1.00  0.00     0.074 A 
ATOM     64  C   UNL A   1      37.448  32.043  34.609  1.00  0.00     0.029 A 
ATOM     65  N   UNL A   1      39.435  32.742  33.916  1.00  0.00    -0.354 N 
ATOM     66  N   UNL A   1      42.045  30.509  34.995  1.00  0.00    -0.248 NA
ATOM     67  C   UNL A   1      43.371  29.947  36.789  1.00  0.00     0.031 C 
ATOM     68  C   UNL A   1      38.411  31.822  35.630  1.00  0.00     0.029 A 
ATOM     69  C   UNL A   1      39.653  32.238  35.173  1.00  0.00     0.049 A 
ATOM     70  H   UNL A   1      40.131  33.167  33.363  1.00  0.00     0.167 HD
ATOM     71  C   UNL A   1      41.836  31.485  35.940  1.00  0.00     0.074 A 
ATOM     72  C   UNL A   1      42.732  31.111  37.025  1.00  0.00     0.031 C 
ATOM     73  C   UNL A   1      40.910  32.494  35.854  1.00  0.00     0.034 A 
BRANCH  60  74
ATOM     74  C   UNL A   1      36.425  33.553  31.767  1.00  0.00     0.023 A 
ATOM     75  C   UNL A   1      35.781  33.257  30.533  1.00  0.00     0.031 A 
ATOM     76  C   UNL A   1      35.784  34.560  32.516  1.00  0.00     0.131 A 
ATOM     77  C   UNL A   1      34.633  33.950  30.085  1.00  0.00     0.055 A 
ATOM     78  C   UNL A   1      34.610  35.214  32.096  1.00  0.00     0.041 A 
ATOM     79  F   UNL A   1      36.259  35.000  33.683  1.00  0.00    -0.206 F 
ATOM     80  C   UNL A   1      34.032  34.921  30.873  1.00  0.00     0.022 A 
BRANCH  77  81
ATOM     81  S   UNL A   1      33.943  33.591  28.439  1.00  0.00     0.124 S 
ATOM     82  O   UNL A   1      34.951  34.161  27.551  1.00  0.00    -0.237 OA
ATOM     83  O   UNL A   1      33.835  32.138  28.448  1.00  0.00    -0.237 OA
ATOM     84  O   UNL A   1      32.662  34.300  28.446  1.00  0.00    -0.744 OA
ENDBRANCH  77  81
ENDBRANCH  60  74
BRANCH  61  85
ATOM     85  C   UNL A   1      44.227  27.376  34.374  1.00  0.00     0.023 A 
ATOM     86  C   UNL A   1      44.175  26.071  34.947  1.00  0.00     0.031 A 
ATOM     87  C   UNL A   1      44.657  27.468  33.038  1.00  0.00     0.131 A 
ATOM     88  C   UNL A   1      44.160  24.938  34.109  1.00  0.00     0.055 A 
ATOM     89  C   UNL A   1      44.716  26.323  32.221  1.00  0.00     0.041 A 
ATOM     90  F   UNL A   1      44.772  28.664  32.443  1.00  0.00    -0.206 F 
ATOM     91  C   UNL A   1      44.388  25.066  32.738  1.00  0.00     0.022 A 
BRANCH  88  92
ATOM     92  S   UNL A   1      43.470  23.372  34.759  1.00  0.00     0.124 S 
ATOM     93  O   UNL A   1      44.391  23.060  35.845  1.00  0.00    -0.237 OA
ATOM     94  O   UNL A   1      42.120  23.754  35.161  1.00  0.00    -0.237 OA
ATOM     95  O   UNL A   1      43.526  22.476  33.603  1.00  0.00    -0.744 OA
ENDBRANCH  88  92
ENDBRANCH  61  85
BRANCH  73  96
ATOM     96  C   UNL A   1      41.077  33.880  36.455  1.00  0.00     0.023 A 
ATOM     97  C   UNL A   1      42.144  34.713  36.115  1.00  0.00     0.031 A 
ATOM     98  C   UNL A   1      40.062  34.485  37.251  1.00  0.00     0.131 A 
ATOM     99  C   UNL A   1      42.214  36.033  36.585  1.00  0.00     0.055 A 
ATOM    100  C   UNL A   1      40.094  35.822  37.650  1.00  0.00     0.041 A 
ATOM    101  F   UNL A   1      38.963  33.828  37.649  1.00  0.00    -0.206 F 
ATOM    102  C   UNL A   1      41.183  36.607  37.324  1.00  0.00     0.022 A 
BRANCH  99 103
ATOM    103  S   UNL A   1      43.720  36.961  36.230  1.00  0.00     0.124 S 
ATOM    104  O   UNL A   1      43.550  38.138  37.077  1.00  0.00    -0.237 OA
ATOM    105  O   UNL A   1      44.768  36.031  36.642  1.00  0.00    -0.237 OA
ATOM    106  O   UNL A   1      43.642  37.211  34.793  1.00  0.00    -0.744 OA
ENDBRANCH  99 103
ENDBRANCH  73  96
ENDBRANCH  47  48
ENDBRANCH  40  42
ENDBRANCH  39  40
ENDBRANCH  38  39
ENDBRANCH  37  38
ENDBRANCH  36  37
ENDBRANCH  35  36
ENDBRANCH  34  35
ENDBRANCH   1  34
TORSDOF 26
ENDMDL
