MODEL 1
REMARK VINA RESULT:      -8.5      0.000      0.000
REMARK SMILES O=C(OCCOCCOCCOCCOC(=O)C1CCN(c2ccnnc2)CC1)c1ccc(-c2c3nc(c(-c4cc(S(=O)(=O)[O-])ccc4F)c4ccc([nH]4)c(-c4cc(S(=O)(=O)[O-])ccc4F)c4nc(c(-c5cc(S(=O)(=O)[O-])ccc5F)c5ccc2[nH]5)C=C4)C=C3)cc1
REMARK SMILES IDX 8 1 7 2 6 3 5 4 4 5 3 6 2 7 1 8 30 9 31 10 92 11 32 12 91 13
REMARK SMILES IDX 33 14 34 15 35 16 85 17 36 18 90 19 84 20 86 21 37 22 89 23
REMARK SMILES IDX 83 24 82 25 38 27 70 28 50 29 69 30 51 31 54 32 68 33 87 34
REMARK SMILES IDX 52 35 53 36 67 38 88 39 55 40 39 41 40 42 48 43 41 44 47 45
REMARK SMILES IDX 49 46 46 47 42 48 43 49 44 50 45 51 71 52 72 53 80 54 73 55
REMARK SMILES IDX 79 56 81 57 78 58 74 59 75 60 76 61 77 62 56 63 57 64 65 65
REMARK SMILES IDX 58 66 64 67 66 68 63 69 59 70 60 71 61 72 62 73 9 74 10 75
REMARK SMILES IDX 11 76 12 77 13 78 14 79 15 80 16 81 17 82 18 83 19 84 29 85
REMARK SMILES IDX 20 86 28 87 21 88 22 89 23 90 27 91 24 92 26 93 25 94
REMARK H PARENT 86 26 54 37
REMARK Flexibility Score: inf
ROOT
ATOM      1  C   UNL A   1      36.108  29.985  28.542  1.00  0.00     0.188 C 
ENDROOT
BRANCH   1   2
ATOM      2  C   UNL A   1      36.862  29.764  29.855  1.00  0.00     0.188 C 
BRANCH   2   3
ATOM      3  O   UNL A   1      36.211  30.494  30.886  1.00  0.00    -0.376 OA
BRANCH   3   4
ATOM      4  C   UNL A   1      36.902  31.584  31.475  1.00  0.00     0.202 C 
BRANCH   4   5
ATOM      5  C   UNL A   1      36.174  32.927  31.422  1.00  0.00     0.261 C 
BRANCH   5   6
ATOM      6  O   UNL A   1      37.022  34.033  31.059  1.00  0.00    -0.460 OA
BRANCH   6   7
ATOM      7  C   UNL A   1      38.135  34.460  31.713  1.00  0.00     0.338 C 
ATOM      8  O   UNL A   1      38.061  34.777  32.897  1.00  0.00    -0.246 OA
BRANCH   7   9
ATOM      9  C   UNL A   1      39.461  34.509  31.045  1.00  0.00     0.060 A 
ATOM     10  C   UNL A   1      40.655  34.296  31.723  1.00  0.00     0.016 A 
ATOM     11  C   UNL A   1      39.513  34.691  29.660  1.00  0.00     0.016 A 
ATOM     12  C   UNL A   1      41.877  34.484  31.112  1.00  0.00     0.010 A 
ATOM     13  C   UNL A   1      40.749  34.746  29.003  1.00  0.00     0.010 A 
ATOM     14  C   UNL A   1      41.941  34.703  29.742  1.00  0.00    -0.014 A 
BRANCH  14  15
ATOM     15  C   UNL A   1      43.265  35.016  29.161  1.00  0.00     0.031 A 
ATOM     16  C   UNL A   1      44.120  33.870  28.701  1.00  0.00     0.074 A 
ATOM     17  C   UNL A   1      43.601  36.293  28.891  1.00  0.00     0.049 A 
ATOM     18  N   UNL A   1      45.341  33.877  28.244  1.00  0.00    -0.248 NA
ATOM     19  C   UNL A   1      43.509  32.531  28.762  1.00  0.00     0.031 C 
ATOM     20  C   UNL A   1      42.761  37.465  29.171  1.00  0.00     0.029 A 
ATOM     21  N   UNL A   1      44.704  36.826  28.278  1.00  0.00    -0.354 N 
ATOM     22  C   UNL A   1      45.658  32.544  28.004  1.00  0.00     0.074 A 
ATOM     23  C   UNL A   1      44.510  31.755  28.384  1.00  0.00     0.031 C 
ATOM     24  C   UNL A   1      43.353  38.563  28.677  1.00  0.00     0.029 A 
ATOM     25  C   UNL A   1      44.664  38.197  28.160  1.00  0.00     0.049 A 
ATOM     26  H   UNL A   1      45.455  36.278  27.952  1.00  0.00     0.167 HD
ATOM     27  C   UNL A   1      46.811  32.036  27.509  1.00  0.00     0.034 A 
ATOM     28  C   UNL A   1      45.607  39.059  27.732  1.00  0.00     0.034 A 
ATOM     29  C   UNL A   1      47.928  32.867  27.139  1.00  0.00     0.049 A 
ATOM     30  C   UNL A   1      46.923  38.469  27.289  1.00  0.00     0.074 A 
ATOM     31  C   UNL A   1      49.198  32.494  26.743  1.00  0.00     0.029 A 
ATOM     32  N   UNL A   1      47.891  34.258  27.111  1.00  0.00    -0.354 N 
ATOM     33  N   UNL A   1      47.271  37.203  27.197  1.00  0.00    -0.248 NA
ATOM     34  C   UNL A   1      47.978  39.414  26.908  1.00  0.00     0.031 C 
ATOM     35  C   UNL A   1      49.942  33.660  26.523  1.00  0.00     0.029 A 
ATOM     36  C   UNL A   1      49.117  34.761  26.715  1.00  0.00     0.049 A 
ATOM     37  H   UNL A   1      47.106  34.805  27.339  1.00  0.00     0.167 HD
ATOM     38  C   UNL A   1      48.585  37.201  26.744  1.00  0.00     0.074 A 
ATOM     39  C   UNL A   1      48.947  38.591  26.538  1.00  0.00     0.031 C 
ATOM     40  C   UNL A   1      49.429  36.159  26.533  1.00  0.00     0.034 A 
BRANCH  27  41
ATOM     41  C   UNL A   1      46.921  30.534  27.449  1.00  0.00     0.023 A 
ATOM     42  C   UNL A   1      46.511  29.801  26.320  1.00  0.00     0.031 A 
ATOM     43  C   UNL A   1      47.341  29.814  28.583  1.00  0.00     0.131 A 
ATOM     44  C   UNL A   1      46.452  28.399  26.379  1.00  0.00     0.055 A 
ATOM     45  C   UNL A   1      47.356  28.418  28.606  1.00  0.00     0.041 A 
ATOM     46  F   UNL A   1      47.710  30.458  29.702  1.00  0.00    -0.206 F 
ATOM     47  C   UNL A   1      46.894  27.703  27.505  1.00  0.00     0.022 A 
BRANCH  44  48
ATOM     48  S   UNL A   1      45.644  27.505  25.021  1.00  0.00     0.124 S 
ATOM     49  O   UNL A   1      45.939  26.116  25.366  1.00  0.00    -0.237 OA
ATOM     50  O   UNL A   1      44.251  27.913  25.156  1.00  0.00    -0.237 OA
ATOM     51  O   UNL A   1      46.328  28.003  23.829  1.00  0.00    -0.744 OA
ENDBRANCH  44  48
ENDBRANCH  27  41
BRANCH  28  52
ATOM     52  C   UNL A   1      45.399  40.540  27.805  1.00  0.00     0.023 A 
ATOM     53  C   UNL A   1      45.371  41.223  29.031  1.00  0.00     0.031 A 
ATOM     54  C   UNL A   1      45.146  41.290  26.638  1.00  0.00     0.131 A 
ATOM     55  C   UNL A   1      45.045  42.591  29.068  1.00  0.00     0.055 A 
ATOM     56  C   UNL A   1      44.893  42.662  26.674  1.00  0.00     0.041 A 
ATOM     57  F   UNL A   1      45.142  40.697  25.433  1.00  0.00    -0.206 F 
ATOM     58  C   UNL A   1      44.822  43.318  27.897  1.00  0.00     0.022 A 
BRANCH  55  59
ATOM     59  S   UNL A   1      44.788  43.385  30.681  1.00  0.00     0.124 S 
ATOM     60  O   UNL A   1      43.772  42.525  31.276  1.00  0.00    -0.237 OA
ATOM     61  O   UNL A   1      46.121  43.307  31.269  1.00  0.00    -0.237 OA
ATOM     62  O   UNL A   1      44.340  44.730  30.329  1.00  0.00    -0.744 OA
ENDBRANCH  55  59
ENDBRANCH  28  52
BRANCH  40  63
ATOM     63  C   UNL A   1      50.804  36.511  26.030  1.00  0.00     0.023 A 
ATOM     64  C   UNL A   1      51.870  36.733  26.918  1.00  0.00     0.031 A 
ATOM     65  C   UNL A   1      51.038  36.656  24.653  1.00  0.00     0.131 A 
ATOM     66  C   UNL A   1      53.107  37.162  26.421  1.00  0.00     0.055 A 
ATOM     67  C   UNL A   1      52.291  37.016  24.160  1.00  0.00     0.041 A 
ATOM     68  F   UNL A   1      50.051  36.454  23.766  1.00  0.00    -0.206 F 
ATOM     69  C   UNL A   1      53.330  37.288  25.048  1.00  0.00     0.022 A 
BRANCH  66  70
ATOM     70  S   UNL A   1      54.385  37.663  27.604  1.00  0.00     0.124 S 
ATOM     71  O   UNL A   1      53.590  38.037  28.769  1.00  0.00    -0.237 OA
ATOM     72  O   UNL A   1      55.180  36.446  27.739  1.00  0.00    -0.237 OA
ATOM     73  O   UNL A   1      55.059  38.771  26.931  1.00  0.00    -0.744 OA
ENDBRANCH  66  70
ENDBRANCH  40  63
ENDBRANCH  14  15
ENDBRANCH   7   9
ENDBRANCH   6   7
ENDBRANCH   5   6
ENDBRANCH   4   5
ENDBRANCH   3   4
ENDBRANCH   2   3
ENDBRANCH   1   2
BRANCH   1  74
ATOM     74  O   UNL A   1      34.885  30.716  28.673  1.00  0.00    -0.377 OA
BRANCH  74  75
ATOM     75  C   UNL A   1      34.190  30.999  27.461  1.00  0.00     0.188 C 
BRANCH  75  76
ATOM     76  C   UNL A   1      32.863  30.259  27.169  1.00  0.00     0.188 C 
BRANCH  76  77
ATOM     77  O   UNL A   1      32.927  28.836  27.225  1.00  0.00    -0.376 OA
BRANCH  77  78
ATOM     78  C   UNL A   1      33.562  28.220  26.100  1.00  0.00     0.202 C 
BRANCH  78  79
ATOM     79  C   UNL A   1      33.016  28.714  24.754  1.00  0.00     0.261 C 
BRANCH  79  80
ATOM     80  O   UNL A   1      32.427  27.659  23.975  1.00  0.00    -0.463 OA
BRANCH  80  81
ATOM     81  C   UNL A   1      31.177  27.264  24.301  1.00  0.00     0.309 C 
ATOM     82  O   UNL A   1      30.805  27.005  25.446  1.00  0.00    -0.252 OA
BRANCH  81  83
ATOM     83  C   UNL A   1      30.251  27.339  23.093  1.00  0.00     0.103 C 
ATOM     84  C   UNL A   1      30.852  28.181  21.969  1.00  0.00     0.037 C 
ATOM     85  C   UNL A   1      28.836  27.829  23.444  1.00  0.00     0.037 C 
ATOM     86  C   UNL A   1      30.849  29.650  22.351  1.00  0.00     0.117 C 
ATOM     87  C   UNL A   1      28.829  29.313  23.795  1.00  0.00     0.117 C 
ATOM     88  N   UNL A   1      29.489  30.036  22.717  1.00  0.00    -0.370 N 
BRANCH  88  89
ATOM     89  C   UNL A   1      28.900  31.121  22.109  1.00  0.00     0.059 A 
ATOM     90  C   UNL A   1      28.434  31.062  20.805  1.00  0.00     0.049 A 
ATOM     91  C   UNL A   1      28.718  32.333  22.768  1.00  0.00     0.161 A 
ATOM     92  C   UNL A   1      27.804  32.172  20.275  1.00  0.00     0.138 A 
ATOM     93  N   UNL A   1      28.119  33.413  22.218  1.00  0.00    -0.157 NA
ATOM     94  N   UNL A   1      27.646  33.327  20.954  1.00  0.00    -0.159 NA
ENDBRANCH  88  89
ENDBRANCH  81  83
ENDBRANCH  80  81
ENDBRANCH  79  80
ENDBRANCH  78  79
ENDBRANCH  77  78
ENDBRANCH  76  77
ENDBRANCH  75  76
ENDBRANCH  74  75
ENDBRANCH   1  74
TORSDOF 24
ENDMDL
MODEL 2
REMARK VINA RESULT:      -8.4      6.720     14.204
REMARK SMILES O=C(OCCOCCOCCOCCOC(=O)C1CCN(c2ccnnc2)CC1)c1ccc(-c2c3nc(c(-c4cc(S(=O)(=O)[O-])ccc4F)c4ccc([nH]4)c(-c4cc(S(=O)(=O)[O-])ccc4F)c4nc(c(-c5cc(S(=O)(=O)[O-])ccc5F)c5ccc2[nH]5)C=C4)C=C3)cc1
REMARK SMILES IDX 8 1 7 2 6 3 5 4 4 5 3 6 2 7 1 8 30 9 31 10 92 11 32 12 91 13
REMARK SMILES IDX 33 14 34 15 35 16 85 17 36 18 90 19 84 20 86 21 37 22 89 23
REMARK SMILES IDX 83 24 82 25 38 27 70 28 50 29 69 30 51 31 54 32 68 33 87 34
REMARK SMILES IDX 52 35 53 36 67 38 88 39 55 40 39 41 40 42 48 43 41 44 47 45
REMARK SMILES IDX 49 46 46 47 42 48 43 49 44 50 45 51 71 52 72 53 80 54 73 55
REMARK SMILES IDX 79 56 81 57 78 58 74 59 75 60 76 61 77 62 56 63 57 64 65 65
REMARK SMILES IDX 58 66 64 67 66 68 63 69 59 70 60 71 61 72 62 73 9 74 10 75
REMARK SMILES IDX 11 76 12 77 13 78 14 79 15 80 16 81 17 82 18 83 19 84 29 85
REMARK SMILES IDX 20 86 28 87 21 88 22 89 23 90 27 91 24 92 26 93 25 94
REMARK H PARENT 86 26 54 37
REMARK Flexibility Score: inf
ROOT
ATOM      1  C   UNL A   1      47.562  40.765  32.941  1.00  0.00     0.188 C 
ENDROOT
BRANCH   1   2
ATOM      2  C   UNL A   1      47.478  39.330  33.466  1.00  0.00     0.188 C 
BRANCH   2   3
ATOM      3  O   UNL A   1      47.282  38.451  32.367  1.00  0.00    -0.376 OA
BRANCH   3   4
ATOM      4  C   UNL A   1      45.980  37.932  32.148  1.00  0.00     0.202 C 
BRANCH   4   5
ATOM      5  C   UNL A   1      45.230  38.525  30.955  1.00  0.00     0.261 C 
BRANCH   5   6
ATOM      6  O   UNL A   1      45.018  37.591  29.880  1.00  0.00    -0.460 OA
BRANCH   6   7
ATOM      7  C   UNL A   1      45.914  36.698  29.382  1.00  0.00     0.338 C 
ATOM      8  O   UNL A   1      47.088  37.032  29.235  1.00  0.00    -0.246 OA
BRANCH   7   9
ATOM      9  C   UNL A   1      45.525  35.303  29.053  1.00  0.00     0.060 A 
ATOM     10  C   UNL A   1      44.882  34.959  27.871  1.00  0.00     0.016 A 
ATOM     11  C   UNL A   1      45.895  34.275  29.926  1.00  0.00     0.016 A 
ATOM     12  C   UNL A   1      44.407  33.683  27.651  1.00  0.00     0.010 A 
ATOM     13  C   UNL A   1      45.538  32.950  29.644  1.00  0.00     0.010 A 
ATOM     14  C   UNL A   1      44.736  32.659  28.530  1.00  0.00    -0.014 A 
BRANCH  14  15
ATOM     15  C   UNL A   1      44.104  31.340  28.312  1.00  0.00     0.031 A 
ATOM     16  C   UNL A   1      44.874  30.310  27.537  1.00  0.00     0.074 A 
ATOM     17  C   UNL A   1      42.956  31.026  28.947  1.00  0.00     0.049 A 
ATOM     18  N   UNL A   1      44.507  29.124  27.140  1.00  0.00    -0.248 NA
ATOM     19  C   UNL A   1      46.253  30.669  27.161  1.00  0.00     0.031 C 
ATOM     20  C   UNL A   1      42.214  31.922  29.843  1.00  0.00     0.029 A 
ATOM     21  N   UNL A   1      42.237  29.861  28.986  1.00  0.00    -0.354 N 
ATOM     22  C   UNL A   1      45.590  28.613  26.434  1.00  0.00     0.074 A 
ATOM     23  C   UNL A   1      46.621  29.625  26.439  1.00  0.00     0.031 C 
ATOM     24  C   UNL A   1      41.184  31.254  30.385  1.00  0.00     0.029 A 
ATOM     25  C   UNL A   1      41.118  29.928  29.785  1.00  0.00     0.049 A 
ATOM     26  H   UNL A   1      42.497  29.051  28.489  1.00  0.00     0.167 HD
ATOM     27  C   UNL A   1      45.703  27.403  25.838  1.00  0.00     0.034 A 
ATOM     28  C   UNL A   1      40.124  29.035  29.965  1.00  0.00     0.034 A 
ATOM     29  C   UNL A   1      44.647  26.424  25.865  1.00  0.00     0.049 A 
ATOM     30  C   UNL A   1      40.224  27.738  29.201  1.00  0.00     0.074 A 
ATOM     31  C   UNL A   1      44.565  25.212  25.208  1.00  0.00     0.029 A 
ATOM     32  N   UNL A   1      43.482  26.554  26.614  1.00  0.00    -0.354 N 
ATOM     33  N   UNL A   1      41.192  27.315  28.416  1.00  0.00    -0.248 NA
ATOM     34  C   UNL A   1      39.100  26.807  29.329  1.00  0.00     0.031 C 
ATOM     35  C   UNL A   1      43.329  24.633  25.521  1.00  0.00     0.029 A 
ATOM     36  C   UNL A   1      42.669  25.450  26.429  1.00  0.00     0.049 A 
ATOM     37  H   UNL A   1      43.267  27.320  27.193  1.00  0.00     0.167 HD
ATOM     38  C   UNL A   1      40.792  26.065  27.959  1.00  0.00     0.074 A 
ATOM     39  C   UNL A   1      39.519  25.786  28.596  1.00  0.00     0.031 C 
ATOM     40  C   UNL A   1      41.401  25.225  27.082  1.00  0.00     0.034 A 
BRANCH  27  41
ATOM     41  C   UNL A   1      46.961  27.150  25.046  1.00  0.00     0.023 A 
ATOM     42  C   UNL A   1      47.173  27.727  23.780  1.00  0.00     0.031 A 
ATOM     43  C   UNL A   1      47.916  26.231  25.517  1.00  0.00     0.131 A 
ATOM     44  C   UNL A   1      48.265  27.316  22.998  1.00  0.00     0.055 A 
ATOM     45  C   UNL A   1      49.042  25.887  24.767  1.00  0.00     0.041 A 
ATOM     46  F   UNL A   1      47.750  25.622  26.702  1.00  0.00    -0.206 F 
ATOM     47  C   UNL A   1      49.213  26.419  23.492  1.00  0.00     0.022 A 
BRANCH  44  48
ATOM     48  S   UNL A   1      48.344  27.853  21.265  1.00  0.00     0.124 S 
ATOM     49  O   UNL A   1      46.956  28.235  21.012  1.00  0.00    -0.237 OA
ATOM     50  O   UNL A   1      49.307  28.946  21.314  1.00  0.00    -0.237 OA
ATOM     51  O   UNL A   1      48.794  26.656  20.556  1.00  0.00    -0.744 OA
ENDBRANCH  44  48
ENDBRANCH  27  41
BRANCH  28  52
ATOM     52  C   UNL A   1      38.922  29.365  30.793  1.00  0.00     0.023 A 
ATOM     53  C   UNL A   1      37.949  30.276  30.352  1.00  0.00     0.031 A 
ATOM     54  C   UNL A   1      38.766  28.824  32.085  1.00  0.00     0.131 A 
ATOM     55  C   UNL A   1      36.901  30.658  31.210  1.00  0.00     0.055 A 
ATOM     56  C   UNL A   1      37.686  29.151  32.906  1.00  0.00     0.041 A 
ATOM     57  F   UNL A   1      39.668  27.958  32.575  1.00  0.00    -0.206 F 
ATOM     58  C   UNL A   1      36.755  30.089  32.477  1.00  0.00     0.022 A 
BRANCH  55  59
ATOM     59  S   UNL A   1      35.800  32.007  30.698  1.00  0.00     0.124 S 
ATOM     60  O   UNL A   1      34.829  32.027  31.787  1.00  0.00    -0.237 OA
ATOM     61  O   UNL A   1      36.719  33.137  30.636  1.00  0.00    -0.237 OA
ATOM     62  O   UNL A   1      35.282  31.552  29.409  1.00  0.00    -0.744 OA
ENDBRANCH  55  59
ENDBRANCH  28  52
BRANCH  40  63
ATOM     63  C   UNL A   1      40.690  23.928  26.804  1.00  0.00     0.023 A 
ATOM     64  C   UNL A   1      41.360  22.696  26.892  1.00  0.00     0.031 A 
ATOM     65  C   UNL A   1      39.340  23.929  26.417  1.00  0.00     0.131 A 
ATOM     66  C   UNL A   1      40.696  21.519  26.525  1.00  0.00     0.055 A 
ATOM     67  C   UNL A   1      38.664  22.746  26.120  1.00  0.00     0.041 A 
ATOM     68  F   UNL A   1      38.657  25.081  26.319  1.00  0.00    -0.206 F 
ATOM     69  C   UNL A   1      39.349  21.534  26.156  1.00  0.00     0.022 A 
BRANCH  66  70
ATOM     70  S   UNL A   1      41.654  19.984  26.426  1.00  0.00     0.124 S 
ATOM     71  O   UNL A   1      42.823  20.405  25.661  1.00  0.00    -0.237 OA
ATOM     72  O   UNL A   1      41.891  19.673  27.832  1.00  0.00    -0.237 OA
ATOM     73  O   UNL A   1      40.756  19.064  25.731  1.00  0.00    -0.744 OA
ENDBRANCH  66  70
ENDBRANCH  40  63
ENDBRANCH  14  15
ENDBRANCH   7   9
ENDBRANCH   6   7
ENDBRANCH   5   6
ENDBRANCH   4   5
ENDBRANCH   3   4
ENDBRANCH   2   3
ENDBRANCH   1   2
BRANCH   1  74
ATOM     74  O   UNL A   1      46.296  41.396  32.728  1.00  0.00    -0.377 OA
BRANCH  74  75
ATOM     75  C   UNL A   1      46.042  42.570  33.497  1.00  0.00     0.188 C 
BRANCH  75  76
ATOM     76  C   UNL A   1      44.934  43.544  33.033  1.00  0.00     0.188 C 
BRANCH  76  77
ATOM     77  O   UNL A   1      43.608  43.020  33.049  1.00  0.00    -0.376 OA
BRANCH  77  78
ATOM     78  C   UNL A   1      42.773  43.472  31.979  1.00  0.00     0.202 C 
BRANCH  78  79
ATOM     79  C   UNL A   1      42.432  42.368  30.970  1.00  0.00     0.261 C 
BRANCH  79  80
ATOM     80  O   UNL A   1      43.553  42.006  30.146  1.00  0.00    -0.463 OA
BRANCH  80  81
ATOM     81  C   UNL A   1      43.342  41.105  29.162  1.00  0.00     0.309 C 
ATOM     82  O   UNL A   1      42.248  40.607  28.897  1.00  0.00    -0.252 OA
BRANCH  81  83
ATOM     83  C   UNL A   1      44.599  40.914  28.323  1.00  0.00     0.103 C 
ATOM     84  C   UNL A   1      45.438  42.189  28.257  1.00  0.00     0.037 C 
ATOM     85  C   UNL A   1      44.308  40.380  26.909  1.00  0.00     0.037 C 
ATOM     86  C   UNL A   1      44.747  43.232  27.398  1.00  0.00     0.117 C 
ATOM     87  C   UNL A   1      43.645  41.441  26.037  1.00  0.00     0.117 C 
ATOM     88  N   UNL A   1      44.459  42.647  26.093  1.00  0.00    -0.370 N 
BRANCH  88  89
ATOM     89  C   UNL A   1      44.876  43.288  24.949  1.00  0.00     0.059 A 
ATOM     90  C   UNL A   1      45.375  44.581  24.979  1.00  0.00     0.049 A 
ATOM     91  C   UNL A   1      44.840  42.677  23.699  1.00  0.00     0.161 A 
ATOM     92  C   UNL A   1      45.825  45.146  23.801  1.00  0.00     0.138 A 
ATOM     93  N   UNL A   1      45.265  43.260  22.556  1.00  0.00    -0.157 NA
ATOM     94  N   UNL A   1      45.775  44.512  22.611  1.00  0.00    -0.159 NA
ENDBRANCH  88  89
ENDBRANCH  81  83
ENDBRANCH  80  81
ENDBRANCH  79  80
ENDBRANCH  78  79
ENDBRANCH  77  78
ENDBRANCH  76  77
ENDBRANCH  75  76
ENDBRANCH  74  75
ENDBRANCH   1  74
TORSDOF 24
ENDMDL
MODEL 3
REMARK VINA RESULT:      -8.2      9.431     14.098
REMARK SMILES O=C(OCCOCCOCCOCCOC(=O)C1CCN(c2ccnnc2)CC1)c1ccc(-c2c3nc(c(-c4cc(S(=O)(=O)[O-])ccc4F)c4ccc([nH]4)c(-c4cc(S(=O)(=O)[O-])ccc4F)c4nc(c(-c5cc(S(=O)(=O)[O-])ccc5F)c5ccc2[nH]5)C=C4)C=C3)cc1
REMARK SMILES IDX 8 1 7 2 6 3 5 4 4 5 3 6 2 7 1 8 30 9 31 10 92 11 32 12 91 13
REMARK SMILES IDX 33 14 34 15 35 16 85 17 36 18 90 19 84 20 86 21 37 22 89 23
REMARK SMILES IDX 83 24 82 25 38 27 70 28 50 29 69 30 51 31 54 32 68 33 87 34
REMARK SMILES IDX 52 35 53 36 67 38 88 39 55 40 39 41 40 42 48 43 41 44 47 45
REMARK SMILES IDX 49 46 46 47 42 48 43 49 44 50 45 51 71 52 72 53 80 54 73 55
REMARK SMILES IDX 79 56 81 57 78 58 74 59 75 60 76 61 77 62 56 63 57 64 65 65
REMARK SMILES IDX 58 66 64 67 66 68 63 69 59 70 60 71 61 72 62 73 9 74 10 75
REMARK SMILES IDX 11 76 12 77 13 78 14 79 15 80 16 81 17 82 18 83 19 84 29 85
REMARK SMILES IDX 20 86 28 87 21 88 22 89 23 90 27 91 24 92 26 93 25 94
REMARK H PARENT 86 26 54 37
REMARK Flexibility Score: inf
ROOT
ATOM      1  C   UNL A   1      43.829  27.539  27.430  1.00  0.00     0.188 C 
ENDROOT
BRANCH   1   2
ATOM      2  C   UNL A   1      43.815  27.083  25.970  1.00  0.00     0.188 C 
BRANCH   2   3
ATOM      3  O   UNL A   1      44.905  26.198  25.755  1.00  0.00    -0.376 OA
BRANCH   3   4
ATOM      4  C   UNL A   1      46.104  26.422  26.480  1.00  0.00     0.202 C 
BRANCH   4   5
ATOM      5  C   UNL A   1      46.817  25.163  26.972  1.00  0.00     0.261 C 
BRANCH   5   6
ATOM      6  O   UNL A   1      46.897  25.064  28.407  1.00  0.00    -0.460 OA
BRANCH   6   7
ATOM      7  C   UNL A   1      45.887  24.753  29.263  1.00  0.00     0.338 C 
ATOM      8  O   UNL A   1      45.315  23.671  29.163  1.00  0.00    -0.246 OA
BRANCH   7   9
ATOM      9  C   UNL A   1      45.482  25.673  30.357  1.00  0.00     0.060 A 
ATOM     10  C   UNL A   1      44.758  25.253  31.465  1.00  0.00     0.016 A 
ATOM     11  C   UNL A   1      45.918  27.001  30.319  1.00  0.00     0.016 A 
ATOM     12  C   UNL A   1      44.275  26.150  32.396  1.00  0.00     0.010 A 
ATOM     13  C   UNL A   1      45.549  27.892  31.334  1.00  0.00     0.010 A 
ATOM     14  C   UNL A   1      44.671  27.480  32.348  1.00  0.00    -0.014 A 
BRANCH  14  15
ATOM     15  C   UNL A   1      44.031  28.419  33.295  1.00  0.00     0.031 A 
ATOM     16  C   UNL A   1      42.648  28.908  32.974  1.00  0.00     0.074 A 
ATOM     17  C   UNL A   1      44.604  28.672  34.489  1.00  0.00     0.049 A 
ATOM     18  N   UNL A   1      41.917  29.793  33.591  1.00  0.00    -0.248 NA
ATOM     19  C   UNL A   1      42.001  28.312  31.792  1.00  0.00     0.031 C 
ATOM     20  C   UNL A   1      45.885  28.116  34.947  1.00  0.00     0.029 A 
ATOM     21  N   UNL A   1      44.173  29.412  35.558  1.00  0.00    -0.354 N 
ATOM     22  C   UNL A   1      40.743  29.891  32.852  1.00  0.00     0.074 A 
ATOM     23  C   UNL A   1      40.868  28.991  31.729  1.00  0.00     0.031 C 
ATOM     24  C   UNL A   1      46.100  28.488  36.218  1.00  0.00     0.029 A 
ATOM     25  C   UNL A   1      45.044  29.403  36.625  1.00  0.00     0.049 A 
ATOM     26  H   UNL A   1      43.320  29.904  35.562  1.00  0.00     0.167 HD
ATOM     27  C   UNL A   1      39.663  30.667  33.099  1.00  0.00     0.034 A 
ATOM     28  C   UNL A   1      45.013  30.103  37.776  1.00  0.00     0.034 A 
ATOM     29  C   UNL A   1      39.584  31.546  34.237  1.00  0.00     0.049 A 
ATOM     30  C   UNL A   1      43.850  31.044  37.974  1.00  0.00     0.074 A 
ATOM     31  C   UNL A   1      38.616  32.480  34.552  1.00  0.00     0.029 A 
ATOM     32  N   UNL A   1      40.524  31.582  35.262  1.00  0.00    -0.354 N 
ATOM     33  N   UNL A   1      42.805  31.239  37.198  1.00  0.00    -0.248 NA
ATOM     34  C   UNL A   1      43.865  31.869  39.185  1.00  0.00     0.031 C 
ATOM     35  C   UNL A   1      38.996  33.113  35.741  1.00  0.00     0.029 A 
ATOM     36  C   UNL A   1      40.166  32.528  36.206  1.00  0.00     0.049 A 
ATOM     37  H   UNL A   1      41.327  31.016  35.310  1.00  0.00     0.167 HD
ATOM     38  C   UNL A   1      42.036  32.208  37.831  1.00  0.00     0.074 A 
ATOM     39  C   UNL A   1      42.717  32.519  39.074  1.00  0.00     0.031 C 
ATOM     40  C   UNL A   1      40.886  32.806  37.426  1.00  0.00     0.034 A 
BRANCH  27  41
ATOM     41  C   UNL A   1      38.564  30.651  32.066  1.00  0.00     0.023 A 
ATOM     42  C   UNL A   1      38.439  31.664  31.096  1.00  0.00     0.031 A 
ATOM     43  C   UNL A   1      37.562  29.665  32.120  1.00  0.00     0.131 A 
ATOM     44  C   UNL A   1      37.297  31.713  30.280  1.00  0.00     0.055 A 
ATOM     45  C   UNL A   1      36.470  29.676  31.251  1.00  0.00     0.041 A 
ATOM     46  F   UNL A   1      37.609  28.695  33.047  1.00  0.00    -0.206 F 
ATOM     47  C   UNL A   1      36.325  30.713  30.334  1.00  0.00     0.022 A 
BRANCH  44  48
ATOM     48  S   UNL A   1      37.025  33.185  29.253  1.00  0.00     0.124 S 
ATOM     49  O   UNL A   1      36.234  34.026  30.149  1.00  0.00    -0.237 OA
ATOM     50  O   UNL A   1      38.383  33.641  28.985  1.00  0.00    -0.237 OA
ATOM     51  O   UNL A   1      36.300  32.666  28.095  1.00  0.00    -0.744 OA
ENDBRANCH  44  48
ENDBRANCH  27  41
BRANCH  28  52
ATOM     52  C   UNL A   1      46.141  30.036  38.758  1.00  0.00     0.023 A 
ATOM     53  C   UNL A   1      47.246  30.898  38.674  1.00  0.00     0.031 A 
ATOM     54  C   UNL A   1      46.164  29.046  39.761  1.00  0.00     0.131 A 
ATOM     55  C   UNL A   1      48.344  30.721  39.535  1.00  0.00     0.055 A 
ATOM     56  C   UNL A   1      47.225  28.920  40.659  1.00  0.00     0.041 A 
ATOM     57  F   UNL A   1      45.147  28.179  39.888  1.00  0.00    -0.206 F 
ATOM     58  C   UNL A   1      48.334  29.748  40.537  1.00  0.00     0.022 A 
BRANCH  55  59
ATOM     59  S   UNL A   1      49.847  31.697  39.247  1.00  0.00     0.124 S 
ATOM     60  O   UNL A   1      49.300  33.035  39.053  1.00  0.00    -0.237 OA
ATOM     61  O   UNL A   1      50.589  31.479  40.483  1.00  0.00    -0.237 OA
ATOM     62  O   UNL A   1      50.428  31.082  38.054  1.00  0.00    -0.744 OA
ENDBRANCH  55  59
ENDBRANCH  28  52
BRANCH  40  63
ATOM     63  C   UNL A   1      40.303  33.827  38.367  1.00  0.00     0.023 A 
ATOM     64  C   UNL A   1      39.489  33.443  39.446  1.00  0.00     0.031 A 
ATOM     65  C   UNL A   1      40.539  35.196  38.161  1.00  0.00     0.131 A 
ATOM     66  C   UNL A   1      38.878  34.424  40.236  1.00  0.00     0.055 A 
ATOM     67  C   UNL A   1      39.984  36.166  38.994  1.00  0.00     0.041 A 
ATOM     68  F   UNL A   1      41.311  35.611  37.144  1.00  0.00    -0.206 F 
ATOM     69  C   UNL A   1      39.134  35.782  40.029  1.00  0.00     0.022 A 
BRANCH  66  70
ATOM     70  S   UNL A   1      37.654  33.902  41.466  1.00  0.00     0.124 S 
ATOM     71  O   UNL A   1      36.634  33.275  40.632  1.00  0.00    -0.237 OA
ATOM     72  O   UNL A   1      38.428  33.000  42.313  1.00  0.00    -0.237 OA
ATOM     73  O   UNL A   1      37.252  35.155  42.102  1.00  0.00    -0.744 OA
ENDBRANCH  66  70
ENDBRANCH  40  63
ENDBRANCH  14  15
ENDBRANCH   7   9
ENDBRANCH   6   7
ENDBRANCH   5   6
ENDBRANCH   4   5
ENDBRANCH   3   4
ENDBRANCH   2   3
ENDBRANCH   1   2
BRANCH   1  74
ATOM     74  O   UNL A   1      43.328  28.862  27.646  1.00  0.00    -0.377 OA
BRANCH  74  75
ATOM     75  C   UNL A   1      42.044  29.145  27.095  1.00  0.00     0.188 C 
BRANCH  75  76
ATOM     76  C   UNL A   1      40.791  28.959  27.983  1.00  0.00     0.188 C 
BRANCH  76  77
ATOM     77  O   UNL A   1      39.779  28.108  27.448  1.00  0.00    -0.376 OA
BRANCH  77  78
ATOM     78  C   UNL A   1      40.194  26.759  27.215  1.00  0.00     0.202 C 
BRANCH  78  79
ATOM     79  C   UNL A   1      40.104  25.874  28.466  1.00  0.00     0.261 C 
BRANCH  79  80
ATOM     80  O   UNL A   1      40.016  24.475  28.149  1.00  0.00    -0.463 OA
BRANCH  80  81
ATOM     81  C   UNL A   1      41.166  23.818  27.883  1.00  0.00     0.309 C 
ATOM     82  O   UNL A   1      41.994  23.493  28.734  1.00  0.00    -0.252 OA
BRANCH  81  83
ATOM     83  C   UNL A   1      41.223  23.393  26.422  1.00  0.00     0.103 C 
ATOM     84  C   UNL A   1      40.926  21.904  26.252  1.00  0.00     0.037 C 
ATOM     85  C   UNL A   1      42.548  23.765  25.734  1.00  0.00     0.037 C 
ATOM     86  C   UNL A   1      42.082  21.071  26.778  1.00  0.00     0.117 C 
ATOM     87  C   UNL A   1      43.702  22.905  26.238  1.00  0.00     0.117 C 
ATOM     88  N   UNL A   1      43.309  21.507  26.120  1.00  0.00    -0.370 N 
BRANCH  88  89
ATOM     89  C   UNL A   1      44.112  20.585  25.489  1.00  0.00     0.059 A 
ATOM     90  C   UNL A   1      45.268  20.959  24.822  1.00  0.00     0.049 A 
ATOM     91  C   UNL A   1      43.825  19.223  25.495  1.00  0.00     0.161 A 
ATOM     92  C   UNL A   1      46.055  19.975  24.255  1.00  0.00     0.138 A 
ATOM     93  N   UNL A   1      44.600  18.281  24.913  1.00  0.00    -0.157 NA
ATOM     94  N   UNL A   1      45.739  18.664  24.291  1.00  0.00    -0.159 NA
ENDBRANCH  88  89
ENDBRANCH  81  83
ENDBRANCH  80  81
ENDBRANCH  79  80
ENDBRANCH  78  79
ENDBRANCH  77  78
ENDBRANCH  76  77
ENDBRANCH  75  76
ENDBRANCH  74  75
ENDBRANCH   1  74
TORSDOF 24
ENDMDL
