MODEL 1
REMARK VINA RESULT:      -7.7      0.000      0.000
REMARK SMILES CC(C)C[C@H](C(=O)OCCOCCOCCOCCOC(=O)c1ccc(-c2c3nc(c(-c4cc(S(=O)(=O)[O-])ccc4F)c4ccc([nH]4)c(-c4cc(S(=O)(=O)[O-])ccc4F)c4nc(c(-c5cc(S(=O)(=O)[O-])ccc5F)c5ccc2[nH]5)C=C4)C=C3)cc1)[C@@H]1CCO[C@]2(CCOC2)C1
REMARK SMILES IDX 15 1 14 2 13 3 12 4 11 5 10 6 9 7 8 8 6 9 7 10 5 11 4 12
REMARK SMILES IDX 2 13 1 14 3 15 86 16 87 17 95 18 88 19 90 20 89 21 91 22
REMARK SMILES IDX 94 23 92 24 93 25 16 26 17 27 18 28 19 29 20 30 21 31 22 32
REMARK SMILES IDX 23 33 24 34 85 35 25 36 84 37 26 38 27 39 28 40 78 41 29 42
REMARK SMILES IDX 83 43 77 44 79 45 30 46 82 47 76 48 75 49 31 51 63 52 43 53
REMARK SMILES IDX 62 54 44 55 47 56 61 57 80 58 45 59 46 60 60 62 81 63 48 64
REMARK SMILES IDX 32 65 33 66 41 67 34 68 40 69 42 70 39 71 35 72 36 73 37 74
REMARK SMILES IDX 38 75 64 76 65 77 73 78 66 79 72 80 74 81 71 82 67 83 68 84
REMARK SMILES IDX 69 85 70 86 49 87 50 88 58 89 51 90 57 91 59 92 56 93 52 94
REMARK SMILES IDX 53 95 54 96 55 97
REMARK H PARENT 79 50 47 61
REMARK Flexibility Score: inf
ROOT
ATOM      1  C   UNL A   1      38.874  24.231  27.074  1.00  0.00     0.188 C 
ENDROOT
BRANCH   1   2
ATOM      2  O   UNL A   1      39.571  23.290  26.287  1.00  0.00    -0.377 OA
BRANCH   2   3
ATOM      3  C   UNL A   1      39.794  22.043  26.908  1.00  0.00     0.188 C 
BRANCH   3   4
ATOM      4  C   UNL A   1      40.135  20.885  25.938  1.00  0.00     0.188 C 
BRANCH   4   5
ATOM      5  O   UNL A   1      39.106  20.195  25.242  1.00  0.00    -0.376 OA
BRANCH   5   6
ATOM      6  C   UNL A   1      37.760  20.607  25.415  1.00  0.00     0.202 C 
BRANCH   6   7
ATOM      7  C   UNL A   1      37.123  21.567  24.388  1.00  0.00     0.261 C 
BRANCH   7   8
ATOM      8  O   UNL A   1      36.310  22.655  24.889  1.00  0.00    -0.463 OA
BRANCH   8   9
ATOM      9  C   UNL A   1      35.256  23.037  24.125  1.00  0.00     0.309 C 
ATOM     10  O   UNL A   1      35.359  23.602  23.041  1.00  0.00    -0.252 OA
BRANCH   9  11
ATOM     11  C   UNL A   1      33.873  22.762  24.767  1.00  0.00     0.103 C 
BRANCH  11  12
ATOM     12  C   UNL A   1      33.453  21.271  24.895  1.00  0.00     0.018 C 
BRANCH  12  13
ATOM     13  C   UNL A   1      32.336  20.674  23.996  1.00  0.00    -0.017 C 
ATOM     14  C   UNL A   1      32.122  21.408  22.670  1.00  0.00     0.007 C 
ATOM     15  C   UNL A   1      32.652  19.205  23.666  1.00  0.00     0.007 C 
ENDBRANCH  12  13
ENDBRANCH  11  12
BRANCH  11  16
ATOM     16  C   UNL A   1      33.743  23.682  26.008  1.00  0.00     0.008 C 
ATOM     17  C   UNL A   1      33.033  23.090  27.227  1.00  0.00     0.033 C 
ATOM     18  C   UNL A   1      33.057  25.031  25.652  1.00  0.00     0.042 C 
ATOM     19  C   UNL A   1      31.523  23.055  27.044  1.00  0.00     0.161 C 
ATOM     20  C   UNL A   1      31.510  24.966  25.587  1.00  0.00     0.094 C 
ATOM     21  O   UNL A   1      30.996  24.344  26.768  1.00  0.00    -0.372 OA
ATOM     22  C   UNL A   1      30.907  24.421  24.295  1.00  0.00     0.066 C 
ATOM     23  C   UNL A   1      30.907  26.374  25.519  1.00  0.00     0.195 C 
ATOM     24  C   UNL A   1      30.936  25.597  23.344  1.00  0.00     0.163 C 
ATOM     25  O   UNL A   1      30.887  26.780  24.144  1.00  0.00    -0.378 OA
ENDBRANCH  11  16
ENDBRANCH   9  11
ENDBRANCH   8   9
ENDBRANCH   7   8
ENDBRANCH   6   7
ENDBRANCH   5   6
ENDBRANCH   4   5
ENDBRANCH   3   4
ENDBRANCH   2   3
ENDBRANCH   1   2
BRANCH   1  26
ATOM     26  C   UNL A   1      39.740  25.023  28.067  1.00  0.00     0.188 C 
BRANCH  26  27
ATOM     27  O   UNL A   1      38.997  25.925  28.881  1.00  0.00    -0.376 OA
BRANCH  27  28
ATOM     28  C   UNL A   1      39.674  26.946  29.598  1.00  0.00     0.202 C 
BRANCH  28  29
ATOM     29  C   UNL A   1      38.881  27.732  30.659  1.00  0.00     0.261 C 
BRANCH  29  30
ATOM     30  O   UNL A   1      38.618  29.112  30.373  1.00  0.00    -0.460 OA
BRANCH  30  31
ATOM     31  C   UNL A   1      39.110  30.025  31.240  1.00  0.00     0.338 C 
ATOM     32  O   UNL A   1      38.642  30.314  32.328  1.00  0.00    -0.246 OA
BRANCH  31  33
ATOM     33  C   UNL A   1      40.445  30.439  30.754  1.00  0.00     0.060 A 
ATOM     34  C   UNL A   1      41.322  31.049  31.661  1.00  0.00     0.016 A 
ATOM     35  C   UNL A   1      40.853  30.176  29.444  1.00  0.00     0.016 A 
ATOM     36  C   UNL A   1      42.603  31.420  31.256  1.00  0.00     0.010 A 
ATOM     37  C   UNL A   1      42.122  30.591  29.024  1.00  0.00     0.010 A 
ATOM     38  C   UNL A   1      42.986  31.243  29.922  1.00  0.00    -0.014 A 
BRANCH  38  39
ATOM     39  C   UNL A   1      44.175  31.975  29.423  1.00  0.00     0.031 A 
ATOM     40  C   UNL A   1      44.016  33.444  29.137  1.00  0.00     0.074 A 
ATOM     41  C   UNL A   1      45.370  31.375  29.283  1.00  0.00     0.049 A 
ATOM     42  N   UNL A   1      44.884  34.300  28.670  1.00  0.00    -0.248 NA
ATOM     43  C   UNL A   1      42.691  34.021  29.422  1.00  0.00     0.031 C 
ATOM     44  C   UNL A   1      45.658  29.979  29.603  1.00  0.00     0.029 A 
ATOM     45  N   UNL A   1      46.568  31.874  28.837  1.00  0.00    -0.354 N 
ATOM     46  C   UNL A   1      44.210  35.514  28.593  1.00  0.00     0.074 A 
ATOM     47  C   UNL A   1      42.855  35.277  29.038  1.00  0.00     0.031 C 
ATOM     48  C   UNL A   1      46.953  29.732  29.337  1.00  0.00     0.029 A 
ATOM     49  C   UNL A   1      47.573  30.937  28.789  1.00  0.00     0.049 A 
ATOM     50  H   UNL A   1      46.695  32.814  28.575  1.00  0.00     0.167 HD
ATOM     51  C   UNL A   1      44.682  36.716  28.187  1.00  0.00     0.034 A 
ATOM     52  C   UNL A   1      48.838  31.039  28.330  1.00  0.00     0.034 A 
ATOM     53  C   UNL A   1      46.034  36.930  27.738  1.00  0.00     0.049 A 
ATOM     54  C   UNL A   1      49.314  32.368  27.789  1.00  0.00     0.074 A 
ATOM     55  C   UNL A   1      46.623  38.108  27.318  1.00  0.00     0.029 A 
ATOM     56  N   UNL A   1      47.004  35.941  27.632  1.00  0.00    -0.354 N 
ATOM     57  N   UNL A   1      48.666  33.508  27.707  1.00  0.00    -0.248 NA
ATOM     58  C   UNL A   1      50.691  32.423  27.282  1.00  0.00     0.031 C 
ATOM     59  C   UNL A   1      47.916  37.816  26.873  1.00  0.00     0.029 A 
ATOM     60  C   UNL A   1      48.173  36.475  27.112  1.00  0.00     0.049 A 
ATOM     61  H   UNL A   1      46.880  34.998  27.890  1.00  0.00     0.167 HD
ATOM     62  C   UNL A   1      49.571  34.423  27.171  1.00  0.00     0.074 A 
ATOM     63  C   UNL A   1      50.810  33.702  26.959  1.00  0.00     0.031 C 
ATOM     64  C   UNL A   1      49.397  35.741  26.891  1.00  0.00     0.034 A 
BRANCH  51  65
ATOM     65  C   UNL A   1      43.707  37.868  28.138  1.00  0.00     0.023 A 
ATOM     66  C   UNL A   1      43.674  38.864  29.129  1.00  0.00     0.031 A 
ATOM     67  C   UNL A   1      42.781  37.955  27.083  1.00  0.00     0.131 A 
ATOM     68  C   UNL A   1      42.699  39.872  29.073  1.00  0.00     0.055 A 
ATOM     69  C   UNL A   1      41.867  39.004  26.991  1.00  0.00     0.041 A 
ATOM     70  F   UNL A   1      42.745  37.013  26.127  1.00  0.00    -0.206 F 
ATOM     71  C   UNL A   1      41.815  39.965  27.995  1.00  0.00     0.022 A 
BRANCH  68  72
ATOM     72  S   UNL A   1      42.514  40.984  30.494  1.00  0.00     0.124 S 
ATOM     73  O   UNL A   1      43.410  42.079  30.130  1.00  0.00    -0.237 OA
ATOM     74  O   UNL A   1      41.089  41.289  30.473  1.00  0.00    -0.237 OA
ATOM     75  O   UNL A   1      42.963  40.172  31.624  1.00  0.00    -0.744 OA
ENDBRANCH  68  72
ENDBRANCH  51  65
BRANCH  52  76
ATOM     76  C   UNL A   1      49.734  29.847  28.318  1.00  0.00     0.023 A 
ATOM     77  C   UNL A   1      49.730  28.942  27.245  1.00  0.00     0.031 A 
ATOM     78  C   UNL A   1      50.583  29.574  29.407  1.00  0.00     0.131 A 
ATOM     79  C   UNL A   1      50.534  27.791  27.297  1.00  0.00     0.055 A 
ATOM     80  C   UNL A   1      51.418  28.456  29.430  1.00  0.00     0.041 A 
ATOM     81  F   UNL A   1      50.620  30.402  30.463  1.00  0.00    -0.206 F 
ATOM     82  C   UNL A   1      51.389  27.551  28.375  1.00  0.00     0.022 A 
BRANCH  79  83
ATOM     83  S   UNL A   1      50.393  26.570  25.963  1.00  0.00     0.124 S 
ATOM     84  O   UNL A   1      48.947  26.463  25.810  1.00  0.00    -0.237 OA
ATOM     85  O   UNL A   1      51.107  27.228  24.874  1.00  0.00    -0.237 OA
ATOM     86  O   UNL A   1      51.053  25.388  26.513  1.00  0.00    -0.744 OA
ENDBRANCH  79  83
ENDBRANCH  52  76
BRANCH  64  87
ATOM     87  C   UNL A   1      50.592  36.504  26.368  1.00  0.00     0.023 A 
ATOM     88  C   UNL A   1      51.352  37.354  27.190  1.00  0.00     0.031 A 
ATOM     89  C   UNL A   1      50.979  36.369  25.021  1.00  0.00     0.131 A 
ATOM     90  C   UNL A   1      52.423  38.079  26.645  1.00  0.00     0.055 A 
ATOM     91  C   UNL A   1      52.088  37.037  24.503  1.00  0.00     0.041 A 
ATOM     92  F   UNL A   1      50.289  35.574  24.188  1.00  0.00    -0.206 F 
ATOM     93  C   UNL A   1      52.810  37.909  25.313  1.00  0.00     0.022 A 
BRANCH  90  94
ATOM     94  S   UNL A   1      53.244  39.326  27.674  1.00  0.00     0.124 S 
ATOM     95  O   UNL A   1      53.883  38.502  28.695  1.00  0.00    -0.237 OA
ATOM     96  O   UNL A   1      54.141  39.975  26.724  1.00  0.00    -0.237 OA
ATOM     97  O   UNL A   1      52.140  40.157  28.151  1.00  0.00    -0.744 OA
ENDBRANCH  90  94
ENDBRANCH  64  87
ENDBRANCH  38  39
ENDBRANCH  31  33
ENDBRANCH  30  31
ENDBRANCH  29  30
ENDBRANCH  28  29
ENDBRANCH  27  28
ENDBRANCH  26  27
ENDBRANCH   1  26
TORSDOF 26
ENDMDL
MODEL 2
REMARK VINA RESULT:      -7.5      1.482      2.522
REMARK SMILES CC(C)C[C@H](C(=O)OCCOCCOCCOCCOC(=O)c1ccc(-c2c3nc(c(-c4cc(S(=O)(=O)[O-])ccc4F)c4ccc([nH]4)c(-c4cc(S(=O)(=O)[O-])ccc4F)c4nc(c(-c5cc(S(=O)(=O)[O-])ccc5F)c5ccc2[nH]5)C=C4)C=C3)cc1)[C@@H]1CCO[C@]2(CCOC2)C1
REMARK SMILES IDX 15 1 14 2 13 3 12 4 11 5 10 6 9 7 8 8 6 9 7 10 5 11 4 12
REMARK SMILES IDX 2 13 1 14 3 15 86 16 87 17 95 18 88 19 90 20 89 21 91 22
REMARK SMILES IDX 94 23 92 24 93 25 16 26 17 27 18 28 19 29 20 30 21 31 22 32
REMARK SMILES IDX 23 33 24 34 85 35 25 36 84 37 26 38 27 39 28 40 78 41 29 42
REMARK SMILES IDX 83 43 77 44 79 45 30 46 82 47 76 48 75 49 31 51 63 52 43 53
REMARK SMILES IDX 62 54 44 55 47 56 61 57 80 58 45 59 46 60 60 62 81 63 48 64
REMARK SMILES IDX 32 65 33 66 41 67 34 68 40 69 42 70 39 71 35 72 36 73 37 74
REMARK SMILES IDX 38 75 64 76 65 77 73 78 66 79 72 80 74 81 71 82 67 83 68 84
REMARK SMILES IDX 69 85 70 86 49 87 50 88 58 89 51 90 57 91 59 92 56 93 52 94
REMARK SMILES IDX 53 95 54 96 55 97
REMARK H PARENT 79 50 47 61
REMARK Flexibility Score: inf
ROOT
ATOM      1  C   UNL A   1      39.327  25.619  27.787  1.00  0.00     0.188 C 
ENDROOT
BRANCH   1   2
ATOM      2  O   UNL A   1      40.250  24.731  27.195  1.00  0.00    -0.377 OA
BRANCH   2   3
ATOM      3  C   UNL A   1      40.151  23.392  27.628  1.00  0.00     0.188 C 
BRANCH   3   4
ATOM      4  C   UNL A   1      40.372  22.333  26.520  1.00  0.00     0.188 C 
BRANCH   4   5
ATOM      5  O   UNL A   1      39.302  21.935  25.674  1.00  0.00    -0.376 OA
BRANCH   5   6
ATOM      6  C   UNL A   1      37.975  22.289  26.027  1.00  0.00     0.202 C 
BRANCH   6   7
ATOM      7  C   UNL A   1      36.909  22.435  24.919  1.00  0.00     0.261 C 
BRANCH   7   8
ATOM      8  O   UNL A   1      36.150  23.667  24.866  1.00  0.00    -0.463 OA
BRANCH   8   9
ATOM      9  C   UNL A   1      35.009  23.718  25.598  1.00  0.00     0.309 C 
ATOM     10  O   UNL A   1      34.805  23.047  26.605  1.00  0.00    -0.252 OA
BRANCH   9  11
ATOM     11  C   UNL A   1      33.924  24.661  25.019  1.00  0.00     0.103 C 
BRANCH  11  12
ATOM     12  C   UNL A   1      34.036  26.164  25.402  1.00  0.00     0.018 C 
BRANCH  12  13
ATOM     13  C   UNL A   1      32.772  26.999  25.743  1.00  0.00    -0.017 C 
ATOM     14  C   UNL A   1      32.072  27.621  24.533  1.00  0.00     0.007 C 
ATOM     15  C   UNL A   1      31.742  26.124  26.475  1.00  0.00     0.007 C 
ENDBRANCH  12  13
ENDBRANCH  11  12
BRANCH  11  16
ATOM     16  C   UNL A   1      33.725  24.284  23.528  1.00  0.00     0.008 C 
ATOM     17  C   UNL A   1      32.536  24.927  22.814  1.00  0.00     0.033 C 
ATOM     18  C   UNL A   1      33.638  22.745  23.333  1.00  0.00     0.042 C 
ATOM     19  C   UNL A   1      31.219  24.270  23.197  1.00  0.00     0.161 C 
ATOM     20  C   UNL A   1      32.243  22.140  23.631  1.00  0.00     0.094 C 
ATOM     21  O   UNL A   1      31.231  22.874  22.936  1.00  0.00    -0.372 OA
ATOM     22  C   UNL A   1      31.914  21.882  25.099  1.00  0.00     0.066 C 
ATOM     23  C   UNL A   1      32.162  20.688  23.144  1.00  0.00     0.195 C 
ATOM     24  C   UNL A   1      32.594  20.566  25.410  1.00  0.00     0.163 C 
ATOM     25  O   UNL A   1      32.682  19.844  24.180  1.00  0.00    -0.378 OA
ENDBRANCH  11  16
ENDBRANCH   9  11
ENDBRANCH   8   9
ENDBRANCH   7   8
ENDBRANCH   6   7
ENDBRANCH   5   6
ENDBRANCH   4   5
ENDBRANCH   3   4
ENDBRANCH   2   3
ENDBRANCH   1   2
BRANCH   1  26
ATOM     26  C   UNL A   1      39.838  26.358  29.035  1.00  0.00     0.188 C 
BRANCH  26  27
ATOM     27  O   UNL A   1      38.798  26.887  29.852  1.00  0.00    -0.376 OA
BRANCH  27  28
ATOM     28  C   UNL A   1      39.122  27.754  30.927  1.00  0.00     0.202 C 
BRANCH  28  29
ATOM     29  C   UNL A   1      37.963  28.413  31.699  1.00  0.00     0.261 C 
BRANCH  29  30
ATOM     30  O   UNL A   1      37.600  29.742  31.302  1.00  0.00    -0.460 OA
BRANCH  30  31
ATOM     31  C   UNL A   1      38.196  30.763  31.957  1.00  0.00     0.338 C 
ATOM     32  O   UNL A   1      37.837  31.252  33.015  1.00  0.00    -0.246 OA
BRANCH  31  33
ATOM     33  C   UNL A   1      39.493  31.030  31.297  1.00  0.00     0.060 A 
ATOM     34  C   UNL A   1      40.631  31.177  32.103  1.00  0.00     0.016 A 
ATOM     35  C   UNL A   1      39.602  31.075  29.905  1.00  0.00     0.016 A 
ATOM     36  C   UNL A   1      41.879  31.390  31.521  1.00  0.00     0.010 A 
ATOM     37  C   UNL A   1      40.848  31.337  29.322  1.00  0.00     0.010 A 
ATOM     38  C   UNL A   1      41.982  31.527  30.132  1.00  0.00    -0.014 A 
BRANCH  38  39
ATOM     39  C   UNL A   1      43.216  32.124  29.567  1.00  0.00     0.031 A 
ATOM     40  C   UNL A   1      43.278  33.624  29.470  1.00  0.00     0.074 A 
ATOM     41  C   UNL A   1      44.269  31.370  29.208  1.00  0.00     0.049 A 
ATOM     42  N   UNL A   1      44.223  34.389  28.993  1.00  0.00    -0.248 NA
ATOM     43  C   UNL A   1      42.110  34.358  29.987  1.00  0.00     0.031 C 
ATOM     44  C   UNL A   1      44.348  29.916  29.330  1.00  0.00     0.029 A 
ATOM     45  N   UNL A   1      45.478  31.730  28.669  1.00  0.00    -0.354 N 
ATOM     46  C   UNL A   1      43.760  35.693  29.140  1.00  0.00     0.074 A 
ATOM     47  C   UNL A   1      42.443  35.613  29.727  1.00  0.00     0.031 C 
ATOM     48  C   UNL A   1      45.546  29.507  28.873  1.00  0.00     0.029 A 
ATOM     49  C   UNL A   1      46.297  30.664  28.387  1.00  0.00     0.049 A 
ATOM     50  H   UNL A   1      45.734  32.666  28.499  1.00  0.00     0.167 HD
ATOM     51  C   UNL A   1      44.383  36.850  28.813  1.00  0.00     0.034 A 
ATOM     52  C   UNL A   1      47.503  30.627  27.782  1.00  0.00     0.034 A 
ATOM     53  C   UNL A   1      45.694  36.908  28.219  1.00  0.00     0.049 A 
ATOM     54  C   UNL A   1      48.136  31.925  27.336  1.00  0.00     0.074 A 
ATOM     55  C   UNL A   1      46.426  38.025  27.860  1.00  0.00     0.029 A 
ATOM     56  N   UNL A   1      46.464  35.803  27.879  1.00  0.00    -0.354 N 
ATOM     57  N   UNL A   1      47.687  33.153  27.466  1.00  0.00    -0.248 NA
ATOM     58  C   UNL A   1      49.439  31.831  26.664  1.00  0.00     0.031 C 
ATOM     59  C   UNL A   1      47.593  37.597  27.222  1.00  0.00     0.029 A 
ATOM     60  C   UNL A   1      47.643  36.213  27.275  1.00  0.00     0.049 A 
ATOM     61  H   UNL A   1      46.211  34.865  28.044  1.00  0.00     0.167 HD
ATOM     62  C   UNL A   1      48.670  33.978  26.923  1.00  0.00     0.074 A 
ATOM     63  C   UNL A   1      49.737  33.108  26.473  1.00  0.00     0.031 C 
ATOM     64  C   UNL A   1      48.693  35.333  26.817  1.00  0.00     0.034 A 
BRANCH  51  65
ATOM     65  C   UNL A   1      43.619  38.135  29.019  1.00  0.00     0.023 A 
ATOM     66  C   UNL A   1      43.749  38.905  30.187  1.00  0.00     0.031 A 
ATOM     67  C   UNL A   1      42.728  38.585  28.029  1.00  0.00     0.131 A 
ATOM     68  C   UNL A   1      42.961  40.053  30.359  1.00  0.00     0.055 A 
ATOM     69  C   UNL A   1      42.006  39.770  28.170  1.00  0.00     0.041 A 
ATOM     70  F   UNL A   1      42.537  37.872  26.906  1.00  0.00    -0.206 F 
ATOM     71  C   UNL A   1      42.112  40.507  29.346  1.00  0.00     0.022 A 
BRANCH  68  72
ATOM     72  S   UNL A   1      42.960  40.875  31.976  1.00  0.00     0.124 S 
ATOM     73  O   UNL A   1      44.122  41.752  31.862  1.00  0.00    -0.237 OA
ATOM     74  O   UNL A   1      41.660  41.535  31.993  1.00  0.00    -0.237 OA
ATOM     75  O   UNL A   1      43.112  39.771  32.921  1.00  0.00    -0.744 OA
ENDBRANCH  68  72
ENDBRANCH  51  65
BRANCH  52  76
ATOM     76  C   UNL A   1      48.177  29.322  27.522  1.00  0.00     0.023 A 
ATOM     77  C   UNL A   1      47.879  28.563  26.380  1.00  0.00     0.031 A 
ATOM     78  C   UNL A   1      49.105  28.795  28.440  1.00  0.00     0.131 A 
ATOM     79  C   UNL A   1      48.479  27.305  26.200  1.00  0.00     0.055 A 
ATOM     80  C   UNL A   1      49.736  27.568  28.231  1.00  0.00     0.041 A 
ATOM     81  F   UNL A   1      49.419  29.476  29.553  1.00  0.00    -0.206 F 
ATOM     82  C   UNL A   1      49.416  26.811  27.109  1.00  0.00     0.022 A 
BRANCH  79  83
ATOM     83  S   UNL A   1      47.960  26.288  24.790  1.00  0.00     0.124 S 
ATOM     84  O   UNL A   1      47.652  25.018  25.438  1.00  0.00    -0.237 OA
ATOM     85  O   UNL A   1      46.819  27.040  24.278  1.00  0.00    -0.237 OA
ATOM     86  O   UNL A   1      49.137  26.280  23.925  1.00  0.00    -0.744 OA
ENDBRANCH  79  83
ENDBRANCH  52  76
BRANCH  64  87
ATOM     87  C   UNL A   1      49.936  35.963  26.232  1.00  0.00     0.023 A 
ATOM     88  C   UNL A   1      51.035  36.324  27.030  1.00  0.00     0.031 A 
ATOM     89  C   UNL A   1      50.021  36.197  24.846  1.00  0.00     0.131 A 
ATOM     90  C   UNL A   1      52.146  36.952  26.446  1.00  0.00     0.055 A 
ATOM     91  C   UNL A   1      51.158  36.755  24.261  1.00  0.00     0.041 A 
ATOM     92  F   UNL A   1      49.001  35.875  24.034  1.00  0.00    -0.206 F 
ATOM     93  C   UNL A   1      52.224  37.149  25.064  1.00  0.00     0.022 A 
BRANCH  90  94
ATOM     94  S   UNL A   1      53.448  37.601  27.528  1.00  0.00     0.124 S 
ATOM     95  O   UNL A   1      52.673  38.310  28.541  1.00  0.00    -0.237 OA
ATOM     96  O   UNL A   1      54.120  36.385  27.974  1.00  0.00    -0.237 OA
ATOM     97  O   UNL A   1      54.237  38.455  26.642  1.00  0.00    -0.744 OA
ENDBRANCH  90  94
ENDBRANCH  64  87
ENDBRANCH  38  39
ENDBRANCH  31  33
ENDBRANCH  30  31
ENDBRANCH  29  30
ENDBRANCH  28  29
ENDBRANCH  27  28
ENDBRANCH  26  27
ENDBRANCH   1  26
TORSDOF 26
ENDMDL
MODEL 3
REMARK VINA RESULT:      -7.4      7.869     13.241
REMARK SMILES CC(C)C[C@H](C(=O)OCCOCCOCCOCCOC(=O)c1ccc(-c2c3nc(c(-c4cc(S(=O)(=O)[O-])ccc4F)c4ccc([nH]4)c(-c4cc(S(=O)(=O)[O-])ccc4F)c4nc(c(-c5cc(S(=O)(=O)[O-])ccc5F)c5ccc2[nH]5)C=C4)C=C3)cc1)[C@@H]1CCO[C@]2(CCOC2)C1
REMARK SMILES IDX 15 1 14 2 13 3 12 4 11 5 10 6 9 7 8 8 6 9 7 10 5 11 4 12
REMARK SMILES IDX 2 13 1 14 3 15 86 16 87 17 95 18 88 19 90 20 89 21 91 22
REMARK SMILES IDX 94 23 92 24 93 25 16 26 17 27 18 28 19 29 20 30 21 31 22 32
REMARK SMILES IDX 23 33 24 34 85 35 25 36 84 37 26 38 27 39 28 40 78 41 29 42
REMARK SMILES IDX 83 43 77 44 79 45 30 46 82 47 76 48 75 49 31 51 63 52 43 53
REMARK SMILES IDX 62 54 44 55 47 56 61 57 80 58 45 59 46 60 60 62 81 63 48 64
REMARK SMILES IDX 32 65 33 66 41 67 34 68 40 69 42 70 39 71 35 72 36 73 37 74
REMARK SMILES IDX 38 75 64 76 65 77 73 78 66 79 72 80 74 81 71 82 67 83 68 84
REMARK SMILES IDX 69 85 70 86 49 87 50 88 58 89 51 90 57 91 59 92 56 93 52 94
REMARK SMILES IDX 53 95 54 96 55 97
REMARK H PARENT 79 50 47 61
REMARK Flexibility Score: inf
ROOT
ATOM      1  C   UNL A   1      36.336  30.952  31.706  1.00  0.00     0.188 C 
ENDROOT
BRANCH   1   2
ATOM      2  O   UNL A   1      36.492  29.558  31.860  1.00  0.00    -0.377 OA
BRANCH   2   3
ATOM      3  C   UNL A   1      37.672  29.161  32.524  1.00  0.00     0.188 C 
BRANCH   3   4
ATOM      4  C   UNL A   1      38.421  27.976  31.867  1.00  0.00     0.188 C 
BRANCH   4   5
ATOM      5  O   UNL A   1      38.579  27.911  30.456  1.00  0.00    -0.376 OA
BRANCH   5   6
ATOM      6  C   UNL A   1      39.005  26.694  29.865  1.00  0.00     0.202 C 
BRANCH   6   7
ATOM      7  C   UNL A   1      39.660  26.719  28.467  1.00  0.00     0.261 C 
BRANCH   7   8
ATOM      8  O   UNL A   1      40.725  25.775  28.200  1.00  0.00    -0.463 OA
BRANCH   8   9
ATOM      9  C   UNL A   1      41.966  26.288  28.004  1.00  0.00     0.309 C 
ATOM     10  O   UNL A   1      42.386  27.305  28.546  1.00  0.00    -0.252 OA
BRANCH   9  11
ATOM     11  C   UNL A   1      42.816  25.515  26.964  1.00  0.00     0.103 C 
BRANCH  11  12
ATOM     12  C   UNL A   1      43.523  26.369  25.875  1.00  0.00     0.018 C 
BRANCH  12  13
ATOM     13  C   UNL A   1      44.914  27.008  26.137  1.00  0.00    -0.017 C 
ATOM     14  C   UNL A   1      45.911  26.863  24.985  1.00  0.00     0.007 C 
ATOM     15  C   UNL A   1      44.758  28.510  26.427  1.00  0.00     0.007 C 
ENDBRANCH  12  13
ENDBRANCH  11  12
BRANCH  11  16
ATOM     16  C   UNL A   1      43.644  24.454  27.735  1.00  0.00     0.008 C 
ATOM     17  C   UNL A   1      44.894  23.921  27.033  1.00  0.00     0.033 C 
ATOM     18  C   UNL A   1      42.768  23.241  28.158  1.00  0.00     0.042 C 
ATOM     19  C   UNL A   1      44.551  22.920  25.941  1.00  0.00     0.161 C 
ATOM     20  C   UNL A   1      42.541  22.193  27.040  1.00  0.00     0.094 C 
ATOM     21  O   UNL A   1      43.791  21.832  26.445  1.00  0.00    -0.372 OA
ATOM     22  C   UNL A   1      41.448  22.513  26.023  1.00  0.00     0.066 C 
ATOM     23  C   UNL A   1      41.924  20.910  27.610  1.00  0.00     0.195 C 
ATOM     24  C   UNL A   1      40.164  22.110  26.715  1.00  0.00     0.163 C 
ATOM     25  O   UNL A   1      40.501  21.086  27.652  1.00  0.00    -0.378 OA
ENDBRANCH  11  16
ENDBRANCH   9  11
ENDBRANCH   8   9
ENDBRANCH   7   8
ENDBRANCH   6   7
ENDBRANCH   5   6
ENDBRANCH   4   5
ENDBRANCH   3   4
ENDBRANCH   2   3
ENDBRANCH   1   2
BRANCH   1  26
ATOM     26  C   UNL A   1      36.476  31.470  30.265  1.00  0.00     0.188 C 
BRANCH  26  27
ATOM     27  O   UNL A   1      36.520  32.891  30.170  1.00  0.00    -0.376 OA
BRANCH  27  28
ATOM     28  C   UNL A   1      35.422  33.592  29.609  1.00  0.00     0.202 C 
BRANCH  28  29
ATOM     29  C   UNL A   1      34.439  34.286  30.570  1.00  0.00     0.261 C 
BRANCH  29  30
ATOM     30  O   UNL A   1      34.663  34.086  31.972  1.00  0.00    -0.460 OA
BRANCH  30  31
ATOM     31  C   UNL A   1      35.153  35.133  32.672  1.00  0.00     0.338 C 
ATOM     32  O   UNL A   1      34.602  36.207  32.848  1.00  0.00    -0.246 OA
BRANCH  31  33
ATOM     33  C   UNL A   1      36.362  34.673  33.391  1.00  0.00     0.060 A 
ATOM     34  C   UNL A   1      36.198  34.057  34.639  1.00  0.00     0.016 A 
ATOM     35  C   UNL A   1      37.632  34.789  32.821  1.00  0.00     0.016 A 
ATOM     36  C   UNL A   1      37.306  33.573  35.332  1.00  0.00     0.010 A 
ATOM     37  C   UNL A   1      38.749  34.346  33.538  1.00  0.00     0.010 A 
ATOM     38  C   UNL A   1      38.589  33.767  34.810  1.00  0.00    -0.014 A 
BRANCH  38  39
ATOM     39  C   UNL A   1      39.755  33.602  35.711  1.00  0.00     0.031 A 
ATOM     40  C   UNL A   1      40.575  32.349  35.562  1.00  0.00     0.074 A 
ATOM     41  C   UNL A   1      40.113  34.554  36.589  1.00  0.00     0.049 A 
ATOM     42  N   UNL A   1      41.618  31.952  36.239  1.00  0.00    -0.248 NA
ATOM     43  C   UNL A   1      40.154  31.419  34.500  1.00  0.00     0.031 C 
ATOM     44  C   UNL A   1      39.439  35.839  36.763  1.00  0.00     0.029 A 
ATOM     45  N   UNL A   1      41.140  34.585  37.498  1.00  0.00    -0.354 N 
ATOM     46  C   UNL A   1      41.973  30.721  35.695  1.00  0.00     0.074 A 
ATOM     47  C   UNL A   1      41.019  30.428  34.649  1.00  0.00     0.031 C 
ATOM     48  C   UNL A   1      40.071  36.532  37.728  1.00  0.00     0.029 A 
ATOM     49  C   UNL A   1      41.164  35.724  38.267  1.00  0.00     0.049 A 
ATOM     50  H   UNL A   1      41.798  33.858  37.591  1.00  0.00     0.167 HD
ATOM     51  C   UNL A   1      43.003  29.913  36.038  1.00  0.00     0.034 A 
ATOM     52  C   UNL A   1      41.961  36.059  39.303  1.00  0.00     0.034 A 
ATOM     53  C   UNL A   1      43.938  30.219  37.090  1.00  0.00     0.049 A 
ATOM     54  C   UNL A   1      43.043  35.096  39.733  1.00  0.00     0.074 A 
ATOM     55  C   UNL A   1      45.027  29.479  37.514  1.00  0.00     0.029 A 
ATOM     56  N   UNL A   1      43.887  31.348  37.898  1.00  0.00    -0.354 N 
ATOM     57  N   UNL A   1      43.364  33.929  39.223  1.00  0.00    -0.248 NA
ATOM     58  C   UNL A   1      43.871  35.497  40.879  1.00  0.00     0.031 C 
ATOM     59  C   UNL A   1      45.577  30.112  38.632  1.00  0.00     0.029 A 
ATOM     60  C   UNL A   1      44.899  31.301  38.845  1.00  0.00     0.049 A 
ATOM     61  H   UNL A   1      43.229  32.076  37.811  1.00  0.00     0.167 HD
ATOM     62  C   UNL A   1      44.454  33.475  39.963  1.00  0.00     0.074 A 
ATOM     63  C   UNL A   1      44.738  34.498  40.949  1.00  0.00     0.031 C 
ATOM     64  C   UNL A   1      45.162  32.322  39.833  1.00  0.00     0.034 A 
BRANCH  51  65
ATOM     65  C   UNL A   1      43.120  28.590  35.322  1.00  0.00     0.023 A 
ATOM     66  C   UNL A   1      42.452  27.436  35.765  1.00  0.00     0.031 A 
ATOM     67  C   UNL A   1      43.936  28.482  34.181  1.00  0.00     0.131 A 
ATOM     68  C   UNL A   1      42.654  26.214  35.104  1.00  0.00     0.055 A 
ATOM     69  C   UNL A   1      44.069  27.283  33.481  1.00  0.00     0.041 A 
ATOM     70  F   UNL A   1      44.625  29.544  33.732  1.00  0.00    -0.206 F 
ATOM     71  C   UNL A   1      43.435  26.136  33.949  1.00  0.00     0.022 A 
BRANCH  68  72
ATOM     72  S   UNL A   1      41.989  24.701  35.851  1.00  0.00     0.124 S 
ATOM     73  O   UNL A   1      42.742  24.633  37.101  1.00  0.00    -0.237 OA
ATOM     74  O   UNL A   1      40.569  25.007  35.976  1.00  0.00    -0.237 OA
ATOM     75  O   UNL A   1      42.321  23.664  34.875  1.00  0.00    -0.744 OA
ENDBRANCH  68  72
ENDBRANCH  51  65
BRANCH  52  76
ATOM     76  C   UNL A   1      41.747  37.341  40.035  1.00  0.00     0.023 A 
ATOM     77  C   UNL A   1      42.339  38.537  39.600  1.00  0.00     0.031 A 
ATOM     78  C   UNL A   1      40.974  37.378  41.211  1.00  0.00     0.131 A 
ATOM     79  C   UNL A   1      42.176  39.712  40.351  1.00  0.00     0.055 A 
ATOM     80  C   UNL A   1      40.773  38.560  41.926  1.00  0.00     0.041 A 
ATOM     81  F   UNL A   1      40.393  36.262  41.676  1.00  0.00    -0.206 F 
ATOM     82  C   UNL A   1      41.384  39.735  41.501  1.00  0.00     0.022 A 
BRANCH  79  83
ATOM     83  S   UNL A   1      43.075  41.203  39.841  1.00  0.00     0.124 S 
ATOM     84  O   UNL A   1      43.684  41.626  41.096  1.00  0.00    -0.237 OA
ATOM     85  O   UNL A   1      43.986  40.676  38.830  1.00  0.00    -0.237 OA
ATOM     86  O   UNL A   1      42.022  42.078  39.331  1.00  0.00    -0.744 OA
ENDBRANCH  79  83
ENDBRANCH  52  76
BRANCH  64  87
ATOM     87  C   UNL A   1      46.346  32.127  40.750  1.00  0.00     0.023 A 
ATOM     88  C   UNL A   1      47.629  32.601  40.424  1.00  0.00     0.031 A 
ATOM     89  C   UNL A   1      46.183  31.460  41.979  1.00  0.00     0.131 A 
ATOM     90  C   UNL A   1      48.707  32.351  41.286  1.00  0.00     0.055 A 
ATOM     91  C   UNL A   1      47.244  31.277  42.866  1.00  0.00     0.041 A 
ATOM     92  F   UNL A   1      44.983  30.982  42.344  1.00  0.00    -0.206 F 
ATOM     93  C   UNL A   1      48.519  31.712  42.515  1.00  0.00     0.022 A 
BRANCH  90  94
ATOM     94  S   UNL A   1      50.380  32.782  40.736  1.00  0.00     0.124 S 
ATOM     95  O   UNL A   1      50.148  34.028  40.012  1.00  0.00    -0.237 OA
ATOM     96  O   UNL A   1      51.103  32.903  41.998  1.00  0.00    -0.237 OA
ATOM     97  O   UNL A   1      50.771  31.645  39.905  1.00  0.00    -0.744 OA
ENDBRANCH  90  94
ENDBRANCH  64  87
ENDBRANCH  38  39
ENDBRANCH  31  33
ENDBRANCH  30  31
ENDBRANCH  29  30
ENDBRANCH  28  29
ENDBRANCH  27  28
ENDBRANCH  26  27
ENDBRANCH   1  26
TORSDOF 26
ENDMDL
