MODEL 1
REMARK VINA RESULT:      -8.9      0.000      0.000
REMARK SMILES O=C(OCCOCCOCCOCCOC(=O)c1ccc(-c2c3nc(c(-c4cc(S(=O)(=O)[O-])ccc4F)c4ccc([nH]4)c(-c4cc(S(=O)(=O)[O-])ccc4F)c4nc(c(-c5cc(S(=O)(=O)[O-])ccc5F)c5ccc2[nH]5)C=C4)C=C3)cc1)C1=Cc2c(ccc(Cl)c2-c2ccccc2)O[C@H]1C(F)(F)F
REMARK SMILES IDX 10 1 9 2 8 3 7 4 6 5 5 6 4 7 3 8 2 9 1 10 81 11 82 12 97 13
REMARK SMILES IDX 83 14 96 15 84 16 89 17 85 18 87 19 86 20 88 21 98 22 99 23
REMARK SMILES IDX 100 24 101 25 90 26 91 27 95 28 92 29 94 30 93 31 11 32
REMARK SMILES IDX 12 33 13 34 14 35 15 36 16 37 17 38 18 39 19 40 80 41 20 42
REMARK SMILES IDX 79 43 21 44 22 45 23 46 73 47 24 48 78 49 72 50 74 51 25 52
REMARK SMILES IDX 77 53 71 54 70 55 26 57 58 58 38 59 57 60 39 61 42 62 56 63
REMARK SMILES IDX 75 64 40 65 41 66 55 68 76 69 43 70 27 71 28 72 36 73 29 74
REMARK SMILES IDX 35 75 37 76 34 77 30 78 31 79 32 80 33 81 59 82 60 83 68 84
REMARK SMILES IDX 61 85 67 86 69 87 66 88 62 89 63 90 64 91 65 92 44 93 45 94
REMARK SMILES IDX 53 95 46 96 52 97 54 98 51 99 47 100 48 101 49 102 50 103
REMARK H PARENT 74 56 42 67
REMARK Flexibility Score: inf
ROOT
ATOM      1  C   UNL A   1      34.683  24.058  25.656  1.00  0.00     0.188 C 
ENDROOT
BRANCH   1   2
ATOM      2  O   UNL A   1      34.358  25.518  25.581  1.00  0.00    -0.377 OA
BRANCH   2   3
ATOM      3  C   UNL A   1      33.291  27.170  25.722  1.00  0.00     0.188 C 
BRANCH   3   4
ATOM      4  C   UNL A   1      33.536  28.660  26.450  1.00  0.00     0.188 C 
BRANCH   4   5
ATOM      5  O   UNL A   1      34.317  28.828  27.637  1.00  0.00    -0.376 OA
BRANCH   5   6
ATOM      6  C   UNL A   1      35.398  29.726  27.593  1.00  0.00     0.202 C 
BRANCH   6   7
ATOM      7  C   UNL A   1      36.503  29.635  28.660  1.00  0.00     0.261 C 
BRANCH   7   8
ATOM      8  O   UNL A   1      37.593  28.778  28.222  1.00  0.00    -0.460 OA
BRANCH   8   9
ATOM      9  C   UNL A   1      38.830  28.695  28.775  1.00  0.00     0.338 C 
ATOM     10  O   UNL A   1      39.012  29.066  29.930  1.00  0.00    -0.246 OA
BRANCH   9  11
ATOM     11  C   UNL A   1      39.949  28.074  28.037  1.00  0.00     0.087 C 
ATOM     12  C   UNL A   1      41.220  28.265  28.395  1.00  0.00     0.028 C 
ATOM     13  C   UNL A   1      39.700  26.751  27.348  1.00  0.00     0.316 C 
ATOM     14  C   UNL A   1      42.267  28.029  27.434  1.00  0.00     0.027 A 
ATOM     15  O   UNL A   1      40.748  26.444  26.358  1.00  0.00    -0.475 OA
ATOM     16  C   UNL A   1      41.932  27.147  26.394  1.00  0.00     0.128 A 
ATOM     17  C   UNL A   1      43.519  28.676  27.592  1.00  0.00     0.011 A 
ATOM     18  C   UNL A   1      42.840  26.967  25.372  1.00  0.00     0.049 A 
ATOM     19  C   UNL A   1      44.381  28.525  26.491  1.00  0.00     0.049 A 
ATOM     20  C   UNL A   1      44.041  27.687  25.402  1.00  0.00     0.025 A 
ATOM     21  Cl  UNL A   1      45.910  29.318  26.376  1.00  0.00    -0.084 Cl
BRANCH  13  22
ATOM     22  C   UNL A   1      39.529  25.621  28.411  1.00  0.00     0.430 C 
ATOM     23  F   UNL A   1      38.795  24.575  27.949  1.00  0.00    -0.167 F 
ATOM     24  F   UNL A   1      40.720  25.104  28.793  1.00  0.00    -0.167 F 
ATOM     25  F   UNL A   1      38.913  26.054  29.533  1.00  0.00    -0.167 F 
ENDBRANCH  13  22
BRANCH  17  26
ATOM     26  C   UNL A   1      43.901  29.362  28.897  1.00  0.00    -0.016 A 
ATOM     27  C   UNL A   1      44.554  28.418  30.307  1.00  0.00     0.009 A 
ATOM     28  C   UNL A   1      43.456  31.118  29.170  1.00  0.00     0.009 A 
ATOM     29  C   UNL A   1      44.652  29.148  31.963  1.00  0.00     0.001 A 
ATOM     30  C   UNL A   1      43.539  31.852  30.841  1.00  0.00     0.001 A 
ATOM     31  C   UNL A   1      44.161  30.867  32.226  1.00  0.00     0.000 A 
ENDBRANCH  17  26
ENDBRANCH   9  11
ENDBRANCH   8   9
ENDBRANCH   7   8
ENDBRANCH   6   7
ENDBRANCH   5   6
ENDBRANCH   4   5
ENDBRANCH   3   4
ENDBRANCH   2   3
ENDBRANCH   1   2
BRANCH   1  32
ATOM     32  C   UNL A   1      36.087  23.372  25.702  1.00  0.00     0.188 C 
BRANCH  32  33
ATOM     33  O   UNL A   1      36.238  21.965  25.479  1.00  0.00    -0.376 OA
BRANCH  33  34
ATOM     34  C   UNL A   1      37.248  21.453  24.632  1.00  0.00     0.202 C 
BRANCH  34  35
ATOM     35  C   UNL A   1      38.165  20.378  25.250  1.00  0.00     0.261 C 
BRANCH  35  36
ATOM     36  O   UNL A   1      39.191  20.894  26.102  1.00  0.00    -0.460 OA
BRANCH  36  37
ATOM     37  C   UNL A   1      40.378  20.237  25.993  1.00  0.00     0.338 C 
ATOM     38  O   UNL A   1      40.535  19.075  25.700  1.00  0.00    -0.246 OA
BRANCH  37  39
ATOM     39  C   UNL A   1      41.476  21.232  26.091  1.00  0.00     0.060 A 
ATOM     40  C   UNL A   1      42.783  20.736  26.178  1.00  0.00     0.016 A 
ATOM     41  C   UNL A   1      41.241  22.613  26.097  1.00  0.00     0.016 A 
ATOM     42  C   UNL A   1      43.849  21.608  26.371  1.00  0.00     0.010 A 
ATOM     43  C   UNL A   1      42.306  23.491  26.321  1.00  0.00     0.010 A 
ATOM     44  C   UNL A   1      43.596  22.974  26.543  1.00  0.00    -0.014 A 
BRANCH  44  45
ATOM     45  C   UNL A   1      44.564  23.727  27.375  1.00  0.00     0.031 A 
ATOM     46  C   UNL A   1      45.621  24.510  26.631  1.00  0.00     0.074 A 
ATOM     47  C   UNL A   1      44.441  23.823  28.709  1.00  0.00     0.049 A 
ATOM     48  N   UNL A   1      46.548  25.311  27.084  1.00  0.00    -0.248 NA
ATOM     49  C   UNL A   1      45.620  24.370  25.163  1.00  0.00     0.031 C 
ATOM     50  C   UNL A   1      43.409  23.173  29.514  1.00  0.00     0.029 A 
ATOM     51  N   UNL A   1      45.184  24.531  29.619  1.00  0.00    -0.354 N 
ATOM     52  C   UNL A   1      47.233  25.763  25.959  1.00  0.00     0.074 A 
ATOM     53  C   UNL A   1      46.652  25.114  24.811  1.00  0.00     0.031 C 
ATOM     54  C   UNL A   1      43.582  23.519  30.803  1.00  0.00     0.029 A 
ATOM     55  C   UNL A   1      44.752  24.390  30.916  1.00  0.00     0.049 A 
ATOM     56  H   UNL A   1      45.955  25.089  29.366  1.00  0.00     0.167 HD
ATOM     57  C   UNL A   1      48.249  26.656  25.888  1.00  0.00     0.034 A 
ATOM     58  C   UNL A   1      45.259  24.902  32.056  1.00  0.00     0.034 A 
ATOM     59  C   UNL A   1      48.824  27.281  27.049  1.00  0.00     0.049 A 
ATOM     60  C   UNL A   1      46.459  25.818  31.964  1.00  0.00     0.074 A 
ATOM     61  C   UNL A   1      49.868  28.184  27.115  1.00  0.00     0.029 A 
ATOM     62  N   UNL A   1      48.408  27.052  28.356  1.00  0.00    -0.354 N 
ATOM     63  N   UNL A   1      47.108  26.234  30.897  1.00  0.00    -0.248 NA
ATOM     64  C   UNL A   1      46.983  26.348  33.228  1.00  0.00     0.031 C 
ATOM     65  C   UNL A   1      50.138  28.437  28.463  1.00  0.00     0.029 A 
ATOM     66  C   UNL A   1      49.197  27.773  29.236  1.00  0.00     0.049 A 
ATOM     67  H   UNL A   1      47.663  26.465  28.617  1.00  0.00     0.167 HD
ATOM     68  C   UNL A   1      48.086  27.111  31.363  1.00  0.00     0.074 A 
ATOM     69  C   UNL A   1      47.931  27.170  32.803  1.00  0.00     0.031 C 
ATOM     70  C   UNL A   1      49.022  27.814  30.671  1.00  0.00     0.034 A 
BRANCH  57  71
ATOM     71  C   UNL A   1      48.837  26.926  24.524  1.00  0.00     0.023 A 
ATOM     72  C   UNL A   1      50.188  26.667  24.223  1.00  0.00     0.031 A 
ATOM     73  C   UNL A   1      48.045  27.517  23.524  1.00  0.00     0.131 A 
ATOM     74  C   UNL A   1      50.720  27.068  22.988  1.00  0.00     0.055 A 
ATOM     75  C   UNL A   1      48.560  27.833  22.265  1.00  0.00     0.041 A 
ATOM     76  F   UNL A   1      46.760  27.824  23.762  1.00  0.00    -0.206 F 
ATOM     77  C   UNL A   1      49.909  27.623  21.997  1.00  0.00     0.022 A 
BRANCH  74  78
ATOM     78  S   UNL A   1      52.519  27.008  22.753  1.00  0.00     0.124 S 
ATOM     79  O   UNL A   1      52.792  28.341  22.224  1.00  0.00    -0.237 OA
ATOM     80  O   UNL A   1      53.005  26.741  24.101  1.00  0.00    -0.237 OA
ATOM     81  O   UNL A   1      52.704  25.918  21.796  1.00  0.00    -0.744 OA
ENDBRANCH  74  78
ENDBRANCH  57  71
BRANCH  58  82
ATOM     82  C   UNL A   1      44.666  24.552  33.381  1.00  0.00     0.023 A 
ATOM     83  C   UNL A   1      43.667  25.345  33.970  1.00  0.00     0.031 A 
ATOM     84  C   UNL A   1      45.146  23.452  34.115  1.00  0.00     0.131 A 
ATOM     85  C   UNL A   1      43.220  25.060  35.271  1.00  0.00     0.055 A 
ATOM     86  C   UNL A   1      44.656  23.137  35.384  1.00  0.00     0.041 A 
ATOM     87  F   UNL A   1      46.106  22.662  33.607  1.00  0.00    -0.206 F 
ATOM     88  C   UNL A   1      43.697  23.952  35.975  1.00  0.00     0.022 A 
BRANCH  85  89
ATOM     89  S   UNL A   1      42.075  26.216  36.073  1.00  0.00     0.124 S 
ATOM     90  O   UNL A   1      40.784  25.736  35.592  1.00  0.00    -0.237 OA
ATOM     91  O   UNL A   1      42.358  25.993  37.486  1.00  0.00    -0.237 OA
ATOM     92  O   UNL A   1      42.489  27.518  35.556  1.00  0.00    -0.744 OA
ENDBRANCH  85  89
ENDBRANCH  58  82
BRANCH  70  93
ATOM     93  C   UNL A   1      49.899  28.757  31.459  1.00  0.00     0.023 A 
ATOM     94  C   UNL A   1      49.528  30.090  31.705  1.00  0.00     0.031 A 
ATOM     95  C   UNL A   1      51.139  28.314  31.956  1.00  0.00     0.131 A 
ATOM     96  C   UNL A   1      50.423  30.954  32.355  1.00  0.00     0.055 A 
ATOM     97  C   UNL A   1      51.987  29.156  32.675  1.00  0.00     0.041 A 
ATOM     98  F   UNL A   1      51.547  27.051  31.751  1.00  0.00    -0.206 F 
ATOM     99  C   UNL A   1      51.641  30.490  32.860  1.00  0.00     0.022 A 
BRANCH  96 100
ATOM    100  S   UNL A   1      50.033  32.724  32.410  1.00  0.00     0.124 S 
ATOM    101  O   UNL A   1      50.789  33.164  33.577  1.00  0.00    -0.237 OA
ATOM    102  O   UNL A   1      50.527  33.191  31.118  1.00  0.00    -0.237 OA
ATOM    103  O   UNL A   1      48.580  32.750  32.564  1.00  0.00    -0.744 OA
ENDBRANCH  96 100
ENDBRANCH  70  93
ENDBRANCH  44  45
ENDBRANCH  37  39
ENDBRANCH  36  37
ENDBRANCH  35  36
ENDBRANCH  34  35
ENDBRANCH  33  34
ENDBRANCH  32  33
ENDBRANCH   1  32
TORSDOF 25
ENDMDL
MODEL 2
REMARK VINA RESULT:      -8.6      1.869      2.235
REMARK SMILES O=C(OCCOCCOCCOCCOC(=O)c1ccc(-c2c3nc(c(-c4cc(S(=O)(=O)[O-])ccc4F)c4ccc([nH]4)c(-c4cc(S(=O)(=O)[O-])ccc4F)c4nc(c(-c5cc(S(=O)(=O)[O-])ccc5F)c5ccc2[nH]5)C=C4)C=C3)cc1)C1=Cc2c(ccc(Cl)c2-c2ccccc2)O[C@H]1C(F)(F)F
REMARK SMILES IDX 10 1 9 2 8 3 7 4 6 5 5 6 4 7 3 8 2 9 1 10 81 11 82 12 97 13
REMARK SMILES IDX 83 14 96 15 84 16 89 17 85 18 87 19 86 20 88 21 98 22 99 23
REMARK SMILES IDX 100 24 101 25 90 26 91 27 95 28 92 29 94 30 93 31 11 32
REMARK SMILES IDX 12 33 13 34 14 35 15 36 16 37 17 38 18 39 19 40 80 41 20 42
REMARK SMILES IDX 79 43 21 44 22 45 23 46 73 47 24 48 78 49 72 50 74 51 25 52
REMARK SMILES IDX 77 53 71 54 70 55 26 57 58 58 38 59 57 60 39 61 42 62 56 63
REMARK SMILES IDX 75 64 40 65 41 66 55 68 76 69 43 70 27 71 28 72 36 73 29 74
REMARK SMILES IDX 35 75 37 76 34 77 30 78 31 79 32 80 33 81 59 82 60 83 68 84
REMARK SMILES IDX 61 85 67 86 69 87 66 88 62 89 63 90 64 91 65 92 44 93 45 94
REMARK SMILES IDX 53 95 46 96 52 97 54 98 51 99 47 100 48 101 49 102 50 103
REMARK H PARENT 74 56 42 67
REMARK Flexibility Score: inf
ROOT
ATOM      1  C   UNL A   1      34.667  24.587  25.418  1.00  0.00     0.188 C 
ENDROOT
BRANCH   1   2
ATOM      2  O   UNL A   1      34.304  26.024  25.209  1.00  0.00    -0.377 OA
BRANCH   2   3
ATOM      3  C   UNL A   1      33.450  27.769  25.546  1.00  0.00     0.188 C 
BRANCH   3   4
ATOM      4  C   UNL A   1      33.890  29.139  26.404  1.00  0.00     0.188 C 
BRANCH   4   5
ATOM      5  O   UNL A   1      34.576  29.085  27.659  1.00  0.00    -0.376 OA
BRANCH   5   6
ATOM      6  C   UNL A   1      35.814  29.746  27.763  1.00  0.00     0.202 C 
BRANCH   6   7
ATOM      7  C   UNL A   1      37.116  28.930  27.699  1.00  0.00     0.261 C 
BRANCH   7   8
ATOM      8  O   UNL A   1      38.281  29.773  27.917  1.00  0.00    -0.460 OA
BRANCH   8   9
ATOM      9  C   UNL A   1      39.376  29.464  28.658  1.00  0.00     0.338 C 
ATOM     10  O   UNL A   1      39.392  29.705  29.860  1.00  0.00    -0.246 OA
BRANCH   9  11
ATOM     11  C   UNL A   1      40.521  28.752  28.054  1.00  0.00     0.087 C 
ATOM     12  C   UNL A   1      41.747  28.821  28.575  1.00  0.00     0.028 C 
ATOM     13  C   UNL A   1      40.245  27.466  27.308  1.00  0.00     0.316 C 
ATOM     14  C   UNL A   1      42.884  28.501  27.751  1.00  0.00     0.027 A 
ATOM     15  O   UNL A   1      41.381  27.075  26.452  1.00  0.00    -0.475 OA
ATOM     16  C   UNL A   1      42.608  27.666  26.656  1.00  0.00     0.128 A 
ATOM     17  C   UNL A   1      44.158  29.029  28.082  1.00  0.00     0.011 A 
ATOM     18  C   UNL A   1      43.621  27.415  25.755  1.00  0.00     0.049 A 
ATOM     19  C   UNL A   1      45.138  28.812  27.097  1.00  0.00     0.049 A 
ATOM     20  C   UNL A   1      44.867  28.021  25.954  1.00  0.00     0.025 A 
ATOM     21  Cl  UNL A   1      46.734  29.463  27.197  1.00  0.00    -0.084 Cl
BRANCH  13  22
ATOM     22  C   UNL A   1      39.838  26.344  28.313  1.00  0.00     0.430 C 
ATOM     23  F   UNL A   1      39.239  26.834  29.431  1.00  0.00    -0.167 F 
ATOM     24  F   UNL A   1      38.956  25.474  27.768  1.00  0.00    -0.167 F 
ATOM     25  F   UNL A   1      40.896  25.616  28.735  1.00  0.00    -0.167 F 
ENDBRANCH  13  22
BRANCH  17  26
ATOM     26  C   UNL A   1      44.428  29.661  29.441  1.00  0.00    -0.016 A 
ATOM     27  C   UNL A   1      44.890  31.412  29.595  1.00  0.00     0.009 A 
ATOM     28  C   UNL A   1      44.558  28.603  30.931  1.00  0.00     0.009 A 
ATOM     29  C   UNL A   1      45.574  32.072  31.138  1.00  0.00     0.001 A 
ATOM     30  C   UNL A   1      45.261  29.261  32.484  1.00  0.00     0.001 A 
ATOM     31  C   UNL A   1      45.744  31.003  32.585  1.00  0.00     0.000 A 
ENDBRANCH  17  26
ENDBRANCH   9  11
ENDBRANCH   8   9
ENDBRANCH   7   8
ENDBRANCH   6   7
ENDBRANCH   5   6
ENDBRANCH   4   5
ENDBRANCH   3   4
ENDBRANCH   2   3
ENDBRANCH   1   2
BRANCH   1  32
ATOM     32  C   UNL A   1      36.014  23.862  25.091  1.00  0.00     0.188 C 
BRANCH  32  33
ATOM     33  O   UNL A   1      36.134  22.436  25.174  1.00  0.00    -0.376 OA
BRANCH  33  34
ATOM     34  C   UNL A   1      37.168  21.740  24.507  1.00  0.00     0.202 C 
BRANCH  34  35
ATOM     35  C   UNL A   1      38.093  20.890  25.402  1.00  0.00     0.261 C 
BRANCH  35  36
ATOM     36  O   UNL A   1      39.255  21.577  25.875  1.00  0.00    -0.460 OA
BRANCH  36  37
ATOM     37  C   UNL A   1      40.366  20.794  25.943  1.00  0.00     0.338 C 
ATOM     38  O   UNL A   1      40.428  19.608  25.719  1.00  0.00    -0.246 OA
BRANCH  37  39
ATOM     39  C   UNL A   1      41.547  21.673  26.140  1.00  0.00     0.060 A 
ATOM     40  C   UNL A   1      42.780  21.047  26.363  1.00  0.00     0.016 A 
ATOM     41  C   UNL A   1      41.459  23.070  26.105  1.00  0.00     0.016 A 
ATOM     42  C   UNL A   1      43.907  21.808  26.652  1.00  0.00     0.010 A 
ATOM     43  C   UNL A   1      42.582  23.838  26.425  1.00  0.00     0.010 A 
ATOM     44  C   UNL A   1      43.782  23.197  26.781  1.00  0.00    -0.014 A 
BRANCH  44  45
ATOM     45  C   UNL A   1      44.737  23.864  27.698  1.00  0.00     0.031 A 
ATOM     46  C   UNL A   1      45.909  24.565  27.051  1.00  0.00     0.074 A 
ATOM     47  C   UNL A   1      44.515  23.962  29.019  1.00  0.00     0.049 A 
ATOM     48  N   UNL A   1      46.857  25.286  27.586  1.00  0.00    -0.248 NA
ATOM     49  C   UNL A   1      46.016  24.435  25.586  1.00  0.00     0.031 C 
ATOM     50  C   UNL A   1      43.373  23.391  29.731  1.00  0.00     0.029 A 
ATOM     51  N   UNL A   1      45.236  24.602  29.994  1.00  0.00    -0.354 N 
ATOM     52  C   UNL A   1      47.665  25.689  26.526  1.00  0.00     0.074 A 
ATOM     53  C   UNL A   1      47.128  25.095  25.327  1.00  0.00     0.031 C 
ATOM     54  C   UNL A   1      43.469  23.713  31.033  1.00  0.00     0.029 A 
ATOM     55  C   UNL A   1      44.691  24.487  31.251  1.00  0.00     0.049 A 
ATOM     56  H   UNL A   1      46.068  25.097  29.811  1.00  0.00     0.167 HD
ATOM     57  C   UNL A   1      48.751  26.497  26.548  1.00  0.00     0.034 A 
ATOM     58  C   UNL A   1      45.144  24.950  32.434  1.00  0.00     0.034 A 
ATOM     59  C   UNL A   1      49.279  27.067  27.759  1.00  0.00     0.049 A 
ATOM     60  C   UNL A   1      46.417  25.767  32.450  1.00  0.00     0.074 A 
ATOM     61  C   UNL A   1      50.382  27.883  27.919  1.00  0.00     0.029 A 
ATOM     62  N   UNL A   1      48.742  26.864  29.025  1.00  0.00    -0.354 N 
ATOM     63  N   UNL A   1      47.181  26.136  31.444  1.00  0.00    -0.248 NA
ATOM     64  C   UNL A   1      46.878  26.245  33.758  1.00  0.00     0.031 C 
ATOM     65  C   UNL A   1      50.563  28.104  29.288  1.00  0.00     0.029 A 
ATOM     66  C   UNL A   1      49.512  27.513  29.975  1.00  0.00     0.049 A 
ATOM     67  H   UNL A   1      47.934  26.337  29.218  1.00  0.00     0.167 HD
ATOM     68  C   UNL A   1      48.185  26.929  31.998  1.00  0.00     0.074 A 
ATOM     69  C   UNL A   1      47.919  26.991  33.421  1.00  0.00     0.031 C 
ATOM     70  C   UNL A   1      49.226  27.558  31.391  1.00  0.00     0.034 A 
BRANCH  57  71
ATOM     71  C   UNL A   1      49.467  26.728  25.238  1.00  0.00     0.023 A 
ATOM     72  C   UNL A   1      48.876  27.435  24.173  1.00  0.00     0.031 A 
ATOM     73  C   UNL A   1      50.741  26.171  25.029  1.00  0.00     0.131 A 
ATOM     74  C   UNL A   1      49.525  27.499  22.930  1.00  0.00     0.055 A 
ATOM     75  C   UNL A   1      51.419  26.314  23.817  1.00  0.00     0.041 A 
ATOM     76  F   UNL A   1      51.340  25.454  25.992  1.00  0.00    -0.206 F 
ATOM     77  C   UNL A   1      50.804  26.967  22.753  1.00  0.00     0.022 A 
BRANCH  74  78
ATOM     78  S   UNL A   1      48.608  28.138  21.500  1.00  0.00     0.124 S 
ATOM     79  O   UNL A   1      48.492  26.944  20.667  1.00  0.00    -0.237 OA
ATOM     80  O   UNL A   1      47.373  28.619  22.106  1.00  0.00    -0.237 OA
ATOM     81  O   UNL A   1      49.486  29.177  20.965  1.00  0.00    -0.744 OA
ENDBRANCH  74  78
ENDBRANCH  57  71
BRANCH  58  82
ATOM     82  C   UNL A   1      44.420  24.639  33.703  1.00  0.00     0.023 A 
ATOM     83  C   UNL A   1      43.487  25.534  34.253  1.00  0.00     0.031 A 
ATOM     84  C   UNL A   1      44.709  23.468  34.427  1.00  0.00     0.131 A 
ATOM     85  C   UNL A   1      42.917  25.271  35.509  1.00  0.00     0.055 A 
ATOM     86  C   UNL A   1      44.095  23.182  35.648  1.00  0.00     0.041 A 
ATOM     87  F   UNL A   1      45.598  22.579  33.956  1.00  0.00    -0.206 F 
ATOM     88  C   UNL A   1      43.204  24.094  36.203  1.00  0.00     0.022 A 
BRANCH  85  89
ATOM     89  S   UNL A   1      41.869  26.539  36.275  1.00  0.00     0.124 S 
ATOM     90  O   UNL A   1      40.861  25.725  36.944  1.00  0.00    -0.237 OA
ATOM     91  O   UNL A   1      42.816  27.232  37.142  1.00  0.00    -0.237 OA
ATOM     92  O   UNL A   1      41.389  27.317  35.135  1.00  0.00    -0.744 OA
ENDBRANCH  85  89
ENDBRANCH  58  82
BRANCH  70  93
ATOM     93  C   UNL A   1      50.109  28.423  32.259  1.00  0.00     0.023 A 
ATOM     94  C   UNL A   1      51.194  27.896  32.980  1.00  0.00     0.031 A 
ATOM     95  C   UNL A   1      49.844  29.801  32.378  1.00  0.00     0.131 A 
ATOM     96  C   UNL A   1      51.921  28.723  33.850  1.00  0.00     0.055 A 
ATOM     97  C   UNL A   1      50.623  30.633  33.181  1.00  0.00     0.041 A 
ATOM     98  F   UNL A   1      48.820  30.361  31.714  1.00  0.00    -0.206 F 
ATOM     99  C   UNL A   1      51.656  30.092  33.939  1.00  0.00     0.022 A 
BRANCH  96 100
ATOM    100  S   UNL A   1      53.126  27.957  34.967  1.00  0.00     0.124 S 
ATOM    101  O   UNL A   1      53.540  29.090  35.788  1.00  0.00    -0.237 OA
ATOM    102  O   UNL A   1      52.325  26.940  35.641  1.00  0.00    -0.237 OA
ATOM    103  O   UNL A   1      54.151  27.439  34.062  1.00  0.00    -0.744 OA
ENDBRANCH  96 100
ENDBRANCH  70  93
ENDBRANCH  44  45
ENDBRANCH  37  39
ENDBRANCH  36  37
ENDBRANCH  35  36
ENDBRANCH  34  35
ENDBRANCH  33  34
ENDBRANCH  32  33
ENDBRANCH   1  32
TORSDOF 25
ENDMDL
MODEL 3
REMARK VINA RESULT:      -8.3      2.449      3.862
REMARK SMILES O=C(OCCOCCOCCOCCOC(=O)c1ccc(-c2c3nc(c(-c4cc(S(=O)(=O)[O-])ccc4F)c4ccc([nH]4)c(-c4cc(S(=O)(=O)[O-])ccc4F)c4nc(c(-c5cc(S(=O)(=O)[O-])ccc5F)c5ccc2[nH]5)C=C4)C=C3)cc1)C1=Cc2c(ccc(Cl)c2-c2ccccc2)O[C@H]1C(F)(F)F
REMARK SMILES IDX 10 1 9 2 8 3 7 4 6 5 5 6 4 7 3 8 2 9 1 10 81 11 82 12 97 13
REMARK SMILES IDX 83 14 96 15 84 16 89 17 85 18 87 19 86 20 88 21 98 22 99 23
REMARK SMILES IDX 100 24 101 25 90 26 91 27 95 28 92 29 94 30 93 31 11 32
REMARK SMILES IDX 12 33 13 34 14 35 15 36 16 37 17 38 18 39 19 40 80 41 20 42
REMARK SMILES IDX 79 43 21 44 22 45 23 46 73 47 24 48 78 49 72 50 74 51 25 52
REMARK SMILES IDX 77 53 71 54 70 55 26 57 58 58 38 59 57 60 39 61 42 62 56 63
REMARK SMILES IDX 75 64 40 65 41 66 55 68 76 69 43 70 27 71 28 72 36 73 29 74
REMARK SMILES IDX 35 75 37 76 34 77 30 78 31 79 32 80 33 81 59 82 60 83 68 84
REMARK SMILES IDX 61 85 67 86 69 87 66 88 62 89 63 90 64 91 65 92 44 93 45 94
REMARK SMILES IDX 53 95 46 96 52 97 54 98 51 99 47 100 48 101 49 102 50 103
REMARK H PARENT 74 56 42 67
REMARK Flexibility Score: inf
ROOT
ATOM      1  C   UNL A   1      34.068  23.360  26.064  1.00  0.00     0.188 C 
ENDROOT
BRANCH   1   2
ATOM      2  O   UNL A   1      33.074  24.449  25.803  1.00  0.00    -0.377 OA
BRANCH   2   3
ATOM      3  C   UNL A   1      31.912  25.998  26.169  1.00  0.00     0.188 C 
BRANCH   3   4
ATOM      4  C   UNL A   1      31.860  27.577  25.610  1.00  0.00     0.188 C 
BRANCH   4   5
ATOM      5  O   UNL A   1      31.521  28.689  26.444  1.00  0.00    -0.376 OA
BRANCH   5   6
ATOM      6  C   UNL A   1      31.788  29.983  25.962  1.00  0.00     0.202 C 
BRANCH   6   7
ATOM      7  C   UNL A   1      32.889  30.827  26.627  1.00  0.00     0.261 C 
BRANCH   7   8
ATOM      8  O   UNL A   1      33.593  30.069  27.649  1.00  0.00    -0.460 OA
BRANCH   8   9
ATOM      9  C   UNL A   1      34.935  29.891  27.744  1.00  0.00     0.338 C 
ATOM     10  O   UNL A   1      35.569  29.479  26.779  1.00  0.00    -0.246 OA
BRANCH   9  11
ATOM     11  C   UNL A   1      35.665  30.278  28.969  1.00  0.00     0.087 C 
ATOM     12  C   UNL A   1      36.932  29.916  29.177  1.00  0.00     0.028 C 
ATOM     13  C   UNL A   1      35.279  31.572  29.648  1.00  0.00     0.316 C 
ATOM     14  C   UNL A   1      37.457  29.919  30.519  1.00  0.00     0.027 A 
ATOM     15  O   UNL A   1      35.799  31.644  31.026  1.00  0.00    -0.475 OA
ATOM     16  C   UNL A   1      36.788  30.769  31.416  1.00  0.00     0.128 A 
ATOM     17  C   UNL A   1      38.567  29.098  30.836  1.00  0.00     0.011 A 
ATOM     18  C   UNL A   1      37.156  30.734  32.744  1.00  0.00     0.049 A 
ATOM     19  C   UNL A   1      38.855  29.037  32.211  1.00  0.00     0.049 A 
ATOM     20  C   UNL A   1      38.156  29.840  33.144  1.00  0.00     0.025 A 
ATOM     21  Cl  UNL A   1      40.074  28.008  32.874  1.00  0.00    -0.084 Cl
BRANCH  13  22
ATOM     22  C   UNL A   1      35.727  32.786  28.775  1.00  0.00     0.430 C 
ATOM     23  F   UNL A   1      36.746  32.476  27.931  1.00  0.00    -0.167 F 
ATOM     24  F   UNL A   1      34.721  33.243  27.993  1.00  0.00    -0.167 F 
ATOM     25  F   UNL A   1      36.151  33.832  29.518  1.00  0.00    -0.167 F 
ENDBRANCH  13  22
BRANCH  17  26
ATOM     26  C   UNL A   1      39.416  28.452  29.749  1.00  0.00    -0.016 A 
ATOM     27  C   UNL A   1      40.537  29.440  28.712  1.00  0.00     0.009 A 
ATOM     28  C   UNL A   1      39.126  26.705  29.280  1.00  0.00     0.009 A 
ATOM     29  C   UNL A   1      41.254  28.761  27.192  1.00  0.00     0.001 A 
ATOM     30  C   UNL A   1      39.835  26.023  27.741  1.00  0.00     0.001 A 
ATOM     31  C   UNL A   1      40.916  27.051  26.716  1.00  0.00     0.000 A 
ENDBRANCH  17  26
ENDBRANCH   9  11
ENDBRANCH   8   9
ENDBRANCH   7   8
ENDBRANCH   6   7
ENDBRANCH   5   6
ENDBRANCH   4   5
ENDBRANCH   3   4
ENDBRANCH   2   3
ENDBRANCH   1   2
BRANCH   1  32
ATOM     32  C   UNL A   1      35.508  23.190  25.477  1.00  0.00     0.188 C 
BRANCH  32  33
ATOM     33  O   UNL A   1      36.030  21.899  25.143  1.00  0.00    -0.376 OA
BRANCH  33  34
ATOM     34  C   UNL A   1      37.312  21.745  24.567  1.00  0.00     0.202 C 
BRANCH  34  35
ATOM     35  C   UNL A   1      38.274  20.795  25.309  1.00  0.00     0.261 C 
BRANCH  35  36
ATOM     36  O   UNL A   1      39.384  21.445  25.933  1.00  0.00    -0.460 OA
BRANCH  36  37
ATOM     37  C   UNL A   1      40.521  20.696  25.950  1.00  0.00     0.338 C 
ATOM     38  O   UNL A   1      40.614  19.520  25.687  1.00  0.00    -0.246 OA
BRANCH  37  39
ATOM     39  C   UNL A   1      41.679  21.606  26.145  1.00  0.00     0.060 A 
ATOM     40  C   UNL A   1      42.938  21.014  26.299  1.00  0.00     0.016 A 
ATOM     41  C   UNL A   1      41.543  23.000  26.176  1.00  0.00     0.016 A 
ATOM     42  C   UNL A   1      44.049  21.801  26.583  1.00  0.00     0.010 A 
ATOM     43  C   UNL A   1      42.651  23.792  26.491  1.00  0.00     0.010 A 
ATOM     44  C   UNL A   1      43.884  23.178  26.778  1.00  0.00    -0.014 A 
BRANCH  44  45
ATOM     45  C   UNL A   1      44.848  23.837  27.691  1.00  0.00     0.031 A 
ATOM     46  C   UNL A   1      46.017  24.536  27.038  1.00  0.00     0.074 A 
ATOM     47  C   UNL A   1      44.636  23.929  29.013  1.00  0.00     0.049 A 
ATOM     48  N   UNL A   1      46.972  25.251  27.570  1.00  0.00    -0.248 NA
ATOM     49  C   UNL A   1      46.113  24.412  25.571  1.00  0.00     0.031 C 
ATOM     50  C   UNL A   1      43.497  23.360  29.731  1.00  0.00     0.029 A 
ATOM     51  N   UNL A   1      45.366  24.562  29.986  1.00  0.00    -0.354 N 
ATOM     52  C   UNL A   1      47.774  25.656  26.505  1.00  0.00     0.074 A 
ATOM     53  C   UNL A   1      47.226  25.070  25.308  1.00  0.00     0.031 C 
ATOM     54  C   UNL A   1      43.603  23.676  31.034  1.00  0.00     0.029 A 
ATOM     55  C   UNL A   1      44.830  24.444  31.246  1.00  0.00     0.049 A 
ATOM     56  H   UNL A   1      46.198  25.055  29.799  1.00  0.00     0.167 HD
ATOM     57  C   UNL A   1      48.862  26.460  26.522  1.00  0.00     0.034 A 
ATOM     58  C   UNL A   1      45.293  24.900  32.428  1.00  0.00     0.034 A 
ATOM     59  C   UNL A   1      49.401  27.022  27.732  1.00  0.00     0.049 A 
ATOM     60  C   UNL A   1      46.569  25.712  32.438  1.00  0.00     0.074 A 
ATOM     61  C   UNL A   1      50.509  27.834  27.888  1.00  0.00     0.029 A 
ATOM     62  N   UNL A   1      48.873  26.816  29.002  1.00  0.00    -0.354 N 
ATOM     63  N   UNL A   1      47.327  26.083  31.429  1.00  0.00    -0.248 NA
ATOM     64  C   UNL A   1      47.041  26.183  33.745  1.00  0.00     0.031 C 
ATOM     65  C   UNL A   1      50.700  28.049  29.257  1.00  0.00     0.029 A 
ATOM     66  C   UNL A   1      49.652  27.459  29.948  1.00  0.00     0.049 A 
ATOM     67  H   UNL A   1      48.064  26.291  29.198  1.00  0.00     0.167 HD
ATOM     68  C   UNL A   1      48.337  26.870  31.979  1.00  0.00     0.074 A 
ATOM     69  C   UNL A   1      48.083  26.926  33.404  1.00  0.00     0.031 C 
ATOM     70  C   UNL A   1      49.377  27.498  31.367  1.00  0.00     0.034 A 
BRANCH  57  71
ATOM     71  C   UNL A   1      49.570  26.695  25.209  1.00  0.00     0.023 A 
ATOM     72  C   UNL A   1      48.972  27.404  24.149  1.00  0.00     0.031 A 
ATOM     73  C   UNL A   1      50.842  26.138  24.989  1.00  0.00     0.131 A 
ATOM     74  C   UNL A   1      49.613  27.471  22.902  1.00  0.00     0.055 A 
ATOM     75  C   UNL A   1      51.512  26.284  23.774  1.00  0.00     0.041 A 
ATOM     76  F   UNL A   1      51.448  25.418  25.947  1.00  0.00    -0.206 F 
ATOM     77  C   UNL A   1      50.890  26.940  22.716  1.00  0.00     0.022 A 
BRANCH  74  78
ATOM     78  S   UNL A   1      48.686  28.114  21.480  1.00  0.00     0.124 S 
ATOM     79  O   UNL A   1      48.761  26.992  20.548  1.00  0.00    -0.237 OA
ATOM     80  O   UNL A   1      47.374  28.384  22.054  1.00  0.00    -0.237 OA
ATOM     81  O   UNL A   1      49.448  29.296  21.081  1.00  0.00    -0.744 OA
ENDBRANCH  74  78
ENDBRANCH  57  71
BRANCH  58  82
ATOM     82  C   UNL A   1      44.577  24.587  33.701  1.00  0.00     0.023 A 
ATOM     83  C   UNL A   1      43.636  25.473  34.251  1.00  0.00     0.031 A 
ATOM     84  C   UNL A   1      44.881  23.421  34.429  1.00  0.00     0.131 A 
ATOM     85  C   UNL A   1      43.074  25.209  35.511  1.00  0.00     0.055 A 
ATOM     86  C   UNL A   1      44.275  23.133  35.653  1.00  0.00     0.041 A 
ATOM     87  F   UNL A   1      45.779  22.540  33.958  1.00  0.00    -0.206 F 
ATOM     88  C   UNL A   1      43.376  24.037  36.208  1.00  0.00     0.022 A 
BRANCH  85  89
ATOM     89  S   UNL A   1      42.015  26.468  36.275  1.00  0.00     0.124 S 
ATOM     90  O   UNL A   1      42.518  26.487  37.644  1.00  0.00    -0.237 OA
ATOM     91  O   UNL A   1      42.310  27.644  35.465  1.00  0.00    -0.237 OA
ATOM     92  O   UNL A   1      40.668  25.924  36.112  1.00  0.00    -0.744 OA
ENDBRANCH  85  89
ENDBRANCH  58  82
BRANCH  70  93
ATOM     93  C   UNL A   1      50.269  28.356  32.232  1.00  0.00     0.023 A 
ATOM     94  C   UNL A   1      49.977  29.705  32.499  1.00  0.00     0.031 A 
ATOM     95  C   UNL A   1      51.445  27.814  32.784  1.00  0.00     0.131 A 
ATOM     96  C   UNL A   1      50.889  30.485  33.225  1.00  0.00     0.055 A 
ATOM     97  C   UNL A   1      52.306  28.574  33.575  1.00  0.00     0.041 A 
ATOM     98  F   UNL A   1      51.776  26.532  32.563  1.00  0.00    -0.206 F 
ATOM     99  C   UNL A   1      52.041  29.924  33.782  1.00  0.00     0.022 A 
BRANCH  96 100
ATOM    100  S   UNL A   1      50.620  32.277  33.312  1.00  0.00     0.124 S 
ATOM    101  O   UNL A   1      50.146  32.445  34.682  1.00  0.00    -0.237 OA
ATOM    102  O   UNL A   1      51.950  32.806  33.028  1.00  0.00    -0.237 OA
ATOM    103  O   UNL A   1      49.620  32.523  32.274  1.00  0.00    -0.744 OA
ENDBRANCH  96 100
ENDBRANCH  70  93
ENDBRANCH  44  45
ENDBRANCH  37  39
ENDBRANCH  36  37
ENDBRANCH  35  36
ENDBRANCH  34  35
ENDBRANCH  33  34
ENDBRANCH  32  33
ENDBRANCH   1  32
TORSDOF 25
ENDMDL
