MODEL 1
REMARK VINA RESULT:      -8.5      0.000      0.000
REMARK SMILES CC(C)c1ccc(C(=O)NC[C@H]2CC[C@@H](C(=O)OCCOCCOCCOCCOC(=O)c3ccc(-c4c5nc(c(-c6cc(S(=O)(=O)[O-])ccc6F)c6ccc([nH]6)c(-c6cc(S(=O)(=O)[O-])ccc6F)c6nc(c(-c7cc(S(=O)(=O)[O-])ccc7F)c7ccc4[nH]7)C=C6)C=C5)cc3)O2)cc1
REMARK SMILES IDX 23 1 22 2 21 3 20 4 19 5 18 6 16 7 17 8 15 9 12 10 13 11
REMARK SMILES IDX 96 12 14 13 11 14 10 15 8 16 9 17 7 19 4 20 5 21 98 22 6 23
REMARK SMILES IDX 97 24 2 25 1 26 3 27 24 28 25 29 26 30 27 31 28 32 29 33
REMARK SMILES IDX 30 34 31 35 32 36 33 37 34 38 95 39 35 40 94 41 36 42 37 43
REMARK SMILES IDX 38 44 88 45 39 46 93 47 87 48 89 49 40 50 92 51 86 52 85 53
REMARK SMILES IDX 41 55 73 56 53 57 72 58 54 59 57 60 71 61 90 62 55 63 56 64
REMARK SMILES IDX 70 66 91 67 58 68 42 69 43 70 51 71 44 72 50 73 52 74 49 75
REMARK SMILES IDX 45 76 46 77 47 78 48 79 74 80 75 81 83 82 76 83 82 84 84 85
REMARK SMILES IDX 81 86 77 87 78 88 79 89 80 90 59 91 60 92 68 93 61 94 67 95
REMARK SMILES IDX 69 96 66 97 62 98 63 99 64 100 65 101
REMARK H PARENT 10 18 89 54 57 65
REMARK Flexibility Score: inf
ROOT
ATOM      1  C   UNL A   1      34.039  33.783  29.084  1.00  0.00     0.188 C 
ENDROOT
BRANCH   1   2
ATOM      2  C   UNL A   1      34.179  32.742  27.942  1.00  0.00     0.188 C 
BRANCH   2   3
ATOM      3  O   UNL A   1      33.589  31.485  28.202  1.00  0.00    -0.376 OA
BRANCH   3   4
ATOM      4  C   UNL A   1      33.678  30.459  27.233  1.00  0.00     0.202 C 
BRANCH   4   5
ATOM      5  C   UNL A   1      32.558  29.420  27.104  1.00  0.00     0.261 C 
BRANCH   5   6
ATOM      6  O   UNL A   1      32.989  28.048  27.164  1.00  0.00    -0.461 OA
BRANCH   6   7
ATOM      7  C   UNL A   1      32.212  27.103  26.578  1.00  0.00     0.335 C 
ATOM      8  O   UNL A   1      31.002  27.045  26.719  1.00  0.00    -0.249 OA
BRANCH   7   9
ATOM      9  C   UNL A   1      33.069  26.129  25.739  1.00  0.00     0.228 C 
ATOM     10  C   UNL A   1      32.535  24.770  23.886  1.00  0.00     0.138 C 
ATOM     11  C   UNL A   1      33.817  25.512  23.568  1.00  0.00     0.037 C 
ATOM     12  O   UNL A   1      32.266  25.028  25.272  1.00  0.00    -0.361 OA
ATOM     13  C   UNL A   1      33.715  26.707  24.483  1.00  0.00     0.047 C 
BRANCH  10  14
ATOM     14  C   UNL A   1      31.376  25.250  22.991  1.00  0.00     0.148 C 
BRANCH  14  15
ATOM     15  N   UNL A   1      30.148  25.466  23.730  1.00  0.00    -0.349 N 
ATOM     16  C   UNL A   1      29.229  26.472  23.866  1.00  0.00     0.251 C 
ATOM     17  O   UNL A   1      28.294  26.207  24.633  1.00  0.00    -0.269 OA
ATOM     18  H   UNL A   1      29.911  24.682  24.277  1.00  0.00     0.163 HD
BRANCH  16  19
ATOM     19  C   UNL A   1      29.234  27.811  23.193  1.00  0.00     0.039 A 
ATOM     20  C   UNL A   1      28.963  30.446  22.079  1.00  0.00    -0.045 A 
ATOM     21  C   UNL A   1      27.853  29.746  22.556  1.00  0.00     0.005 A 
ATOM     22  C   UNL A   1      30.194  29.773  22.104  1.00  0.00     0.005 A 
ATOM     23  C   UNL A   1      27.989  28.460  23.103  1.00  0.00     0.014 A 
ATOM     24  C   UNL A   1      30.326  28.484  22.655  1.00  0.00     0.014 A 
BRANCH  20  25
ATOM     25  C   UNL A   1      28.884  31.873  21.542  1.00  0.00     0.013 C 
ATOM     26  C   UNL A   1      27.851  32.099  20.431  1.00  0.00     0.012 C 
ATOM     27  C   UNL A   1      28.604  32.888  22.659  1.00  0.00     0.012 C 
ENDBRANCH  20  25
ENDBRANCH  16  19
ENDBRANCH  14  15
ENDBRANCH  10  14
ENDBRANCH   7   9
ENDBRANCH   6   7
ENDBRANCH   5   6
ENDBRANCH   4   5
ENDBRANCH   3   4
ENDBRANCH   2   3
ENDBRANCH   1   2
BRANCH   1  28
ATOM     28  O   UNL A   1      35.142  34.386  29.743  1.00  0.00    -0.377 OA
BRANCH  28  29
ATOM     29  C   UNL A   1      35.541  33.879  31.004  1.00  0.00     0.188 C 
BRANCH  29  30
ATOM     30  C   UNL A   1      34.869  32.547  31.381  1.00  0.00     0.188 C 
BRANCH  30  31
ATOM     31  O   UNL A   1      35.798  31.474  31.493  1.00  0.00    -0.376 OA
BRANCH  31  32
ATOM     32  C   UNL A   1      36.247  30.858  30.298  1.00  0.00     0.202 C 
BRANCH  32  33
ATOM     33  C   UNL A   1      37.668  31.131  29.770  1.00  0.00     0.261 C 
BRANCH  33  34
ATOM     34  O   UNL A   1      38.542  31.925  30.585  1.00  0.00    -0.460 OA
BRANCH  34  35
ATOM     35  C   UNL A   1      39.496  31.295  31.300  1.00  0.00     0.338 C 
ATOM     36  O   UNL A   1      40.112  30.294  30.972  1.00  0.00    -0.246 OA
BRANCH  35  37
ATOM     37  C   UNL A   1      39.809  32.159  32.460  1.00  0.00     0.060 A 
ATOM     38  C   UNL A   1      40.895  31.830  33.283  1.00  0.00     0.016 A 
ATOM     39  C   UNL A   1      39.074  33.325  32.695  1.00  0.00     0.016 A 
ATOM     40  C   UNL A   1      41.239  32.659  34.352  1.00  0.00     0.010 A 
ATOM     41  C   UNL A   1      39.395  34.133  33.787  1.00  0.00     0.010 A 
ATOM     42  C   UNL A   1      40.462  33.789  34.637  1.00  0.00    -0.014 A 
BRANCH  42  43
ATOM     43  C   UNL A   1      40.612  34.469  35.947  1.00  0.00     0.031 A 
ATOM     44  C   UNL A   1      41.640  35.563  36.048  1.00  0.00     0.074 A 
ATOM     45  C   UNL A   1      39.853  34.146  37.009  1.00  0.00     0.049 A 
ATOM     46  N   UNL A   1      42.014  36.263  37.085  1.00  0.00    -0.248 NA
ATOM     47  C   UNL A   1      42.345  35.906  34.802  1.00  0.00     0.031 C 
ATOM     48  C   UNL A   1      38.790  33.144  37.013  1.00  0.00     0.029 A 
ATOM     49  N   UNL A   1      39.870  34.626  38.294  1.00  0.00    -0.354 N 
ATOM     50  C   UNL A   1      43.003  37.123  36.621  1.00  0.00     0.074 A 
ATOM     51  C   UNL A   1      43.194  36.832  35.217  1.00  0.00     0.031 C 
ATOM     52  C   UNL A   1      38.264  33.074  38.251  1.00  0.00     0.029 A 
ATOM     53  C   UNL A   1      38.983  33.992  39.133  1.00  0.00     0.049 A 
ATOM     54  H   UNL A   1      40.461  35.356  38.589  1.00  0.00     0.167 HD
ATOM     55  C   UNL A   1      43.686  38.073  37.304  1.00  0.00     0.034 A 
ATOM     56  C   UNL A   1      38.798  34.119  40.465  1.00  0.00     0.034 A 
ATOM     57  C   UNL A   1      43.494  38.338  38.707  1.00  0.00     0.049 A 
ATOM     58  C   UNL A   1      39.642  35.117  41.228  1.00  0.00     0.074 A 
ATOM     59  C   UNL A   1      44.122  39.283  39.498  1.00  0.00     0.029 A 
ATOM     60  N   UNL A   1      42.622  37.642  39.536  1.00  0.00    -0.354 N 
ATOM     61  N   UNL A   1      40.570  35.931  40.780  1.00  0.00    -0.248 NA
ATOM     62  C   UNL A   1      39.408  35.215  42.675  1.00  0.00     0.031 C 
ATOM     63  C   UNL A   1      43.695  39.103  40.818  1.00  0.00     0.029 A 
ATOM     64  C   UNL A   1      42.726  38.111  40.836  1.00  0.00     0.049 A 
ATOM     65  H   UNL A   1      42.018  36.922  39.242  1.00  0.00     0.167 HD
ATOM     66  C   UNL A   1      41.003  36.664  41.885  1.00  0.00     0.074 A 
ATOM     67  C   UNL A   1      40.225  36.201  43.016  1.00  0.00     0.031 C 
ATOM     68  C   UNL A   1      41.949  37.635  41.958  1.00  0.00     0.034 A 
BRANCH  55  69
ATOM     69  C   UNL A   1      44.743  38.844  36.552  1.00  0.00     0.023 A 
ATOM     70  C   UNL A   1      44.479  40.097  35.969  1.00  0.00     0.031 A 
ATOM     71  C   UNL A   1      46.029  38.301  36.389  1.00  0.00     0.131 A 
ATOM     72  C   UNL A   1      45.464  40.730  35.196  1.00  0.00     0.055 A 
ATOM     73  C   UNL A   1      47.031  38.975  35.689  1.00  0.00     0.041 A 
ATOM     74  F   UNL A   1      46.331  37.095  36.895  1.00  0.00    -0.206 F 
ATOM     75  C   UNL A   1      46.747  40.192  35.075  1.00  0.00     0.022 A 
BRANCH  72  76
ATOM     76  S   UNL A   1      44.998  42.191  34.228  1.00  0.00     0.124 S 
ATOM     77  O   UNL A   1      44.582  43.121  35.276  1.00  0.00    -0.237 OA
ATOM     78  O   UNL A   1      46.239  42.521  33.537  1.00  0.00    -0.237 OA
ATOM     79  O   UNL A   1      43.918  41.705  33.372  1.00  0.00    -0.744 OA
ENDBRANCH  72  76
ENDBRANCH  55  69
BRANCH  56  80
ATOM     80  C   UNL A   1      37.817  33.250  41.182  1.00  0.00     0.023 A 
ATOM     81  C   UNL A   1      36.504  33.681  41.428  1.00  0.00     0.031 A 
ATOM     82  C   UNL A   1      38.202  31.998  41.693  1.00  0.00     0.131 A 
ATOM     83  C   UNL A   1      35.639  32.891  42.202  1.00  0.00     0.055 A 
ATOM     84  C   UNL A   1      37.321  31.188  42.411  1.00  0.00     0.041 A 
ATOM     85  F   UNL A   1      39.449  31.538  41.496  1.00  0.00    -0.206 F 
ATOM     86  C   UNL A   1      36.034  31.640  42.682  1.00  0.00     0.022 A 
BRANCH  83  87
ATOM     87  S   UNL A   1      34.018  33.566  42.660  1.00  0.00     0.124 S 
ATOM     88  O   UNL A   1      33.276  32.354  42.991  1.00  0.00    -0.237 OA
ATOM     89  O   UNL A   1      34.359  34.436  43.781  1.00  0.00    -0.237 OA
ATOM     90  O   UNL A   1      33.582  34.256  41.449  1.00  0.00    -0.744 OA
ENDBRANCH  83  87
ENDBRANCH  56  80
BRANCH  68  91
ATOM     91  C   UNL A   1      42.159  38.303  43.298  1.00  0.00     0.023 A 
ATOM     92  C   UNL A   1      41.432  39.442  43.685  1.00  0.00     0.031 A 
ATOM     93  C   UNL A   1      43.102  37.782  44.203  1.00  0.00     0.131 A 
ATOM     94  C   UNL A   1      41.699  40.054  44.920  1.00  0.00     0.055 A 
ATOM     95  C   UNL A   1      43.314  38.355  45.458  1.00  0.00     0.041 A 
ATOM     96  F   UNL A   1      43.830  36.699  43.886  1.00  0.00    -0.206 F 
ATOM     97  C   UNL A   1      42.620  39.506  45.817  1.00  0.00     0.022 A 
BRANCH  94  98
ATOM     98  S   UNL A   1      40.899  41.637  45.299  1.00  0.00     0.124 S 
ATOM     99  O   UNL A   1      39.722  41.594  44.437  1.00  0.00    -0.237 OA
ATOM    100  O   UNL A   1      40.645  41.523  46.732  1.00  0.00    -0.237 OA
ATOM    101  O   UNL A   1      41.905  42.628  44.925  1.00  0.00    -0.744 OA
ENDBRANCH  94  98
ENDBRANCH  68  91
ENDBRANCH  42  43
ENDBRANCH  35  37
ENDBRANCH  34  35
ENDBRANCH  33  34
ENDBRANCH  32  33
ENDBRANCH  31  32
ENDBRANCH  30  31
ENDBRANCH  29  30
ENDBRANCH  28  29
ENDBRANCH   1  28
TORSDOF 27
ENDMDL
MODEL 2
REMARK VINA RESULT:      -7.8     14.537     21.385
REMARK SMILES CC(C)c1ccc(C(=O)NC[C@H]2CC[C@@H](C(=O)OCCOCCOCCOCCOC(=O)c3ccc(-c4c5nc(c(-c6cc(S(=O)(=O)[O-])ccc6F)c6ccc([nH]6)c(-c6cc(S(=O)(=O)[O-])ccc6F)c6nc(c(-c7cc(S(=O)(=O)[O-])ccc7F)c7ccc4[nH]7)C=C6)C=C5)cc3)O2)cc1
REMARK SMILES IDX 23 1 22 2 21 3 20 4 19 5 18 6 16 7 17 8 15 9 12 10 13 11
REMARK SMILES IDX 96 12 14 13 11 14 10 15 8 16 9 17 7 19 4 20 5 21 98 22 6 23
REMARK SMILES IDX 97 24 2 25 1 26 3 27 24 28 25 29 26 30 27 31 28 32 29 33
REMARK SMILES IDX 30 34 31 35 32 36 33 37 34 38 95 39 35 40 94 41 36 42 37 43
REMARK SMILES IDX 38 44 88 45 39 46 93 47 87 48 89 49 40 50 92 51 86 52 85 53
REMARK SMILES IDX 41 55 73 56 53 57 72 58 54 59 57 60 71 61 90 62 55 63 56 64
REMARK SMILES IDX 70 66 91 67 58 68 42 69 43 70 51 71 44 72 50 73 52 74 49 75
REMARK SMILES IDX 45 76 46 77 47 78 48 79 74 80 75 81 83 82 76 83 82 84 84 85
REMARK SMILES IDX 81 86 77 87 78 88 79 89 80 90 59 91 60 92 68 93 61 94 67 95
REMARK SMILES IDX 69 96 66 97 62 98 63 99 64 100 65 101
REMARK H PARENT 10 18 89 54 57 65
REMARK Flexibility Score: inf
ROOT
ATOM      1  C   UNL A   1      48.420  18.787  39.909  1.00  0.00     0.188 C 
ENDROOT
BRANCH   1   2
ATOM      2  C   UNL A   1      47.386  17.711  40.333  1.00  0.00     0.188 C 
BRANCH   2   3
ATOM      3  O   UNL A   1      46.116  17.829  39.728  1.00  0.00    -0.376 OA
BRANCH   3   4
ATOM      4  C   UNL A   1      44.953  17.554  40.485  1.00  0.00     0.202 C 
BRANCH   4   5
ATOM      5  C   UNL A   1      44.363  16.140  40.507  1.00  0.00     0.261 C 
BRANCH   5   6
ATOM      6  O   UNL A   1      42.965  16.068  40.838  1.00  0.00    -0.461 OA
BRANCH   6   7
ATOM      7  C   UNL A   1      42.253  15.000  40.398  1.00  0.00     0.335 C 
ATOM      8  O   UNL A   1      42.341  14.554  39.265  1.00  0.00    -0.249 OA
BRANCH   7   9
ATOM      9  C   UNL A   1      41.330  14.457  41.511  1.00  0.00     0.228 C 
ATOM     10  C   UNL A   1      41.243  12.361  42.591  1.00  0.00     0.138 C 
ATOM     11  C   UNL A   1      41.196  13.439  43.655  1.00  0.00     0.037 C 
ATOM     12  O   UNL A   1      41.108  13.044  41.336  1.00  0.00    -0.361 OA
ATOM     13  C   UNL A   1      41.839  14.602  42.942  1.00  0.00     0.047 C 
BRANCH  10  14
ATOM     14  C   UNL A   1      42.561  11.566  42.659  1.00  0.00     0.148 C 
BRANCH  14  15
ATOM     15  N   UNL A   1      42.891  11.138  44.005  1.00  0.00    -0.349 N 
ATOM     16  C   UNL A   1      43.740  11.543  45.000  1.00  0.00     0.251 C 
ATOM     17  O   UNL A   1      43.684  10.855  46.028  1.00  0.00    -0.269 OA
ATOM     18  H   UNL A   1      42.367  10.349  44.274  1.00  0.00     0.163 HD
BRANCH  16  19
ATOM     19  C   UNL A   1      44.689  12.703  44.976  1.00  0.00     0.039 A 
ATOM     20  C   UNL A   1      46.319  15.061  45.176  1.00  0.00    -0.045 A 
ATOM     21  C   UNL A   1      44.971  15.081  45.545  1.00  0.00     0.005 A 
ATOM     22  C   UNL A   1      46.810  13.862  44.640  1.00  0.00     0.005 A 
ATOM     23  C   UNL A   1      44.179  13.926  45.448  1.00  0.00     0.014 A 
ATOM     24  C   UNL A   1      46.012  12.706  44.546  1.00  0.00     0.014 A 
BRANCH  20  25
ATOM     25  C   UNL A   1      47.243  16.266  45.328  1.00  0.00     0.013 C 
ATOM     26  C   UNL A   1      48.624  15.962  45.921  1.00  0.00     0.012 C 
ATOM     27  C   UNL A   1      47.455  16.994  43.993  1.00  0.00     0.012 C 
ENDBRANCH  20  25
ENDBRANCH  16  19
ENDBRANCH  14  15
ENDBRANCH  10  14
ENDBRANCH   7   9
ENDBRANCH   6   7
ENDBRANCH   5   6
ENDBRANCH   4   5
ENDBRANCH   3   4
ENDBRANCH   2   3
ENDBRANCH   1   2
BRANCH   1  28
ATOM     28  O   UNL A   1      48.109  20.164  39.754  1.00  0.00    -0.377 OA
BRANCH  28  29
ATOM     29  C   UNL A   1      47.614  20.614  38.506  1.00  0.00     0.188 C 
BRANCH  29  30
ATOM     30  C   UNL A   1      48.194  21.967  38.058  1.00  0.00     0.188 C 
BRANCH  30  31
ATOM     31  O   UNL A   1      47.189  22.880  37.627  1.00  0.00    -0.376 OA
BRANCH  31  32
ATOM     32  C   UNL A   1      46.149  23.199  38.536  1.00  0.00     0.202 C 
BRANCH  32  33
ATOM     33  C   UNL A   1      44.841  23.832  38.026  1.00  0.00     0.261 C 
BRANCH  33  34
ATOM     34  O   UNL A   1      44.688  24.000  36.609  1.00  0.00    -0.460 OA
BRANCH  34  35
ATOM     35  C   UNL A   1      44.162  25.155  36.155  1.00  0.00     0.338 C 
ATOM     36  O   UNL A   1      43.397  25.894  36.755  1.00  0.00    -0.246 OA
BRANCH  35  37
ATOM     37  C   UNL A   1      44.845  25.472  34.881  1.00  0.00     0.060 A 
ATOM     38  C   UNL A   1      44.146  26.168  33.886  1.00  0.00     0.016 A 
ATOM     39  C   UNL A   1      46.190  25.138  34.697  1.00  0.00     0.016 A 
ATOM     40  C   UNL A   1      44.788  26.522  32.698  1.00  0.00     0.010 A 
ATOM     41  C   UNL A   1      46.820  25.458  33.492  1.00  0.00     0.010 A 
ATOM     42  C   UNL A   1      46.113  26.127  32.476  1.00  0.00    -0.014 A 
BRANCH  42  43
ATOM     43  C   UNL A   1      46.679  26.199  31.107  1.00  0.00     0.031 A 
ATOM     44  C   UNL A   1      47.724  27.247  30.841  1.00  0.00     0.074 A 
ATOM     45  C   UNL A   1      46.297  25.354  30.133  1.00  0.00     0.049 A 
ATOM     46  N   UNL A   1      48.324  27.563  29.724  1.00  0.00    -0.248 NA
ATOM     47  C   UNL A   1      48.143  28.053  32.000  1.00  0.00     0.031 C 
ATOM     48  C   UNL A   1      45.336  24.265  30.289  1.00  0.00     0.029 A 
ATOM     49  N   UNL A   1      46.670  25.288  28.814  1.00  0.00    -0.354 N 
ATOM     50  C   UNL A   1      49.185  28.608  30.043  1.00  0.00     0.074 A 
ATOM     51  C   UNL A   1      49.002  28.895  31.449  1.00  0.00     0.031 C 
ATOM     52  C   UNL A   1      45.184  23.647  29.102  1.00  0.00     0.029 A 
ATOM     53  C   UNL A   1      46.002  24.324  28.097  1.00  0.00     0.049 A 
ATOM     54  H   UNL A   1      47.353  25.877  28.418  1.00  0.00     0.167 HD
ATOM     55  C   UNL A   1      50.052  29.265  29.236  1.00  0.00     0.034 A 
ATOM     56  C   UNL A   1      46.026  24.044  26.776  1.00  0.00     0.034 A 
ATOM     57  C   UNL A   1      50.208  28.977  27.832  1.00  0.00     0.049 A 
ATOM     58  C   UNL A   1      46.928  24.857  25.873  1.00  0.00     0.074 A 
ATOM     59  C   UNL A   1      51.064  29.571  26.923  1.00  0.00     0.029 A 
ATOM     60  N   UNL A   1      49.478  28.026  27.129  1.00  0.00    -0.354 N 
ATOM     61  N   UNL A   1      47.744  25.839  26.184  1.00  0.00    -0.248 NA
ATOM     62  C   UNL A   1      46.917  24.519  24.444  1.00  0.00     0.031 C 
ATOM     63  C   UNL A   1      50.791  29.042  25.657  1.00  0.00     0.029 A 
ATOM     64  C   UNL A   1      49.836  28.046  25.791  1.00  0.00     0.049 A 
ATOM     65  H   UNL A   1      48.805  27.425  27.525  1.00  0.00     0.167 HD
ATOM     66  C   UNL A   1      48.368  26.209  24.993  1.00  0.00     0.074 A 
ATOM     67  C   UNL A   1      47.842  25.336  23.963  1.00  0.00     0.031 C 
ATOM     68  C   UNL A   1      49.297  27.175  24.772  1.00  0.00     0.034 A 
BRANCH  55  69
ATOM     69  C   UNL A   1      50.844  30.397  29.843  1.00  0.00     0.023 A 
ATOM     70  C   UNL A   1      52.157  30.218  30.316  1.00  0.00     0.031 A 
ATOM     71  C   UNL A   1      50.264  31.670  29.979  1.00  0.00     0.131 A 
ATOM     72  C   UNL A   1      52.817  31.274  30.961  1.00  0.00     0.055 A 
ATOM     73  C   UNL A   1      50.957  32.740  30.547  1.00  0.00     0.041 A 
ATOM     74  F   UNL A   1      49.003  31.893  29.575  1.00  0.00    -0.206 F 
ATOM     75  C   UNL A   1      52.238  32.542  31.055  1.00  0.00     0.022 A 
BRANCH  72  76
ATOM     76  S   UNL A   1      54.383  30.927  31.809  1.00  0.00     0.124 S 
ATOM     77  O   UNL A   1      54.673  32.217  32.433  1.00  0.00    -0.237 OA
ATOM     78  O   UNL A   1      54.018  29.846  32.717  1.00  0.00    -0.237 OA
ATOM     79  O   UNL A   1      55.285  30.552  30.723  1.00  0.00    -0.744 OA
ENDBRANCH  72  76
ENDBRANCH  55  69
BRANCH  56  80
ATOM     80  C   UNL A   1      45.137  22.988  26.206  1.00  0.00     0.023 A 
ATOM     81  C   UNL A   1      45.635  21.721  25.863  1.00  0.00     0.031 A 
ATOM     82  C   UNL A   1      43.783  23.256  25.935  1.00  0.00     0.131 A 
ATOM     83  C   UNL A   1      44.801  20.789  25.225  1.00  0.00     0.055 A 
ATOM     84  C   UNL A   1      42.941  22.304  25.355  1.00  0.00     0.041 A 
ATOM     85  F   UNL A   1      43.254  24.453  26.234  1.00  0.00    -0.206 F 
ATOM     86  C   UNL A   1      43.453  21.065  24.983  1.00  0.00     0.022 A 
BRANCH  83  87
ATOM     87  S   UNL A   1      45.529  19.239  24.623  1.00  0.00     0.124 S 
ATOM     88  O   UNL A   1      44.774  19.015  23.395  1.00  0.00    -0.237 OA
ATOM     89  O   UNL A   1      46.931  19.609  24.456  1.00  0.00    -0.237 OA
ATOM     90  O   UNL A   1      45.260  18.294  25.704  1.00  0.00    -0.744 OA
ENDBRANCH  83  87
ENDBRANCH  56  80
BRANCH  68  91
ATOM     91  C   UNL A   1      49.846  27.303  23.369  1.00  0.00     0.023 A 
ATOM     92  C   UNL A   1      51.189  27.019  23.064  1.00  0.00     0.031 A 
ATOM     93  C   UNL A   1      49.004  27.713  22.319  1.00  0.00     0.131 A 
ATOM     94  C   UNL A   1      51.661  27.202  21.756  1.00  0.00     0.055 A 
ATOM     95  C   UNL A   1      49.463  27.826  21.006  1.00  0.00     0.041 A 
ATOM     96  F   UNL A   1      47.713  28.002  22.550  1.00  0.00    -0.206 F 
ATOM     97  C   UNL A   1      50.803  27.582  20.721  1.00  0.00     0.022 A 
BRANCH  94  98
ATOM     98  S   UNL A   1      53.440  27.032  21.439  1.00  0.00     0.124 S 
ATOM     99  O   UNL A   1      53.876  28.424  21.411  1.00  0.00    -0.237 OA
ATOM    100  O   UNL A   1      53.887  26.246  22.584  1.00  0.00    -0.237 OA
ATOM    101  O   UNL A   1      53.494  26.339  20.153  1.00  0.00    -0.744 OA
ENDBRANCH  94  98
ENDBRANCH  68  91
ENDBRANCH  42  43
ENDBRANCH  35  37
ENDBRANCH  34  35
ENDBRANCH  33  34
ENDBRANCH  32  33
ENDBRANCH  31  32
ENDBRANCH  30  31
ENDBRANCH  29  30
ENDBRANCH  28  29
ENDBRANCH   1  28
TORSDOF 27
ENDMDL
MODEL 3
REMARK VINA RESULT:      -7.7      3.513      8.627
REMARK SMILES CC(C)c1ccc(C(=O)NC[C@H]2CC[C@@H](C(=O)OCCOCCOCCOCCOC(=O)c3ccc(-c4c5nc(c(-c6cc(S(=O)(=O)[O-])ccc6F)c6ccc([nH]6)c(-c6cc(S(=O)(=O)[O-])ccc6F)c6nc(c(-c7cc(S(=O)(=O)[O-])ccc7F)c7ccc4[nH]7)C=C6)C=C5)cc3)O2)cc1
REMARK SMILES IDX 23 1 22 2 21 3 20 4 19 5 18 6 16 7 17 8 15 9 12 10 13 11
REMARK SMILES IDX 96 12 14 13 11 14 10 15 8 16 9 17 7 19 4 20 5 21 98 22 6 23
REMARK SMILES IDX 97 24 2 25 1 26 3 27 24 28 25 29 26 30 27 31 28 32 29 33
REMARK SMILES IDX 30 34 31 35 32 36 33 37 34 38 95 39 35 40 94 41 36 42 37 43
REMARK SMILES IDX 38 44 88 45 39 46 93 47 87 48 89 49 40 50 92 51 86 52 85 53
REMARK SMILES IDX 41 55 73 56 53 57 72 58 54 59 57 60 71 61 90 62 55 63 56 64
REMARK SMILES IDX 70 66 91 67 58 68 42 69 43 70 51 71 44 72 50 73 52 74 49 75
REMARK SMILES IDX 45 76 46 77 47 78 48 79 74 80 75 81 83 82 76 83 82 84 84 85
REMARK SMILES IDX 81 86 77 87 78 88 79 89 80 90 59 91 60 92 68 93 61 94 67 95
REMARK SMILES IDX 69 96 66 97 62 98 63 99 64 100 65 101
REMARK H PARENT 10 18 89 54 57 65
REMARK Flexibility Score: inf
ROOT
ATOM      1  C   UNL A   1      34.413  33.006  29.539  1.00  0.00     0.188 C 
ENDROOT
BRANCH   1   2
ATOM      2  C   UNL A   1      34.608  32.242  28.203  1.00  0.00     0.188 C 
BRANCH   2   3
ATOM      3  O   UNL A   1      33.776  31.113  28.032  1.00  0.00    -0.376 OA
BRANCH   3   4
ATOM      4  C   UNL A   1      34.175  30.079  27.153  1.00  0.00     0.202 C 
BRANCH   4   5
ATOM      5  C   UNL A   1      33.245  29.628  26.020  1.00  0.00     0.261 C 
BRANCH   5   6
ATOM      6  O   UNL A   1      33.733  28.527  25.234  1.00  0.00    -0.461 OA
BRANCH   6   7
ATOM      7  C   UNL A   1      32.879  27.925  24.369  1.00  0.00     0.335 C 
ATOM      8  O   UNL A   1      33.101  27.812  23.174  1.00  0.00    -0.249 OA
BRANCH   7   9
ATOM      9  C   UNL A   1      31.612  27.430  25.100  1.00  0.00     0.228 C 
ATOM     10  C   UNL A   1      29.933  25.898  24.466  1.00  0.00     0.138 C 
ATOM     11  C   UNL A   1      30.374  25.553  25.874  1.00  0.00     0.037 C 
ATOM     12  O   UNL A   1      30.561  27.150  24.155  1.00  0.00    -0.361 OA
ATOM     13  C   UNL A   1      31.759  26.148  25.916  1.00  0.00     0.047 C 
BRANCH  10  14
ATOM     14  C   UNL A   1      30.345  24.799  23.467  1.00  0.00     0.148 C 
BRANCH  14  15
ATOM     15  N   UNL A   1      31.707  24.954  22.992  1.00  0.00    -0.349 N 
ATOM     16  C   UNL A   1      32.824  24.168  22.891  1.00  0.00     0.251 C 
ATOM     17  O   UNL A   1      33.804  24.739  22.398  1.00  0.00    -0.269 OA
ATOM     18  H   UNL A   1      31.872  25.863  22.652  1.00  0.00     0.163 HD
BRANCH  16  19
ATOM     19  C   UNL A   1      32.969  22.731  23.292  1.00  0.00     0.039 A 
ATOM     20  C   UNL A   1      33.371  20.091  24.353  1.00  0.00    -0.045 A 
ATOM     21  C   UNL A   1      34.141  21.171  24.792  1.00  0.00     0.005 A 
ATOM     22  C   UNL A   1      32.452  20.346  23.326  1.00  0.00     0.005 A 
ATOM     23  C   UNL A   1      33.940  22.460  24.273  1.00  0.00     0.014 A 
ATOM     24  C   UNL A   1      32.252  21.641  22.809  1.00  0.00     0.014 A 
BRANCH  20  25
ATOM     25  C   UNL A   1      33.498  18.685  24.933  1.00  0.00     0.013 C 
ATOM     26  C   UNL A   1      32.199  17.870  24.967  1.00  0.00     0.012 C 
ATOM     27  C   UNL A   1      34.555  17.855  24.191  1.00  0.00     0.012 C 
ENDBRANCH  20  25
ENDBRANCH  16  19
ENDBRANCH  14  15
ENDBRANCH  10  14
ENDBRANCH   7   9
ENDBRANCH   6   7
ENDBRANCH   5   6
ENDBRANCH   4   5
ENDBRANCH   3   4
ENDBRANCH   2   3
ENDBRANCH   1   2
BRANCH   1  28
ATOM     28  O   UNL A   1      35.319  33.984  30.029  1.00  0.00    -0.377 OA
BRANCH  28  29
ATOM     29  C   UNL A   1      35.914  33.786  31.298  1.00  0.00     0.188 C 
BRANCH  29  30
ATOM     30  C   UNL A   1      35.092  32.886  32.237  1.00  0.00     0.188 C 
BRANCH  30  31
ATOM     31  O   UNL A   1      35.805  31.723  32.649  1.00  0.00    -0.376 OA
BRANCH  31  32
ATOM     32  C   UNL A   1      36.506  30.990  31.659  1.00  0.00     0.202 C 
BRANCH  32  33
ATOM     33  C   UNL A   1      38.026  30.778  31.782  1.00  0.00     0.261 C 
BRANCH  33  34
ATOM     34  O   UNL A   1      38.831  31.908  32.146  1.00  0.00    -0.460 OA
BRANCH  34  35
ATOM     35  C   UNL A   1      40.170  31.757  32.172  1.00  0.00     0.338 C 
ATOM     36  O   UNL A   1      40.821  30.909  31.583  1.00  0.00    -0.246 OA
BRANCH  35  37
ATOM     37  C   UNL A   1      40.726  32.935  32.876  1.00  0.00     0.060 A 
ATOM     38  C   UNL A   1      42.082  32.942  33.230  1.00  0.00     0.016 A 
ATOM     39  C   UNL A   1      39.925  34.053  33.126  1.00  0.00     0.016 A 
ATOM     40  C   UNL A   1      42.638  34.064  33.848  1.00  0.00     0.010 A 
ATOM     41  C   UNL A   1      40.473  35.160  33.780  1.00  0.00     0.010 A 
ATOM     42  C   UNL A   1      41.825  35.158  34.168  1.00  0.00    -0.014 A 
BRANCH  42  43
ATOM     43  C   UNL A   1      42.324  36.188  35.112  1.00  0.00     0.031 A 
ATOM     44  C   UNL A   1      42.063  35.973  36.578  1.00  0.00     0.074 A 
ATOM     45  C   UNL A   1      43.001  37.271  34.691  1.00  0.00     0.049 A 
ATOM     46  N   UNL A   1      42.331  36.747  37.596  1.00  0.00    -0.248 NA
ATOM     47  C   UNL A   1      41.403  34.707  36.938  1.00  0.00     0.031 C 
ATOM     48  C   UNL A   1      43.361  37.557  33.304  1.00  0.00     0.029 A 
ATOM     49  N   UNL A   1      43.502  38.338  35.396  1.00  0.00    -0.354 N 
ATOM     50  C   UNL A   1      41.866  36.068  38.716  1.00  0.00     0.074 A 
ATOM     51  C   UNL A   1      41.267  34.836  38.248  1.00  0.00     0.031 C 
ATOM     52  C   UNL A   1      44.013  38.733  33.258  1.00  0.00     0.029 A 
ATOM     53  C   UNL A   1      44.078  39.303  34.603  1.00  0.00     0.049 A 
ATOM     54  H   UNL A   1      43.453  38.405  36.377  1.00  0.00     0.167 HD
ATOM     55  C   UNL A   1      41.935  36.437  40.018  1.00  0.00     0.034 A 
ATOM     56  C   UNL A   1      44.570  40.518  34.926  1.00  0.00     0.034 A 
ATOM     57  C   UNL A   1      42.520  37.676  40.463  1.00  0.00     0.049 A 
ATOM     58  C   UNL A   1      44.548  40.954  36.376  1.00  0.00     0.074 A 
ATOM     59  C   UNL A   1      42.655  38.147  41.757  1.00  0.00     0.029 A 
ATOM     60  N   UNL A   1      43.050  38.652  39.628  1.00  0.00    -0.354 N 
ATOM     61  N   UNL A   1      44.112  40.302  37.430  1.00  0.00    -0.248 NA
ATOM     62  C   UNL A   1      45.089  42.286  36.677  1.00  0.00     0.031 C 
ATOM     63  C   UNL A   1      43.185  39.440  41.698  1.00  0.00     0.029 A 
ATOM     64  C   UNL A   1      43.474  39.739  40.376  1.00  0.00     0.049 A 
ATOM     65  H   UNL A   1      43.114  38.581  38.648  1.00  0.00     0.167 HD
ATOM     66  C   UNL A   1      44.362  41.132  38.522  1.00  0.00     0.074 A 
ATOM     67  C   UNL A   1      44.997  42.324  37.998  1.00  0.00     0.031 C 
ATOM     68  C   UNL A   1      44.099  40.926  39.839  1.00  0.00     0.034 A 
BRANCH  55  69
ATOM     69  C   UNL A   1      41.308  35.516  41.035  1.00  0.00     0.023 A 
ATOM     70  C   UNL A   1      42.013  34.439  41.601  1.00  0.00     0.031 A 
ATOM     71  C   UNL A   1      39.969  35.701  41.422  1.00  0.00     0.131 A 
ATOM     72  C   UNL A   1      41.357  33.552  42.468  1.00  0.00     0.055 A 
ATOM     73  C   UNL A   1      39.347  34.865  42.350  1.00  0.00     0.041 A 
ATOM     74  F   UNL A   1      39.235  36.694  40.893  1.00  0.00    -0.206 F 
ATOM     75  C   UNL A   1      40.038  33.773  42.869  1.00  0.00     0.022 A 
BRANCH  72  76
ATOM     76  S   UNL A   1      42.206  32.022  42.946  1.00  0.00     0.124 S 
ATOM     77  O   UNL A   1      41.292  31.477  43.948  1.00  0.00    -0.237 OA
ATOM     78  O   UNL A   1      42.280  31.293  41.685  1.00  0.00    -0.237 OA
ATOM     79  O   UNL A   1      43.487  32.491  43.472  1.00  0.00    -0.744 OA
ENDBRANCH  72  76
ENDBRANCH  55  69
BRANCH  56  80
ATOM     80  C   UNL A   1      45.077  41.439  33.866  1.00  0.00     0.023 A 
ATOM     81  C   UNL A   1      44.257  42.435  33.310  1.00  0.00     0.031 A 
ATOM     82  C   UNL A   1      46.374  41.292  33.344  1.00  0.00     0.131 A 
ATOM     83  C   UNL A   1      44.724  43.211  32.237  1.00  0.00     0.055 A 
ATOM     84  C   UNL A   1      46.857  42.107  32.317  1.00  0.00     0.041 A 
ATOM     85  F   UNL A   1      47.200  40.351  33.830  1.00  0.00    -0.206 F 
ATOM     86  C   UNL A   1      46.024  43.064  31.748  1.00  0.00     0.022 A 
BRANCH  83  87
ATOM     87  S   UNL A   1      43.573  44.351  31.421  1.00  0.00     0.124 S 
ATOM     88  O   UNL A   1      43.421  45.392  32.431  1.00  0.00    -0.237 OA
ATOM     89  O   UNL A   1      44.316  44.723  30.221  1.00  0.00    -0.237 OA
ATOM     90  O   UNL A   1      42.388  43.529  31.187  1.00  0.00    -0.744 OA
ENDBRANCH  83  87
ENDBRANCH  56  80
BRANCH  68  91
ATOM     91  C   UNL A   1      44.549  41.991  40.813  1.00  0.00     0.023 A 
ATOM     92  C   UNL A   1      45.819  41.964  41.414  1.00  0.00     0.031 A 
ATOM     93  C   UNL A   1      43.687  43.054  41.140  1.00  0.00     0.131 A 
ATOM     94  C   UNL A   1      46.170  42.949  42.350  1.00  0.00     0.055 A 
ATOM     95  C   UNL A   1      44.067  44.069  42.019  1.00  0.00     0.041 A 
ATOM     96  F   UNL A   1      42.459  43.130  40.601  1.00  0.00    -0.206 F 
ATOM     97  C   UNL A   1      45.311  44.012  42.640  1.00  0.00     0.022 A 
BRANCH  94  98
ATOM     98  S   UNL A   1      47.728  42.770  43.262  1.00  0.00     0.124 S 
ATOM     99  O   UNL A   1      48.300  44.109  43.149  1.00  0.00    -0.237 OA
ATOM    100  O   UNL A   1      47.269  42.383  44.592  1.00  0.00    -0.237 OA
ATOM    101  O   UNL A   1      48.439  41.728  42.525  1.00  0.00    -0.744 OA
ENDBRANCH  94  98
ENDBRANCH  68  91
ENDBRANCH  42  43
ENDBRANCH  35  37
ENDBRANCH  34  35
ENDBRANCH  33  34
ENDBRANCH  32  33
ENDBRANCH  31  32
ENDBRANCH  30  31
ENDBRANCH  29  30
ENDBRANCH  28  29
ENDBRANCH   1  28
TORSDOF 27
ENDMDL
