MODEL 1
REMARK VINA RESULT:      -8.0      0.000      0.000
REMARK SMILES O=C(OCCOCCOCCOCCOC(=O)c1cc(SC[C@H]2CCOC2)ccn1)c1ccc(-c2c3nc(c(-c4cc(S(=O)(=O)[O-])ccc4F)c4ccc([nH]4)c(-c4cc(S(=O)(=O)[O-])ccc4F)c4nc(c(-c5cc(S(=O)(=O)[O-])ccc5F)c5ccc2[nH]5)C=C4)C=C3)cc1
REMARK SMILES IDX 9 1 8 2 7 3 6 4 5 5 4 6 3 7 2 8 1 9 31 10 32 11 93 12 33 13
REMARK SMILES IDX 92 14 34 15 35 16 36 17 86 18 37 19 91 20 85 21 87 22 38 23
REMARK SMILES IDX 90 24 84 25 83 26 39 28 71 29 51 30 70 31 52 32 55 33 69 34
REMARK SMILES IDX 88 35 53 36 54 37 68 39 89 40 56 41 40 42 41 43 49 44 42 45
REMARK SMILES IDX 48 46 50 47 47 48 43 49 44 50 45 51 46 52 72 53 73 54 81 55
REMARK SMILES IDX 74 56 80 57 82 58 79 59 75 60 76 61 77 62 78 63 57 64 58 65
REMARK SMILES IDX 66 66 59 67 65 68 67 69 64 70 60 71 61 72 62 73 63 74 10 75
REMARK SMILES IDX 11 76 12 77 13 78 14 79 15 80 16 81 17 82 18 83 19 84 30 85
REMARK SMILES IDX 20 86 29 87 28 88 21 89 22 90 23 91 24 92 27 93 25 94 26 95
REMARK H PARENT 87 27 55 38
REMARK Flexibility Score: inf
ROOT
ATOM      1  O   UNL A   1      40.641  26.739  26.614  1.00  0.00    -0.377 OA
ENDROOT
BRANCH   1   2
ATOM      2  C   UNL A   1      39.724  27.292  27.560  1.00  0.00     0.188 C 
BRANCH   2   3
ATOM      3  C   UNL A   1      39.774  28.813  27.712  1.00  0.00     0.188 C 
BRANCH   3   4
ATOM      4  O   UNL A   1      38.511  29.393  27.388  1.00  0.00    -0.376 OA
BRANCH   4   5
ATOM      5  C   UNL A   1      37.543  29.411  28.437  1.00  0.00     0.202 C 
BRANCH   5   6
ATOM      6  C   UNL A   1      36.958  30.791  28.741  1.00  0.00     0.261 C 
BRANCH   6   7
ATOM      7  O   UNL A   1      36.766  30.996  30.146  1.00  0.00    -0.460 OA
BRANCH   7   8
ATOM      8  C   UNL A   1      36.401  32.148  30.764  1.00  0.00     0.338 C 
ATOM      9  O   UNL A   1      35.524  32.832  30.235  1.00  0.00    -0.246 OA
BRANCH   8  10
ATOM     10  C   UNL A   1      36.992  32.642  32.049  1.00  0.00     0.060 A 
ATOM     11  C   UNL A   1      36.605  33.792  32.745  1.00  0.00     0.016 A 
ATOM     12  C   UNL A   1      37.977  31.828  32.632  1.00  0.00     0.016 A 
ATOM     13  C   UNL A   1      37.208  34.167  33.940  1.00  0.00     0.010 A 
ATOM     14  C   UNL A   1      38.582  32.185  33.839  1.00  0.00     0.010 A 
ATOM     15  C   UNL A   1      38.218  33.378  34.475  1.00  0.00    -0.014 A 
BRANCH  15  16
ATOM     16  C   UNL A   1      39.042  33.931  35.563  1.00  0.00     0.031 A 
ATOM     17  C   UNL A   1      38.635  33.587  36.961  1.00  0.00     0.074 A 
ATOM     18  C   UNL A   1      40.149  34.641  35.298  1.00  0.00     0.049 A 
ATOM     19  N   UNL A   1      39.042  34.079  38.096  1.00  0.00    -0.248 NA
ATOM     20  C   UNL A   1      37.609  32.538  37.086  1.00  0.00     0.031 C 
ATOM     21  C   UNL A   1      40.695  34.882  33.962  1.00  0.00     0.029 A 
ATOM     22  N   UNL A   1      41.011  35.291  36.140  1.00  0.00    -0.354 N 
ATOM     23  C   UNL A   1      38.286  33.436  39.071  1.00  0.00     0.074 A 
ATOM     24  C   UNL A   1      37.394  32.526  38.389  1.00  0.00     0.031 C 
ATOM     25  C   UNL A   1      41.790  35.652  34.074  1.00  0.00     0.029 A 
ATOM     26  C   UNL A   1      41.968  36.021  35.475  1.00  0.00     0.049 A 
ATOM     27  H   UNL A   1      40.951  35.242  37.121  1.00  0.00     0.167 HD
ATOM     28  C   UNL A   1      38.333  33.619  40.412  1.00  0.00     0.034 A 
ATOM     29  C   UNL A   1      42.834  36.936  35.952  1.00  0.00     0.034 A 
ATOM     30  C   UNL A   1      39.232  34.563  41.024  1.00  0.00     0.049 A 
ATOM     31  C   UNL A   1      42.804  37.217  37.434  1.00  0.00     0.074 A 
ATOM     32  C   UNL A   1      39.353  34.919  42.353  1.00  0.00     0.029 A 
ATOM     33  N   UNL A   1      40.169  35.319  40.320  1.00  0.00    -0.354 N 
ATOM     34  N   UNL A   1      42.029  36.685  38.356  1.00  0.00    -0.248 NA
ATOM     35  C   UNL A   1      43.744  38.219  37.943  1.00  0.00     0.031 C 
ATOM     36  C   UNL A   1      40.311  35.937  42.441  1.00  0.00     0.029 A 
ATOM     37  C   UNL A   1      40.852  36.159  41.181  1.00  0.00     0.049 A 
ATOM     38  H   UNL A   1      40.322  35.262  39.349  1.00  0.00     0.167 HD
ATOM     39  C   UNL A   1      42.404  37.270  39.559  1.00  0.00     0.074 A 
ATOM     40  C   UNL A   1      43.477  38.198  39.243  1.00  0.00     0.031 C 
ATOM     41  C   UNL A   1      41.918  37.064  40.811  1.00  0.00     0.034 A 
BRANCH  28  42
ATOM     42  C   UNL A   1      37.301  32.878  41.232  1.00  0.00     0.023 A 
ATOM     43  C   UNL A   1      36.022  33.411  41.481  1.00  0.00     0.031 A 
ATOM     44  C   UNL A   1      37.658  31.695  41.905  1.00  0.00     0.131 A 
ATOM     45  C   UNL A   1      35.205  32.840  42.472  1.00  0.00     0.055 A 
ATOM     46  C   UNL A   1      36.797  31.073  42.812  1.00  0.00     0.041 A 
ATOM     47  F   UNL A   1      38.872  31.151  41.734  1.00  0.00    -0.206 F 
ATOM     48  C   UNL A   1      35.574  31.660  43.121  1.00  0.00     0.022 A 
BRANCH  45  49
ATOM     49  S   UNL A   1      33.768  33.784  43.059  1.00  0.00     0.124 S 
ATOM     50  O   UNL A   1      33.364  34.492  41.845  1.00  0.00    -0.237 OA
ATOM     51  O   UNL A   1      32.865  32.735  43.515  1.00  0.00    -0.237 OA
ATOM     52  O   UNL A   1      34.322  34.635  44.110  1.00  0.00    -0.744 OA
ENDBRANCH  45  49
ENDBRANCH  28  42
BRANCH  29  53
ATOM     53  C   UNL A   1      43.704  37.702  35.012  1.00  0.00     0.023 A 
ATOM     54  C   UNL A   1      43.247  38.848  34.343  1.00  0.00     0.031 A 
ATOM     55  C   UNL A   1      45.035  37.298  34.784  1.00  0.00     0.131 A 
ATOM     56  C   UNL A   1      44.107  39.543  33.475  1.00  0.00     0.055 A 
ATOM     57  C   UNL A   1      45.899  38.017  33.957  1.00  0.00     0.041 A 
ATOM     58  F   UNL A   1      45.527  36.208  35.392  1.00  0.00    -0.206 F 
ATOM     59  C   UNL A   1      45.435  39.144  33.291  1.00  0.00     0.022 A 
BRANCH  56  60
ATOM     60  S   UNL A   1      43.459  40.960  32.545  1.00  0.00     0.124 S 
ATOM     61  O   UNL A   1      43.296  40.392  31.212  1.00  0.00    -0.237 OA
ATOM     62  O   UNL A   1      42.229  41.262  33.269  1.00  0.00    -0.237 OA
ATOM     63  O   UNL A   1      44.514  41.963  32.670  1.00  0.00    -0.744 OA
ENDBRANCH  56  60
ENDBRANCH  29  53
BRANCH  41  64
ATOM     64  C   UNL A   1      42.589  37.808  41.935  1.00  0.00     0.023 A 
ATOM     65  C   UNL A   1      43.694  37.276  42.618  1.00  0.00     0.031 A 
ATOM     66  C   UNL A   1      42.143  39.097  42.277  1.00  0.00     0.131 A 
ATOM     67  C   UNL A   1      44.304  38.027  43.634  1.00  0.00     0.055 A 
ATOM     68  C   UNL A   1      42.786  39.858  43.251  1.00  0.00     0.041 A 
ATOM     69  F   UNL A   1      41.091  39.644  41.647  1.00  0.00    -0.206 F 
ATOM     70  C   UNL A   1      43.870  39.321  43.939  1.00  0.00     0.022 A 
BRANCH  67  71
ATOM     71  S   UNL A   1      45.650  37.274  44.586  1.00  0.00     0.124 S 
ATOM     72  O   UNL A   1      46.715  38.262  44.437  1.00  0.00    -0.237 OA
ATOM     73  O   UNL A   1      45.068  37.161  45.919  1.00  0.00    -0.237 OA
ATOM     74  O   UNL A   1      45.883  36.004  43.903  1.00  0.00    -0.744 OA
ENDBRANCH  67  71
ENDBRANCH  41  64
ENDBRANCH  15  16
ENDBRANCH   8  10
ENDBRANCH   7   8
ENDBRANCH   6   7
ENDBRANCH   5   6
ENDBRANCH   4   5
ENDBRANCH   3   4
ENDBRANCH   2   3
ENDBRANCH   1   2
BRANCH   1  75
ATOM     75  C   UNL A   1      40.619  25.320  26.463  1.00  0.00     0.188 C 
BRANCH  75  76
ATOM     76  C   UNL A   1      40.153  24.445  27.650  1.00  0.00     0.188 C 
BRANCH  76  77
ATOM     77  O   UNL A   1      38.962  23.712  27.407  1.00  0.00    -0.376 OA
BRANCH  77  78
ATOM     78  C   UNL A   1      38.386  23.892  26.116  1.00  0.00     0.202 C 
BRANCH  78  79
ATOM     79  C   UNL A   1      37.276  22.892  25.769  1.00  0.00     0.261 C 
BRANCH  79  80
ATOM     80  O   UNL A   1      36.384  23.319  24.723  1.00  0.00    -0.459 OA
BRANCH  80  81
ATOM     81  C   UNL A   1      35.208  23.891  25.086  1.00  0.00     0.357 C 
ATOM     82  O   UNL A   1      35.058  24.889  25.767  1.00  0.00    -0.244 OA
BRANCH  81  83
ATOM     83  C   UNL A   1      34.142  23.146  24.356  1.00  0.00     0.149 A 
ATOM     84  C   UNL A   1      33.878  21.825  24.700  1.00  0.00     0.051 A 
ATOM     85  N   UNL A   1      33.620  23.766  23.264  1.00  0.00    -0.249 NA
ATOM     86  C   UNL A   1      33.051  21.080  23.866  1.00  0.00     0.011 A 
ATOM     87  C   UNL A   1      32.834  23.020  22.466  1.00  0.00     0.113 A 
ATOM     88  C   UNL A   1      32.531  21.692  22.719  1.00  0.00     0.035 A 
BRANCH  86  89
ATOM     89  S   UNL A   1      32.551  19.391  24.150  1.00  0.00    -0.126 SA
BRANCH  89  90
ATOM     90  C   UNL A   1      34.076  18.497  24.621  1.00  0.00     0.081 C 
BRANCH  90  91
ATOM     91  C   UNL A   1      33.791  17.207  25.383  1.00  0.00     0.027 C 
ATOM     92  C   UNL A   1      32.502  16.496  25.020  1.00  0.00     0.035 C 
ATOM     93  C   UNL A   1      34.808  16.122  25.058  1.00  0.00     0.164 C 
ATOM     94  C   UNL A   1      32.775  15.085  25.504  1.00  0.00     0.160 C 
ATOM     95  O   UNL A   1      34.189  14.868  25.369  1.00  0.00    -0.381 OA
ENDBRANCH  90  91
ENDBRANCH  89  90
ENDBRANCH  86  89
ENDBRANCH  81  83
ENDBRANCH  80  81
ENDBRANCH  79  80
ENDBRANCH  78  79
ENDBRANCH  77  78
ENDBRANCH  76  77
ENDBRANCH  75  76
ENDBRANCH   1  75
TORSDOF 26
ENDMDL
MODEL 2
REMARK VINA RESULT:      -7.6      7.024     13.426
REMARK SMILES O=C(OCCOCCOCCOCCOC(=O)c1cc(SC[C@H]2CCOC2)ccn1)c1ccc(-c2c3nc(c(-c4cc(S(=O)(=O)[O-])ccc4F)c4ccc([nH]4)c(-c4cc(S(=O)(=O)[O-])ccc4F)c4nc(c(-c5cc(S(=O)(=O)[O-])ccc5F)c5ccc2[nH]5)C=C4)C=C3)cc1
REMARK SMILES IDX 9 1 8 2 7 3 6 4 5 5 4 6 3 7 2 8 1 9 31 10 32 11 93 12 33 13
REMARK SMILES IDX 92 14 34 15 35 16 36 17 86 18 37 19 91 20 85 21 87 22 38 23
REMARK SMILES IDX 90 24 84 25 83 26 39 28 71 29 51 30 70 31 52 32 55 33 69 34
REMARK SMILES IDX 88 35 53 36 54 37 68 39 89 40 56 41 40 42 41 43 49 44 42 45
REMARK SMILES IDX 48 46 50 47 47 48 43 49 44 50 45 51 46 52 72 53 73 54 81 55
REMARK SMILES IDX 74 56 80 57 82 58 79 59 75 60 76 61 77 62 78 63 57 64 58 65
REMARK SMILES IDX 66 66 59 67 65 68 67 69 64 70 60 71 61 72 62 73 63 74 10 75
REMARK SMILES IDX 11 76 12 77 13 78 14 79 15 80 16 81 17 82 18 83 19 84 30 85
REMARK SMILES IDX 20 86 29 87 28 88 21 89 22 90 23 91 24 92 27 93 25 94 26 95
REMARK H PARENT 87 27 55 38
REMARK Flexibility Score: inf
ROOT
ATOM      1  O   UNL A   1      35.943  31.156  30.889  1.00  0.00    -0.377 OA
ENDROOT
BRANCH   1   2
ATOM      2  C   UNL A   1      35.537  32.446  31.349  1.00  0.00     0.188 C 
BRANCH   2   3
ATOM      3  C   UNL A   1      36.291  32.976  32.570  1.00  0.00     0.188 C 
BRANCH   3   4
ATOM      4  O   UNL A   1      35.496  32.848  33.748  1.00  0.00    -0.376 OA
BRANCH   4   5
ATOM      5  C   UNL A   1      35.693  33.847  34.748  1.00  0.00     0.202 C 
BRANCH   5   6
ATOM      6  C   UNL A   1      36.916  33.624  35.639  1.00  0.00     0.261 C 
BRANCH   6   7
ATOM      7  O   UNL A   1      37.184  32.232  35.845  1.00  0.00    -0.460 OA
BRANCH   7   8
ATOM      8  C   UNL A   1      38.387  31.658  36.101  1.00  0.00     0.338 C 
ATOM      9  O   UNL A   1      38.642  31.350  37.266  1.00  0.00    -0.246 OA
BRANCH   8  10
ATOM     10  C   UNL A   1      39.426  31.370  35.060  1.00  0.00     0.060 A 
ATOM     11  C   UNL A   1      39.205  30.752  33.825  1.00  0.00     0.016 A 
ATOM     12  C   UNL A   1      40.723  31.830  35.336  1.00  0.00     0.016 A 
ATOM     13  C   UNL A   1      40.235  30.534  32.917  1.00  0.00     0.010 A 
ATOM     14  C   UNL A   1      41.765  31.630  34.427  1.00  0.00     0.010 A 
ATOM     15  C   UNL A   1      41.523  30.948  33.228  1.00  0.00    -0.014 A 
BRANCH  15  16
ATOM     16  C   UNL A   1      42.640  30.453  32.407  1.00  0.00     0.031 A 
ATOM     17  C   UNL A   1      43.096  31.333  31.285  1.00  0.00     0.074 A 
ATOM     18  C   UNL A   1      43.263  29.304  32.709  1.00  0.00     0.049 A 
ATOM     19  N   UNL A   1      43.905  31.077  30.298  1.00  0.00    -0.248 NA
ATOM     20  C   UNL A   1      42.545  32.698  31.282  1.00  0.00     0.031 C 
ATOM     21  C   UNL A   1      42.977  28.473  33.879  1.00  0.00     0.029 A 
ATOM     22  N   UNL A   1      44.263  28.636  32.055  1.00  0.00    -0.354 N 
ATOM     23  C   UNL A   1      43.922  32.233  29.524  1.00  0.00     0.074 A 
ATOM     24  C   UNL A   1      43.037  33.184  30.157  1.00  0.00     0.031 C 
ATOM     25  C   UNL A   1      43.770  27.389  33.846  1.00  0.00     0.029 A 
ATOM     26  C   UNL A   1      44.553  27.414  32.615  1.00  0.00     0.049 A 
ATOM     27  H   UNL A   1      44.728  28.995  31.265  1.00  0.00     0.167 HD
ATOM     28  C   UNL A   1      44.608  32.454  28.377  1.00  0.00     0.034 A 
ATOM     29  C   UNL A   1      45.311  26.409  32.135  1.00  0.00     0.034 A 
ATOM     30  C   UNL A   1      45.456  31.450  27.788  1.00  0.00     0.049 A 
ATOM     31  C   UNL A   1      45.983  26.620  30.801  1.00  0.00     0.074 A 
ATOM     32  C   UNL A   1      46.159  31.488  26.599  1.00  0.00     0.029 A 
ATOM     33  N   UNL A   1      45.703  30.202  28.359  1.00  0.00    -0.354 N 
ATOM     34  N   UNL A   1      45.932  27.672  30.012  1.00  0.00    -0.248 NA
ATOM     35  C   UNL A   1      46.799  25.518  30.283  1.00  0.00     0.031 C 
ATOM     36  C   UNL A   1      46.770  30.241  26.420  1.00  0.00     0.029 A 
ATOM     37  C   UNL A   1      46.522  29.452  27.536  1.00  0.00     0.049 A 
ATOM     38  H   UNL A   1      45.344  29.899  29.225  1.00  0.00     0.167 HD
ATOM     39  C   UNL A   1      46.729  27.370  28.914  1.00  0.00     0.074 A 
ATOM     40  C   UNL A   1      47.249  26.033  29.145  1.00  0.00     0.031 C 
ATOM     41  C   UNL A   1      47.014  28.121  27.818  1.00  0.00     0.034 A 
BRANCH  28  42
ATOM     42  C   UNL A   1      44.338  33.763  27.671  1.00  0.00     0.023 A 
ATOM     43  C   UNL A   1      44.528  35.006  28.304  1.00  0.00     0.031 A 
ATOM     44  C   UNL A   1      43.732  33.763  26.401  1.00  0.00     0.131 A 
ATOM     45  C   UNL A   1      44.000  36.174  27.728  1.00  0.00     0.055 A 
ATOM     46  C   UNL A   1      43.303  34.942  25.787  1.00  0.00     0.041 A 
ATOM     47  F   UNL A   1      43.496  32.610  25.756  1.00  0.00    -0.206 F 
ATOM     48  C   UNL A   1      43.410  36.153  26.463  1.00  0.00     0.022 A 
BRANCH  45  49
ATOM     49  S   UNL A   1      43.888  37.671  28.753  1.00  0.00     0.124 S 
ATOM     50  O   UNL A   1      44.974  38.483  28.207  1.00  0.00    -0.237 OA
ATOM     51  O   UNL A   1      42.537  38.143  28.478  1.00  0.00    -0.237 OA
ATOM     52  O   UNL A   1      44.115  37.176  30.109  1.00  0.00    -0.744 OA
ENDBRANCH  45  49
ENDBRANCH  28  42
BRANCH  29  53
ATOM     53  C   UNL A   1      45.378  25.110  32.867  1.00  0.00     0.023 A 
ATOM     54  C   UNL A   1      46.204  24.930  33.987  1.00  0.00     0.031 A 
ATOM     55  C   UNL A   1      44.584  24.019  32.456  1.00  0.00     0.131 A 
ATOM     56  C   UNL A   1      46.224  23.691  34.651  1.00  0.00     0.055 A 
ATOM     57  C   UNL A   1      44.574  22.806  33.146  1.00  0.00     0.041 A 
ATOM     58  F   UNL A   1      43.778  24.131  31.389  1.00  0.00    -0.206 F 
ATOM     59  C   UNL A   1      45.402  22.634  34.247  1.00  0.00     0.022 A 
BRANCH  56  60
ATOM     60  S   UNL A   1      47.378  23.454  36.032  1.00  0.00     0.124 S 
ATOM     61  O   UNL A   1      47.845  22.092  35.800  1.00  0.00    -0.237 OA
ATOM     62  O   UNL A   1      48.351  24.515  35.800  1.00  0.00    -0.237 OA
ATOM     63  O   UNL A   1      46.536  23.631  37.214  1.00  0.00    -0.744 OA
ENDBRANCH  56  60
ENDBRANCH  29  53
BRANCH  41  64
ATOM     64  C   UNL A   1      47.980  27.535  26.823  1.00  0.00     0.023 A 
ATOM     65  C   UNL A   1      49.368  27.701  26.953  1.00  0.00     0.031 A 
ATOM     66  C   UNL A   1      47.494  26.749  25.763  1.00  0.00     0.131 A 
ATOM     67  C   UNL A   1      50.226  27.105  26.017  1.00  0.00     0.055 A 
ATOM     68  C   UNL A   1      48.353  26.117  24.868  1.00  0.00     0.041 A 
ATOM     69  F   UNL A   1      46.174  26.563  25.603  1.00  0.00    -0.206 F 
ATOM     70  C   UNL A   1      49.728  26.297  24.990  1.00  0.00     0.022 A 
BRANCH  67  71
ATOM     71  S   UNL A   1      52.005  27.433  26.132  1.00  0.00     0.124 S 
ATOM     72  O   UNL A   1      52.060  28.876  25.916  1.00  0.00    -0.237 OA
ATOM     73  O   UNL A   1      52.322  26.978  27.480  1.00  0.00    -0.237 OA
ATOM     74  O   UNL A   1      52.572  26.624  25.056  1.00  0.00    -0.744 OA
ENDBRANCH  67  71
ENDBRANCH  41  64
ENDBRANCH  15  16
ENDBRANCH   8  10
ENDBRANCH   7   8
ENDBRANCH   6   7
ENDBRANCH   5   6
ENDBRANCH   4   5
ENDBRANCH   3   4
ENDBRANCH   2   3
ENDBRANCH   1   2
BRANCH   1  75
ATOM     75  C   UNL A   1      36.759  31.127  29.718  1.00  0.00     0.188 C 
BRANCH  75  76
ATOM     76  C   UNL A   1      37.680  29.909  29.475  1.00  0.00     0.188 C 
BRANCH  76  77
ATOM     77  O   UNL A   1      38.409  29.957  28.257  1.00  0.00    -0.376 OA
BRANCH  77  78
ATOM     78  C   UNL A   1      39.030  28.735  27.869  1.00  0.00     0.202 C 
BRANCH  78  79
ATOM     79  C   UNL A   1      40.556  28.720  28.024  1.00  0.00     0.261 C 
BRANCH  79  80
ATOM     80  O   UNL A   1      41.205  27.550  27.493  1.00  0.00    -0.459 OA
BRANCH  80  81
ATOM     81  C   UNL A   1      41.494  26.540  28.351  1.00  0.00     0.357 C 
ATOM     82  O   UNL A   1      41.931  26.640  29.481  1.00  0.00    -0.244 OA
BRANCH  81  83
ATOM     83  C   UNL A   1      41.022  25.289  27.690  1.00  0.00     0.149 A 
ATOM     84  C   UNL A   1      39.753  25.255  27.121  1.00  0.00     0.051 A 
ATOM     85  N   UNL A   1      41.809  24.192  27.854  1.00  0.00    -0.249 NA
ATOM     86  C   UNL A   1      39.243  24.026  26.718  1.00  0.00     0.011 A 
ATOM     87  C   UNL A   1      41.288  23.013  27.467  1.00  0.00     0.113 A 
ATOM     88  C   UNL A   1      40.027  22.882  26.909  1.00  0.00     0.035 A 
BRANCH  86  89
ATOM     89  S   UNL A   1      37.665  23.773  25.926  1.00  0.00    -0.126 SA
BRANCH  89  90
ATOM     90  C   UNL A   1      37.557  21.976  25.603  1.00  0.00     0.081 C 
BRANCH  90  91
ATOM     91  C   UNL A   1      36.123  21.455  25.644  1.00  0.00     0.027 C 
ATOM     92  C   UNL A   1      35.122  22.207  24.790  1.00  0.00     0.035 C 
ATOM     93  C   UNL A   1      36.011  20.062  25.041  1.00  0.00     0.164 C 
ATOM     94  C   UNL A   1      34.016  21.183  24.627  1.00  0.00     0.160 C 
ATOM     95  O   UNL A   1      34.645  19.891  24.647  1.00  0.00    -0.381 OA
ENDBRANCH  90  91
ENDBRANCH  89  90
ENDBRANCH  86  89
ENDBRANCH  81  83
ENDBRANCH  80  81
ENDBRANCH  79  80
ENDBRANCH  78  79
ENDBRANCH  77  78
ENDBRANCH  76  77
ENDBRANCH  75  76
ENDBRANCH   1  75
TORSDOF 26
ENDMDL
MODEL 3
REMARK VINA RESULT:      -7.5      7.695     15.139
REMARK SMILES O=C(OCCOCCOCCOCCOC(=O)c1cc(SC[C@H]2CCOC2)ccn1)c1ccc(-c2c3nc(c(-c4cc(S(=O)(=O)[O-])ccc4F)c4ccc([nH]4)c(-c4cc(S(=O)(=O)[O-])ccc4F)c4nc(c(-c5cc(S(=O)(=O)[O-])ccc5F)c5ccc2[nH]5)C=C4)C=C3)cc1
REMARK SMILES IDX 9 1 8 2 7 3 6 4 5 5 4 6 3 7 2 8 1 9 31 10 32 11 93 12 33 13
REMARK SMILES IDX 92 14 34 15 35 16 36 17 86 18 37 19 91 20 85 21 87 22 38 23
REMARK SMILES IDX 90 24 84 25 83 26 39 28 71 29 51 30 70 31 52 32 55 33 69 34
REMARK SMILES IDX 88 35 53 36 54 37 68 39 89 40 56 41 40 42 41 43 49 44 42 45
REMARK SMILES IDX 48 46 50 47 47 48 43 49 44 50 45 51 46 52 72 53 73 54 81 55
REMARK SMILES IDX 74 56 80 57 82 58 79 59 75 60 76 61 77 62 78 63 57 64 58 65
REMARK SMILES IDX 66 66 59 67 65 68 67 69 64 70 60 71 61 72 62 73 63 74 10 75
REMARK SMILES IDX 11 76 12 77 13 78 14 79 15 80 16 81 17 82 18 83 19 84 30 85
REMARK SMILES IDX 20 86 29 87 28 88 21 89 22 90 23 91 24 92 27 93 25 94 26 95
REMARK H PARENT 87 27 55 38
REMARK Flexibility Score: inf
ROOT
ATOM      1  O   UNL A   1      41.642  39.781  26.894  1.00  0.00    -0.377 OA
ENDROOT
BRANCH   1   2
ATOM      2  C   UNL A   1      42.487  38.660  26.632  1.00  0.00     0.188 C 
BRANCH   2   3
ATOM      3  C   UNL A   1      43.744  38.567  27.498  1.00  0.00     0.188 C 
BRANCH   3   4
ATOM      4  O   UNL A   1      44.915  38.513  26.684  1.00  0.00    -0.376 OA
BRANCH   4   5
ATOM      5  C   UNL A   1      45.783  37.402  26.910  1.00  0.00     0.202 C 
BRANCH   5   6
ATOM      6  C   UNL A   1      45.215  36.050  26.475  1.00  0.00     0.261 C 
BRANCH   6   7
ATOM      7  O   UNL A   1      45.153  35.119  27.562  1.00  0.00    -0.460 OA
BRANCH   7   8
ATOM      8  C   UNL A   1      45.847  35.171  28.727  1.00  0.00     0.338 C 
ATOM      9  O   UNL A   1      47.073  35.280  28.663  1.00  0.00    -0.246 OA
BRANCH   8  10
ATOM     10  C   UNL A   1      45.223  35.109  30.088  1.00  0.00     0.060 A 
ATOM     11  C   UNL A   1      45.301  34.036  30.982  1.00  0.00     0.016 A 
ATOM     12  C   UNL A   1      44.560  36.270  30.519  1.00  0.00     0.016 A 
ATOM     13  C   UNL A   1      44.693  34.074  32.231  1.00  0.00     0.010 A 
ATOM     14  C   UNL A   1      43.956  36.327  31.777  1.00  0.00     0.010 A 
ATOM     15  C   UNL A   1      43.995  35.210  32.620  1.00  0.00    -0.014 A 
BRANCH  15  16
ATOM     16  C   UNL A   1      43.118  35.129  33.800  1.00  0.00     0.031 A 
ATOM     17  C   UNL A   1      43.734  35.455  35.125  1.00  0.00     0.074 A 
ATOM     18  C   UNL A   1      41.812  34.852  33.672  1.00  0.00     0.049 A 
ATOM     19  N   UNL A   1      43.270  35.281  36.329  1.00  0.00    -0.248 NA
ATOM     20  C   UNL A   1      45.076  36.058  35.072  1.00  0.00     0.031 C 
ATOM     21  C   UNL A   1      41.109  34.678  32.400  1.00  0.00     0.029 A 
ATOM     22  N   UNL A   1      40.844  34.666  34.622  1.00  0.00    -0.354 N 
ATOM     23  C   UNL A   1      44.283  35.706  37.182  1.00  0.00     0.074 A 
ATOM     24  C   UNL A   1      45.385  36.139  36.353  1.00  0.00     0.031 C 
ATOM     25  C   UNL A   1      39.823  34.385  32.652  1.00  0.00     0.029 A 
ATOM     26  C   UNL A   1      39.638  34.271  34.095  1.00  0.00     0.049 A 
ATOM     27  H   UNL A   1      40.997  34.801  35.585  1.00  0.00     0.167 HD
ATOM     28  C   UNL A   1      44.283  35.708  38.536  1.00  0.00     0.034 A 
ATOM     29  C   UNL A   1      38.540  33.801  34.721  1.00  0.00     0.034 A 
ATOM     30  C   UNL A   1      43.155  35.239  39.300  1.00  0.00     0.049 A 
ATOM     31  C   UNL A   1      38.587  33.700  36.225  1.00  0.00     0.074 A 
ATOM     32  C   UNL A   1      43.021  35.107  40.669  1.00  0.00     0.029 A 
ATOM     33  N   UNL A   1      41.955  34.807  38.737  1.00  0.00    -0.354 N 
ATOM     34  N   UNL A   1      39.574  34.010  37.040  1.00  0.00    -0.248 NA
ATOM     35  C   UNL A   1      37.393  33.180  36.897  1.00  0.00     0.031 C 
ATOM     36  C   UNL A   1      41.771  34.532  40.926  1.00  0.00     0.029 A 
ATOM     37  C   UNL A   1      41.086  34.383  39.726  1.00  0.00     0.049 A 
ATOM     38  H   UNL A   1      41.755  34.805  37.773  1.00  0.00     0.167 HD
ATOM     39  C   UNL A   1      39.111  33.745  38.323  1.00  0.00     0.074 A 
ATOM     40  C   UNL A   1      37.754  33.250  38.172  1.00  0.00     0.031 C 
ATOM     41  C   UNL A   1      39.739  33.899  39.519  1.00  0.00     0.034 A 
BRANCH  28  42
ATOM     42  C   UNL A   1      45.575  36.105  39.212  1.00  0.00     0.023 A 
ATOM     43  C   UNL A   1      45.878  37.445  39.515  1.00  0.00     0.031 A 
ATOM     44  C   UNL A   1      46.585  35.146  39.411  1.00  0.00     0.131 A 
ATOM     45  C   UNL A   1      47.189  37.805  39.871  1.00  0.00     0.055 A 
ATOM     46  C   UNL A   1      47.857  35.497  39.868  1.00  0.00     0.041 A 
ATOM     47  F   UNL A   1      46.371  33.855  39.115  1.00  0.00    -0.206 F 
ATOM     48  C   UNL A   1      48.174  36.836  40.073  1.00  0.00     0.022 A 
BRANCH  45  49
ATOM     49  S   UNL A   1      47.644  39.564  39.841  1.00  0.00     0.124 S 
ATOM     50  O   UNL A   1      49.013  39.506  39.333  1.00  0.00    -0.237 OA
ATOM     51  O   UNL A   1      46.652  40.131  38.936  1.00  0.00    -0.237 OA
ATOM     52  O   UNL A   1      47.524  39.973  41.238  1.00  0.00    -0.744 OA
ENDBRANCH  45  49
ENDBRANCH  28  42
BRANCH  29  53
ATOM     53  C   UNL A   1      37.380  33.307  33.922  1.00  0.00     0.023 A 
ATOM     54  C   UNL A   1      36.308  34.144  33.575  1.00  0.00     0.031 A 
ATOM     55  C   UNL A   1      37.342  31.972  33.472  1.00  0.00     0.131 A 
ATOM     56  C   UNL A   1      35.242  33.636  32.811  1.00  0.00     0.055 A 
ATOM     57  C   UNL A   1      36.304  31.485  32.676  1.00  0.00     0.041 A 
ATOM     58  F   UNL A   1      38.336  31.124  33.777  1.00  0.00    -0.206 F 
ATOM     59  C   UNL A   1      35.242  32.317  32.346  1.00  0.00     0.022 A 
BRANCH  56  60
ATOM     60  S   UNL A   1      33.821  34.710  32.465  1.00  0.00     0.124 S 
ATOM     61  O   UNL A   1      33.797  34.714  31.008  1.00  0.00    -0.237 OA
ATOM     62  O   UNL A   1      32.733  33.996  33.124  1.00  0.00    -0.237 OA
ATOM     63  O   UNL A   1      34.193  35.980  33.086  1.00  0.00    -0.744 OA
ENDBRANCH  56  60
ENDBRANCH  29  53
BRANCH  41  64
ATOM     64  C   UNL A   1      38.937  33.589  40.755  1.00  0.00     0.023 A 
ATOM     65  C   UNL A   1      38.995  32.333  41.379  1.00  0.00     0.031 A 
ATOM     66  C   UNL A   1      38.151  34.596  41.342  1.00  0.00     0.131 A 
ATOM     67  C   UNL A   1      38.254  32.109  42.549  1.00  0.00     0.055 A 
ATOM     68  C   UNL A   1      37.460  34.383  42.532  1.00  0.00     0.041 A 
ATOM     69  F   UNL A   1      38.069  35.813  40.778  1.00  0.00    -0.206 F 
ATOM     70  C   UNL A   1      37.505  33.132  43.140  1.00  0.00     0.022 A 
BRANCH  67  71
ATOM     71  S   UNL A   1      38.246  30.446  43.270  1.00  0.00     0.124 S 
ATOM     72  O   UNL A   1      38.417  29.604  42.089  1.00  0.00    -0.237 OA
ATOM     73  O   UNL A   1      39.380  30.495  44.187  1.00  0.00    -0.237 OA
ATOM     74  O   UNL A   1      36.936  30.357  43.910  1.00  0.00    -0.744 OA
ENDBRANCH  67  71
ENDBRANCH  41  64
ENDBRANCH  15  16
ENDBRANCH   8  10
ENDBRANCH   7   8
ENDBRANCH   6   7
ENDBRANCH   5   6
ENDBRANCH   4   5
ENDBRANCH   3   4
ENDBRANCH   2   3
ENDBRANCH   1   2
BRANCH   1  75
ATOM     75  C   UNL A   1      42.031  41.021  26.305  1.00  0.00     0.188 C 
BRANCH  75  76
ATOM     76  C   UNL A   1      41.590  41.336  24.857  1.00  0.00     0.188 C 
BRANCH  76  77
ATOM     77  O   UNL A   1      42.657  41.627  23.968  1.00  0.00    -0.376 OA
BRANCH  77  78
ATOM     78  C   UNL A   1      43.703  42.428  24.510  1.00  0.00     0.202 C 
BRANCH  78  79
ATOM     79  C   UNL A   1      44.607  43.090  23.461  1.00  0.00     0.261 C 
BRANCH  79  80
ATOM     80  O   UNL A   1      44.419  42.613  22.116  1.00  0.00    -0.459 OA
BRANCH  80  81
ATOM     81  C   UNL A   1      45.525  42.311  21.390  1.00  0.00     0.357 C 
ATOM     82  O   UNL A   1      46.143  41.263  21.397  1.00  0.00    -0.244 OA
BRANCH  81  83
ATOM     83  C   UNL A   1      45.740  43.461  20.465  1.00  0.00     0.149 A 
ATOM     84  C   UNL A   1      44.639  44.147  19.963  1.00  0.00     0.051 A 
ATOM     85  N   UNL A   1      47.014  43.648  20.028  1.00  0.00    -0.249 NA
ATOM     86  C   UNL A   1      44.843  45.059  18.933  1.00  0.00     0.011 A 
ATOM     87  C   UNL A   1      47.184  44.526  19.022  1.00  0.00     0.113 A 
ATOM     88  C   UNL A   1      46.144  45.238  18.448  1.00  0.00     0.035 A 
BRANCH  86  89
ATOM     89  S   UNL A   1      43.579  46.071  18.185  1.00  0.00    -0.126 SA
BRANCH  89  90
ATOM     90  C   UNL A   1      44.459  47.192  17.038  1.00  0.00     0.081 C 
BRANCH  90  91
ATOM     91  C   UNL A   1      44.404  48.651  17.483  1.00  0.00     0.027 C 
ATOM     92  C   UNL A   1      43.035  49.171  17.877  1.00  0.00     0.035 C 
ATOM     93  C   UNL A   1      45.169  48.876  18.780  1.00  0.00     0.164 C 
ATOM     94  C   UNL A   1      43.389  50.371  18.733  1.00  0.00     0.160 C 
ATOM     95  O   UNL A   1      44.640  50.068  19.371  1.00  0.00    -0.381 OA
ENDBRANCH  90  91
ENDBRANCH  89  90
ENDBRANCH  86  89
ENDBRANCH  81  83
ENDBRANCH  80  81
ENDBRANCH  79  80
ENDBRANCH  78  79
ENDBRANCH  77  78
ENDBRANCH  76  77
ENDBRANCH  75  76
ENDBRANCH   1  75
TORSDOF 26
ENDMDL
