MODEL 1
REMARK VINA RESULT:     -10.0      0.000      0.000
REMARK SMILES Cc1nn(C(C)C)cc1-c1cnccc1C(=O)OCCOCCOCCOCCOC(=O)c1ccc(-c2c3nc(c(-c4cc(S(=O)(=O)[O-])ccc4F)c4ccc([nH]4)c(-c4cc(S(=O)(=O)[O-])ccc4F)c4nc(c(-c5cc(S(=O)(=O)[O-])ccc5F)c5ccc2[nH]5)C=C4)C=C3)cc1
REMARK SMILES IDX 25 1 24 2 23 3 22 4 21 5 20 6 19 7 18 8 16 9 17 10 15 11
REMARK SMILES IDX 10 12 11 13 12 14 14 15 13 16 9 17 1 18 2 19 3 20 4 21 8 22
REMARK SMILES IDX 5 23 6 24 7 25 26 26 27 27 28 28 29 29 30 30 31 31 32 32
REMARK SMILES IDX 33 33 34 34 95 35 35 36 94 37 36 38 37 39 38 40 88 41 39 42
REMARK SMILES IDX 93 43 87 44 89 45 40 46 92 47 86 48 85 49 41 51 73 52 53 53
REMARK SMILES IDX 72 54 54 55 57 56 71 57 90 58 55 59 56 60 70 62 91 63 58 64
REMARK SMILES IDX 42 65 43 66 51 67 44 68 50 69 52 70 49 71 45 72 46 73 47 74
REMARK SMILES IDX 48 75 74 76 75 77 83 78 76 79 82 80 84 81 81 82 77 83 78 84
REMARK SMILES IDX 79 85 80 86 59 87 60 88 68 89 61 90 67 91 69 92 66 93 62 94
REMARK SMILES IDX 63 95 64 96 65 97
REMARK H PARENT 89 50 57 61
REMARK Flexibility Score: inf
ROOT
ATOM      1  C   UNL A   1      38.798  21.977  25.823  1.00  0.00     0.188 C 
ENDROOT
BRANCH   1   2
ATOM      2  O   UNL A   1      38.014  23.140  26.071  1.00  0.00    -0.377 OA
BRANCH   2   3
ATOM      3  C   UNL A   1      36.830  23.287  25.310  1.00  0.00     0.188 C 
BRANCH   3   4
ATOM      4  C   UNL A   1      35.526  22.967  26.083  1.00  0.00     0.188 C 
BRANCH   4   5
ATOM      5  O   UNL A   1      34.532  23.955  26.337  1.00  0.00    -0.376 OA
BRANCH   5   6
ATOM      6  C   UNL A   1      33.215  23.844  25.823  1.00  0.00     0.202 C 
BRANCH   6   7
ATOM      7  C   UNL A   1      32.067  24.735  26.312  1.00  0.00     0.261 C 
BRANCH   7   8
ATOM      8  O   UNL A   1      31.781  25.861  25.485  1.00  0.00    -0.460 OA
BRANCH   8   9
ATOM      9  C   UNL A   1      32.827  26.593  25.060  1.00  0.00     0.338 C 
ATOM     10  O   UNL A   1      33.584  26.321  24.142  1.00  0.00    -0.246 OA
BRANCH   9  11
ATOM     11  C   UNL A   1      32.828  27.909  25.740  1.00  0.00     0.071 A 
ATOM     12  C   UNL A   1      32.141  29.050  25.298  1.00  0.00     0.018 A 
ATOM     13  C   UNL A   1      32.271  30.183  26.102  1.00  0.00     0.120 A 
ATOM     14  N   UNL A   1      33.055  30.274  27.205  1.00  0.00    -0.264 NA
ATOM     15  C   UNL A   1      33.652  27.979  26.876  1.00  0.00     0.036 A 
ATOM     16  C   UNL A   1      33.749  29.175  27.553  1.00  0.00     0.112 A 
BRANCH  12  17
ATOM     17  C   UNL A   1      31.384  29.150  24.060  1.00  0.00     0.025 A 
ATOM     18  C   UNL A   1      33.131  28.646  22.144  1.00  0.00     0.069 C 
ATOM     19  C   UNL A   1      31.791  28.967  22.702  1.00  0.00     0.067 A 
ATOM     20  N   UNL A   1      30.763  29.107  21.857  1.00  0.00    -0.177 NA
ATOM     21  N   UNL A   1      29.700  29.277  22.657  1.00  0.00    -0.269 N 
ATOM     22  C   UNL A   1      30.032  29.410  23.975  1.00  0.00     0.118 A 
BRANCH  21  23
ATOM     23  C   UNL A   1      28.357  29.316  22.091  1.00  0.00     0.101 C 
ATOM     24  C   UNL A   1      27.318  28.894  23.126  1.00  0.00     0.033 C 
ATOM     25  C   UNL A   1      28.029  30.686  21.494  1.00  0.00     0.033 C 
ENDBRANCH  21  23
ENDBRANCH  12  17
ENDBRANCH   9  11
ENDBRANCH   8   9
ENDBRANCH   7   8
ENDBRANCH   6   7
ENDBRANCH   5   6
ENDBRANCH   4   5
ENDBRANCH   3   4
ENDBRANCH   2   3
ENDBRANCH   1   2
BRANCH   1  26
ATOM     26  C   UNL A   1      40.014  21.668  26.737  1.00  0.00     0.188 C 
BRANCH  26  27
ATOM     27  O   UNL A   1      41.122  21.062  26.081  1.00  0.00    -0.376 OA
BRANCH  27  28
ATOM     28  C   UNL A   1      41.961  20.129  26.740  1.00  0.00     0.202 C 
BRANCH  28  29
ATOM     29  C   UNL A   1      42.771  19.179  25.866  1.00  0.00     0.261 C 
BRANCH  29  30
ATOM     30  O   UNL A   1      43.160  19.743  24.630  1.00  0.00    -0.460 OA
BRANCH  30  31
ATOM     31  C   UNL A   1      44.487  19.788  24.428  1.00  0.00     0.338 C 
ATOM     32  O   UNL A   1      45.242  18.832  24.262  1.00  0.00    -0.246 OA
BRANCH  31  33
ATOM     33  C   UNL A   1      44.922  21.170  24.577  1.00  0.00     0.060 A 
ATOM     34  C   UNL A   1      45.895  21.398  25.548  1.00  0.00     0.016 A 
ATOM     35  C   UNL A   1      44.089  22.185  24.078  1.00  0.00     0.016 A 
ATOM     36  C   UNL A   1      45.828  22.582  26.235  1.00  0.00     0.010 A 
ATOM     37  C   UNL A   1      44.004  23.350  24.786  1.00  0.00     0.010 A 
ATOM     38  C   UNL A   1      44.807  23.483  25.913  1.00  0.00    -0.014 A 
BRANCH  38  39
ATOM     39  C   UNL A   1      44.675  24.664  26.727  1.00  0.00     0.031 A 
ATOM     40  C   UNL A   1      45.870  25.516  26.616  1.00  0.00     0.074 A 
ATOM     41  C   UNL A   1      43.560  24.955  27.419  1.00  0.00     0.049 A 
ATOM     42  N   UNL A   1      46.813  25.644  27.485  1.00  0.00    -0.248 NA
ATOM     43  C   UNL A   1      46.191  26.071  25.290  1.00  0.00     0.031 C 
ATOM     44  C   UNL A   1      42.260  24.285  27.374  1.00  0.00     0.029 A 
ATOM     45  N   UNL A   1      43.336  26.002  28.254  1.00  0.00    -0.354 N 
ATOM     46  C   UNL A   1      47.702  26.540  26.913  1.00  0.00     0.074 A 
ATOM     47  C   UNL A   1      47.424  26.527  25.505  1.00  0.00     0.031 C 
ATOM     48  C   UNL A   1      41.333  25.078  27.962  1.00  0.00     0.029 A 
ATOM     49  C   UNL A   1      41.994  26.245  28.527  1.00  0.00     0.049 A 
ATOM     50  H   UNL A   1      44.062  26.545  28.634  1.00  0.00     0.167 HD
ATOM     51  C   UNL A   1      48.338  27.458  27.687  1.00  0.00     0.034 A 
ATOM     52  C   UNL A   1      41.478  27.367  29.100  1.00  0.00     0.034 A 
ATOM     53  C   UNL A   1      48.320  27.050  29.081  1.00  0.00     0.049 A 
ATOM     54  C   UNL A   1      42.591  28.020  29.840  1.00  0.00     0.074 A 
ATOM     55  C   UNL A   1      48.741  25.920  29.757  1.00  0.00     0.029 A 
ATOM     56  N   UNL A   1      47.440  27.684  29.933  1.00  0.00    -0.354 N 
ATOM     57  N   UNL A   1      43.166  27.484  30.883  1.00  0.00    -0.248 NA
ATOM     58  C   UNL A   1      43.403  29.002  29.131  1.00  0.00     0.031 C 
ATOM     59  C   UNL A   1      47.741  25.683  30.746  1.00  0.00     0.029 A 
ATOM     60  C   UNL A   1      46.811  26.721  30.685  1.00  0.00     0.049 A 
ATOM     61  H   UNL A   1      47.289  28.655  29.992  1.00  0.00     0.167 HD
ATOM     62  C   UNL A   1      44.523  27.712  30.706  1.00  0.00     0.074 A 
ATOM     63  C   UNL A   1      44.600  28.736  29.664  1.00  0.00     0.031 C 
ATOM     64  C   UNL A   1      45.457  26.845  31.201  1.00  0.00     0.034 A 
BRANCH  51  65
ATOM     65  C   UNL A   1      48.566  28.892  27.257  1.00  0.00     0.023 A 
ATOM     66  C   UNL A   1      49.892  29.351  27.306  1.00  0.00     0.031 A 
ATOM     67  C   UNL A   1      47.577  29.894  27.100  1.00  0.00     0.131 A 
ATOM     68  C   UNL A   1      50.177  30.724  27.348  1.00  0.00     0.055 A 
ATOM     69  C   UNL A   1      47.873  31.258  27.073  1.00  0.00     0.041 A 
ATOM     70  F   UNL A   1      46.266  29.640  27.047  1.00  0.00    -0.206 F 
ATOM     71  C   UNL A   1      49.175  31.684  27.238  1.00  0.00     0.022 A 
BRANCH  68  72
ATOM     72  S   UNL A   1      51.866  31.221  27.749  1.00  0.00     0.124 S 
ATOM     73  O   UNL A   1      52.591  30.752  26.572  1.00  0.00    -0.237 OA
ATOM     74  O   UNL A   1      51.724  32.667  27.886  1.00  0.00    -0.237 OA
ATOM     75  O   UNL A   1      52.144  30.501  28.987  1.00  0.00    -0.744 OA
ENDBRANCH  68  72
ENDBRANCH  51  65
BRANCH  52  76
ATOM     76  C   UNL A   1      40.204  28.060  28.746  1.00  0.00     0.023 A 
ATOM     77  C   UNL A   1      39.301  28.553  29.716  1.00  0.00     0.031 A 
ATOM     78  C   UNL A   1      39.975  28.466  27.412  1.00  0.00     0.131 A 
ATOM     79  C   UNL A   1      38.236  29.406  29.333  1.00  0.00     0.055 A 
ATOM     80  C   UNL A   1      38.921  29.303  27.040  1.00  0.00     0.041 A 
ATOM     81  F   UNL A   1      40.821  28.133  26.425  1.00  0.00    -0.206 F 
ATOM     82  C   UNL A   1      38.051  29.786  28.002  1.00  0.00     0.022 A 
BRANCH  79  83
ATOM     83  S   UNL A   1      37.113  30.116  30.583  1.00  0.00     0.124 S 
ATOM     84  O   UNL A   1      36.774  28.952  31.394  1.00  0.00    -0.237 OA
ATOM     85  O   UNL A   1      37.947  31.131  31.217  1.00  0.00    -0.237 OA
ATOM     86  O   UNL A   1      36.006  30.650  29.786  1.00  0.00    -0.744 OA
ENDBRANCH  79  83
ENDBRANCH  52  76
BRANCH  64  87
ATOM     87  C   UNL A   1      45.013  25.811  32.221  1.00  0.00     0.023 A 
ATOM     88  C   UNL A   1      44.831  26.052  33.603  1.00  0.00     0.031 A 
ATOM     89  C   UNL A   1      44.649  24.545  31.729  1.00  0.00     0.131 A 
ATOM     90  C   UNL A   1      44.316  25.034  34.433  1.00  0.00     0.055 A 
ATOM     91  C   UNL A   1      44.120  23.550  32.548  1.00  0.00     0.041 A 
ATOM     92  F   UNL A   1      44.774  24.261  30.421  1.00  0.00    -0.206 F 
ATOM     93  C   UNL A   1      43.958  23.790  33.907  1.00  0.00     0.022 A 
BRANCH  90  94
ATOM     94  S   UNL A   1      44.119  25.300  36.227  1.00  0.00     0.124 S 
ATOM     95  O   UNL A   1      44.324  26.735  36.386  1.00  0.00    -0.237 OA
ATOM     96  O   UNL A   1      42.763  24.816  36.470  1.00  0.00    -0.237 OA
ATOM     97  O   UNL A   1      45.172  24.468  36.812  1.00  0.00    -0.744 OA
ENDBRANCH  90  94
ENDBRANCH  64  87
ENDBRANCH  38  39
ENDBRANCH  31  33
ENDBRANCH  30  31
ENDBRANCH  29  30
ENDBRANCH  28  29
ENDBRANCH  27  28
ENDBRANCH  26  27
ENDBRANCH   1  26
TORSDOF 25
ENDMDL
MODEL 2
REMARK VINA RESULT:      -9.6      1.906      2.534
REMARK SMILES Cc1nn(C(C)C)cc1-c1cnccc1C(=O)OCCOCCOCCOCCOC(=O)c1ccc(-c2c3nc(c(-c4cc(S(=O)(=O)[O-])ccc4F)c4ccc([nH]4)c(-c4cc(S(=O)(=O)[O-])ccc4F)c4nc(c(-c5cc(S(=O)(=O)[O-])ccc5F)c5ccc2[nH]5)C=C4)C=C3)cc1
REMARK SMILES IDX 25 1 24 2 23 3 22 4 21 5 20 6 19 7 18 8 16 9 17 10 15 11
REMARK SMILES IDX 10 12 11 13 12 14 14 15 13 16 9 17 1 18 2 19 3 20 4 21 8 22
REMARK SMILES IDX 5 23 6 24 7 25 26 26 27 27 28 28 29 29 30 30 31 31 32 32
REMARK SMILES IDX 33 33 34 34 95 35 35 36 94 37 36 38 37 39 38 40 88 41 39 42
REMARK SMILES IDX 93 43 87 44 89 45 40 46 92 47 86 48 85 49 41 51 73 52 53 53
REMARK SMILES IDX 72 54 54 55 57 56 71 57 90 58 55 59 56 60 70 62 91 63 58 64
REMARK SMILES IDX 42 65 43 66 51 67 44 68 50 69 52 70 49 71 45 72 46 73 47 74
REMARK SMILES IDX 48 75 74 76 75 77 83 78 76 79 82 80 84 81 81 82 77 83 78 84
REMARK SMILES IDX 79 85 80 86 59 87 60 88 68 89 61 90 67 91 69 92 66 93 62 94
REMARK SMILES IDX 63 95 64 96 65 97
REMARK H PARENT 89 50 57 61
REMARK Flexibility Score: inf
ROOT
ATOM      1  C   UNL A   1      38.881  21.903  26.041  1.00  0.00     0.188 C 
ENDROOT
BRANCH   1   2
ATOM      2  O   UNL A   1      38.302  23.205  26.003  1.00  0.00    -0.377 OA
BRANCH   2   3
ATOM      3  C   UNL A   1      37.114  23.356  25.250  1.00  0.00     0.188 C 
BRANCH   3   4
ATOM      4  C   UNL A   1      35.942  24.011  26.024  1.00  0.00     0.188 C 
BRANCH   4   5
ATOM      5  O   UNL A   1      34.965  24.820  25.377  1.00  0.00    -0.376 OA
BRANCH   5   6
ATOM      6  C   UNL A   1      33.868  25.379  26.081  1.00  0.00     0.202 C 
BRANCH   6   7
ATOM      7  C   UNL A   1      33.359  26.799  25.811  1.00  0.00     0.261 C 
BRANCH   7   8
ATOM      8  O   UNL A   1      31.981  26.890  25.456  1.00  0.00    -0.460 OA
BRANCH   8   9
ATOM      9  C   UNL A   1      31.417  25.803  24.898  1.00  0.00     0.338 C 
ATOM     10  O   UNL A   1      30.624  25.041  25.426  1.00  0.00    -0.246 OA
BRANCH   9  11
ATOM     11  C   UNL A   1      31.736  25.758  23.452  1.00  0.00     0.071 A 
ATOM     12  C   UNL A   1      31.206  26.618  22.478  1.00  0.00     0.018 A 
ATOM     13  C   UNL A   1      31.655  26.403  21.175  1.00  0.00     0.120 A 
ATOM     14  N   UNL A   1      32.485  25.402  20.787  1.00  0.00    -0.264 NA
ATOM     15  C   UNL A   1      32.592  24.708  23.076  1.00  0.00     0.036 A 
ATOM     16  C   UNL A   1      32.914  24.561  21.744  1.00  0.00     0.112 A 
BRANCH  12  17
ATOM     17  C   UNL A   1      30.197  27.638  22.714  1.00  0.00     0.025 A 
ATOM     18  C   UNL A   1      28.213  26.377  23.918  1.00  0.00     0.069 C 
ATOM     19  C   UNL A   1      28.916  27.554  23.342  1.00  0.00     0.067 A 
ATOM     20  N   UNL A   1      28.315  28.748  23.398  1.00  0.00    -0.177 NA
ATOM     21  N   UNL A   1      29.230  29.600  22.909  1.00  0.00    -0.269 N 
ATOM     22  C   UNL A   1      30.330  28.974  22.397  1.00  0.00     0.118 A 
BRANCH  21  23
ATOM     23  C   UNL A   1      28.988  31.037  22.952  1.00  0.00     0.101 C 
ATOM     24  C   UNL A   1      29.006  31.632  21.547  1.00  0.00     0.033 C 
ATOM     25  C   UNL A   1      27.691  31.376  23.689  1.00  0.00     0.033 C 
ENDBRANCH  21  23
ENDBRANCH  12  17
ENDBRANCH   9  11
ENDBRANCH   8   9
ENDBRANCH   7   8
ENDBRANCH   6   7
ENDBRANCH   5   6
ENDBRANCH   4   5
ENDBRANCH   3   4
ENDBRANCH   2   3
ENDBRANCH   1   2
BRANCH   1  26
ATOM     26  C   UNL A   1      40.197  21.676  26.832  1.00  0.00     0.188 C 
BRANCH  26  27
ATOM     27  O   UNL A   1      41.271  21.138  26.071  1.00  0.00    -0.376 OA
BRANCH  27  28
ATOM     28  C   UNL A   1      42.322  20.405  26.677  1.00  0.00     0.202 C 
BRANCH  28  29
ATOM     29  C   UNL A   1      43.268  19.648  25.752  1.00  0.00     0.261 C 
BRANCH  29  30
ATOM     30  O   UNL A   1      43.586  20.352  24.569  1.00  0.00    -0.460 OA
BRANCH  30  31
ATOM     31  C   UNL A   1      44.899  20.541  24.365  1.00  0.00     0.338 C 
ATOM     32  O   UNL A   1      45.743  19.677  24.132  1.00  0.00    -0.246 OA
BRANCH  31  33
ATOM     33  C   UNL A   1      45.199  21.945  24.605  1.00  0.00     0.060 A 
ATOM     34  C   UNL A   1      46.194  22.201  25.545  1.00  0.00     0.016 A 
ATOM     35  C   UNL A   1      44.242  22.901  24.226  1.00  0.00     0.016 A 
ATOM     36  C   UNL A   1      46.044  23.316  26.328  1.00  0.00     0.010 A 
ATOM     37  C   UNL A   1      44.077  23.995  25.029  1.00  0.00     0.010 A 
ATOM     38  C   UNL A   1      44.921  24.126  26.125  1.00  0.00    -0.014 A 
BRANCH  38  39
ATOM     39  C   UNL A   1      44.713  25.223  27.036  1.00  0.00     0.031 A 
ATOM     40  C   UNL A   1      45.873  26.129  27.042  1.00  0.00     0.074 A 
ATOM     41  C   UNL A   1      43.567  25.405  27.714  1.00  0.00     0.049 A 
ATOM     42  N   UNL A   1      46.783  26.217  27.950  1.00  0.00    -0.248 NA
ATOM     43  C   UNL A   1      46.208  26.815  25.782  1.00  0.00     0.031 C 
ATOM     44  C   UNL A   1      42.299  24.688  27.565  1.00  0.00     0.029 A 
ATOM     45  N   UNL A   1      43.272  26.361  28.630  1.00  0.00    -0.354 N 
ATOM     46  C   UNL A   1      47.648  27.197  27.490  1.00  0.00     0.074 A 
ATOM     47  C   UNL A   1      47.414  27.300  26.078  1.00  0.00     0.031 C 
ATOM     48  C   UNL A   1      41.322  25.386  28.190  1.00  0.00     0.029 A 
ATOM     49  C   UNL A   1      41.913  26.523  28.879  1.00  0.00     0.049 A 
ATOM     50  H   UNL A   1      43.962  26.897  29.082  1.00  0.00     0.167 HD
ATOM     51  C   UNL A   1      48.220  28.066  28.364  1.00  0.00     0.034 A 
ATOM     52  C   UNL A   1      41.331  27.567  29.533  1.00  0.00     0.034 A 
ATOM     53  C   UNL A   1      48.179  27.534  29.714  1.00  0.00     0.049 A 
ATOM     54  C   UNL A   1      42.393  28.195  30.364  1.00  0.00     0.074 A 
ATOM     55  C   UNL A   1      48.629  26.366  30.301  1.00  0.00     0.029 A 
ATOM     56  N   UNL A   1      47.247  28.051  30.589  1.00  0.00    -0.354 N 
ATOM     57  N   UNL A   1      42.959  27.591  31.374  1.00  0.00    -0.248 NA
ATOM     58  C   UNL A   1      43.181  29.270  29.773  1.00  0.00     0.031 C 
ATOM     59  C   UNL A   1      47.611  25.999  31.230  1.00  0.00     0.029 A 
ATOM     60  C   UNL A   1      46.638  26.999  31.232  1.00  0.00     0.049 A 
ATOM     61  H   UNL A   1      47.052  29.006  30.730  1.00  0.00     0.167 HD
ATOM     62  C   UNL A   1      44.310  27.890  31.264  1.00  0.00     0.074 A 
ATOM     63  C   UNL A   1      44.373  29.006  30.321  1.00  0.00     0.031 C 
ATOM     64  C   UNL A   1      45.265  27.020  31.711  1.00  0.00     0.034 A 
BRANCH  51  65
ATOM     65  C   UNL A   1      48.397  29.541  28.072  1.00  0.00     0.023 A 
ATOM     66  C   UNL A   1      47.223  30.309  28.023  1.00  0.00     0.031 A 
ATOM     67  C   UNL A   1      49.560  30.167  27.557  1.00  0.00     0.131 A 
ATOM     68  C   UNL A   1      47.201  31.548  27.364  1.00  0.00     0.055 A 
ATOM     69  C   UNL A   1      49.544  31.431  26.964  1.00  0.00     0.041 A 
ATOM     70  F   UNL A   1      50.759  29.581  27.513  1.00  0.00    -0.206 F 
ATOM     71  C   UNL A   1      48.353  32.113  26.827  1.00  0.00     0.022 A 
BRANCH  68  72
ATOM     72  S   UNL A   1      45.591  32.307  27.053  1.00  0.00     0.124 S 
ATOM     73  O   UNL A   1      45.622  33.434  27.978  1.00  0.00    -0.237 OA
ATOM     74  O   UNL A   1      45.687  32.632  25.634  1.00  0.00    -0.237 OA
ATOM     75  O   UNL A   1      44.648  31.244  27.388  1.00  0.00    -0.744 OA
ENDBRANCH  68  72
ENDBRANCH  51  65
BRANCH  52  76
ATOM     76  C   UNL A   1      40.040  28.236  29.199  1.00  0.00     0.023 A 
ATOM     77  C   UNL A   1      39.188  28.795  30.178  1.00  0.00     0.031 A 
ATOM     78  C   UNL A   1      39.740  28.550  27.854  1.00  0.00     0.131 A 
ATOM     79  C   UNL A   1      38.102  29.622  29.794  1.00  0.00     0.055 A 
ATOM     80  C   UNL A   1      38.667  29.362  27.481  1.00  0.00     0.041 A 
ATOM     81  F   UNL A   1      40.535  28.150  26.849  1.00  0.00    -0.206 F 
ATOM     82  C   UNL A   1      37.847  29.911  28.452  1.00  0.00     0.022 A 
BRANCH  79  83
ATOM     83  S   UNL A   1      37.045  30.417  31.050  1.00  0.00     0.124 S 
ATOM     84  O   UNL A   1      38.008  31.197  31.820  1.00  0.00    -0.237 OA
ATOM     85  O   UNL A   1      36.099  31.172  30.235  1.00  0.00    -0.237 OA
ATOM     86  O   UNL A   1      36.458  29.285  31.771  1.00  0.00    -0.744 OA
ENDBRANCH  79  83
ENDBRANCH  52  76
BRANCH  64  87
ATOM     87  C   UNL A   1      44.836  25.882  32.619  1.00  0.00     0.023 A 
ATOM     88  C   UNL A   1      44.613  25.986  34.012  1.00  0.00     0.031 A 
ATOM     89  C   UNL A   1      44.534  24.653  32.003  1.00  0.00     0.131 A 
ATOM     90  C   UNL A   1      44.117  24.878  34.731  1.00  0.00     0.055 A 
ATOM     91  C   UNL A   1      44.024  23.569  32.713  1.00  0.00     0.041 A 
ATOM     92  F   UNL A   1      44.701  24.497  30.678  1.00  0.00    -0.206 F 
ATOM     93  C   UNL A   1      43.820  23.676  34.083  1.00  0.00     0.022 A 
BRANCH  90  94
ATOM     94  S   UNL A   1      43.867  24.970  36.535  1.00  0.00     0.124 S 
ATOM     95  O   UNL A   1      44.437  26.262  36.895  1.00  0.00    -0.237 OA
ATOM     96  O   UNL A   1      42.416  24.853  36.658  1.00  0.00    -0.237 OA
ATOM     97  O   UNL A   1      44.612  23.814  37.041  1.00  0.00    -0.744 OA
ENDBRANCH  90  94
ENDBRANCH  64  87
ENDBRANCH  38  39
ENDBRANCH  31  33
ENDBRANCH  30  31
ENDBRANCH  29  30
ENDBRANCH  28  29
ENDBRANCH  27  28
ENDBRANCH  26  27
ENDBRANCH   1  26
TORSDOF 25
ENDMDL
MODEL 3
REMARK VINA RESULT:      -9.3      1.783      2.316
REMARK SMILES Cc1nn(C(C)C)cc1-c1cnccc1C(=O)OCCOCCOCCOCCOC(=O)c1ccc(-c2c3nc(c(-c4cc(S(=O)(=O)[O-])ccc4F)c4ccc([nH]4)c(-c4cc(S(=O)(=O)[O-])ccc4F)c4nc(c(-c5cc(S(=O)(=O)[O-])ccc5F)c5ccc2[nH]5)C=C4)C=C3)cc1
REMARK SMILES IDX 25 1 24 2 23 3 22 4 21 5 20 6 19 7 18 8 16 9 17 10 15 11
REMARK SMILES IDX 10 12 11 13 12 14 14 15 13 16 9 17 1 18 2 19 3 20 4 21 8 22
REMARK SMILES IDX 5 23 6 24 7 25 26 26 27 27 28 28 29 29 30 30 31 31 32 32
REMARK SMILES IDX 33 33 34 34 95 35 35 36 94 37 36 38 37 39 38 40 88 41 39 42
REMARK SMILES IDX 93 43 87 44 89 45 40 46 92 47 86 48 85 49 41 51 73 52 53 53
REMARK SMILES IDX 72 54 54 55 57 56 71 57 90 58 55 59 56 60 70 62 91 63 58 64
REMARK SMILES IDX 42 65 43 66 51 67 44 68 50 69 52 70 49 71 45 72 46 73 47 74
REMARK SMILES IDX 48 75 74 76 75 77 83 78 76 79 82 80 84 81 81 82 77 83 78 84
REMARK SMILES IDX 79 85 80 86 59 87 60 88 68 89 61 90 67 91 69 92 66 93 62 94
REMARK SMILES IDX 63 95 64 96 65 97
REMARK H PARENT 89 50 57 61
REMARK Flexibility Score: inf
ROOT
ATOM      1  C   UNL A   1      36.768  22.125  24.970  1.00  0.00     0.188 C 
ENDROOT
BRANCH   1   2
ATOM      2  O   UNL A   1      37.009  22.784  23.730  1.00  0.00    -0.377 OA
BRANCH   2   3
ATOM      3  C   UNL A   1      35.898  22.962  22.873  1.00  0.00     0.188 C 
BRANCH   3   4
ATOM      4  C   UNL A   1      34.771  23.851  23.458  1.00  0.00     0.188 C 
BRANCH   4   5
ATOM      5  O   UNL A   1      33.488  23.329  23.787  1.00  0.00    -0.376 OA
BRANCH   5   6
ATOM      6  C   UNL A   1      32.752  23.795  24.906  1.00  0.00     0.202 C 
BRANCH   6   7
ATOM      7  C   UNL A   1      33.216  24.984  25.756  1.00  0.00     0.261 C 
BRANCH   7   8
ATOM      8  O   UNL A   1      32.220  25.541  26.610  1.00  0.00    -0.460 OA
BRANCH   8   9
ATOM      9  C   UNL A   1      31.433  26.502  26.093  1.00  0.00     0.338 C 
ATOM     10  O   UNL A   1      30.267  26.387  25.752  1.00  0.00    -0.246 OA
BRANCH   9  11
ATOM     11  C   UNL A   1      32.121  27.812  26.175  1.00  0.00     0.071 A 
ATOM     12  C   UNL A   1      31.969  28.866  25.262  1.00  0.00     0.018 A 
ATOM     13  C   UNL A   1      32.706  30.017  25.539  1.00  0.00     0.120 A 
ATOM     14  N   UNL A   1      33.591  30.153  26.558  1.00  0.00    -0.264 NA
ATOM     15  C   UNL A   1      33.037  27.924  27.234  1.00  0.00     0.036 A 
ATOM     16  C   UNL A   1      33.756  29.092  27.369  1.00  0.00     0.112 A 
BRANCH  12  17
ATOM     17  C   UNL A   1      31.175  28.817  24.044  1.00  0.00     0.025 A 
ATOM     18  C   UNL A   1      32.356  27.008  22.525  1.00  0.00     0.069 C 
ATOM     19  C   UNL A   1      31.320  28.017  22.869  1.00  0.00     0.067 A 
ATOM     20  N   UNL A   1      30.338  28.251  21.990  1.00  0.00    -0.177 NA
ATOM     21  N   UNL A   1      29.524  29.107  22.625  1.00  0.00    -0.269 N 
ATOM     22  C   UNL A   1      30.030  29.551  23.813  1.00  0.00     0.118 A 
BRANCH  21  23
ATOM     23  C   UNL A   1      28.247  29.481  22.029  1.00  0.00     0.101 C 
ATOM     24  C   UNL A   1      27.135  29.468  23.075  1.00  0.00     0.033 C 
ATOM     25  C   UNL A   1      28.326  30.829  21.310  1.00  0.00     0.033 C 
ENDBRANCH  21  23
ENDBRANCH  12  17
ENDBRANCH   9  11
ENDBRANCH   8   9
ENDBRANCH   7   8
ENDBRANCH   6   7
ENDBRANCH   5   6
ENDBRANCH   4   5
ENDBRANCH   3   4
ENDBRANCH   2   3
ENDBRANCH   1   2
BRANCH   1  26
ATOM     26  C   UNL A   1      37.774  22.304  26.138  1.00  0.00     0.188 C 
BRANCH  26  27
ATOM     27  O   UNL A   1      39.093  21.841  25.873  1.00  0.00    -0.376 OA
BRANCH  27  28
ATOM     28  C   UNL A   1      40.104  21.858  26.865  1.00  0.00     0.202 C 
BRANCH  28  29
ATOM     29  C   UNL A   1      41.296  20.929  26.664  1.00  0.00     0.261 C 
BRANCH  29  30
ATOM     30  O   UNL A   1      41.967  21.129  25.436  1.00  0.00    -0.460 OA
BRANCH  30  31
ATOM     31  C   UNL A   1      43.301  20.995  25.499  1.00  0.00     0.338 C 
ATOM     32  O   UNL A   1      43.937  19.943  25.542  1.00  0.00    -0.246 OA
BRANCH  31  33
ATOM     33  C   UNL A   1      43.884  22.320  25.652  1.00  0.00     0.060 A 
ATOM     34  C   UNL A   1      44.619  22.529  26.817  1.00  0.00     0.016 A 
ATOM     35  C   UNL A   1      43.352  23.370  24.886  1.00  0.00     0.016 A 
ATOM     36  C   UNL A   1      44.563  23.778  27.377  1.00  0.00     0.010 A 
ATOM     37  C   UNL A   1      43.270  24.607  25.464  1.00  0.00     0.010 A 
ATOM     38  C   UNL A   1      43.791  24.759  26.744  1.00  0.00    -0.014 A 
BRANCH  38  39
ATOM     39  C   UNL A   1      43.641  26.027  27.410  1.00  0.00     0.031 A 
ATOM     40  C   UNL A   1      44.763  26.925  27.091  1.00  0.00     0.074 A 
ATOM     41  C   UNL A   1      42.566  26.342  28.152  1.00  0.00     0.049 A 
ATOM     42  N   UNL A   1      45.759  27.220  27.853  1.00  0.00    -0.248 NA
ATOM     43  C   UNL A   1      44.942  27.319  25.683  1.00  0.00     0.031 C 
ATOM     44  C   UNL A   1      41.315  25.597  28.303  1.00  0.00     0.029 A 
ATOM     45  N   UNL A   1      42.335  27.475  28.864  1.00  0.00    -0.354 N 
ATOM     46  C   UNL A   1      46.538  28.084  27.098  1.00  0.00     0.074 A 
ATOM     47  C   UNL A   1      46.154  27.869  25.732  1.00  0.00     0.031 C 
ATOM     48  C   UNL A   1      40.384  26.405  28.863  1.00  0.00     0.029 A 
ATOM     49  C   UNL A   1      41.005  27.673  29.217  1.00  0.00     0.049 A 
ATOM     50  H   UNL A   1      43.050  28.104  29.109  1.00  0.00     0.167 HD
ATOM     51  C   UNL A   1      47.167  29.131  27.693  1.00  0.00     0.034 A 
ATOM     52  C   UNL A   1      40.459  28.829  29.686  1.00  0.00     0.034 A 
ATOM     53  C   UNL A   1      47.285  28.910  29.123  1.00  0.00     0.049 A 
ATOM     54  C   UNL A   1      41.578  29.637  30.239  1.00  0.00     0.074 A 
ATOM     55  C   UNL A   1      47.833  27.905  29.899  1.00  0.00     0.029 A 
ATOM     56  N   UNL A   1      46.431  29.598  29.960  1.00  0.00    -0.354 N 
ATOM     57  N   UNL A   1      42.267  29.278  31.289  1.00  0.00    -0.248 NA
ATOM     58  C   UNL A   1      42.264  30.563  29.345  1.00  0.00     0.031 C 
ATOM     59  C   UNL A   1      46.931  27.742  30.991  1.00  0.00     0.029 A 
ATOM     60  C   UNL A   1      45.929  28.708  30.879  1.00  0.00     0.049 A 
ATOM     61  H   UNL A   1      46.219  30.558  29.909  1.00  0.00     0.167 HD
ATOM     62  C   UNL A   1      43.588  29.559  30.970  1.00  0.00     0.074 A 
ATOM     63  C   UNL A   1      43.514  30.439  29.804  1.00  0.00     0.031 C 
ATOM     64  C   UNL A   1      44.614  28.820  31.489  1.00  0.00     0.034 A 
BRANCH  51  65
ATOM     65  C   UNL A   1      47.262  30.506  27.067  1.00  0.00     0.023 A 
ATOM     66  C   UNL A   1      48.530  31.110  27.086  1.00  0.00     0.031 A 
ATOM     67  C   UNL A   1      46.182  31.362  26.740  1.00  0.00     0.131 A 
ATOM     68  C   UNL A   1      48.668  32.498  26.937  1.00  0.00     0.055 A 
ATOM     69  C   UNL A   1      46.335  32.734  26.525  1.00  0.00     0.041 A 
ATOM     70  F   UNL A   1      44.908  30.962  26.688  1.00  0.00    -0.206 F 
ATOM     71  C   UNL A   1      47.577  33.318  26.663  1.00  0.00     0.022 A 
BRANCH  68  72
ATOM     72  S   UNL A   1      50.277  33.229  27.309  1.00  0.00     0.124 S 
ATOM     73  O   UNL A   1      49.892  34.570  27.736  1.00  0.00    -0.237 OA
ATOM     74  O   UNL A   1      50.774  32.336  28.351  1.00  0.00    -0.237 OA
ATOM     75  O   UNL A   1      50.984  33.154  26.033  1.00  0.00    -0.744 OA
ENDBRANCH  68  72
ENDBRANCH  51  65
BRANCH  52  76
ATOM     76  C   UNL A   1      39.117  29.394  29.357  1.00  0.00     0.023 A 
ATOM     77  C   UNL A   1      38.316  30.076  30.302  1.00  0.00     0.031 A 
ATOM     78  C   UNL A   1      38.704  29.480  28.008  1.00  0.00     0.131 A 
ATOM     79  C   UNL A   1      37.169  30.795  29.882  1.00  0.00     0.055 A 
ATOM     80  C   UNL A   1      37.571  30.186  27.600  1.00  0.00     0.041 A 
ATOM     81  F   UNL A   1      39.439  28.949  27.018  1.00  0.00    -0.206 F 
ATOM     82  C   UNL A   1      36.802  30.856  28.536  1.00  0.00     0.022 A 
BRANCH  79  83
ATOM     83  S   UNL A   1      36.174  31.746  31.078  1.00  0.00     0.124 S 
ATOM     84  O   UNL A   1      37.022  32.905  31.338  1.00  0.00    -0.237 OA
ATOM     85  O   UNL A   1      34.942  31.994  30.339  1.00  0.00    -0.237 OA
ATOM     86  O   UNL A   1      36.030  30.828  32.210  1.00  0.00    -0.744 OA
ENDBRANCH  79  83
ENDBRANCH  52  76
BRANCH  64  87
ATOM     87  C   UNL A   1      44.321  27.906  32.665  1.00  0.00     0.023 A 
ATOM     88  C   UNL A   1      44.360  26.492  32.631  1.00  0.00     0.031 A 
ATOM     89  C   UNL A   1      44.101  28.519  33.912  1.00  0.00     0.131 A 
ATOM     90  C   UNL A   1      44.168  25.753  33.818  1.00  0.00     0.055 A 
ATOM     91  C   UNL A   1      43.934  27.787  35.084  1.00  0.00     0.041 A 
ATOM     92  F   UNL A   1      44.077  29.859  34.016  1.00  0.00    -0.206 F 
ATOM     93  C   UNL A   1      43.960  26.399  35.040  1.00  0.00     0.022 A 
BRANCH  90  94
ATOM     94  S   UNL A   1      44.164  23.930  33.794  1.00  0.00     0.124 S 
ATOM     95  O   UNL A   1      43.169  23.576  34.799  1.00  0.00    -0.237 OA
ATOM     96  O   UNL A   1      43.808  23.633  32.409  1.00  0.00    -0.237 OA
ATOM     97  O   UNL A   1      45.540  23.581  34.153  1.00  0.00    -0.744 OA
ENDBRANCH  90  94
ENDBRANCH  64  87
ENDBRANCH  38  39
ENDBRANCH  31  33
ENDBRANCH  30  31
ENDBRANCH  29  30
ENDBRANCH  28  29
ENDBRANCH  27  28
ENDBRANCH  26  27
ENDBRANCH   1  26
TORSDOF 25
ENDMDL
