MODEL 1
REMARK VINA RESULT:     -10.5      0.000      0.000
REMARK SMILES Cc1cccc(-c2ccccc2C(=O)N2CC[C@H](O)C[C@@H]2C(=O)OCCOCCOCCOCCOC(=O)c2ccc(-c3c4nc(c(-c5cc(S(=O)(=O)[O-])ccc5F)c5ccc([nH]5)c(-c5cc(S(=O)(=O)[O-])ccc5F)c5nc(c(-c6cc(S(=O)(=O)[O-])ccc6F)c6ccc3[nH]6)C=C5)C=C4)cc2)c1
REMARK SMILES IDX 30 1 29 2 28 3 27 4 26 5 25 6 24 7 22 8 23 9 21 10 15 11
REMARK SMILES IDX 16 12 17 13 20 14 18 15 13 16 14 17 12 18 7 19 8 20 9 21
REMARK SMILES IDX 11 22 10 23 6 24 1 25 2 26 3 27 102 28 4 29 5 30 19 31 31 33
REMARK SMILES IDX 32 34 33 35 34 36 35 37 36 38 37 39 38 40 39 41 40 42 101 43
REMARK SMILES IDX 41 44 100 45 42 46 43 47 44 48 94 49 45 50 99 51 93 52 95 53
REMARK SMILES IDX 46 54 98 55 92 56 91 57 47 59 79 60 59 61 78 62 60 63 63 64
REMARK SMILES IDX 77 65 96 66 61 67 62 68 76 70 97 71 64 72 48 73 49 74 57 75
REMARK SMILES IDX 50 76 56 77 58 78 55 79 51 80 52 81 53 82 54 83 80 84 81 85
REMARK SMILES IDX 89 86 82 87 88 88 90 89 87 90 83 91 84 92 85 93 86 94 65 95
REMARK SMILES IDX 66 96 74 97 67 98 73 99 75 100 72 101 68 102 69 103 70 104
REMARK SMILES IDX 71 105
REMARK H PARENT 19 32 95 58 63 69
REMARK Flexibility Score: inf
ROOT
ATOM      1  O   UNL A   1      35.082  31.586  29.342  1.00  0.00    -0.377 OA
ENDROOT
BRANCH   1   2
ATOM      2  C   UNL A   1      34.427  31.758  28.106  1.00  0.00     0.188 C 
BRANCH   2   3
ATOM      3  C   UNL A   1      33.745  30.649  27.325  1.00  0.00     0.188 C 
BRANCH   3   4
ATOM      4  O   UNL A   1      32.439  30.987  26.870  1.00  0.00    -0.376 OA
BRANCH   4   5
ATOM      5  C   UNL A   1      31.642  29.836  26.683  1.00  0.00     0.202 C 
BRANCH   5   6
ATOM      6  C   UNL A   1      32.141  28.680  27.536  1.00  0.00     0.261 C 
BRANCH   6   7
ATOM      7  O   UNL A   1      31.461  27.468  27.147  1.00  0.00    -0.462 OA
BRANCH   7   8
ATOM      8  C   UNL A   1      32.230  26.625  26.461  1.00  0.00     0.329 C 
ATOM      9  O   UNL A   1      33.344  26.934  26.032  1.00  0.00    -0.250 OA
BRANCH   8  10
ATOM     10  C   UNL A   1      31.661  25.190  26.291  1.00  0.00     0.198 C 
ATOM     11  N   UNL A   1      32.193  24.082  25.382  1.00  0.00    -0.325 N 
ATOM     12  C   UNL A   1      31.691  24.010  24.002  1.00  0.00     0.123 C 
ATOM     13  C   UNL A   1      30.390  24.739  23.639  1.00  0.00     0.053 C 
ATOM     14  C   UNL A   1      30.189  25.471  25.961  1.00  0.00     0.069 C 
ATOM     15  C   UNL A   1      30.059  25.930  24.512  1.00  0.00     0.118 C 
BRANCH  11  16
ATOM     16  C   UNL A   1      33.089  23.111  25.928  1.00  0.00     0.255 C 
ATOM     17  O   UNL A   1      32.699  22.371  26.838  1.00  0.00    -0.269 OA
BRANCH  16  18
ATOM     18  C   UNL A   1      34.546  22.886  25.469  1.00  0.00     0.047 A 
ATOM     19  C   UNL A   1      35.005  21.599  25.091  1.00  0.00    -0.006 A 
ATOM     20  C   UNL A   1      36.395  21.300  25.074  1.00  0.00     0.009 A 
ATOM     21  C   UNL A   1      37.344  22.279  25.285  1.00  0.00     0.001 A 
ATOM     22  C   UNL A   1      35.532  23.862  25.539  1.00  0.00     0.014 A 
ATOM     23  C   UNL A   1      36.905  23.574  25.438  1.00  0.00     0.001 A 
BRANCH  19  24
ATOM     24  C   UNL A   1      34.146  20.667  24.362  1.00  0.00    -0.017 A 
ATOM     25  C   UNL A   1      33.471  16.939  24.624  1.00  0.00     0.044 C 
ATOM     26  C   UNL A   1      33.325  18.372  24.224  1.00  0.00    -0.051 A 
ATOM     27  C   UNL A   1      32.324  18.804  23.351  1.00  0.00     0.003 A 
ATOM     28  C   UNL A   1      34.221  19.310  24.723  1.00  0.00     0.012 A 
ATOM     29  C   UNL A   1      32.225  20.152  22.992  1.00  0.00     0.001 A 
ATOM     30  C   UNL A   1      33.135  21.082  23.493  1.00  0.00     0.009 A 
ENDBRANCH  19  24
ENDBRANCH  16  18
ENDBRANCH  11  16
BRANCH  15  31
ATOM     31  O   UNL A   1      30.904  27.000  24.121  1.00  0.00    -0.393 OA
ATOM     32  H   UNL A   1      30.476  27.844  24.335  1.00  0.00     0.210 HD
ENDBRANCH  15  31
ENDBRANCH   8  10
ENDBRANCH   7   8
ENDBRANCH   6   7
ENDBRANCH   5   6
ENDBRANCH   4   5
ENDBRANCH   3   4
ENDBRANCH   2   3
ENDBRANCH   1   2
BRANCH   1  33
ATOM     33  C   UNL A   1      34.821  32.488  30.386  1.00  0.00     0.188 C 
BRANCH  33  34
ATOM     34  C   UNL A   1      35.412  33.866  30.308  1.00  0.00     0.188 C 
BRANCH  34  35
ATOM     35  O   UNL A   1      36.833  33.736  30.279  1.00  0.00    -0.376 OA
BRANCH  35  36
ATOM     36  C   UNL A   1      37.336  32.934  31.334  1.00  0.00     0.202 C 
BRANCH  36  37
ATOM     37  C   UNL A   1      38.280  31.848  30.804  1.00  0.00     0.261 C 
BRANCH  37  38
ATOM     38  O   UNL A   1      38.109  30.670  31.629  1.00  0.00    -0.460 OA
BRANCH  38  39
ATOM     39  C   UNL A   1      37.528  29.596  31.035  1.00  0.00     0.338 C 
ATOM     40  O   UNL A   1      36.311  29.385  31.009  1.00  0.00    -0.246 OA
BRANCH  39  41
ATOM     41  C   UNL A   1      38.555  28.603  30.588  1.00  0.00     0.060 A 
ATOM     42  C   UNL A   1      39.541  28.138  31.481  1.00  0.00     0.016 A 
ATOM     43  C   UNL A   1      38.708  28.340  29.231  1.00  0.00     0.016 A 
ATOM     44  C   UNL A   1      40.746  27.569  31.009  1.00  0.00     0.010 A 
ATOM     45  C   UNL A   1      39.917  27.822  28.773  1.00  0.00     0.010 A 
ATOM     46  C   UNL A   1      40.990  27.494  29.637  1.00  0.00    -0.014 A 
BRANCH  46  47
ATOM     47  C   UNL A   1      42.348  27.403  28.994  1.00  0.00     0.031 A 
ATOM     48  C   UNL A   1      42.889  26.008  28.664  1.00  0.00     0.074 A 
ATOM     49  C   UNL A   1      42.809  28.523  28.361  1.00  0.00     0.049 A 
ATOM     50  N   UNL A   1      43.924  25.695  27.950  1.00  0.00    -0.248 NA
ATOM     51  C   UNL A   1      42.223  24.796  29.154  1.00  0.00     0.031 C 
ATOM     52  C   UNL A   1      43.339  28.614  27.015  1.00  0.00     0.029 A 
ATOM     53  N   UNL A   1      42.732  29.871  28.660  1.00  0.00    -0.354 N 
ATOM     54  C   UNL A   1      43.904  24.318  27.658  1.00  0.00     0.074 A 
ATOM     55  C   UNL A   1      42.823  23.819  28.467  1.00  0.00     0.031 C 
ATOM     56  C   UNL A   1      43.774  29.822  26.656  1.00  0.00     0.029 A 
ATOM     57  C   UNL A   1      43.613  30.611  27.819  1.00  0.00     0.049 A 
ATOM     58  H   UNL A   1      42.154  30.264  29.353  1.00  0.00     0.167 HD
ATOM     59  C   UNL A   1      44.718  23.785  26.677  1.00  0.00     0.034 A 
ATOM     60  C   UNL A   1      44.606  31.363  28.342  1.00  0.00     0.034 A 
ATOM     61  C   UNL A   1      45.717  24.783  26.227  1.00  0.00     0.049 A 
ATOM     62  C   UNL A   1      45.922  30.520  28.252  1.00  0.00     0.074 A 
ATOM     63  C   UNL A   1      46.185  25.255  25.008  1.00  0.00     0.029 A 
ATOM     64  N   UNL A   1      46.300  25.624  27.178  1.00  0.00    -0.354 N 
ATOM     65  N   UNL A   1      46.002  29.252  27.866  1.00  0.00    -0.248 NA
ATOM     66  C   UNL A   1      47.259  31.087  28.430  1.00  0.00     0.031 C 
ATOM     67  C   UNL A   1      46.867  26.490  25.238  1.00  0.00     0.029 A 
ATOM     68  C   UNL A   1      46.919  26.711  26.605  1.00  0.00     0.049 A 
ATOM     69  H   UNL A   1      46.270  25.457  28.148  1.00  0.00     0.167 HD
ATOM     70  C   UNL A   1      47.312  28.839  27.774  1.00  0.00     0.074 A 
ATOM     71  C   UNL A   1      48.053  30.044  28.119  1.00  0.00     0.031 C 
ATOM     72  C   UNL A   1      47.747  27.575  27.431  1.00  0.00     0.034 A 
BRANCH  59  73
ATOM     73  C   UNL A   1      44.552  22.411  25.939  1.00  0.00     0.023 A 
ATOM     74  C   UNL A   1      43.496  21.529  26.309  1.00  0.00     0.031 A 
ATOM     75  C   UNL A   1      45.390  21.863  24.939  1.00  0.00     0.131 A 
ATOM     76  C   UNL A   1      43.353  20.217  25.785  1.00  0.00     0.055 A 
ATOM     77  C   UNL A   1      45.230  20.571  24.389  1.00  0.00     0.041 A 
ATOM     78  F   UNL A   1      46.411  22.535  24.408  1.00  0.00    -0.206 F 
ATOM     79  C   UNL A   1      44.218  19.733  24.818  1.00  0.00     0.022 A 
BRANCH  76  80
ATOM     80  S   UNL A   1      42.012  19.136  26.381  1.00  0.00     0.124 S 
ATOM     81  O   UNL A   1      42.233  17.918  25.609  1.00  0.00    -0.237 OA
ATOM     82  O   UNL A   1      42.280  19.053  27.812  1.00  0.00    -0.237 OA
ATOM     83  O   UNL A   1      40.797  19.873  26.029  1.00  0.00    -0.744 OA
ENDBRANCH  76  80
ENDBRANCH  59  73
BRANCH  60  84
ATOM     84  C   UNL A   1      43.885  32.227  29.371  1.00  0.00     0.023 A 
ATOM     85  C   UNL A   1      44.323  32.034  30.741  1.00  0.00     0.031 A 
ATOM     86  C   UNL A   1      43.526  33.536  29.011  1.00  0.00     0.131 A 
ATOM     87  C   UNL A   1      44.649  33.144  31.558  1.00  0.00     0.055 A 
ATOM     88  C   UNL A   1      43.833  34.628  29.849  1.00  0.00     0.041 A 
ATOM     89  F   UNL A   1      43.135  33.808  27.758  1.00  0.00    -0.206 F 
ATOM     90  C   UNL A   1      44.444  34.441  31.091  1.00  0.00     0.022 A 
BRANCH  87  91
ATOM     91  S   UNL A   1      45.490  32.980  33.177  1.00  0.00     0.124 S 
ATOM     92  O   UNL A   1      46.614  32.092  32.901  1.00  0.00    -0.237 OA
ATOM     93  O   UNL A   1      45.831  34.366  33.498  1.00  0.00    -0.237 OA
ATOM     94  O   UNL A   1      44.446  32.403  34.021  1.00  0.00    -0.744 OA
ENDBRANCH  87  91
ENDBRANCH  60  84
BRANCH  72  95
ATOM     95  C   UNL A   1      49.081  26.963  27.856  1.00  0.00     0.023 A 
ATOM     96  C   UNL A   1      50.170  26.909  26.991  1.00  0.00     0.031 A 
ATOM     97  C   UNL A   1      49.360  26.559  29.197  1.00  0.00     0.131 A 
ATOM     98  C   UNL A   1      51.406  26.394  27.402  1.00  0.00     0.055 A 
ATOM     99  C   UNL A   1      50.625  26.158  29.635  1.00  0.00     0.041 A 
ATOM    100  F   UNL A   1      48.432  26.556  30.164  1.00  0.00    -0.206 F 
ATOM    101  C   UNL A   1      51.660  26.053  28.727  1.00  0.00     0.022 A 
BRANCH  98 102
ATOM    102  S   UNL A   1      52.627  26.091  26.111  1.00  0.00     0.124 S 
ATOM    103  O   UNL A   1      53.849  26.582  26.743  1.00  0.00    -0.237 OA
ATOM    104  O   UNL A   1      52.544  24.645  25.935  1.00  0.00    -0.237 OA
ATOM    105  O   UNL A   1      52.144  26.888  24.987  1.00  0.00    -0.744 OA
ENDBRANCH  98 102
ENDBRANCH  72  95
ENDBRANCH  46  47
ENDBRANCH  39  41
ENDBRANCH  38  39
ENDBRANCH  37  38
ENDBRANCH  36  37
ENDBRANCH  35  36
ENDBRANCH  34  35
ENDBRANCH  33  34
ENDBRANCH   1  33
TORSDOF 27
ENDMDL
MODEL 2
REMARK VINA RESULT:     -10.3      1.748      2.623
REMARK SMILES Cc1cccc(-c2ccccc2C(=O)N2CC[C@H](O)C[C@@H]2C(=O)OCCOCCOCCOCCOC(=O)c2ccc(-c3c4nc(c(-c5cc(S(=O)(=O)[O-])ccc5F)c5ccc([nH]5)c(-c5cc(S(=O)(=O)[O-])ccc5F)c5nc(c(-c6cc(S(=O)(=O)[O-])ccc6F)c6ccc3[nH]6)C=C5)C=C4)cc2)c1
REMARK SMILES IDX 30 1 29 2 28 3 27 4 26 5 25 6 24 7 22 8 23 9 21 10 15 11
REMARK SMILES IDX 16 12 17 13 20 14 18 15 13 16 14 17 12 18 7 19 8 20 9 21
REMARK SMILES IDX 11 22 10 23 6 24 1 25 2 26 3 27 102 28 4 29 5 30 19 31 31 33
REMARK SMILES IDX 32 34 33 35 34 36 35 37 36 38 37 39 38 40 39 41 40 42 101 43
REMARK SMILES IDX 41 44 100 45 42 46 43 47 44 48 94 49 45 50 99 51 93 52 95 53
REMARK SMILES IDX 46 54 98 55 92 56 91 57 47 59 79 60 59 61 78 62 60 63 63 64
REMARK SMILES IDX 77 65 96 66 61 67 62 68 76 70 97 71 64 72 48 73 49 74 57 75
REMARK SMILES IDX 50 76 56 77 58 78 55 79 51 80 52 81 53 82 54 83 80 84 81 85
REMARK SMILES IDX 89 86 82 87 88 88 90 89 87 90 83 91 84 92 85 93 86 94 65 95
REMARK SMILES IDX 66 96 74 97 67 98 73 99 75 100 72 101 68 102 69 103 70 104
REMARK SMILES IDX 71 105
REMARK H PARENT 19 32 95 58 63 69
REMARK Flexibility Score: inf
ROOT
ATOM      1  O   UNL A   1      35.032  31.797  29.739  1.00  0.00    -0.377 OA
ENDROOT
BRANCH   1   2
ATOM      2  C   UNL A   1      34.618  32.284  28.484  1.00  0.00     0.188 C 
BRANCH   2   3
ATOM      3  C   UNL A   1      33.875  31.469  27.440  1.00  0.00     0.188 C 
BRANCH   3   4
ATOM      4  O   UNL A   1      32.598  31.999  27.101  1.00  0.00    -0.376 OA
BRANCH   4   5
ATOM      5  C   UNL A   1      31.669  30.972  26.821  1.00  0.00     0.202 C 
BRANCH   5   6
ATOM      6  C   UNL A   1      32.227  29.609  27.203  1.00  0.00     0.261 C 
BRANCH   6   7
ATOM      7  O   UNL A   1      31.603  28.591  26.393  1.00  0.00    -0.462 OA
BRANCH   7   8
ATOM      8  C   UNL A   1      32.474  27.831  25.733  1.00  0.00     0.329 C 
ATOM      9  O   UNL A   1      33.581  27.534  26.188  1.00  0.00    -0.250 OA
BRANCH   8  10
ATOM     10  C   UNL A   1      31.978  27.277  24.370  1.00  0.00     0.198 C 
ATOM     11  N   UNL A   1      32.635  26.194  23.513  1.00  0.00    -0.325 N 
ATOM     12  C   UNL A   1      33.641  26.603  22.523  1.00  0.00     0.123 C 
ATOM     13  C   UNL A   1      33.705  28.072  22.082  1.00  0.00     0.053 C 
ATOM     14  C   UNL A   1      31.813  28.562  23.548  1.00  0.00     0.069 C 
ATOM     15  C   UNL A   1      33.178  29.067  23.094  1.00  0.00     0.118 C 
BRANCH  11  16
ATOM     16  C   UNL A   1      32.189  24.842  23.645  1.00  0.00     0.255 C 
ATOM     17  O   UNL A   1      31.762  24.246  22.650  1.00  0.00    -0.269 OA
BRANCH  16  18
ATOM     18  C   UNL A   1      32.196  24.026  24.956  1.00  0.00     0.047 A 
ATOM     19  C   UNL A   1      33.173  23.027  25.192  1.00  0.00    -0.006 A 
ATOM     20  C   UNL A   1      32.954  22.012  26.163  1.00  0.00     0.009 A 
ATOM     21  C   UNL A   1      31.859  22.044  27.002  1.00  0.00     0.001 A 
ATOM     22  C   UNL A   1      31.186  24.093  25.907  1.00  0.00     0.014 A 
ATOM     23  C   UNL A   1      31.021  23.132  26.920  1.00  0.00     0.001 A 
BRANCH  19  24
ATOM     24  C   UNL A   1      34.557  23.194  24.749  1.00  0.00    -0.017 A 
ATOM     25  C   UNL A   1      37.804  24.088  26.504  1.00  0.00     0.044 C 
ATOM     26  C   UNL A   1      36.858  23.617  25.445  1.00  0.00    -0.051 A 
ATOM     27  C   UNL A   1      37.295  23.203  24.186  1.00  0.00     0.003 A 
ATOM     28  C   UNL A   1      35.494  23.603  25.713  1.00  0.00     0.012 A 
ATOM     29  C   UNL A   1      36.378  22.779  23.218  1.00  0.00     0.001 A 
ATOM     30  C   UNL A   1      35.012  22.776  23.497  1.00  0.00     0.009 A 
ENDBRANCH  19  24
ENDBRANCH  16  18
ENDBRANCH  11  16
BRANCH  15  31
ATOM     31  O   UNL A   1      34.158  29.210  24.109  1.00  0.00    -0.393 OA
ATOM     32  H   UNL A   1      34.169  30.128  24.421  1.00  0.00     0.210 HD
ENDBRANCH  15  31
ENDBRANCH   8  10
ENDBRANCH   7   8
ENDBRANCH   6   7
ENDBRANCH   5   6
ENDBRANCH   4   5
ENDBRANCH   3   4
ENDBRANCH   2   3
ENDBRANCH   1   2
BRANCH   1  33
ATOM     33  C   UNL A   1      34.839  32.594  30.880  1.00  0.00     0.188 C 
BRANCH  33  34
ATOM     34  C   UNL A   1      35.657  33.844  31.029  1.00  0.00     0.188 C 
BRANCH  34  35
ATOM     35  O   UNL A   1      37.003  33.536  30.666  1.00  0.00    -0.376 OA
BRANCH  35  36
ATOM     36  C   UNL A   1      37.644  32.681  31.598  1.00  0.00     0.202 C 
BRANCH  36  37
ATOM     37  C   UNL A   1      38.437  31.580  30.885  1.00  0.00     0.261 C 
BRANCH  37  38
ATOM     38  O   UNL A   1      38.216  30.340  31.600  1.00  0.00    -0.460 OA
BRANCH  38  39
ATOM     39  C   UNL A   1      37.759  29.293  30.866  1.00  0.00     0.338 C 
ATOM     40  O   UNL A   1      36.565  29.060  30.648  1.00  0.00    -0.246 OA
BRANCH  39  41
ATOM     41  C   UNL A   1      38.868  28.348  30.521  1.00  0.00     0.060 A 
ATOM     42  C   UNL A   1      39.987  28.214  31.367  1.00  0.00     0.016 A 
ATOM     43  C   UNL A   1      38.931  27.804  29.243  1.00  0.00     0.016 A 
ATOM     44  C   UNL A   1      41.210  27.695  30.885  1.00  0.00     0.010 A 
ATOM     45  C   UNL A   1      40.152  27.338  28.763  1.00  0.00     0.010 A 
ATOM     46  C   UNL A   1      41.335  27.339  29.542  1.00  0.00    -0.014 A 
BRANCH  46  47
ATOM     47  C   UNL A   1      42.628  27.261  28.775  1.00  0.00     0.031 A 
ATOM     48  C   UNL A   1      43.200  25.870  28.481  1.00  0.00     0.074 A 
ATOM     49  C   UNL A   1      42.972  28.354  28.030  1.00  0.00     0.049 A 
ATOM     50  N   UNL A   1      44.175  25.553  27.688  1.00  0.00    -0.248 NA
ATOM     51  C   UNL A   1      42.642  24.668  29.109  1.00  0.00     0.031 C 
ATOM     52  C   UNL A   1      43.366  28.376  26.635  1.00  0.00     0.029 A 
ATOM     53  N   UNL A   1      42.861  29.715  28.250  1.00  0.00    -0.354 N 
ATOM     54  C   UNL A   1      44.192  24.159  27.486  1.00  0.00     0.074 A 
ATOM     55  C   UNL A   1      43.218  23.672  28.429  1.00  0.00     0.031 C 
ATOM     56  C   UNL A   1      43.706  29.574  26.160  1.00  0.00     0.029 A 
ATOM     57  C   UNL A   1      43.621  30.432  27.281  1.00  0.00     0.049 A 
ATOM     58  H   UNL A   1      42.334  30.129  28.971  1.00  0.00     0.167 HD
ATOM     59  C   UNL A   1      44.932  23.596  26.465  1.00  0.00     0.034 A 
ATOM     60  C   UNL A   1      44.623  31.258  27.655  1.00  0.00     0.034 A 
ATOM     61  C   UNL A   1      45.835  24.601  25.857  1.00  0.00     0.049 A 
ATOM     62  C   UNL A   1      45.963  30.464  27.489  1.00  0.00     0.074 A 
ATOM     63  C   UNL A   1      46.161  25.009  24.570  1.00  0.00     0.029 A 
ATOM     64  N   UNL A   1      46.466  25.527  26.691  1.00  0.00    -0.354 N 
ATOM     65  N   UNL A   1      46.065  29.178  27.176  1.00  0.00    -0.248 NA
ATOM     66  C   UNL A   1      47.282  31.096  27.497  1.00  0.00     0.031 C 
ATOM     67  C   UNL A   1      46.802  26.284  24.654  1.00  0.00     0.029 A 
ATOM     68  C   UNL A   1      46.975  26.598  25.993  1.00  0.00     0.049 A 
ATOM     69  H   UNL A   1      46.538  25.425  27.668  1.00  0.00     0.167 HD
ATOM     70  C   UNL A   1      47.378  28.813  26.981  1.00  0.00     0.074 A 
ATOM     71  C   UNL A   1      48.091  30.068  27.174  1.00  0.00     0.031 C 
ATOM     72  C   UNL A   1      47.837  27.548  26.677  1.00  0.00     0.034 A 
BRANCH  59  73
ATOM     73  C   UNL A   1      44.761  22.170  25.835  1.00  0.00     0.023 A 
ATOM     74  C   UNL A   1      43.606  21.393  26.138  1.00  0.00     0.031 A 
ATOM     75  C   UNL A   1      45.675  21.479  25.006  1.00  0.00     0.131 A 
ATOM     76  C   UNL A   1      43.436  20.047  25.717  1.00  0.00     0.055 A 
ATOM     77  C   UNL A   1      45.493  20.152  24.555  1.00  0.00     0.041 A 
ATOM     78  F   UNL A   1      46.801  22.034  24.556  1.00  0.00    -0.206 F 
ATOM     79  C   UNL A   1      44.378  19.422  24.918  1.00  0.00     0.022 A 
BRANCH  76  80
ATOM     80  S   UNL A   1      41.956  19.112  26.224  1.00  0.00     0.124 S 
ATOM     81  O   UNL A   1      41.907  19.366  27.659  1.00  0.00    -0.237 OA
ATOM     82  O   UNL A   1      40.902  19.721  25.421  1.00  0.00    -0.237 OA
ATOM     83  O   UNL A   1      42.281  17.732  25.857  1.00  0.00    -0.744 OA
ENDBRANCH  76  80
ENDBRANCH  59  73
BRANCH  60  84
ATOM     84  C   UNL A   1      43.965  32.158  28.695  1.00  0.00     0.023 A 
ATOM     85  C   UNL A   1      44.346  31.883  30.068  1.00  0.00     0.031 A 
ATOM     86  C   UNL A   1      43.746  33.507  28.368  1.00  0.00     0.131 A 
ATOM     87  C   UNL A   1      44.759  32.930  30.926  1.00  0.00     0.055 A 
ATOM     88  C   UNL A   1      44.137  34.538  29.248  1.00  0.00     0.041 A 
ATOM     89  F   UNL A   1      43.416  33.852  27.116  1.00  0.00    -0.206 F 
ATOM     90  C   UNL A   1      44.696  34.254  30.496  1.00  0.00     0.022 A 
BRANCH  87  91
ATOM     91  S   UNL A   1      45.538  32.636  32.558  1.00  0.00     0.124 S 
ATOM     92  O   UNL A   1      46.335  33.836  32.788  1.00  0.00    -0.237 OA
ATOM     93  O   UNL A   1      44.381  32.457  33.434  1.00  0.00    -0.237 OA
ATOM     94  O   UNL A   1      46.315  31.421  32.325  1.00  0.00    -0.744 OA
ENDBRANCH  87  91
ENDBRANCH  60  84
BRANCH  72  95
ATOM     95  C   UNL A   1      49.234  27.021  27.005  1.00  0.00     0.023 A 
ATOM     96  C   UNL A   1      49.691  26.930  28.316  1.00  0.00     0.031 A 
ATOM     97  C   UNL A   1      50.095  26.438  26.026  1.00  0.00     0.131 A 
ATOM     98  C   UNL A   1      50.953  26.398  28.615  1.00  0.00     0.055 A 
ATOM     99  C   UNL A   1      51.299  25.801  26.340  1.00  0.00     0.041 A 
ATOM    100  F   UNL A   1      49.808  26.429  24.718  1.00  0.00    -0.206 F 
ATOM    101  C   UNL A   1      51.748  25.795  27.646  1.00  0.00     0.022 A 
BRANCH  98 102
ATOM    102  S   UNL A   1      51.549  26.625  30.301  1.00  0.00     0.124 S 
ATOM    103  O   UNL A   1      52.869  26.003  30.230  1.00  0.00    -0.237 OA
ATOM    104  O   UNL A   1      51.541  28.078  30.442  1.00  0.00    -0.237 OA
ATOM    105  O   UNL A   1      50.567  25.911  31.112  1.00  0.00    -0.744 OA
ENDBRANCH  98 102
ENDBRANCH  72  95
ENDBRANCH  46  47
ENDBRANCH  39  41
ENDBRANCH  38  39
ENDBRANCH  37  38
ENDBRANCH  36  37
ENDBRANCH  35  36
ENDBRANCH  34  35
ENDBRANCH  33  34
ENDBRANCH   1  33
TORSDOF 27
ENDMDL
MODEL 3
REMARK VINA RESULT:      -9.7      5.276     12.058
REMARK SMILES Cc1cccc(-c2ccccc2C(=O)N2CC[C@H](O)C[C@@H]2C(=O)OCCOCCOCCOCCOC(=O)c2ccc(-c3c4nc(c(-c5cc(S(=O)(=O)[O-])ccc5F)c5ccc([nH]5)c(-c5cc(S(=O)(=O)[O-])ccc5F)c5nc(c(-c6cc(S(=O)(=O)[O-])ccc6F)c6ccc3[nH]6)C=C5)C=C4)cc2)c1
REMARK SMILES IDX 30 1 29 2 28 3 27 4 26 5 25 6 24 7 22 8 23 9 21 10 15 11
REMARK SMILES IDX 16 12 17 13 20 14 18 15 13 16 14 17 12 18 7 19 8 20 9 21
REMARK SMILES IDX 11 22 10 23 6 24 1 25 2 26 3 27 102 28 4 29 5 30 19 31 31 33
REMARK SMILES IDX 32 34 33 35 34 36 35 37 36 38 37 39 38 40 39 41 40 42 101 43
REMARK SMILES IDX 41 44 100 45 42 46 43 47 44 48 94 49 45 50 99 51 93 52 95 53
REMARK SMILES IDX 46 54 98 55 92 56 91 57 47 59 79 60 59 61 78 62 60 63 63 64
REMARK SMILES IDX 77 65 96 66 61 67 62 68 76 70 97 71 64 72 48 73 49 74 57 75
REMARK SMILES IDX 50 76 56 77 58 78 55 79 51 80 52 81 53 82 54 83 80 84 81 85
REMARK SMILES IDX 89 86 82 87 88 88 90 89 87 90 83 91 84 92 85 93 86 94 65 95
REMARK SMILES IDX 66 96 74 97 67 98 73 99 75 100 72 101 68 102 69 103 70 104
REMARK SMILES IDX 71 105
REMARK H PARENT 19 32 95 58 63 69
REMARK Flexibility Score: inf
ROOT
ATOM      1  O   UNL A   1      39.889  35.195  29.292  1.00  0.00    -0.377 OA
ENDROOT
BRANCH   1   2
ATOM      2  C   UNL A   1      41.052  34.411  29.149  1.00  0.00     0.188 C 
BRANCH   2   3
ATOM      3  C   UNL A   1      42.444  34.964  28.898  1.00  0.00     0.188 C 
BRANCH   3   4
ATOM      4  O   UNL A   1      42.722  35.214  27.524  1.00  0.00    -0.376 OA
BRANCH   4   5
ATOM      5  C   UNL A   1      42.715  36.597  27.238  1.00  0.00     0.202 C 
BRANCH   5   6
ATOM      6  C   UNL A   1      43.319  37.397  28.383  1.00  0.00     0.261 C 
BRANCH   6   7
ATOM      7  O   UNL A   1      44.679  37.750  28.056  1.00  0.00    -0.462 OA
BRANCH   7   8
ATOM      8  C   UNL A   1      45.476  37.836  29.119  1.00  0.00     0.329 C 
ATOM      9  O   UNL A   1      45.683  36.886  29.878  1.00  0.00    -0.250 OA
BRANCH   8  10
ATOM     10  C   UNL A   1      46.190  39.201  29.310  1.00  0.00     0.198 C 
ATOM     11  N   UNL A   1      46.363  40.312  28.274  1.00  0.00    -0.325 N 
ATOM     12  C   UNL A   1      47.544  40.274  27.400  1.00  0.00     0.123 C 
ATOM     13  C   UNL A   1      48.747  39.409  27.803  1.00  0.00     0.053 C 
ATOM     14  C   UNL A   1      47.563  38.768  29.841  1.00  0.00     0.069 C 
ATOM     15  C   UNL A   1      48.418  38.233  28.698  1.00  0.00     0.118 C 
BRANCH  11  16
ATOM     16  C   UNL A   1      45.420  41.387  28.250  1.00  0.00     0.255 C 
ATOM     17  O   UNL A   1      45.776  42.512  28.619  1.00  0.00    -0.269 OA
BRANCH  16  18
ATOM     18  C   UNL A   1      43.953  41.275  27.783  1.00  0.00     0.047 A 
ATOM     19  C   UNL A   1      42.937  40.825  28.661  1.00  0.00    -0.006 A 
ATOM     20  C   UNL A   1      41.705  40.326  28.153  1.00  0.00     0.009 A 
ATOM     21  C   UNL A   1      41.403  40.395  26.809  1.00  0.00     0.001 A 
ATOM     22  C   UNL A   1      43.553  41.448  26.464  1.00  0.00     0.014 A 
ATOM     23  C   UNL A   1      42.300  41.030  25.981  1.00  0.00     0.001 A 
BRANCH  19  24
ATOM     24  C   UNL A   1      42.939  41.185  30.079  1.00  0.00    -0.017 A 
ATOM     25  C   UNL A   1      43.456  39.240  33.299  1.00  0.00     0.044 C 
ATOM     26  C   UNL A   1      43.307  40.392  32.358  1.00  0.00    -0.051 A 
ATOM     27  C   UNL A   1      43.345  41.719  32.792  1.00  0.00     0.003 A 
ATOM     28  C   UNL A   1      43.109  40.141  31.005  1.00  0.00     0.012 A 
ATOM     29  C   UNL A   1      43.192  42.771  31.882  1.00  0.00     0.001 A 
ATOM     30  C   UNL A   1      42.987  42.506  30.529  1.00  0.00     0.009 A 
ENDBRANCH  19  24
ENDBRANCH  16  18
ENDBRANCH  11  16
BRANCH  15  31
ATOM     31  O   UNL A   1      47.821  37.231  27.891  1.00  0.00    -0.393 OA
ATOM     32  H   UNL A   1      48.496  36.587  27.623  1.00  0.00     0.210 HD
ENDBRANCH  15  31
ENDBRANCH   8  10
ENDBRANCH   7   8
ENDBRANCH   6   7
ENDBRANCH   5   6
ENDBRANCH   4   5
ENDBRANCH   3   4
ENDBRANCH   2   3
ENDBRANCH   1   2
BRANCH   1  33
ATOM     33  C   UNL A   1      38.643  34.556  29.401  1.00  0.00     0.188 C 
BRANCH  33  34
ATOM     34  C   UNL A   1      38.289  33.891  30.699  1.00  0.00     0.188 C 
BRANCH  34  35
ATOM     35  O   UNL A   1      36.939  34.230  31.015  1.00  0.00    -0.376 OA
BRANCH  35  36
ATOM     36  C   UNL A   1      36.100  33.095  31.142  1.00  0.00     0.202 C 
BRANCH  36  37
ATOM     37  C   UNL A   1      35.094  33.018  29.988  1.00  0.00     0.261 C 
BRANCH  37  38
ATOM     38  O   UNL A   1      35.811  32.600  28.801  1.00  0.00    -0.460 OA
BRANCH  38  39
ATOM     39  C   UNL A   1      35.328  31.506  28.158  1.00  0.00     0.338 C 
ATOM     40  O   UNL A   1      34.215  31.443  27.625  1.00  0.00    -0.246 OA
BRANCH  39  41
ATOM     41  C   UNL A   1      36.229  30.325  28.347  1.00  0.00     0.060 A 
ATOM     42  C   UNL A   1      36.290  29.658  29.587  1.00  0.00     0.016 A 
ATOM     43  C   UNL A   1      37.204  30.049  27.394  1.00  0.00     0.016 A 
ATOM     44  C   UNL A   1      37.401  28.857  29.933  1.00  0.00     0.010 A 
ATOM     45  C   UNL A   1      38.316  29.296  27.760  1.00  0.00     0.010 A 
ATOM     46  C   UNL A   1      38.479  28.745  29.055  1.00  0.00    -0.014 A 
BRANCH  46  47
ATOM     47  C   UNL A   1      39.888  28.380  29.442  1.00  0.00     0.031 A 
ATOM     48  C   UNL A   1      40.388  26.979  29.078  1.00  0.00     0.074 A 
ATOM     49  C   UNL A   1      40.750  29.413  29.682  1.00  0.00     0.049 A 
ATOM     50  N   UNL A   1      41.597  26.516  29.134  1.00  0.00    -0.248 NA
ATOM     51  C   UNL A   1      39.471  25.949  28.576  1.00  0.00     0.031 C 
ATOM     52  C   UNL A   1      42.073  29.600  29.119  1.00  0.00     0.029 A 
ATOM     53  N   UNL A   1      40.599  30.640  30.303  1.00  0.00    -0.354 N 
ATOM     54  C   UNL A   1      41.672  25.290  28.445  1.00  0.00     0.074 A 
ATOM     55  C   UNL A   1      40.296  24.989  28.147  1.00  0.00     0.031 C 
ATOM     56  C   UNL A   1      42.733  30.669  29.562  1.00  0.00     0.029 A 
ATOM     57  C   UNL A   1      41.874  31.232  30.536  1.00  0.00     0.049 A 
ATOM     58  H   UNL A   1      39.737  31.045  30.550  1.00  0.00     0.167 HD
ATOM     59  C   UNL A   1      42.891  24.739  28.101  1.00  0.00     0.034 A 
ATOM     60  C   UNL A   1      42.281  31.540  31.787  1.00  0.00     0.034 A 
ATOM     61  C   UNL A   1      43.999  25.462  28.768  1.00  0.00     0.049 A 
ATOM     62  C   UNL A   1      43.212  30.377  32.271  1.00  0.00     0.074 A 
ATOM     63  C   UNL A   1      45.221  25.999  28.384  1.00  0.00     0.029 A 
ATOM     64  N   UNL A   1      43.822  25.893  30.085  1.00  0.00    -0.354 N 
ATOM     65  N   UNL A   1      43.432  29.242  31.619  1.00  0.00    -0.248 NA
ATOM     66  C   UNL A   1      44.088  30.477  33.438  1.00  0.00     0.031 C 
ATOM     67  C   UNL A   1      45.649  26.907  29.401  1.00  0.00     0.029 A 
ATOM     68  C   UNL A   1      44.753  26.836  30.456  1.00  0.00     0.049 A 
ATOM     69  H   UNL A   1      43.112  25.559  30.680  1.00  0.00     0.167 HD
ATOM     70  C   UNL A   1      44.396  28.485  32.245  1.00  0.00     0.074 A 
ATOM     71  C   UNL A   1      44.784  29.325  33.368  1.00  0.00     0.031 C 
ATOM     72  C   UNL A   1      44.840  27.239  31.850  1.00  0.00     0.034 A 
BRANCH  59  73
ATOM     73  C   UNL A   1      43.172  23.644  27.013  1.00  0.00     0.023 A 
ATOM     74  C   UNL A   1      42.584  22.353  27.136  1.00  0.00     0.031 A 
ATOM     75  C   UNL A   1      44.026  23.746  25.890  1.00  0.00     0.131 A 
ATOM     76  C   UNL A   1      42.889  21.269  26.270  1.00  0.00     0.055 A 
ATOM     77  C   UNL A   1      44.305  22.680  25.005  1.00  0.00     0.041 A 
ATOM     78  F   UNL A   1      44.642  24.880  25.554  1.00  0.00    -0.206 F 
ATOM     79  C   UNL A   1      43.748  21.430  25.196  1.00  0.00     0.022 A 
BRANCH  76  80
ATOM     80  S   UNL A   1      42.143  19.631  26.558  1.00  0.00     0.124 S 
ATOM     81  O   UNL A   1      43.309  18.815  26.880  1.00  0.00    -0.237 OA
ATOM     82  O   UNL A   1      41.212  19.891  27.650  1.00  0.00    -0.237 OA
ATOM     83  O   UNL A   1      41.508  19.314  25.277  1.00  0.00    -0.744 OA
ENDBRANCH  76  80
ENDBRANCH  59  73
BRANCH  60  84
ATOM     84  C   UNL A   1      41.122  32.363  32.338  1.00  0.00     0.023 A 
ATOM     85  C   UNL A   1      40.075  31.589  32.979  1.00  0.00     0.031 A 
ATOM     86  C   UNL A   1      41.403  33.618  32.904  1.00  0.00     0.131 A 
ATOM     87  C   UNL A   1      39.591  31.950  34.259  1.00  0.00     0.055 A 
ATOM     88  C   UNL A   1      40.890  33.973  34.169  1.00  0.00     0.041 A 
ATOM     89  F   UNL A   1      42.374  34.387  32.391  1.00  0.00    -0.206 F 
ATOM     90  C   UNL A   1      40.035  33.121  34.871  1.00  0.00     0.022 A 
BRANCH  87  91
ATOM     91  S   UNL A   1      38.503  30.866  35.258  1.00  0.00     0.124 S 
ATOM     92  O   UNL A   1      39.406  30.263  36.232  1.00  0.00    -0.237 OA
ATOM     93  O   UNL A   1      37.521  31.810  35.792  1.00  0.00    -0.237 OA
ATOM     94  O   UNL A   1      37.972  29.941  34.260  1.00  0.00    -0.744 OA
ENDBRANCH  87  91
ENDBRANCH  60  84
BRANCH  72  95
ATOM     95  C   UNL A   1      45.444  26.189  32.781  1.00  0.00     0.023 A 
ATOM     96  C   UNL A   1      44.647  25.296  33.491  1.00  0.00     0.031 A 
ATOM     97  C   UNL A   1      46.848  25.939  32.864  1.00  0.00     0.131 A 
ATOM     98  C   UNL A   1      45.209  24.302  34.304  1.00  0.00     0.055 A 
ATOM     99  C   UNL A   1      47.400  24.873  33.580  1.00  0.00     0.041 A 
ATOM    100  F   UNL A   1      47.760  26.694  32.237  1.00  0.00    -0.206 F 
ATOM    101  C   UNL A   1      46.577  24.053  34.327  1.00  0.00     0.022 A 
BRANCH  98 102
ATOM    102  S   UNL A   1      44.083  23.424  35.404  1.00  0.00     0.124 S 
ATOM    103  O   UNL A   1      44.013  24.339  36.542  1.00  0.00    -0.237 OA
ATOM    104  O   UNL A   1      42.870  23.326  34.598  1.00  0.00    -0.237 OA
ATOM    105  O   UNL A   1      44.768  22.161  35.662  1.00  0.00    -0.744 OA
ENDBRANCH  98 102
ENDBRANCH  72  95
ENDBRANCH  46  47
ENDBRANCH  39  41
ENDBRANCH  38  39
ENDBRANCH  37  38
ENDBRANCH  36  37
ENDBRANCH  35  36
ENDBRANCH  34  35
ENDBRANCH  33  34
ENDBRANCH   1  33
TORSDOF 27
ENDMDL
