MODEL 1
REMARK VINA RESULT:      -8.8      0.000      0.000
REMARK SMILES CN(Cc1ncc(C(=O)OCCOCCOCCOCCOC(=O)c2ccc(-c3c4nc(c(-c5cc(S(=O)(=O)[O-])ccc5F)c5ccc([nH]5)c(-c5cc(S(=O)(=O)[O-])ccc5F)c5nc(c(-c6cc(S(=O)(=O)[O-])ccc6F)c6ccc3[nH]6)C=C5)C=C4)cc2)cn1)S(=O)(=O)c1ccc(Cl)cc1
REMARK SMILES IDX 15 1 14 2 13 3 12 4 11 5 10 6 8 7 9 8 7 9 4 10 5 11 89 12
REMARK SMILES IDX 6 13 88 14 3 15 2 16 1 17 90 18 91 19 92 20 93 21 94 22
REMARK SMILES IDX 99 23 95 24 98 25 96 26 97 27 16 28 17 29 18 30 19 31 20 32
REMARK SMILES IDX 21 33 22 34 23 35 24 36 25 37 26 38 87 39 27 40 86 41 28 42
REMARK SMILES IDX 29 43 30 44 80 45 31 46 85 47 79 48 81 49 32 50 84 51 78 52
REMARK SMILES IDX 77 53 33 55 65 56 45 57 64 58 46 59 49 60 63 61 82 62 47 63
REMARK SMILES IDX 48 64 62 66 83 67 50 68 34 69 35 70 43 71 36 72 42 73 44 74
REMARK SMILES IDX 41 75 37 76 38 77 39 78 40 79 66 80 67 81 75 82 68 83 74 84
REMARK SMILES IDX 76 85 73 86 69 87 70 88 71 89 72 90 51 91 52 92 60 93 53 94
REMARK SMILES IDX 59 95 61 96 58 97 54 98 55 99 56 100 57 101
REMARK H PARENT 81 54 49 65
REMARK Flexibility Score: inf
ROOT
ATOM      1  C   UNL A   1      48.299  21.354  36.721  1.00  0.00     0.188 C 
ENDROOT
BRANCH   1   2
ATOM      2  C   UNL A   1      47.107  21.769  35.840  1.00  0.00     0.188 C 
BRANCH   2   3
ATOM      3  O   UNL A   1      46.083  20.854  35.478  1.00  0.00    -0.376 OA
BRANCH   3   4
ATOM      4  C   UNL A   1      46.223  19.446  35.583  1.00  0.00     0.202 C 
BRANCH   4   5
ATOM      5  C   UNL A   1      45.405  18.564  36.547  1.00  0.00     0.261 C 
BRANCH   5   6
ATOM      6  O   UNL A   1      45.351  18.964  37.916  1.00  0.00    -0.460 OA
BRANCH   6   7
ATOM      7  C   UNL A   1      46.117  18.258  38.775  1.00  0.00     0.341 C 
ATOM      8  O   UNL A   1      47.315  18.334  38.934  1.00  0.00    -0.246 OA
BRANCH   7   9
ATOM      9  C   UNL A   1      45.226  17.471  39.639  1.00  0.00     0.096 A 
ATOM     10  C   UNL A   1      43.475  16.206  41.285  1.00  0.00     0.143 A 
ATOM     11  N   UNL A   1      43.605  15.736  40.025  1.00  0.00    -0.239 NA
ATOM     12  N   UNL A   1      44.182  17.241  41.790  1.00  0.00    -0.239 NA
ATOM     13  C   UNL A   1      44.481  16.390  39.223  1.00  0.00     0.130 A 
ATOM     14  C   UNL A   1      45.032  17.863  40.942  1.00  0.00     0.130 A 
BRANCH  10  15
ATOM     15  C   UNL A   1      42.492  15.509  42.215  1.00  0.00     0.179 C 
BRANCH  15  16
ATOM     16  N   UNL A   1      42.842  14.153  42.751  1.00  0.00    -0.193 NA
ATOM     17  C   UNL A   1      41.752  13.180  42.458  1.00  0.00     0.125 C 
BRANCH  16  18
ATOM     18  S   UNL A   1      43.395  14.027  44.365  1.00  0.00     0.243 S 
ATOM     19  O   UNL A   1      42.326  14.360  45.277  1.00  0.00    -0.207 OA
ATOM     20  O   UNL A   1      44.050  12.735  44.460  1.00  0.00    -0.207 OA
BRANCH  18  21
ATOM     21  C   UNL A   1      44.692  15.241  44.584  1.00  0.00     0.082 A 
ATOM     22  C   UNL A   1      45.892  15.086  43.872  1.00  0.00     0.023 A 
ATOM     23  C   UNL A   1      44.588  16.258  45.536  1.00  0.00     0.023 A 
ATOM     24  C   UNL A   1      46.966  15.953  44.100  1.00  0.00     0.022 A 
ATOM     25  C   UNL A   1      45.650  17.146  45.738  1.00  0.00     0.022 A 
ATOM     26  C   UNL A   1      46.837  16.985  45.025  1.00  0.00     0.041 A 
ATOM     27  Cl  UNL A   1      48.157  18.051  45.313  1.00  0.00    -0.084 Cl
ENDBRANCH  18  21
ENDBRANCH  16  18
ENDBRANCH  15  16
ENDBRANCH  10  15
ENDBRANCH   7   9
ENDBRANCH   6   7
ENDBRANCH   5   6
ENDBRANCH   4   5
ENDBRANCH   3   4
ENDBRANCH   2   3
ENDBRANCH   1   2
BRANCH   1  28
ATOM     28  O   UNL A   1      49.520  21.964  36.341  1.00  0.00    -0.377 OA
BRANCH  28  29
ATOM     29  C   UNL A   1      50.023  21.572  35.067  1.00  0.00     0.188 C 
BRANCH  29  30
ATOM     30  C   UNL A   1      49.951  22.626  33.947  1.00  0.00     0.188 C 
BRANCH  30  31
ATOM     31  O   UNL A   1      50.141  23.960  34.420  1.00  0.00    -0.376 OA
BRANCH  31  32
ATOM     32  C   UNL A   1      48.966  24.687  34.763  1.00  0.00     0.202 C 
BRANCH  32  33
ATOM     33  C   UNL A   1      49.135  25.652  35.945  1.00  0.00     0.261 C 
BRANCH  33  34
ATOM     34  O   UNL A   1      48.093  26.630  36.095  1.00  0.00    -0.460 OA
BRANCH  34  35
ATOM     35  C   UNL A   1      48.266  27.820  35.478  1.00  0.00     0.338 C 
ATOM     36  O   UNL A   1      49.324  28.375  35.245  1.00  0.00    -0.246 OA
BRANCH  35  37
ATOM     37  C   UNL A   1      46.955  28.249  34.949  1.00  0.00     0.060 A 
ATOM     38  C   UNL A   1      45.890  27.341  34.973  1.00  0.00     0.016 A 
ATOM     39  C   UNL A   1      46.780  29.535  34.431  1.00  0.00     0.016 A 
ATOM     40  C   UNL A   1      44.651  27.708  34.444  1.00  0.00     0.010 A 
ATOM     41  C   UNL A   1      45.545  29.895  33.888  1.00  0.00     0.010 A 
ATOM     42  C   UNL A   1      44.484  28.973  33.863  1.00  0.00    -0.014 A 
BRANCH  42  43
ATOM     43  C   UNL A   1      43.266  29.267  33.067  1.00  0.00     0.031 A 
ATOM     44  C   UNL A   1      42.138  30.006  33.734  1.00  0.00     0.074 A 
ATOM     45  C   UNL A   1      43.168  28.900  31.777  1.00  0.00     0.049 A 
ATOM     46  N   UNL A   1      40.966  30.341  33.261  1.00  0.00    -0.248 NA
ATOM     47  C   UNL A   1      42.364  30.414  35.130  1.00  0.00     0.031 C 
ATOM     48  C   UNL A   1      44.209  28.213  31.013  1.00  0.00     0.029 A 
ATOM     49  N   UNL A   1      42.137  29.050  30.883  1.00  0.00    -0.354 N 
ATOM     50  C   UNL A   1      40.315  31.001  34.297  1.00  0.00     0.074 A 
ATOM     51  C   UNL A   1      41.207  30.978  35.436  1.00  0.00     0.031 C 
ATOM     52  C   UNL A   1      43.757  27.993  29.764  1.00  0.00     0.029 A 
ATOM     53  C   UNL A   1      42.386  28.489  29.651  1.00  0.00     0.049 A 
ATOM     54  H   UNL A   1      41.297  29.514  31.103  1.00  0.00     0.167 HD
ATOM     55  C   UNL A   1      39.090  31.583  34.295  1.00  0.00     0.034 A 
ATOM     56  C   UNL A   1      41.590  28.371  28.569  1.00  0.00     0.034 A 
ATOM     57  C   UNL A   1      38.203  31.579  33.159  1.00  0.00     0.049 A 
ATOM     58  C   UNL A   1      40.192  28.945  28.620  1.00  0.00     0.074 A 
ATOM     59  C   UNL A   1      36.945  32.146  33.044  1.00  0.00     0.029 A 
ATOM     60  N   UNL A   1      38.471  30.964  31.943  1.00  0.00    -0.354 N 
ATOM     61  N   UNL A   1      39.593  29.583  29.600  1.00  0.00    -0.248 NA
ATOM     62  C   UNL A   1      39.367  28.792  27.413  1.00  0.00     0.031 C 
ATOM     63  C   UNL A   1      36.424  31.809  31.791  1.00  0.00     0.029 A 
ATOM     64  C   UNL A   1      37.389  31.105  31.087  1.00  0.00     0.049 A 
ATOM     65  H   UNL A   1      39.307  30.494  31.720  1.00  0.00     0.167 HD
ATOM     66  C   UNL A   1      38.336  29.936  29.112  1.00  0.00     0.074 A 
ATOM     67  C   UNL A   1      38.268  29.450  27.750  1.00  0.00     0.031 C 
ATOM     68  C   UNL A   1      37.330  30.607  29.732  1.00  0.00     0.034 A 
BRANCH  55  69
ATOM     69  C   UNL A   1      38.628  32.221  35.583  1.00  0.00     0.023 A 
ATOM     70  C   UNL A   1      38.179  31.451  36.672  1.00  0.00     0.031 A 
ATOM     71  C   UNL A   1      38.600  33.620  35.712  1.00  0.00     0.131 A 
ATOM     72  C   UNL A   1      37.656  32.085  37.809  1.00  0.00     0.055 A 
ATOM     73  C   UNL A   1      38.154  34.244  36.878  1.00  0.00     0.041 A 
ATOM     74  F   UNL A   1      38.991  34.408  34.697  1.00  0.00    -0.206 F 
ATOM     75  C   UNL A   1      37.664  33.476  37.930  1.00  0.00     0.022 A 
BRANCH  72  76
ATOM     76  S   UNL A   1      36.828  31.070  39.063  1.00  0.00     0.124 S 
ATOM     77  O   UNL A   1      37.758  31.171  40.187  1.00  0.00    -0.237 OA
ATOM     78  O   UNL A   1      35.550  31.752  39.229  1.00  0.00    -0.237 OA
ATOM     79  O   UNL A   1      36.756  29.748  38.442  1.00  0.00    -0.744 OA
ENDBRANCH  72  76
ENDBRANCH  55  69
BRANCH  56  80
ATOM     80  C   UNL A   1      42.065  27.648  27.353  1.00  0.00     0.023 A 
ATOM     81  C   UNL A   1      42.048  26.245  27.285  1.00  0.00     0.031 A 
ATOM     82  C   UNL A   1      42.606  28.353  26.262  1.00  0.00     0.131 A 
ATOM     83  C   UNL A   1      42.603  25.591  26.173  1.00  0.00     0.055 A 
ATOM     84  C   UNL A   1      43.107  27.698  25.136  1.00  0.00     0.041 A 
ATOM     85  F   UNL A   1      42.651  29.694  26.276  1.00  0.00    -0.206 F 
ATOM     86  C   UNL A   1      43.120  26.309  25.093  1.00  0.00     0.022 A 
BRANCH  83  87
ATOM     87  S   UNL A   1      42.721  23.781  26.199  1.00  0.00     0.124 S 
ATOM     88  O   UNL A   1      41.330  23.395  26.401  1.00  0.00    -0.237 OA
ATOM     89  O   UNL A   1      43.283  23.496  24.883  1.00  0.00    -0.237 OA
ATOM     90  O   UNL A   1      43.614  23.515  27.326  1.00  0.00    -0.744 OA
ENDBRANCH  83  87
ENDBRANCH  56  80
BRANCH  68  91
ATOM     91  C   UNL A   1      36.091  30.901  28.918  1.00  0.00     0.023 A 
ATOM     92  C   UNL A   1      35.247  29.878  28.449  1.00  0.00     0.031 A 
ATOM     93  C   UNL A   1      35.754  32.230  28.604  1.00  0.00     0.131 A 
ATOM     94  C   UNL A   1      34.142  30.197  27.645  1.00  0.00     0.055 A 
ATOM     95  C   UNL A   1      34.617  32.545  27.857  1.00  0.00     0.041 A 
ATOM     96  F   UNL A   1      36.523  33.248  29.022  1.00  0.00    -0.206 F 
ATOM     97  C   UNL A   1      33.811  31.524  27.361  1.00  0.00     0.022 A 
BRANCH  94  98
ATOM     98  S   UNL A   1      33.192  28.847  26.892  1.00  0.00     0.124 S 
ATOM     99  O   UNL A   1      34.250  27.944  26.448  1.00  0.00    -0.237 OA
ATOM    100  O   UNL A   1      32.379  28.377  28.009  1.00  0.00    -0.237 OA
ATOM    101  O   UNL A   1      32.449  29.506  25.819  1.00  0.00    -0.744 OA
ENDBRANCH  94  98
ENDBRANCH  68  91
ENDBRANCH  42  43
ENDBRANCH  35  37
ENDBRANCH  34  35
ENDBRANCH  33  34
ENDBRANCH  32  33
ENDBRANCH  31  32
ENDBRANCH  30  31
ENDBRANCH  29  30
ENDBRANCH  28  29
ENDBRANCH   1  28
TORSDOF 27
ENDMDL
MODEL 2
REMARK VINA RESULT:      -8.1      7.247     17.760
REMARK SMILES CN(Cc1ncc(C(=O)OCCOCCOCCOCCOC(=O)c2ccc(-c3c4nc(c(-c5cc(S(=O)(=O)[O-])ccc5F)c5ccc([nH]5)c(-c5cc(S(=O)(=O)[O-])ccc5F)c5nc(c(-c6cc(S(=O)(=O)[O-])ccc6F)c6ccc3[nH]6)C=C5)C=C4)cc2)cn1)S(=O)(=O)c1ccc(Cl)cc1
REMARK SMILES IDX 15 1 14 2 13 3 12 4 11 5 10 6 8 7 9 8 7 9 4 10 5 11 89 12
REMARK SMILES IDX 6 13 88 14 3 15 2 16 1 17 90 18 91 19 92 20 93 21 94 22
REMARK SMILES IDX 99 23 95 24 98 25 96 26 97 27 16 28 17 29 18 30 19 31 20 32
REMARK SMILES IDX 21 33 22 34 23 35 24 36 25 37 26 38 87 39 27 40 86 41 28 42
REMARK SMILES IDX 29 43 30 44 80 45 31 46 85 47 79 48 81 49 32 50 84 51 78 52
REMARK SMILES IDX 77 53 33 55 65 56 45 57 64 58 46 59 49 60 63 61 82 62 47 63
REMARK SMILES IDX 48 64 62 66 83 67 50 68 34 69 35 70 43 71 36 72 42 73 44 74
REMARK SMILES IDX 41 75 37 76 38 77 39 78 40 79 66 80 67 81 75 82 68 83 74 84
REMARK SMILES IDX 76 85 73 86 69 87 70 88 71 89 72 90 51 91 52 92 60 93 53 94
REMARK SMILES IDX 59 95 61 96 58 97 54 98 55 99 56 100 57 101
REMARK H PARENT 81 54 49 65
REMARK Flexibility Score: inf
ROOT
ATOM      1  C   UNL A   1      36.450  30.442  28.361  1.00  0.00     0.188 C 
ENDROOT
BRANCH   1   2
ATOM      2  C   UNL A   1      35.001  30.958  28.436  1.00  0.00     0.188 C 
BRANCH   2   3
ATOM      3  O   UNL A   1      34.272  31.327  27.274  1.00  0.00    -0.376 OA
BRANCH   3   4
ATOM      4  C   UNL A   1      32.964  30.855  26.992  1.00  0.00     0.202 C 
BRANCH   4   5
ATOM      5  C   UNL A   1      32.661  29.559  26.214  1.00  0.00     0.261 C 
BRANCH   5   6
ATOM      6  O   UNL A   1      32.358  29.682  24.826  1.00  0.00    -0.460 OA
BRANCH   6   7
ATOM      7  C   UNL A   1      31.458  28.807  24.330  1.00  0.00     0.341 C 
ATOM      8  O   UNL A   1      30.340  29.041  23.927  1.00  0.00    -0.246 OA
BRANCH   7   9
ATOM      9  C   UNL A   1      32.119  27.502  24.192  1.00  0.00     0.096 A 
ATOM     10  C   UNL A   1      33.532  25.199  23.915  1.00  0.00     0.143 A 
ATOM     11  N   UNL A   1      32.732  25.319  24.997  1.00  0.00    -0.239 NA
ATOM     12  N   UNL A   1      33.650  26.134  22.946  1.00  0.00    -0.239 NA
ATOM     13  C   UNL A   1      32.043  26.481  25.114  1.00  0.00     0.130 A 
ATOM     14  C   UNL A   1      32.949  27.277  23.120  1.00  0.00     0.130 A 
BRANCH  10  15
ATOM     15  C   UNL A   1      34.335  23.916  23.752  1.00  0.00     0.179 C 
BRANCH  15  16
ATOM     16  N   UNL A   1      33.814  22.655  24.375  1.00  0.00    -0.193 NA
ATOM     17  C   UNL A   1      34.902  21.642  24.486  1.00  0.00     0.125 C 
BRANCH  16  18
ATOM     18  S   UNL A   1      32.367  21.976  23.765  1.00  0.00     0.243 S 
ATOM     19  O   UNL A   1      31.237  22.488  24.504  1.00  0.00    -0.207 OA
ATOM     20  O   UNL A   1      32.426  22.145  22.325  1.00  0.00    -0.207 OA
BRANCH  18  21
ATOM     21  C   UNL A   1      32.443  20.209  24.047  1.00  0.00     0.082 A 
ATOM     22  C   UNL A   1      32.636  19.741  25.356  1.00  0.00     0.023 A 
ATOM     23  C   UNL A   1      32.444  19.300  22.987  1.00  0.00     0.023 A 
ATOM     24  C   UNL A   1      32.810  18.374  25.599  1.00  0.00     0.022 A 
ATOM     25  C   UNL A   1      32.582  17.930  23.234  1.00  0.00     0.022 A 
ATOM     26  C   UNL A   1      32.772  17.473  24.537  1.00  0.00     0.041 A 
ATOM     27  Cl  UNL A   1      32.989  15.792  24.830  1.00  0.00    -0.084 Cl
ENDBRANCH  18  21
ENDBRANCH  16  18
ENDBRANCH  15  16
ENDBRANCH  10  15
ENDBRANCH   7   9
ENDBRANCH   6   7
ENDBRANCH   5   6
ENDBRANCH   4   5
ENDBRANCH   3   4
ENDBRANCH   2   3
ENDBRANCH   1   2
BRANCH   1  28
ATOM     28  O   UNL A   1      36.715  29.372  29.251  1.00  0.00    -0.377 OA
BRANCH  28  29
ATOM     29  C   UNL A   1      38.022  29.365  29.817  1.00  0.00     0.188 C 
BRANCH  29  30
ATOM     30  C   UNL A   1      38.508  28.027  30.404  1.00  0.00     0.188 C 
BRANCH  30  31
ATOM     31  O   UNL A   1      39.435  27.347  29.556  1.00  0.00    -0.376 OA
BRANCH  31  32
ATOM     32  C   UNL A   1      39.490  27.777  28.200  1.00  0.00     0.202 C 
BRANCH  32  33
ATOM     33  C   UNL A   1      40.046  26.733  27.222  1.00  0.00     0.261 C 
BRANCH  33  34
ATOM     34  O   UNL A   1      41.141  27.177  26.404  1.00  0.00    -0.460 OA
BRANCH  34  35
ATOM     35  C   UNL A   1      42.049  26.249  26.025  1.00  0.00     0.338 C 
ATOM     36  O   UNL A   1      42.143  25.723  24.932  1.00  0.00    -0.246 OA
BRANCH  35  37
ATOM     37  C   UNL A   1      43.044  26.124  27.109  1.00  0.00     0.060 A 
ATOM     38  C   UNL A   1      43.395  27.267  27.837  1.00  0.00     0.016 A 
ATOM     39  C   UNL A   1      43.627  24.888  27.404  1.00  0.00     0.016 A 
ATOM     40  C   UNL A   1      44.362  27.183  28.841  1.00  0.00     0.010 A 
ATOM     41  C   UNL A   1      44.605  24.809  28.399  1.00  0.00     0.010 A 
ATOM     42  C   UNL A   1      44.999  25.962  29.100  1.00  0.00    -0.014 A 
BRANCH  42  43
ATOM     43  C   UNL A   1      46.203  25.925  29.967  1.00  0.00     0.031 A 
ATOM     44  C   UNL A   1      47.542  26.212  29.342  1.00  0.00     0.074 A 
ATOM     45  C   UNL A   1      46.111  25.658  31.282  1.00  0.00     0.049 A 
ATOM     46  N   UNL A   1      48.733  26.201  29.882  1.00  0.00    -0.248 NA
ATOM     47  C   UNL A   1      47.532  26.549  27.910  1.00  0.00     0.031 C 
ATOM     48  C   UNL A   1      44.868  25.402  32.006  1.00  0.00     0.029 A 
ATOM     49  N   UNL A   1      47.088  25.552  32.241  1.00  0.00    -0.354 N 
ATOM     50  C   UNL A   1      49.614  26.532  28.858  1.00  0.00     0.074 A 
ATOM     51  C   UNL A   1      48.823  26.693  27.658  1.00  0.00     0.031 C 
ATOM     52  C   UNL A   1      45.159  25.159  33.298  1.00  0.00     0.029 A 
ATOM     53  C   UNL A   1      46.609  25.206  33.483  1.00  0.00     0.049 A 
ATOM     54  H   UNL A   1      48.043  25.709  32.056  1.00  0.00     0.167 HD
ATOM     55  C   UNL A   1      50.959  26.698  28.916  1.00  0.00     0.034 A 
ATOM     56  C   UNL A   1      47.268  24.937  34.629  1.00  0.00     0.034 A 
ATOM     57  C   UNL A   1      51.738  26.512  30.116  1.00  0.00     0.049 A 
ATOM     58  C   UNL A   1      48.777  25.037  34.649  1.00  0.00     0.074 A 
ATOM     59  C   UNL A   1      53.103  26.663  30.290  1.00  0.00     0.029 A 
ATOM     60  N   UNL A   1      51.223  26.119  31.345  1.00  0.00    -0.354 N 
ATOM     61  N   UNL A   1      49.598  25.368  33.679  1.00  0.00    -0.248 NA
ATOM     62  C   UNL A   1      49.444  24.736  35.923  1.00  0.00     0.031 C 
ATOM     63  C   UNL A   1      53.422  26.288  31.599  1.00  0.00     0.029 A 
ATOM     64  C   UNL A   1      52.248  25.986  32.271  1.00  0.00     0.049 A 
ATOM     65  H   UNL A   1      50.271  25.957  31.533  1.00  0.00     0.167 HD
ATOM     66  C   UNL A   1      50.875  25.348  34.238  1.00  0.00     0.074 A 
ATOM     67  C   UNL A   1      50.712  24.984  35.629  1.00  0.00     0.031 C 
ATOM     68  C   UNL A   1      52.073  25.613  33.656  1.00  0.00     0.034 A 
BRANCH  55  69
ATOM     69  C   UNL A   1      51.668  27.044  27.629  1.00  0.00     0.023 A 
ATOM     70  C   UNL A   1      52.165  26.052  26.766  1.00  0.00     0.031 A 
ATOM     71  C   UNL A   1      51.881  28.388  27.277  1.00  0.00     0.131 A 
ATOM     72  C   UNL A   1      52.912  26.416  25.636  1.00  0.00     0.055 A 
ATOM     73  C   UNL A   1      52.556  28.746  26.108  1.00  0.00     0.041 A 
ATOM     74  F   UNL A   1      51.453  29.380  28.075  1.00  0.00    -0.206 F 
ATOM     75  C   UNL A   1      53.089  27.757  25.288  1.00  0.00     0.022 A 
BRANCH  72  76
ATOM     76  S   UNL A   1      53.776  25.117  24.712  1.00  0.00     0.124 S 
ATOM     77  O   UNL A   1      53.164  23.907  25.259  1.00  0.00    -0.237 OA
ATOM     78  O   UNL A   1      53.437  25.434  23.329  1.00  0.00    -0.237 OA
ATOM     79  O   UNL A   1      55.179  25.313  25.072  1.00  0.00    -0.744 OA
ENDBRANCH  72  76
ENDBRANCH  55  69
BRANCH  56  80
ATOM     80  C   UNL A   1      46.524  24.507  35.849  1.00  0.00     0.023 A 
ATOM     81  C   UNL A   1      45.974  25.446  36.737  1.00  0.00     0.031 A 
ATOM     82  C   UNL A   1      46.407  23.144  36.178  1.00  0.00     0.131 A 
ATOM     83  C   UNL A   1      45.375  25.014  37.931  1.00  0.00     0.055 A 
ATOM     84  C   UNL A   1      45.763  22.718  37.340  1.00  0.00     0.041 A 
ATOM     85  F   UNL A   1      46.918  22.205  35.367  1.00  0.00    -0.206 F 
ATOM     86  C   UNL A   1      45.255  23.656  38.232  1.00  0.00     0.022 A 
BRANCH  83  87
ATOM     87  S   UNL A   1      44.834  26.260  39.133  1.00  0.00     0.124 S 
ATOM     88  O   UNL A   1      45.091  25.583  40.399  1.00  0.00    -0.237 OA
ATOM     89  O   UNL A   1      45.707  27.385  38.817  1.00  0.00    -0.237 OA
ATOM     90  O   UNL A   1      43.423  26.458  38.806  1.00  0.00    -0.744 OA
ENDBRANCH  83  87
ENDBRANCH  56  80
BRANCH  68  91
ATOM     91  C   UNL A   1      53.297  25.572  34.542  1.00  0.00     0.023 A 
ATOM     92  C   UNL A   1      54.169  24.468  34.556  1.00  0.00     0.031 A 
ATOM     93  C   UNL A   1      53.590  26.655  35.389  1.00  0.00     0.131 A 
ATOM     94  C   UNL A   1      55.259  24.450  35.440  1.00  0.00     0.055 A 
ATOM     95  C   UNL A   1      54.711  26.658  36.221  1.00  0.00     0.041 A 
ATOM     96  F   UNL A   1      52.792  27.734  35.421  1.00  0.00    -0.206 F 
ATOM     97  C   UNL A   1      55.545  25.544  36.260  1.00  0.00     0.022 A 
BRANCH  94  98
ATOM     98  S   UNL A   1      56.246  22.934  35.578  1.00  0.00     0.124 S 
ATOM     99  O   UNL A   1      55.219  21.925  35.820  1.00  0.00    -0.237 OA
ATOM    100  O   UNL A   1      56.905  22.872  34.277  1.00  0.00    -0.237 OA
ATOM    101  O   UNL A   1      57.131  23.201  36.709  1.00  0.00    -0.744 OA
ENDBRANCH  94  98
ENDBRANCH  68  91
ENDBRANCH  42  43
ENDBRANCH  35  37
ENDBRANCH  34  35
ENDBRANCH  33  34
ENDBRANCH  32  33
ENDBRANCH  31  32
ENDBRANCH  30  31
ENDBRANCH  29  30
ENDBRANCH  28  29
ENDBRANCH   1  28
TORSDOF 27
ENDMDL
MODEL 3
REMARK VINA RESULT:      -8.0      8.730     17.480
REMARK SMILES CN(Cc1ncc(C(=O)OCCOCCOCCOCCOC(=O)c2ccc(-c3c4nc(c(-c5cc(S(=O)(=O)[O-])ccc5F)c5ccc([nH]5)c(-c5cc(S(=O)(=O)[O-])ccc5F)c5nc(c(-c6cc(S(=O)(=O)[O-])ccc6F)c6ccc3[nH]6)C=C5)C=C4)cc2)cn1)S(=O)(=O)c1ccc(Cl)cc1
REMARK SMILES IDX 15 1 14 2 13 3 12 4 11 5 10 6 8 7 9 8 7 9 4 10 5 11 89 12
REMARK SMILES IDX 6 13 88 14 3 15 2 16 1 17 90 18 91 19 92 20 93 21 94 22
REMARK SMILES IDX 99 23 95 24 98 25 96 26 97 27 16 28 17 29 18 30 19 31 20 32
REMARK SMILES IDX 21 33 22 34 23 35 24 36 25 37 26 38 87 39 27 40 86 41 28 42
REMARK SMILES IDX 29 43 30 44 80 45 31 46 85 47 79 48 81 49 32 50 84 51 78 52
REMARK SMILES IDX 77 53 33 55 65 56 45 57 64 58 46 59 49 60 63 61 82 62 47 63
REMARK SMILES IDX 48 64 62 66 83 67 50 68 34 69 35 70 43 71 36 72 42 73 44 74
REMARK SMILES IDX 41 75 37 76 38 77 39 78 40 79 66 80 67 81 75 82 68 83 74 84
REMARK SMILES IDX 76 85 73 86 69 87 70 88 71 89 72 90 51 91 52 92 60 93 53 94
REMARK SMILES IDX 59 95 61 96 58 97 54 98 55 99 56 100 57 101
REMARK H PARENT 81 54 49 65
REMARK Flexibility Score: inf
ROOT
ATOM      1  C   UNL A   1      41.175  30.671  30.064  1.00  0.00     0.188 C 
ENDROOT
BRANCH   1   2
ATOM      2  C   UNL A   1      40.045  30.127  30.957  1.00  0.00     0.188 C 
BRANCH   2   3
ATOM      3  O   UNL A   1      38.789  29.732  30.425  1.00  0.00    -0.376 OA
BRANCH   3   4
ATOM      4  C   UNL A   1      37.689  30.617  30.283  1.00  0.00     0.202 C 
BRANCH   4   5
ATOM      5  C   UNL A   1      37.439  31.493  29.040  1.00  0.00     0.261 C 
BRANCH   5   6
ATOM      6  O   UNL A   1      36.382  31.103  28.165  1.00  0.00    -0.460 OA
BRANCH   6   7
ATOM      7  C   UNL A   1      35.130  31.413  28.564  1.00  0.00     0.341 C 
ATOM      8  O   UNL A   1      34.797  32.244  29.381  1.00  0.00    -0.246 OA
BRANCH   7   9
ATOM      9  C   UNL A   1      34.184  30.683  27.709  1.00  0.00     0.096 A 
ATOM     10  C   UNL A   1      32.426  29.178  26.287  1.00  0.00     0.143 A 
ATOM     11  N   UNL A   1      32.108  30.472  26.512  1.00  0.00    -0.239 NA
ATOM     12  N   UNL A   1      33.575  28.593  26.694  1.00  0.00    -0.239 NA
ATOM     13  C   UNL A   1      33.000  31.199  27.230  1.00  0.00     0.130 A 
ATOM     14  C   UNL A   1      34.421  29.362  27.416  1.00  0.00     0.130 A 
BRANCH  10  15
ATOM     15  C   UNL A   1      31.446  28.323  25.497  1.00  0.00     0.179 C 
BRANCH  15  16
ATOM     16  N   UNL A   1      31.976  27.176  24.689  1.00  0.00    -0.193 NA
ATOM     17  C   UNL A   1      31.598  27.331  23.256  1.00  0.00     0.125 C 
BRANCH  16  18
ATOM     18  S   UNL A   1      31.710  25.583  25.253  1.00  0.00     0.243 S 
ATOM     19  O   UNL A   1      31.638  25.580  26.696  1.00  0.00    -0.207 OA
ATOM     20  O   UNL A   1      30.600  25.067  24.473  1.00  0.00    -0.207 OA
BRANCH  18  21
ATOM     21  C   UNL A   1      33.130  24.602  24.780  1.00  0.00     0.082 A 
ATOM     22  C   UNL A   1      34.283  24.652  25.579  1.00  0.00     0.023 A 
ATOM     23  C   UNL A   1      33.162  23.896  23.575  1.00  0.00     0.023 A 
ATOM     24  C   UNL A   1      35.448  23.985  25.181  1.00  0.00     0.022 A 
ATOM     25  C   UNL A   1      34.316  23.201  23.196  1.00  0.00     0.022 A 
ATOM     26  C   UNL A   1      35.455  23.254  23.996  1.00  0.00     0.041 A 
ATOM     27  Cl  UNL A   1      36.886  22.437  23.500  1.00  0.00    -0.084 Cl
ENDBRANCH  18  21
ENDBRANCH  16  18
ENDBRANCH  15  16
ENDBRANCH  10  15
ENDBRANCH   7   9
ENDBRANCH   6   7
ENDBRANCH   5   6
ENDBRANCH   4   5
ENDBRANCH   3   4
ENDBRANCH   2   3
ENDBRANCH   1   2
BRANCH   1  28
ATOM     28  O   UNL A   1      41.020  30.345  28.695  1.00  0.00    -0.377 OA
BRANCH  28  29
ATOM     29  C   UNL A   1      41.555  29.082  28.308  1.00  0.00     0.188 C 
BRANCH  29  30
ATOM     30  C   UNL A   1      40.883  28.391  27.107  1.00  0.00     0.188 C 
BRANCH  30  31
ATOM     31  O   UNL A   1      41.092  26.978  27.086  1.00  0.00    -0.376 OA
BRANCH  31  32
ATOM     32  C   UNL A   1      41.192  26.330  28.350  1.00  0.00     0.202 C 
BRANCH  32  33
ATOM     33  C   UNL A   1      41.272  24.799  28.277  1.00  0.00     0.261 C 
BRANCH  33  34
ATOM     34  O   UNL A   1      42.549  24.266  27.887  1.00  0.00    -0.460 OA
BRANCH  34  35
ATOM     35  C   UNL A   1      42.797  24.159  26.562  1.00  0.00     0.338 C 
ATOM     36  O   UNL A   1      42.000  23.870  25.690  1.00  0.00    -0.246 OA
BRANCH  35  37
ATOM     37  C   UNL A   1      44.168  24.653  26.320  1.00  0.00     0.060 A 
ATOM     38  C   UNL A   1      45.143  23.748  25.884  1.00  0.00     0.016 A 
ATOM     39  C   UNL A   1      44.489  25.998  26.524  1.00  0.00     0.016 A 
ATOM     40  C   UNL A   1      46.455  24.181  25.684  1.00  0.00     0.010 A 
ATOM     41  C   UNL A   1      45.806  26.426  26.338  1.00  0.00     0.010 A 
ATOM     42  C   UNL A   1      46.801  25.513  25.948  1.00  0.00    -0.014 A 
BRANCH  42  43
ATOM     43  C   UNL A   1      48.231  25.910  25.999  1.00  0.00     0.031 A 
ATOM     44  C   UNL A   1      48.947  25.830  27.320  1.00  0.00     0.074 A 
ATOM     45  C   UNL A   1      48.883  26.318  24.896  1.00  0.00     0.049 A 
ATOM     46  N   UNL A   1      50.177  26.158  27.622  1.00  0.00    -0.248 NA
ATOM     47  C   UNL A   1      48.163  25.318  28.455  1.00  0.00     0.031 C 
ATOM     48  C   UNL A   1      48.306  26.401  23.555  1.00  0.00     0.029 A 
ATOM     49  N   UNL A   1      50.178  26.747  24.733  1.00  0.00    -0.354 N 
ATOM     50  C   UNL A   1      50.316  25.889  28.979  1.00  0.00     0.074 A 
ATOM     51  C   UNL A   1      49.032  25.415  29.448  1.00  0.00     0.031 C 
ATOM     52  C   UNL A   1      49.243  26.862  22.707  1.00  0.00     0.029 A 
ATOM     53  C   UNL A   1      50.472  27.141  23.448  1.00  0.00     0.049 A 
ATOM     54  H   UNL A   1      50.833  26.770  25.467  1.00  0.00     0.167 HD
ATOM     55  C   UNL A   1      51.418  26.016  29.760  1.00  0.00     0.034 A 
ATOM     56  C   UNL A   1      51.596  27.686  22.938  1.00  0.00     0.034 A 
ATOM     57  C   UNL A   1      52.685  26.511  29.284  1.00  0.00     0.049 A 
ATOM     58  C   UNL A   1      52.784  27.906  23.849  1.00  0.00     0.074 A 
ATOM     59  C   UNL A   1      53.868  26.671  29.986  1.00  0.00     0.029 A 
ATOM     60  N   UNL A   1      52.934  26.942  27.987  1.00  0.00    -0.354 N 
ATOM     61  N   UNL A   1      52.909  27.631  25.128  1.00  0.00    -0.248 NA
ATOM     62  C   UNL A   1      53.983  28.499  23.243  1.00  0.00     0.031 C 
ATOM     63  C   UNL A   1      54.805  27.268  29.136  1.00  0.00     0.029 A 
ATOM     64  C   UNL A   1      54.238  27.403  27.879  1.00  0.00     0.049 A 
ATOM     65  H   UNL A   1      52.280  26.925  27.251  1.00  0.00     0.167 HD
ATOM     66  C   UNL A   1      54.214  27.988  25.466  1.00  0.00     0.074 A 
ATOM     67  C   UNL A   1      54.835  28.484  24.257  1.00  0.00     0.031 C 
ATOM     68  C   UNL A   1      54.843  27.905  26.667  1.00  0.00     0.034 A 
BRANCH  55  69
ATOM     69  C   UNL A   1      51.271  25.662  31.220  1.00  0.00     0.023 A 
ATOM     70  C   UNL A   1      51.468  24.351  31.689  1.00  0.00     0.031 A 
ATOM     71  C   UNL A   1      50.894  26.643  32.154  1.00  0.00     0.131 A 
ATOM     72  C   UNL A   1      51.216  24.042  33.034  1.00  0.00     0.055 A 
ATOM     73  C   UNL A   1      50.724  26.347  33.507  1.00  0.00     0.041 A 
ATOM     74  F   UNL A   1      50.666  27.907  31.762  1.00  0.00    -0.206 F 
ATOM     75  C   UNL A   1      50.869  25.037  33.952  1.00  0.00     0.022 A 
BRANCH  72  76
ATOM     76  S   UNL A   1      51.201  22.300  33.536  1.00  0.00     0.124 S 
ATOM     77  O   UNL A   1      52.001  21.681  32.481  1.00  0.00    -0.237 OA
ATOM     78  O   UNL A   1      51.814  22.346  34.859  1.00  0.00    -0.237 OA
ATOM     79  O   UNL A   1      49.782  21.949  33.517  1.00  0.00    -0.744 OA
ENDBRANCH  72  76
ENDBRANCH  55  69
BRANCH  56  80
ATOM     80  C   UNL A   1      51.654  28.104  21.507  1.00  0.00     0.023 A 
ATOM     81  C   UNL A   1      51.806  27.161  20.477  1.00  0.00     0.031 A 
ATOM     82  C   UNL A   1      51.623  29.465  21.153  1.00  0.00     0.131 A 
ATOM     83  C   UNL A   1      51.968  27.593  19.151  1.00  0.00     0.055 A 
ATOM     84  C   UNL A   1      51.731  29.886  19.827  1.00  0.00     0.041 A 
ATOM     85  F   UNL A   1      51.484  30.409  22.097  1.00  0.00    -0.206 F 
ATOM     86  C   UNL A   1      51.918  28.948  18.818  1.00  0.00     0.022 A 
BRANCH  83  87
ATOM     87  S   UNL A   1      52.336  26.358  17.874  1.00  0.00     0.124 S 
ATOM     88  O   UNL A   1      51.142  25.524  17.914  1.00  0.00    -0.237 OA
ATOM     89  O   UNL A   1      52.499  27.191  16.687  1.00  0.00    -0.237 OA
ATOM     90  O   UNL A   1      53.561  25.723  18.359  1.00  0.00    -0.744 OA
ENDBRANCH  83  87
ENDBRANCH  56  80
BRANCH  68  91
ATOM     91  C   UNL A   1      56.298  28.313  26.715  1.00  0.00     0.023 A 
ATOM     92  C   UNL A   1      56.693  29.626  27.026  1.00  0.00     0.031 A 
ATOM     93  C   UNL A   1      57.304  27.370  26.438  1.00  0.00     0.131 A 
ATOM     94  C   UNL A   1      58.053  29.972  26.997  1.00  0.00     0.055 A 
ATOM     95  C   UNL A   1      58.658  27.704  26.473  1.00  0.00     0.041 A 
ATOM     96  F   UNL A   1      56.986  26.102  26.132  1.00  0.00    -0.206 F 
ATOM     97  C   UNL A   1      59.039  29.016  26.741  1.00  0.00     0.022 A 
BRANCH  94  98
ATOM     98  S   UNL A   1      58.515  31.715  27.205  1.00  0.00     0.124 S 
ATOM     99  O   UNL A   1      59.782  31.781  26.483  1.00  0.00    -0.237 OA
ATOM    100  O   UNL A   1      57.392  32.411  26.587  1.00  0.00    -0.237 OA
ATOM    101  O   UNL A   1      58.618  31.872  28.655  1.00  0.00    -0.744 OA
ENDBRANCH  94  98
ENDBRANCH  68  91
ENDBRANCH  42  43
ENDBRANCH  35  37
ENDBRANCH  34  35
ENDBRANCH  33  34
ENDBRANCH  32  33
ENDBRANCH  31  32
ENDBRANCH  30  31
ENDBRANCH  29  30
ENDBRANCH  28  29
ENDBRANCH   1  28
TORSDOF 27
ENDMDL
