MODEL 1
REMARK VINA RESULT:      -9.4      0.000      0.000
REMARK SMILES O=C(OCCOCCOCCOCCOC(=O)c1ccc(NC(=O)c2ccc([N+](=O)[O-])cc2Cl)cc1Cl)c1ccc(-c2c3nc(c(-c4cc(S(=O)(=O)[O-])ccc4F)c4ccc([nH]4)c(-c4cc(S(=O)(=O)[O-])ccc4F)c4nc(c(-c5cc(S(=O)(=O)[O-])ccc5F)c5ccc2[nH]5)C=C4)C=C3)cc1
REMARK SMILES IDX 9 1 8 2 7 3 6 4 5 5 4 6 3 7 2 8 1 9 38 10 39 11 100 12 40 13
REMARK SMILES IDX 99 14 41 15 42 16 43 17 93 18 44 19 98 20 92 21 94 22 45 23
REMARK SMILES IDX 97 24 91 25 90 26 46 28 78 29 58 30 77 31 59 32 62 33 76 34
REMARK SMILES IDX 95 35 60 36 61 37 75 39 96 40 63 41 47 42 48 43 56 44 49 45
REMARK SMILES IDX 55 46 57 47 54 48 50 49 51 50 52 51 53 52 79 53 80 54 88 55
REMARK SMILES IDX 81 56 87 57 89 58 86 59 82 60 83 61 84 62 85 63 64 64 65 65
REMARK SMILES IDX 73 66 66 67 72 68 74 69 71 70 67 71 68 72 69 73 70 74 10 75
REMARK SMILES IDX 11 76 12 77 13 78 14 79 15 80 16 81 17 82 18 83 19 84 36 85
REMARK SMILES IDX 20 86 35 87 37 88 21 89 22 90 23 91 24 93 25 94 26 95 33 96
REMARK SMILES IDX 27 97 32 98 34 99 28 100 29 101 30 102 31 103
REMARK H PARENT 94 27 62 38 22 92
REMARK Flexibility Score: inf
ROOT
ATOM      1  O   UNL A   1      35.625  22.399  25.029  1.00  0.00    -0.377 OA
ENDROOT
BRANCH   1   2
ATOM      2  C   UNL A   1      36.881  22.141  24.403  1.00  0.00     0.188 C 
BRANCH   2   3
ATOM      3  C   UNL A   1      37.704  21.027  25.048  1.00  0.00     0.188 C 
BRANCH   3   4
ATOM      4  O   UNL A   1      38.507  21.539  26.115  1.00  0.00    -0.376 OA
BRANCH   4   5
ATOM      5  C   UNL A   1      39.917  21.397  25.939  1.00  0.00     0.202 C 
BRANCH   5   6
ATOM      6  C   UNL A   1      40.451  19.986  26.200  1.00  0.00     0.261 C 
BRANCH   6   7
ATOM      7  O   UNL A   1      41.837  19.996  26.571  1.00  0.00    -0.460 OA
BRANCH   7   8
ATOM      8  C   UNL A   1      42.873  20.534  25.875  1.00  0.00     0.338 C 
ATOM      9  O   UNL A   1      43.339  19.886  24.938  1.00  0.00    -0.246 OA
BRANCH   8  10
ATOM     10  C   UNL A   1      43.481  21.869  26.173  1.00  0.00     0.060 A 
ATOM     11  C   UNL A   1      44.154  22.211  27.349  1.00  0.00     0.016 A 
ATOM     12  C   UNL A   1      43.412  22.839  25.158  1.00  0.00     0.016 A 
ATOM     13  C   UNL A   1      44.649  23.488  27.563  1.00  0.00     0.010 A 
ATOM     14  C   UNL A   1      43.939  24.121  25.348  1.00  0.00     0.010 A 
ATOM     15  C   UNL A   1      44.524  24.456  26.574  1.00  0.00    -0.014 A 
BRANCH  15  16
ATOM     16  C   UNL A   1      44.827  25.851  26.944  1.00  0.00     0.031 A 
ATOM     17  C   UNL A   1      43.727  26.654  27.570  1.00  0.00     0.074 A 
ATOM     18  C   UNL A   1      46.089  26.310  26.869  1.00  0.00     0.049 A 
ATOM     19  N   UNL A   1      43.716  27.905  27.938  1.00  0.00    -0.248 NA
ATOM     20  C   UNL A   1      42.467  25.937  27.829  1.00  0.00     0.031 C 
ATOM     21  C   UNL A   1      47.244  25.530  26.416  1.00  0.00     0.029 A 
ATOM     22  N   UNL A   1      46.619  27.528  27.202  1.00  0.00    -0.354 N 
ATOM     23  C   UNL A   1      42.440  28.135  28.441  1.00  0.00     0.074 A 
ATOM     24  C   UNL A   1      41.703  26.898  28.322  1.00  0.00     0.031 C 
ATOM     25  C   UNL A   1      48.349  26.287  26.514  1.00  0.00     0.029 A 
ATOM     26  C   UNL A   1      47.970  27.624  26.961  1.00  0.00     0.049 A 
ATOM     27  H   UNL A   1      46.085  28.264  27.577  1.00  0.00     0.167 HD
ATOM     28  C   UNL A   1      41.936  29.285  28.949  1.00  0.00     0.034 A 
ATOM     29  C   UNL A   1      48.788  28.691  27.052  1.00  0.00     0.034 A 
ATOM     30  C   UNL A   1      42.711  30.497  29.033  1.00  0.00     0.049 A 
ATOM     31  C   UNL A   1      48.177  29.993  27.510  1.00  0.00     0.074 A 
ATOM     32  C   UNL A   1      42.314  31.758  29.435  1.00  0.00     0.029 A 
ATOM     33  N   UNL A   1      44.061  30.588  28.702  1.00  0.00    -0.354 N 
ATOM     34  N   UNL A   1      46.941  30.237  27.888  1.00  0.00    -0.248 NA
ATOM     35  C   UNL A   1      49.061  31.163  27.544  1.00  0.00     0.031 C 
ATOM     36  C   UNL A   1      43.406  32.623  29.285  1.00  0.00     0.029 A 
ATOM     37  C   UNL A   1      44.505  31.888  28.866  1.00  0.00     0.049 A 
ATOM     38  H   UNL A   1      44.617  29.836  28.394  1.00  0.00     0.167 HD
ATOM     39  C   UNL A   1      46.902  31.587  28.221  1.00  0.00     0.074 A 
ATOM     40  C   UNL A   1      48.247  32.095  28.023  1.00  0.00     0.031 C 
ATOM     41  C   UNL A   1      45.859  32.347  28.647  1.00  0.00     0.034 A 
BRANCH  28  42
ATOM     42  C   UNL A   1      40.474  29.283  29.321  1.00  0.00     0.023 A 
ATOM     43  C   UNL A   1      40.042  29.180  30.656  1.00  0.00     0.031 A 
ATOM     44  C   UNL A   1      39.495  29.270  28.311  1.00  0.00     0.131 A 
ATOM     45  C   UNL A   1      38.680  28.979  30.937  1.00  0.00     0.055 A 
ATOM     46  C   UNL A   1      38.135  29.155  28.603  1.00  0.00     0.041 A 
ATOM     47  F   UNL A   1      39.849  29.330  27.017  1.00  0.00    -0.206 F 
ATOM     48  C   UNL A   1      37.722  28.989  29.921  1.00  0.00     0.022 A 
BRANCH  45  49
ATOM     49  S   UNL A   1      38.196  28.536  32.630  1.00  0.00     0.124 S 
ATOM     50  O   UNL A   1      38.269  27.078  32.585  1.00  0.00    -0.237 OA
ATOM     51  O   UNL A   1      39.212  29.202  33.435  1.00  0.00    -0.237 OA
ATOM     52  O   UNL A   1      36.845  29.081  32.755  1.00  0.00    -0.744 OA
ENDBRANCH  45  49
ENDBRANCH  28  42
BRANCH  29  53
ATOM     53  C   UNL A   1      50.219  28.601  26.630  1.00  0.00     0.023 A 
ATOM     54  C   UNL A   1      50.612  28.824  25.301  1.00  0.00     0.031 A 
ATOM     55  C   UNL A   1      51.219  28.236  27.553  1.00  0.00     0.131 A 
ATOM     56  C   UNL A   1      51.956  28.646  24.927  1.00  0.00     0.055 A 
ATOM     57  C   UNL A   1      52.560  28.117  27.190  1.00  0.00     0.041 A 
ATOM     58  F   UNL A   1      50.905  27.998  28.837  1.00  0.00    -0.206 F 
ATOM     59  C   UNL A   1      52.935  28.308  25.864  1.00  0.00     0.022 A 
BRANCH  56  60
ATOM     60  S   UNL A   1      52.399  28.770  23.170  1.00  0.00     0.124 S 
ATOM     61  O   UNL A   1      51.987  27.465  22.666  1.00  0.00    -0.237 OA
ATOM     62  O   UNL A   1      51.596  29.910  22.737  1.00  0.00    -0.237 OA
ATOM     63  O   UNL A   1      53.842  29.003  23.198  1.00  0.00    -0.744 OA
ENDBRANCH  56  60
ENDBRANCH  29  53
BRANCH  41  64
ATOM     64  C   UNL A   1      46.161  33.788  28.958  1.00  0.00     0.023 A 
ATOM     65  C   UNL A   1      46.548  34.197  30.245  1.00  0.00     0.031 A 
ATOM     66  C   UNL A   1      46.059  34.763  27.950  1.00  0.00     0.131 A 
ATOM     67  C   UNL A   1      46.764  35.557  30.506  1.00  0.00     0.055 A 
ATOM     68  C   UNL A   1      46.337  36.106  28.201  1.00  0.00     0.041 A 
ATOM     69  F   UNL A   1      45.693  34.422  26.704  1.00  0.00    -0.206 F 
ATOM     70  C   UNL A   1      46.678  36.511  29.488  1.00  0.00     0.022 A 
BRANCH  67  71
ATOM     71  S   UNL A   1      47.063  36.074  32.217  1.00  0.00     0.124 S 
ATOM     72  O   UNL A   1      45.707  36.290  32.711  1.00  0.00    -0.237 OA
ATOM     73  O   UNL A   1      47.768  34.923  32.772  1.00  0.00    -0.237 OA
ATOM     74  O   UNL A   1      47.871  37.283  32.073  1.00  0.00    -0.744 OA
ENDBRANCH  67  71
ENDBRANCH  41  64
ENDBRANCH  15  16
ENDBRANCH   8  10
ENDBRANCH   7   8
ENDBRANCH   6   7
ENDBRANCH   5   6
ENDBRANCH   4   5
ENDBRANCH   3   4
ENDBRANCH   2   3
ENDBRANCH   1   2
BRANCH   1  75
ATOM     75  C   UNL A   1      35.434  21.842  26.324  1.00  0.00     0.188 C 
BRANCH  75  76
ATOM     76  C   UNL A   1      34.177  22.228  27.136  1.00  0.00     0.188 C 
BRANCH  76  77
ATOM     77  O   UNL A   1      33.786  23.590  27.040  1.00  0.00    -0.376 OA
BRANCH  77  78
ATOM     78  C   UNL A   1      32.379  23.814  26.957  1.00  0.00     0.202 C 
BRANCH  78  79
ATOM     79  C   UNL A   1      31.564  22.532  26.771  1.00  0.00     0.261 C 
BRANCH  79  80
ATOM     80  O   UNL A   1      30.965  22.407  25.469  1.00  0.00    -0.460 OA
BRANCH  80  81
ATOM     81  C   UNL A   1      31.772  22.369  24.387  1.00  0.00     0.339 C 
ATOM     82  O   UNL A   1      32.448  21.433  24.001  1.00  0.00    -0.246 OA
BRANCH  81  83
ATOM     83  C   UNL A   1      31.485  23.582  23.589  1.00  0.00     0.078 A 
ATOM     84  C   UNL A   1      30.263  24.234  23.821  1.00  0.00     0.019 A 
ATOM     85  C   UNL A   1      32.427  24.173  22.748  1.00  0.00     0.057 A 
ATOM     86  C   UNL A   1      30.021  25.508  23.286  1.00  0.00     0.027 A 
ATOM     87  C   UNL A   1      32.167  25.435  22.197  1.00  0.00     0.047 A 
ATOM     88  Cl  UNL A   1      33.921  23.411  22.334  1.00  0.00    -0.083 Cl
ATOM     89  C   UNL A   1      30.984  26.130  22.492  1.00  0.00     0.043 A 
BRANCH  89  90
ATOM     90  N   UNL A   1      30.845  27.403  21.912  1.00  0.00    -0.322 N 
ATOM     91  C   UNL A   1      31.052  28.679  22.379  1.00  0.00     0.257 C 
ATOM     92  H   UNL A   1      30.536  27.376  20.978  1.00  0.00     0.170 HD
ATOM     93  O   UNL A   1      30.617  29.641  21.746  1.00  0.00    -0.269 OA
BRANCH  91  94
ATOM     94  C   UNL A   1      31.837  28.963  23.591  1.00  0.00     0.059 A 
ATOM     95  C   UNL A   1      31.135  29.439  24.711  1.00  0.00     0.022 A 
ATOM     96  C   UNL A   1      33.237  28.891  23.621  1.00  0.00     0.060 A 
ATOM     97  C   UNL A   1      31.820  29.779  25.879  1.00  0.00     0.086 A 
ATOM     98  C   UNL A   1      33.928  29.223  24.790  1.00  0.00     0.107 A 
ATOM     99  Cl  UNL A   1      34.178  28.462  22.237  1.00  0.00    -0.083 Cl
ATOM    100  C   UNL A   1      33.215  29.656  25.917  1.00  0.00     0.270 A 
BRANCH 100 101
ATOM    101  N   UNL A   1      33.943  29.998  27.146  1.00  0.00     0.062 N 
ATOM    102  O   UNL A   1      34.408  29.065  27.813  1.00  0.00    -0.258 OA
ATOM    103  O   UNL A   1      34.041  31.198  27.432  1.00  0.00    -0.258 OA
ENDBRANCH 100 101
ENDBRANCH  91  94
ENDBRANCH  89  90
ENDBRANCH  81  83
ENDBRANCH  80  81
ENDBRANCH  79  80
ENDBRANCH  78  79
ENDBRANCH  77  78
ENDBRANCH  76  77
ENDBRANCH  75  76
ENDBRANCH   1  75
TORSDOF 26
ENDMDL
MODEL 2
REMARK VINA RESULT:      -9.2      1.733      2.026
REMARK SMILES O=C(OCCOCCOCCOCCOC(=O)c1ccc(NC(=O)c2ccc([N+](=O)[O-])cc2Cl)cc1Cl)c1ccc(-c2c3nc(c(-c4cc(S(=O)(=O)[O-])ccc4F)c4ccc([nH]4)c(-c4cc(S(=O)(=O)[O-])ccc4F)c4nc(c(-c5cc(S(=O)(=O)[O-])ccc5F)c5ccc2[nH]5)C=C4)C=C3)cc1
REMARK SMILES IDX 9 1 8 2 7 3 6 4 5 5 4 6 3 7 2 8 1 9 38 10 39 11 100 12 40 13
REMARK SMILES IDX 99 14 41 15 42 16 43 17 93 18 44 19 98 20 92 21 94 22 45 23
REMARK SMILES IDX 97 24 91 25 90 26 46 28 78 29 58 30 77 31 59 32 62 33 76 34
REMARK SMILES IDX 95 35 60 36 61 37 75 39 96 40 63 41 47 42 48 43 56 44 49 45
REMARK SMILES IDX 55 46 57 47 54 48 50 49 51 50 52 51 53 52 79 53 80 54 88 55
REMARK SMILES IDX 81 56 87 57 89 58 86 59 82 60 83 61 84 62 85 63 64 64 65 65
REMARK SMILES IDX 73 66 66 67 72 68 74 69 71 70 67 71 68 72 69 73 70 74 10 75
REMARK SMILES IDX 11 76 12 77 13 78 14 79 15 80 16 81 17 82 18 83 19 84 36 85
REMARK SMILES IDX 20 86 35 87 37 88 21 89 22 90 23 91 24 93 25 94 26 95 33 96
REMARK SMILES IDX 27 97 32 98 34 99 28 100 29 101 30 102 31 103
REMARK H PARENT 94 27 62 38 22 92
REMARK Flexibility Score: inf
ROOT
ATOM      1  O   UNL A   1      35.536  22.445  24.990  1.00  0.00    -0.377 OA
ENDROOT
BRANCH   1   2
ATOM      2  C   UNL A   1      36.742  22.160  24.285  1.00  0.00     0.188 C 
BRANCH   2   3
ATOM      3  C   UNL A   1      37.525  20.956  24.807  1.00  0.00     0.188 C 
BRANCH   3   4
ATOM      4  O   UNL A   1      38.299  21.311  25.955  1.00  0.00    -0.376 OA
BRANCH   4   5
ATOM      5  C   UNL A   1      39.715  21.234  25.783  1.00  0.00     0.202 C 
BRANCH   5   6
ATOM      6  C   UNL A   1      40.319  19.861  26.093  1.00  0.00     0.261 C 
BRANCH   6   7
ATOM      7  O   UNL A   1      41.664  19.964  26.582  1.00  0.00    -0.460 OA
BRANCH   7   8
ATOM      8  C   UNL A   1      42.745  20.455  25.923  1.00  0.00     0.338 C 
ATOM      9  O   UNL A   1      43.233  19.774  25.022  1.00  0.00    -0.246 OA
BRANCH   8  10
ATOM     10  C   UNL A   1      43.381  21.778  26.221  1.00  0.00     0.060 A 
ATOM     11  C   UNL A   1      44.054  22.109  27.399  1.00  0.00     0.016 A 
ATOM     12  C   UNL A   1      43.338  22.746  25.203  1.00  0.00     0.016 A 
ATOM     13  C   UNL A   1      44.576  23.376  27.613  1.00  0.00     0.010 A 
ATOM     14  C   UNL A   1      43.891  24.018  25.392  1.00  0.00     0.010 A 
ATOM     15  C   UNL A   1      44.476  24.344  26.620  1.00  0.00    -0.014 A 
BRANCH  15  16
ATOM     16  C   UNL A   1      44.807  25.733  26.988  1.00  0.00     0.031 A 
ATOM     17  C   UNL A   1      43.719  26.563  27.599  1.00  0.00     0.074 A 
ATOM     18  C   UNL A   1      46.080  26.163  26.924  1.00  0.00     0.049 A 
ATOM     19  N   UNL A   1      43.732  27.816  27.962  1.00  0.00    -0.248 NA
ATOM     20  C   UNL A   1      42.440  25.876  27.848  1.00  0.00     0.031 C 
ATOM     21  C   UNL A   1      47.221  25.355  26.486  1.00  0.00     0.029 A 
ATOM     22  N   UNL A   1      46.634  27.370  27.258  1.00  0.00    -0.354 N 
ATOM     23  C   UNL A   1      42.457  28.076  28.451  1.00  0.00     0.074 A 
ATOM     24  C   UNL A   1      41.693  26.856  28.329  1.00  0.00     0.031 C 
ATOM     25  C   UNL A   1      48.342  26.087  26.593  1.00  0.00     0.029 A 
ATOM     26  C   UNL A   1      47.989  27.434  27.031  1.00  0.00     0.049 A 
ATOM     27  H   UNL A   1      46.112  28.119  27.625  1.00  0.00     0.167 HD
ATOM     28  C   UNL A   1      41.974  29.239  28.948  1.00  0.00     0.034 A 
ATOM     29  C   UNL A   1      48.830  28.482  27.127  1.00  0.00     0.034 A 
ATOM     30  C   UNL A   1      42.776  30.434  29.037  1.00  0.00     0.049 A 
ATOM     31  C   UNL A   1      48.244  29.800  27.573  1.00  0.00     0.074 A 
ATOM     32  C   UNL A   1      42.403  31.705  29.429  1.00  0.00     0.029 A 
ATOM     33  N   UNL A   1      44.131  30.493  28.719  1.00  0.00    -0.354 N 
ATOM     34  N   UNL A   1      47.010  30.073  27.938  1.00  0.00    -0.248 NA
ATOM     35  C   UNL A   1      49.154  30.950  27.612  1.00  0.00     0.031 C 
ATOM     36  C   UNL A   1      43.515  32.545  29.288  1.00  0.00     0.029 A 
ATOM     37  C   UNL A   1      44.602  31.783  28.883  1.00  0.00     0.049 A 
ATOM     38  H   UNL A   1      44.673  29.728  28.421  1.00  0.00     0.167 HD
ATOM     39  C   UNL A   1      46.999  31.425  28.265  1.00  0.00     0.074 A 
ATOM     40  C   UNL A   1      48.357  31.902  28.079  1.00  0.00     0.031 C 
ATOM     41  C   UNL A   1      45.969  32.210  28.676  1.00  0.00     0.034 A 
BRANCH  28  42
ATOM     42  C   UNL A   1      40.508  29.272  29.305  1.00  0.00     0.023 A 
ATOM     43  C   UNL A   1      40.060  29.190  30.636  1.00  0.00     0.031 A 
ATOM     44  C   UNL A   1      39.540  29.272  28.285  1.00  0.00     0.131 A 
ATOM     45  C   UNL A   1      38.691  29.021  30.905  1.00  0.00     0.055 A 
ATOM     46  C   UNL A   1      38.175  29.188  28.563  1.00  0.00     0.041 A 
ATOM     47  F   UNL A   1      39.908  29.313  26.994  1.00  0.00    -0.206 F 
ATOM     48  C   UNL A   1      37.744  29.043  29.878  1.00  0.00     0.022 A 
BRANCH  45  49
ATOM     49  S   UNL A   1      38.180  28.604  32.596  1.00  0.00     0.124 S 
ATOM     50  O   UNL A   1      39.191  29.299  33.389  1.00  0.00    -0.237 OA
ATOM     51  O   UNL A   1      36.830  29.148  32.662  1.00  0.00    -0.237 OA
ATOM     52  O   UNL A   1      38.268  27.144  32.631  1.00  0.00    -0.744 OA
ENDBRANCH  45  49
ENDBRANCH  28  42
BRANCH  29  53
ATOM     53  C   UNL A   1      50.263  28.358  26.720  1.00  0.00     0.023 A 
ATOM     54  C   UNL A   1      51.303  28.391  27.661  1.00  0.00     0.031 A 
ATOM     55  C   UNL A   1      50.617  28.253  25.360  1.00  0.00     0.131 A 
ATOM     56  C   UNL A   1      52.642  28.357  27.231  1.00  0.00     0.055 A 
ATOM     57  C   UNL A   1      51.945  28.161  24.941  1.00  0.00     0.041 A 
ATOM     58  F   UNL A   1      49.668  28.227  24.410  1.00  0.00    -0.206 F 
ATOM     59  C   UNL A   1      52.969  28.228  25.879  1.00  0.00     0.022 A 
BRANCH  56  60
ATOM     60  S   UNL A   1      53.962  28.579  28.458  1.00  0.00     0.124 S 
ATOM     61  O   UNL A   1      53.325  29.469  29.422  1.00  0.00    -0.237 OA
ATOM     62  O   UNL A   1      54.193  27.208  28.903  1.00  0.00    -0.237 OA
ATOM     63  O   UNL A   1      55.051  29.172  27.684  1.00  0.00    -0.744 OA
ENDBRANCH  56  60
ENDBRANCH  29  53
BRANCH  41  64
ATOM     64  C   UNL A   1      46.300  33.646  28.985  1.00  0.00     0.023 A 
ATOM     65  C   UNL A   1      46.168  34.656  28.016  1.00  0.00     0.031 A 
ATOM     66  C   UNL A   1      46.753  34.004  30.266  1.00  0.00     0.131 A 
ATOM     67  C   UNL A   1      46.542  35.969  28.329  1.00  0.00     0.055 A 
ATOM     68  C   UNL A   1      47.063  35.325  30.589  1.00  0.00     0.041 A 
ATOM     69  F   UNL A   1      46.896  33.076  31.225  1.00  0.00    -0.206 F 
ATOM     70  C   UNL A   1      46.972  36.313  29.613  1.00  0.00     0.022 A 
BRANCH  67  71
ATOM     71  S   UNL A   1      46.551  37.205  27.003  1.00  0.00     0.124 S 
ATOM     72  O   UNL A   1      45.196  37.742  27.079  1.00  0.00    -0.237 OA
ATOM     73  O   UNL A   1      47.618  38.107  27.424  1.00  0.00    -0.237 OA
ATOM     74  O   UNL A   1      46.841  36.420  25.804  1.00  0.00    -0.744 OA
ENDBRANCH  67  71
ENDBRANCH  41  64
ENDBRANCH  15  16
ENDBRANCH   8  10
ENDBRANCH   7   8
ENDBRANCH   6   7
ENDBRANCH   5   6
ENDBRANCH   4   5
ENDBRANCH   3   4
ENDBRANCH   2   3
ENDBRANCH   1   2
BRANCH   1  75
ATOM     75  C   UNL A   1      35.402  21.862  26.281  1.00  0.00     0.188 C 
BRANCH  75  76
ATOM     76  C   UNL A   1      34.112  22.113  27.095  1.00  0.00     0.188 C 
BRANCH  76  77
ATOM     77  O   UNL A   1      33.651  23.456  27.104  1.00  0.00    -0.376 OA
BRANCH  77  78
ATOM     78  C   UNL A   1      32.233  23.613  27.093  1.00  0.00     0.202 C 
BRANCH  78  79
ATOM     79  C   UNL A   1      31.481  22.353  26.656  1.00  0.00     0.261 C 
BRANCH  79  80
ATOM     80  O   UNL A   1      30.912  22.444  25.338  1.00  0.00    -0.460 OA
BRANCH  80  81
ATOM     81  C   UNL A   1      31.744  22.451  24.274  1.00  0.00     0.339 C 
ATOM     82  O   UNL A   1      32.432  21.533  23.867  1.00  0.00    -0.246 OA
BRANCH  81  83
ATOM     83  C   UNL A   1      31.470  23.693  23.518  1.00  0.00     0.078 A 
ATOM     84  C   UNL A   1      30.280  24.380  23.812  1.00  0.00     0.019 A 
ATOM     85  C   UNL A   1      32.400  24.274  22.657  1.00  0.00     0.057 A 
ATOM     86  C   UNL A   1      30.063  25.675  23.319  1.00  0.00     0.027 A 
ATOM     87  C   UNL A   1      32.164  25.559  22.148  1.00  0.00     0.047 A 
ATOM     88  Cl  UNL A   1      33.851  23.474  22.168  1.00  0.00    -0.083 Cl
ATOM     89  C   UNL A   1      31.018  26.285  22.505  1.00  0.00     0.043 A 
BRANCH  89  90
ATOM     90  N   UNL A   1      30.902  27.577  21.962  1.00  0.00    -0.322 N 
ATOM     91  C   UNL A   1      31.107  28.836  22.474  1.00  0.00     0.257 C 
ATOM     92  H   UNL A   1      30.614  27.582  21.021  1.00  0.00     0.170 HD
ATOM     93  O   UNL A   1      30.693  29.821  21.863  1.00  0.00    -0.269 OA
BRANCH  91  94
ATOM     94  C   UNL A   1      31.865  29.075  23.714  1.00  0.00     0.059 A 
ATOM     95  C   UNL A   1      31.148  29.569  24.816  1.00  0.00     0.022 A 
ATOM     96  C   UNL A   1      33.259  28.945  23.785  1.00  0.00     0.060 A 
ATOM     97  C   UNL A   1      31.810  29.868  26.009  1.00  0.00     0.086 A 
ATOM     98  C   UNL A   1      33.926  29.236  24.979  1.00  0.00     0.107 A 
ATOM     99  Cl  UNL A   1      34.224  28.490  22.427  1.00  0.00    -0.083 Cl
ATOM    100  C   UNL A   1      33.197  29.687  26.089  1.00  0.00     0.270 A 
BRANCH 100 101
ATOM    101  N   UNL A   1      33.899  29.986  27.342  1.00  0.00     0.062 N 
ATOM    102  O   UNL A   1      34.685  29.133  27.775  1.00  0.00    -0.258 OA
ATOM    103  O   UNL A   1      33.657  31.073  27.883  1.00  0.00    -0.258 OA
ENDBRANCH 100 101
ENDBRANCH  91  94
ENDBRANCH  89  90
ENDBRANCH  81  83
ENDBRANCH  80  81
ENDBRANCH  79  80
ENDBRANCH  78  79
ENDBRANCH  77  78
ENDBRANCH  76  77
ENDBRANCH  75  76
ENDBRANCH   1  75
TORSDOF 26
ENDMDL
MODEL 3
REMARK VINA RESULT:      -8.5      1.912      2.302
REMARK SMILES O=C(OCCOCCOCCOCCOC(=O)c1ccc(NC(=O)c2ccc([N+](=O)[O-])cc2Cl)cc1Cl)c1ccc(-c2c3nc(c(-c4cc(S(=O)(=O)[O-])ccc4F)c4ccc([nH]4)c(-c4cc(S(=O)(=O)[O-])ccc4F)c4nc(c(-c5cc(S(=O)(=O)[O-])ccc5F)c5ccc2[nH]5)C=C4)C=C3)cc1
REMARK SMILES IDX 9 1 8 2 7 3 6 4 5 5 4 6 3 7 2 8 1 9 38 10 39 11 100 12 40 13
REMARK SMILES IDX 99 14 41 15 42 16 43 17 93 18 44 19 98 20 92 21 94 22 45 23
REMARK SMILES IDX 97 24 91 25 90 26 46 28 78 29 58 30 77 31 59 32 62 33 76 34
REMARK SMILES IDX 95 35 60 36 61 37 75 39 96 40 63 41 47 42 48 43 56 44 49 45
REMARK SMILES IDX 55 46 57 47 54 48 50 49 51 50 52 51 53 52 79 53 80 54 88 55
REMARK SMILES IDX 81 56 87 57 89 58 86 59 82 60 83 61 84 62 85 63 64 64 65 65
REMARK SMILES IDX 73 66 66 67 72 68 74 69 71 70 67 71 68 72 69 73 70 74 10 75
REMARK SMILES IDX 11 76 12 77 13 78 14 79 15 80 16 81 17 82 18 83 19 84 36 85
REMARK SMILES IDX 20 86 35 87 37 88 21 89 22 90 23 91 24 93 25 94 26 95 33 96
REMARK SMILES IDX 27 97 32 98 34 99 28 100 29 101 30 102 31 103
REMARK H PARENT 94 27 62 38 22 92
REMARK Flexibility Score: inf
ROOT
ATOM      1  O   UNL A   1      35.711  22.102  24.897  1.00  0.00    -0.377 OA
ENDROOT
BRANCH   1   2
ATOM      2  C   UNL A   1      36.972  21.790  24.307  1.00  0.00     0.188 C 
BRANCH   2   3
ATOM      3  C   UNL A   1      37.710  20.614  24.946  1.00  0.00     0.188 C 
BRANCH   3   4
ATOM      4  O   UNL A   1      38.489  21.050  26.063  1.00  0.00    -0.376 OA
BRANCH   4   5
ATOM      5  C   UNL A   1      39.868  21.296  25.786  1.00  0.00     0.202 C 
BRANCH   5   6
ATOM      6  C   UNL A   1      40.804  20.133  26.131  1.00  0.00     0.261 C 
BRANCH   6   7
ATOM      7  O   UNL A   1      42.097  20.591  26.551  1.00  0.00    -0.460 OA
BRANCH   7   8
ATOM      8  C   UNL A   1      43.149  20.929  25.761  1.00  0.00     0.338 C 
ATOM      9  O   UNL A   1      43.444  20.173  24.835  1.00  0.00    -0.246 OA
BRANCH   8  10
ATOM     10  C   UNL A   1      43.970  22.168  25.941  1.00  0.00     0.060 A 
ATOM     11  C   UNL A   1      44.956  22.355  26.913  1.00  0.00     0.016 A 
ATOM     12  C   UNL A   1      43.764  23.207  25.016  1.00  0.00     0.016 A 
ATOM     13  C   UNL A   1      45.641  23.554  27.039  1.00  0.00     0.010 A 
ATOM     14  C   UNL A   1      44.474  24.409  25.110  1.00  0.00     0.010 A 
ATOM     15  C   UNL A   1      45.387  24.595  26.154  1.00  0.00    -0.014 A 
BRANCH  15  16
ATOM     16  C   UNL A   1      45.941  25.920  26.485  1.00  0.00     0.031 A 
ATOM     17  C   UNL A   1      45.116  26.815  27.361  1.00  0.00     0.074 A 
ATOM     18  C   UNL A   1      47.205  26.228  26.144  1.00  0.00     0.049 A 
ATOM     19  N   UNL A   1      45.347  28.036  27.756  1.00  0.00    -0.248 NA
ATOM     20  C   UNL A   1      43.860  26.242  27.874  1.00  0.00     0.031 C 
ATOM     21  C   UNL A   1      48.123  25.341  25.424  1.00  0.00     0.029 A 
ATOM     22  N   UNL A   1      47.948  27.353  26.384  1.00  0.00    -0.354 N 
ATOM     23  C   UNL A   1      44.252  28.389  28.536  1.00  0.00     0.074 A 
ATOM     24  C   UNL A   1      43.352  27.258  28.551  1.00  0.00     0.031 C 
ATOM     25  C   UNL A   1      49.311  25.953  25.295  1.00  0.00     0.029 A 
ATOM     26  C   UNL A   1      49.215  27.299  25.851  1.00  0.00     0.049 A 
ATOM     27  H   UNL A   1      47.607  28.126  26.888  1.00  0.00     0.167 HD
ATOM     28  C   UNL A   1      44.023  29.562  29.174  1.00  0.00     0.034 A 
ATOM     29  C   UNL A   1      50.164  28.253  25.787  1.00  0.00     0.034 A 
ATOM     30  C   UNL A   1      44.948  30.665  29.117  1.00  0.00     0.049 A 
ATOM     31  C   UNL A   1      49.841  29.592  26.404  1.00  0.00     0.074 A 
ATOM     32  C   UNL A   1      44.814  31.941  29.630  1.00  0.00     0.029 A 
ATOM     33  N   UNL A   1      46.194  30.612  28.497  1.00  0.00    -0.354 N 
ATOM     34  N   UNL A   1      48.759  29.962  27.054  1.00  0.00    -0.248 NA
ATOM     35  C   UNL A   1      50.855  30.644  26.273  1.00  0.00     0.031 C 
ATOM     36  C   UNL A   1      45.950  32.676  29.266  1.00  0.00     0.029 A 
ATOM     37  C   UNL A   1      46.828  31.837  28.593  1.00  0.00     0.049 A 
ATOM     38  H   UNL A   1      46.568  29.817  28.053  1.00  0.00     0.167 HD
ATOM     39  C   UNL A   1      48.968  31.286  27.424  1.00  0.00     0.074 A 
ATOM     40  C   UNL A   1      50.292  31.639  26.946  1.00  0.00     0.031 C 
ATOM     41  C   UNL A   1      48.150  32.141  28.091  1.00  0.00     0.034 A 
BRANCH  28  42
ATOM     42  C   UNL A   1      42.688  29.716  29.861  1.00  0.00     0.023 A 
ATOM     43  C   UNL A   1      42.546  29.586  31.255  1.00  0.00     0.031 A 
ATOM     44  C   UNL A   1      41.521  29.882  29.094  1.00  0.00     0.131 A 
ATOM     45  C   UNL A   1      41.263  29.536  31.825  1.00  0.00     0.055 A 
ATOM     46  C   UNL A   1      40.253  29.915  29.677  1.00  0.00     0.041 A 
ATOM     47  F   UNL A   1      41.592  29.975  27.757  1.00  0.00    -0.206 F 
ATOM     48  C   UNL A   1      40.117  29.723  31.048  1.00  0.00     0.022 A 
BRANCH  45  49
ATOM     49  S   UNL A   1      41.102  29.055  33.568  1.00  0.00     0.124 S 
ATOM     50  O   UNL A   1      41.778  27.760  33.580  1.00  0.00    -0.237 OA
ATOM     51  O   UNL A   1      41.788  30.139  34.261  1.00  0.00    -0.237 OA
ATOM     52  O   UNL A   1      39.656  28.998  33.777  1.00  0.00    -0.744 OA
ENDBRANCH  45  49
ENDBRANCH  28  42
BRANCH  29  53
ATOM     53  C   UNL A   1      51.445  28.015  25.055  1.00  0.00     0.023 A 
ATOM     54  C   UNL A   1      51.525  28.104  23.657  1.00  0.00     0.031 A 
ATOM     55  C   UNL A   1      52.612  27.641  25.752  1.00  0.00     0.131 A 
ATOM     56  C   UNL A   1      52.727  27.789  23.000  1.00  0.00     0.055 A 
ATOM     57  C   UNL A   1      53.819  27.385  25.100  1.00  0.00     0.041 A 
ATOM     58  F   UNL A   1      52.598  27.527  27.090  1.00  0.00    -0.206 F 
ATOM     59  C   UNL A   1      53.878  27.445  23.713  1.00  0.00     0.022 A 
BRANCH  56  60
ATOM     60  S   UNL A   1      52.747  27.744  21.185  1.00  0.00     0.124 S 
ATOM     61  O   UNL A   1      52.753  26.309  20.922  1.00  0.00    -0.237 OA
ATOM     62  O   UNL A   1      51.516  28.453  20.852  1.00  0.00    -0.237 OA
ATOM     63  O   UNL A   1      53.981  28.447  20.840  1.00  0.00    -0.744 OA
ENDBRANCH  56  60
ENDBRANCH  29  53
BRANCH  41  64
ATOM     64  C   UNL A   1      48.696  33.517  28.366  1.00  0.00     0.023 A 
ATOM     65  C   UNL A   1      48.549  34.565  27.442  1.00  0.00     0.031 A 
ATOM     66  C   UNL A   1      49.372  33.779  29.570  1.00  0.00     0.131 A 
ATOM     67  C   UNL A   1      49.123  35.814  27.712  1.00  0.00     0.055 A 
ATOM     68  C   UNL A   1      49.885  35.042  29.861  1.00  0.00     0.041 A 
ATOM     69  F   UNL A   1      49.538  32.810  30.485  1.00  0.00    -0.206 F 
ATOM     70  C   UNL A   1      49.774  36.064  28.923  1.00  0.00     0.022 A 
BRANCH  67  71
ATOM     71  S   UNL A   1      49.089  37.081  26.416  1.00  0.00     0.124 S 
ATOM     72  O   UNL A   1      47.666  37.158  26.103  1.00  0.00    -0.237 OA
ATOM     73  O   UNL A   1      49.654  38.241  27.099  1.00  0.00    -0.237 OA
ATOM     74  O   UNL A   1      49.927  36.515  25.361  1.00  0.00    -0.744 OA
ENDBRANCH  67  71
ENDBRANCH  41  64
ENDBRANCH  15  16
ENDBRANCH   8  10
ENDBRANCH   7   8
ENDBRANCH   6   7
ENDBRANCH   5   6
ENDBRANCH   4   5
ENDBRANCH   3   4
ENDBRANCH   2   3
ENDBRANCH   1   2
BRANCH   1  75
ATOM     75  C   UNL A   1      35.548  21.752  26.267  1.00  0.00     0.188 C 
BRANCH  75  76
ATOM     76  C   UNL A   1      34.331  22.299  27.047  1.00  0.00     0.188 C 
BRANCH  76  77
ATOM     77  O   UNL A   1      33.942  23.624  26.717  1.00  0.00    -0.376 OA
BRANCH  77  78
ATOM     78  C   UNL A   1      32.541  23.882  26.784  1.00  0.00     0.202 C 
BRANCH  78  79
ATOM     79  C   UNL A   1      31.681  22.617  26.709  1.00  0.00     0.261 C 
BRANCH  79  80
ATOM     80  O   UNL A   1      31.052  22.417  25.431  1.00  0.00    -0.460 OA
BRANCH  80  81
ATOM     81  C   UNL A   1      31.829  22.379  24.327  1.00  0.00     0.339 C 
ATOM     82  O   UNL A   1      32.477  21.437  23.911  1.00  0.00    -0.246 OA
BRANCH  81  83
ATOM     83  C   UNL A   1      31.542  23.608  23.553  1.00  0.00     0.078 A 
ATOM     84  C   UNL A   1      30.278  24.198  23.721  1.00  0.00     0.019 A 
ATOM     85  C   UNL A   1      32.512  24.269  22.800  1.00  0.00     0.057 A 
ATOM     86  C   UNL A   1      30.016  25.480  23.215  1.00  0.00     0.027 A 
ATOM     87  C   UNL A   1      32.233  25.539  22.276  1.00  0.00     0.047 A 
ATOM     88  Cl  UNL A   1      34.064  23.589  22.466  1.00  0.00    -0.083 Cl
ATOM     89  C   UNL A   1      31.002  26.171  22.512  1.00  0.00     0.043 A 
BRANCH  89  90
ATOM     90  N   UNL A   1      30.846  27.458  21.967  1.00  0.00    -0.322 N 
ATOM     91  C   UNL A   1      31.038  28.723  22.468  1.00  0.00     0.257 C 
ATOM     92  H   UNL A   1      30.533  27.452  21.033  1.00  0.00     0.170 HD
ATOM     93  O   UNL A   1      30.589  29.696  21.864  1.00  0.00    -0.269 OA
BRANCH  91  94
ATOM     94  C   UNL A   1      31.824  28.983  23.686  1.00  0.00     0.059 A 
ATOM     95  C   UNL A   1      31.123  29.443  24.813  1.00  0.00     0.022 A 
ATOM     96  C   UNL A   1      33.224  28.905  23.714  1.00  0.00     0.060 A 
ATOM     97  C   UNL A   1      31.809  29.760  25.987  1.00  0.00     0.086 A 
ATOM     98  C   UNL A   1      33.915  29.215  24.890  1.00  0.00     0.107 A 
ATOM     99  Cl  UNL A   1      34.163  28.496  22.324  1.00  0.00    -0.083 Cl
ATOM    100  C   UNL A   1      33.203  29.631  26.024  1.00  0.00     0.270 A 
BRANCH 100 101
ATOM    101  N   UNL A   1      33.932  29.949  27.258  1.00  0.00     0.062 N 
ATOM    102  O   UNL A   1      34.804  29.153  27.629  1.00  0.00    -0.258 OA
ATOM    103  O   UNL A   1      33.624  30.995  27.845  1.00  0.00    -0.258 OA
ENDBRANCH 100 101
ENDBRANCH  91  94
ENDBRANCH  89  90
ENDBRANCH  81  83
ENDBRANCH  80  81
ENDBRANCH  79  80
ENDBRANCH  78  79
ENDBRANCH  77  78
ENDBRANCH  76  77
ENDBRANCH  75  76
ENDBRANCH   1  75
TORSDOF 26
ENDMDL
