MODEL 1
REMARK VINA RESULT:      -9.6      0.000      0.000
REMARK SMILES Cc1ccc(C2=NN(C(=O)CCC(=O)OCCOCCOCCOCCOC(=O)c3ccc(-c4c5nc(c(-c6cc(S(=O)(=O)[O-])ccc6F)c6ccc([nH]6)c(-c6cc(S(=O)(=O)[O-])ccc6F)c6nc(c(-c7cc(S(=O)(=O)[O-])ccc7F)c7ccc4[nH]7)C=C6)C=C5)cc3)[C@H](C[C@H]3C=c4cccc(C)c4=NC3=O)C2)cc1
REMARK SMILES IDX 20 1 19 2 18 3 17 4 16 5 15 6 13 7 14 8 12 9 11 10 9 11
REMARK SMILES IDX 10 12 8 13 6 14 7 15 107 16 93 17 5 18 1 19 2 20 3 21 109 22
REMARK SMILES IDX 4 23 108 24 94 25 95 26 96 27 105 28 97 29 104 30 106 31
REMARK SMILES IDX 98 32 103 33 99 34 101 35 100 36 102 37 21 38 22 39 23 40
REMARK SMILES IDX 24 41 25 42 26 43 27 44 28 45 29 46 30 47 31 48 92 49 32 50
REMARK SMILES IDX 91 51 33 52 34 53 35 54 85 55 36 56 90 57 84 58 86 59 37 60
REMARK SMILES IDX 89 61 83 62 82 63 38 65 70 66 50 67 69 68 51 69 54 70 68 71
REMARK SMILES IDX 87 72 52 73 53 74 67 76 88 77 55 78 39 79 40 80 48 81 41 82
REMARK SMILES IDX 47 83 49 84 46 85 42 86 43 87 44 88 45 89 71 90 72 91 80 92
REMARK SMILES IDX 73 93 79 94 81 95 78 96 74 97 75 98 76 99 77 100 56 101
REMARK SMILES IDX 57 102 65 103 58 104 64 105 66 106 63 107 59 108 60 109
REMARK SMILES IDX 61 110 62 111
REMARK H PARENT 86 64 54 75
REMARK Flexibility Score: inf
ROOT
ATOM      1  C   UNL A   1      49.317  35.483  29.201  1.00  0.00     0.188 C 
ENDROOT
BRANCH   1   2
ATOM      2  C   UNL A   1      50.904  35.918  29.669  1.00  0.00     0.188 C 
BRANCH   2   3
ATOM      3  O   UNL A   1      51.372  37.270  29.841  1.00  0.00    -0.376 OA
BRANCH   3   4
ATOM      4  C   UNL A   1      51.817  37.958  28.680  1.00  0.00     0.202 C 
BRANCH   4   5
ATOM      5  C   UNL A   1      50.761  38.670  27.883  1.00  0.00     0.261 C 
BRANCH   5   6
ATOM      6  O   UNL A   1      50.873  38.175  26.530  1.00  0.00    -0.463 OA
BRANCH   6   7
ATOM      7  C   UNL A   1      50.014  37.329  25.971  1.00  0.00     0.306 C 
ATOM      8  O   UNL A   1      50.200  36.117  25.941  1.00  0.00    -0.252 OA
BRANCH   7   9
ATOM      9  C   UNL A   1      48.674  37.982  25.518  1.00  0.00     0.132 C 
BRANCH   9  10
ATOM     10  C   UNL A   1      47.646  39.177  25.949  1.00  0.00     0.114 C 
BRANCH  10  11
ATOM     11  C   UNL A   1      47.123  40.810  26.317  1.00  0.00     0.243 C 
ATOM     12  O   UNL A   1      47.795  41.167  27.308  1.00  0.00    -0.273 OA
BRANCH  11  13
ATOM     13  N   UNL A   1      46.031  41.794  25.682  1.00  0.00    -0.230 N 
ATOM     14  C   UNL A   1      44.582  43.124  23.315  1.00  0.00     0.070 C 
ATOM     15  N   UNL A   1      45.297  41.755  23.737  1.00  0.00    -0.174 NA
ATOM     16  C   UNL A   1      44.548  44.402  24.862  1.00  0.00     0.086 C 
ATOM     17  C   UNL A   1      45.348  43.477  26.497  1.00  0.00     0.118 C 
BRANCH  14  18
ATOM     18  C   UNL A   1      44.282  43.480  21.955  1.00  0.00    -0.002 A 
ATOM     19  C   UNL A   1      43.252  44.366  17.948  1.00  0.00     0.044 C 
ATOM     20  C   UNL A   1      43.699  44.013  19.328  1.00  0.00    -0.051 A 
ATOM     21  C   UNL A   1      43.055  42.957  19.994  1.00  0.00     0.004 A 
ATOM     22  C   UNL A   1      44.706  44.747  19.971  1.00  0.00     0.004 A 
ATOM     23  C   UNL A   1      43.365  42.672  21.309  1.00  0.00     0.010 A 
ATOM     24  C   UNL A   1      44.999  44.485  21.304  1.00  0.00     0.010 A 
ENDBRANCH  14  18
BRANCH  17  25
ATOM     25  C   UNL A   1      45.238  43.687  28.486  1.00  0.00     0.045 C 
BRANCH  25  26
ATOM     26  C   UNL A   1      44.120  42.692  29.832  1.00  0.00     0.106 C 
ATOM     27  C   UNL A   1      43.387  43.486  31.172  1.00  0.00    -0.003 C 
ATOM     28  C   UNL A   1      43.122  41.452  29.827  1.00  0.00     0.253 C 
ATOM     29  C   UNL A   1      42.421  43.173  32.019  1.00  0.00    -0.003 A 
ATOM     30  N   UNL A   1      42.857  40.919  31.124  1.00  0.00    -0.212 NA
ATOM     31  O   UNL A   1      42.758  40.871  28.812  1.00  0.00    -0.272 OA
ATOM     32  C   UNL A   1      42.233  44.102  33.134  1.00  0.00     0.010 A 
ATOM     33  C   UNL A   1      42.633  41.734  32.126  1.00  0.00     0.077 A 
ATOM     34  C   UNL A   1      42.515  43.683  34.370  1.00  0.00     0.001 A 
ATOM     35  C   UNL A   1      42.853  41.365  33.587  1.00  0.00    -0.025 A 
ATOM     36  C   UNL A   1      42.824  42.289  34.579  1.00  0.00     0.005 A 
ATOM     37  C   UNL A   1      43.375  39.999  33.807  1.00  0.00     0.047 C 
ENDBRANCH  25  26
ENDBRANCH  17  25
ENDBRANCH  11  13
ENDBRANCH  10  11
ENDBRANCH   9  10
ENDBRANCH   7   9
ENDBRANCH   6   7
ENDBRANCH   5   6
ENDBRANCH   4   5
ENDBRANCH   3   4
ENDBRANCH   2   3
ENDBRANCH   1   2
BRANCH   1  38
ATOM     38  O   UNL A   1      48.492  34.232  28.309  1.00  0.00    -0.377 OA
BRANCH  38  39
ATOM     39  C   UNL A   1      47.257  34.001  27.145  1.00  0.00     0.188 C 
BRANCH  39  40
ATOM     40  C   UNL A   1      45.722  34.545  27.260  1.00  0.00     0.188 C 
BRANCH  40  41
ATOM     41  O   UNL A   1      45.466  35.936  26.975  1.00  0.00    -0.376 OA
BRANCH  41  42
ATOM     42  C   UNL A   1      45.896  37.014  27.755  1.00  0.00     0.202 C 
BRANCH  42  43
ATOM     43  C   UNL A   1      44.807  38.021  27.607  1.00  0.00     0.261 C 
BRANCH  43  44
ATOM     44  O   UNL A   1      43.659  37.405  28.362  1.00  0.00    -0.460 OA
BRANCH  44  45
ATOM     45  C   UNL A   1      43.606  37.191  29.731  1.00  0.00     0.338 C 
ATOM     46  O   UNL A   1      44.019  38.049  30.507  1.00  0.00    -0.246 OA
BRANCH  45  47
ATOM     47  C   UNL A   1      42.955  35.872  30.322  1.00  0.00     0.060 A 
ATOM     48  C   UNL A   1      43.445  35.245  31.481  1.00  0.00     0.016 A 
ATOM     49  C   UNL A   1      41.988  35.090  29.717  1.00  0.00     0.016 A 
ATOM     50  C   UNL A   1      43.224  33.811  31.790  1.00  0.00     0.010 A 
ATOM     51  C   UNL A   1      41.925  33.640  29.947  1.00  0.00     0.010 A 
ATOM     52  C   UNL A   1      42.761  32.892  30.820  1.00  0.00    -0.014 A 
BRANCH  52  53
ATOM     53  C   UNL A   1      42.832  31.144  30.771  1.00  0.00     0.031 A 
ATOM     54  C   UNL A   1      44.168  30.902  30.106  1.00  0.00     0.074 A 
ATOM     55  C   UNL A   1      42.145  29.952  31.395  1.00  0.00     0.049 A 
ATOM     56  N   UNL A   1      44.711  29.758  29.994  1.00  0.00    -0.248 NA
ATOM     57  C   UNL A   1      45.128  31.954  29.731  1.00  0.00     0.031 C 
ATOM     58  C   UNL A   1      42.467  28.497  31.611  1.00  0.00     0.029 A 
ATOM     59  N   UNL A   1      40.975  29.704  32.152  1.00  0.00    -0.354 N 
ATOM     60  C   UNL A   1      46.079  29.928  30.115  1.00  0.00     0.074 A 
ATOM     61  C   UNL A   1      46.300  31.317  29.840  1.00  0.00     0.031 C 
ATOM     62  C   UNL A   1      41.479  27.658  32.071  1.00  0.00     0.029 A 
ATOM     63  C   UNL A   1      40.322  28.462  32.156  1.00  0.00     0.049 A 
ATOM     64  H   UNL A   1      40.604  30.432  32.700  1.00  0.00     0.167 HD
ATOM     65  C   UNL A   1      46.788  28.870  30.609  1.00  0.00     0.034 A 
ATOM     66  C   UNL A   1      39.103  28.319  31.544  1.00  0.00     0.034 A 
ATOM     67  C   UNL A   1      45.907  27.667  30.744  1.00  0.00     0.049 A 
ATOM     68  C   UNL A   1      39.716  27.875  30.084  1.00  0.00     0.074 A 
ATOM     69  C   UNL A   1      45.622  26.728  31.722  1.00  0.00     0.029 A 
ATOM     70  N   UNL A   1      44.923  27.458  29.769  1.00  0.00    -0.354 N 
ATOM     71  N   UNL A   1      40.974  28.102  29.694  1.00  0.00    -0.248 NA
ATOM     72  C   UNL A   1      39.144  26.873  29.182  1.00  0.00     0.031 C 
ATOM     73  C   UNL A   1      44.389  26.061  31.350  1.00  0.00     0.029 A 
ATOM     74  C   UNL A   1      43.890  26.626  30.164  1.00  0.00     0.049 A 
ATOM     75  H   UNL A   1      44.962  27.870  28.874  1.00  0.00     0.167 HD
ATOM     76  C   UNL A   1      41.498  26.970  29.083  1.00  0.00     0.074 A 
ATOM     77  C   UNL A   1      40.242  26.478  28.489  1.00  0.00     0.031 C 
ATOM     78  C   UNL A   1      42.778  26.360  29.211  1.00  0.00     0.034 A 
BRANCH  65  79
ATOM     79  C   UNL A   1      48.227  28.898  31.118  1.00  0.00     0.023 A 
ATOM     80  C   UNL A   1      49.237  28.905  30.138  1.00  0.00     0.031 A 
ATOM     81  C   UNL A   1      48.708  28.892  32.448  1.00  0.00     0.131 A 
ATOM     82  C   UNL A   1      50.606  28.931  30.451  1.00  0.00     0.055 A 
ATOM     83  C   UNL A   1      50.084  28.960  32.769  1.00  0.00     0.041 A 
ATOM     84  F   UNL A   1      47.892  28.796  33.505  1.00  0.00    -0.206 F 
ATOM     85  C   UNL A   1      51.043  28.988  31.766  1.00  0.00     0.022 A 
BRANCH  82  86
ATOM     86  S   UNL A   1      51.781  28.914  29.074  1.00  0.00     0.124 S 
ATOM     87  O   UNL A   1      51.100  29.746  28.088  1.00  0.00    -0.237 OA
ATOM     88  O   UNL A   1      52.976  29.486  29.685  1.00  0.00    -0.237 OA
ATOM     89  O   UNL A   1      51.882  27.496  28.731  1.00  0.00    -0.744 OA
ENDBRANCH  82  86
ENDBRANCH  65  79
BRANCH  66  90
ATOM     90  C   UNL A   1      38.261  29.584  32.025  1.00  0.00     0.023 A 
ATOM     91  C   UNL A   1      37.986  30.457  33.574  1.00  0.00     0.031 A 
ATOM     92  C   UNL A   1      38.005  30.594  30.625  1.00  0.00     0.131 A 
ATOM     93  C   UNL A   1      37.477  32.181  33.696  1.00  0.00     0.055 A 
ATOM     94  C   UNL A   1      37.418  32.538  30.945  1.00  0.00     0.041 A 
ATOM     95  F   UNL A   1      37.785  29.781  29.561  1.00  0.00    -0.206 F 
ATOM     96  C   UNL A   1      37.151  33.125  32.436  1.00  0.00     0.022 A 
BRANCH  93  97
ATOM     97  S   UNL A   1      37.469  33.404  35.152  1.00  0.00     0.124 S 
ATOM     98  O   UNL A   1      37.786  34.672  34.505  1.00  0.00    -0.237 OA
ATOM     99  O   UNL A   1      36.169  33.311  35.801  1.00  0.00    -0.237 OA
ATOM    100  O   UNL A   1      38.557  32.927  36.031  1.00  0.00    -0.744 OA
ENDBRANCH  93  97
ENDBRANCH  66  90
BRANCH  78 101
ATOM    101  C   UNL A   1      43.240  25.307  28.251  1.00  0.00     0.023 A 
ATOM    102  C   UNL A   1      44.143  25.633  27.278  1.00  0.00     0.031 A 
ATOM    103  C   UNL A   1      42.865  23.936  28.346  1.00  0.00     0.131 A 
ATOM    104  C   UNL A   1      44.964  24.630  26.797  1.00  0.00     0.055 A 
ATOM    105  C   UNL A   1      43.554  22.932  27.699  1.00  0.00     0.041 A 
ATOM    106  F   UNL A   1      41.853  23.474  29.091  1.00  0.00    -0.206 F 
ATOM    107  C   UNL A   1      44.682  23.277  26.989  1.00  0.00     0.022 A 
BRANCH 104 108
ATOM    108  S   UNL A   1      46.535  25.181  26.138  1.00  0.00     0.124 S 
ATOM    109  O   UNL A   1      46.565  26.585  26.533  1.00  0.00    -0.237 OA
ATOM    110  O   UNL A   1      47.467  24.311  26.853  1.00  0.00    -0.237 OA
ATOM    111  O   UNL A   1      46.402  24.925  24.709  1.00  0.00    -0.744 OA
ENDBRANCH 104 108
ENDBRANCH  78 101
ENDBRANCH  52  53
ENDBRANCH  45  47
ENDBRANCH  44  45
ENDBRANCH  43  44
ENDBRANCH  42  43
ENDBRANCH  41  42
ENDBRANCH  40  41
ENDBRANCH  39  40
ENDBRANCH  38  39
ENDBRANCH   1  38
TORSDOF 29
ENDMDL
MODEL 2
REMARK VINA RESULT:      -9.6      6.655     13.267
REMARK SMILES Cc1ccc(C2=NN(C(=O)CCC(=O)OCCOCCOCCOCCOC(=O)c3ccc(-c4c5nc(c(-c6cc(S(=O)(=O)[O-])ccc6F)c6ccc([nH]6)c(-c6cc(S(=O)(=O)[O-])ccc6F)c6nc(c(-c7cc(S(=O)(=O)[O-])ccc7F)c7ccc4[nH]7)C=C6)C=C5)cc3)[C@H](C[C@H]3C=c4cccc(C)c4=NC3=O)C2)cc1
REMARK SMILES IDX 20 1 19 2 18 3 17 4 16 5 15 6 13 7 14 8 12 9 11 10 9 11
REMARK SMILES IDX 10 12 8 13 6 14 7 15 107 16 93 17 5 18 1 19 2 20 3 21 109 22
REMARK SMILES IDX 4 23 108 24 94 25 95 26 96 27 105 28 97 29 104 30 106 31
REMARK SMILES IDX 98 32 103 33 99 34 101 35 100 36 102 37 21 38 22 39 23 40
REMARK SMILES IDX 24 41 25 42 26 43 27 44 28 45 29 46 30 47 31 48 92 49 32 50
REMARK SMILES IDX 91 51 33 52 34 53 35 54 85 55 36 56 90 57 84 58 86 59 37 60
REMARK SMILES IDX 89 61 83 62 82 63 38 65 70 66 50 67 69 68 51 69 54 70 68 71
REMARK SMILES IDX 87 72 52 73 53 74 67 76 88 77 55 78 39 79 40 80 48 81 41 82
REMARK SMILES IDX 47 83 49 84 46 85 42 86 43 87 44 88 45 89 71 90 72 91 80 92
REMARK SMILES IDX 73 93 79 94 81 95 78 96 74 97 75 98 76 99 77 100 56 101
REMARK SMILES IDX 57 102 65 103 58 104 64 105 66 106 63 107 59 108 60 109
REMARK SMILES IDX 61 110 62 111
REMARK H PARENT 86 64 54 75
REMARK Flexibility Score: inf
ROOT
ATOM      1  C   UNL A   1      42.568  24.934  26.690  1.00  0.00     0.188 C 
ENDROOT
BRANCH   1   2
ATOM      2  C   UNL A   1      41.935  25.864  25.401  1.00  0.00     0.188 C 
BRANCH   2   3
ATOM      3  O   UNL A   1      42.425  27.159  25.001  1.00  0.00    -0.376 OA
BRANCH   3   4
ATOM      4  C   UNL A   1      41.863  28.294  25.645  1.00  0.00     0.202 C 
BRANCH   4   5
ATOM      5  C   UNL A   1      42.167  28.447  27.109  1.00  0.00     0.261 C 
BRANCH   5   6
ATOM      6  O   UNL A   1      41.271  29.467  27.603  1.00  0.00    -0.463 OA
BRANCH   6   7
ATOM      7  C   UNL A   1      40.045  29.228  28.057  1.00  0.00     0.306 C 
ATOM      8  O   UNL A   1      39.047  29.311  27.349  1.00  0.00    -0.252 OA
BRANCH   7   9
ATOM      9  C   UNL A   1      39.999  28.661  29.507  1.00  0.00     0.132 C 
BRANCH   9  10
ATOM     10  C   UNL A   1      41.001  28.205  30.715  1.00  0.00     0.114 C 
BRANCH  10  11
ATOM     11  C   UNL A   1      42.388  28.280  31.784  1.00  0.00     0.243 C 
ATOM     12  O   UNL A   1      43.210  29.037  31.222  1.00  0.00    -0.273 OA
BRANCH  11  13
ATOM     13  N   UNL A   1      42.747  27.595  33.186  1.00  0.00    -0.230 N 
ATOM     14  C   UNL A   1      43.825  25.291  34.917  1.00  0.00     0.070 C 
ATOM     15  N   UNL A   1      44.046  26.002  33.500  1.00  0.00    -0.174 NA
ATOM     16  C   UNL A   1      42.414  26.252  35.971  1.00  0.00     0.086 C 
ATOM     17  C   UNL A   1      41.806  27.890  34.915  1.00  0.00     0.118 C 
BRANCH  14  18
ATOM     18  C   UNL A   1      44.351  23.994  35.249  1.00  0.00    -0.002 A 
ATOM     19  C   UNL A   1      45.972  20.263  36.411  1.00  0.00     0.044 C 
ATOM     20  C   UNL A   1      45.474  21.588  35.937  1.00  0.00    -0.051 A 
ATOM     21  C   UNL A   1      45.610  22.700  36.785  1.00  0.00     0.004 A 
ATOM     22  C   UNL A   1      44.840  21.719  34.693  1.00  0.00     0.004 A 
ATOM     23  C   UNL A   1      45.066  23.918  36.429  1.00  0.00     0.010 A 
ATOM     24  C   UNL A   1      44.263  22.934  34.343  1.00  0.00     0.010 A 
ENDBRANCH  14  18
BRANCH  17  25
ATOM     25  C   UNL A   1      40.940  29.648  35.329  1.00  0.00     0.045 C 
BRANCH  25  26
ATOM     26  C   UNL A   1      39.264  30.473  34.579  1.00  0.00     0.106 C 
ATOM     27  C   UNL A   1      38.448  29.803  33.220  1.00  0.00    -0.003 C 
ATOM     28  C   UNL A   1      37.998  31.256  35.145  1.00  0.00     0.253 C 
ATOM     29  C   UNL A   1      37.240  29.947  32.702  1.00  0.00    -0.003 A 
ATOM     30  N   UNL A   1      37.251  31.944  34.144  1.00  0.00    -0.212 NA
ATOM     31  O   UNL A   1      37.778  31.426  36.338  1.00  0.00    -0.272 OA
ATOM     32  C   UNL A   1      37.024  29.291  31.412  1.00  0.00     0.010 A 
ATOM     33  C   UNL A   1      37.001  31.355  33.001  1.00  0.00     0.077 A 
ATOM     34  C   UNL A   1      36.828  30.052  30.332  1.00  0.00     0.001 A 
ATOM     35  C   UNL A   1      36.700  32.100  31.707  1.00  0.00    -0.025 A 
ATOM     36  C   UNL A   1      36.663  31.476  30.504  1.00  0.00     0.005 A 
ATOM     37  C   UNL A   1      36.736  33.574  31.821  1.00  0.00     0.047 C 
ENDBRANCH  25  26
ENDBRANCH  17  25
ENDBRANCH  11  13
ENDBRANCH  10  11
ENDBRANCH   9  10
ENDBRANCH   7   9
ENDBRANCH   6   7
ENDBRANCH   5   6
ENDBRANCH   4   5
ENDBRANCH   3   4
ENDBRANCH   2   3
ENDBRANCH   1   2
BRANCH   1  38
ATOM     38  O   UNL A   1      43.558  23.520  26.945  1.00  0.00    -0.377 OA
BRANCH  38  39
ATOM     39  C   UNL A   1      45.186  22.992  26.899  1.00  0.00     0.188 C 
BRANCH  39  40
ATOM     40  C   UNL A   1      46.494  23.947  26.694  1.00  0.00     0.188 C 
BRANCH  40  41
ATOM     41  O   UNL A   1      46.766  24.461  25.373  1.00  0.00    -0.376 OA
BRANCH  41  42
ATOM     42  C   UNL A   1      46.909  25.813  25.044  1.00  0.00     0.202 C 
BRANCH  42  43
ATOM     43  C   UNL A   1      45.757  26.471  25.725  1.00  0.00     0.261 C 
BRANCH  43  44
ATOM     44  O   UNL A   1      46.374  27.697  26.346  1.00  0.00    -0.460 OA
BRANCH  44  45
ATOM     45  C   UNL A   1      47.462  27.715  27.206  1.00  0.00     0.338 C 
ATOM     46  O   UNL A   1      48.499  28.286  26.877  1.00  0.00    -0.246 OA
BRANCH  45  47
ATOM     47  C   UNL A   1      47.370  27.060  28.645  1.00  0.00     0.060 A 
ATOM     48  C   UNL A   1      46.185  27.068  29.403  1.00  0.00     0.016 A 
ATOM     49  C   UNL A   1      48.425  26.577  29.398  1.00  0.00     0.016 A 
ATOM     50  C   UNL A   1      46.158  26.934  30.880  1.00  0.00     0.010 A 
ATOM     51  C   UNL A   1      48.398  26.619  30.867  1.00  0.00     0.010 A 
ATOM     52  C   UNL A   1      47.320  27.079  31.672  1.00  0.00    -0.014 A 
BRANCH  52  53
ATOM     53  C   UNL A   1      47.508  27.404  33.382  1.00  0.00     0.031 A 
ATOM     54  C   UNL A   1      47.463  26.014  33.974  1.00  0.00     0.074 A 
ATOM     55  C   UNL A   1      47.939  28.530  34.293  1.00  0.00     0.049 A 
ATOM     56  N   UNL A   1      47.712  25.750  35.192  1.00  0.00    -0.248 NA
ATOM     57  C   UNL A   1      47.383  24.766  33.194  1.00  0.00     0.031 C 
ATOM     58  C   UNL A   1      48.434  28.657  35.710  1.00  0.00     0.029 A 
ATOM     59  N   UNL A   1      48.190  29.919  34.184  1.00  0.00    -0.354 N 
ATOM     60  C   UNL A   1      48.348  24.522  35.236  1.00  0.00     0.074 A 
ATOM     61  C   UNL A   1      48.024  23.899  33.986  1.00  0.00     0.031 C 
ATOM     62  C   UNL A   1      48.556  29.911  36.261  1.00  0.00     0.029 A 
ATOM     63  C   UNL A   1      48.078  30.798  35.272  1.00  0.00     0.049 A 
ATOM     64  H   UNL A   1      48.456  30.283  33.310  1.00  0.00     0.167 HD
ATOM     65  C   UNL A   1      49.204  24.310  36.279  1.00  0.00     0.034 A 
ATOM     66  C   UNL A   1      47.052  31.706  35.325  1.00  0.00     0.034 A 
ATOM     67  C   UNL A   1      49.114  25.434  37.265  1.00  0.00     0.049 A 
ATOM     68  C   UNL A   1      46.020  30.723  36.146  1.00  0.00     0.074 A 
ATOM     69  C   UNL A   1      50.000  26.267  37.930  1.00  0.00     0.029 A 
ATOM     70  N   UNL A   1      47.859  26.013  37.493  1.00  0.00    -0.354 N 
ATOM     71  N   UNL A   1      46.141  29.395  36.218  1.00  0.00    -0.248 NA
ATOM     72  C   UNL A   1      45.088  31.143  37.195  1.00  0.00     0.031 C 
ATOM     73  C   UNL A   1      49.247  27.398  38.438  1.00  0.00     0.029 A 
ATOM     74  C   UNL A   1      47.904  27.282  38.043  1.00  0.00     0.049 A 
ATOM     75  H   UNL A   1      47.014  25.555  37.279  1.00  0.00     0.167 HD
ATOM     76  C   UNL A   1      45.926  28.963  37.520  1.00  0.00     0.074 A 
ATOM     77  C   UNL A   1      44.942  29.992  37.900  1.00  0.00     0.031 C 
ATOM     78  C   UNL A   1      46.625  27.998  38.300  1.00  0.00     0.034 A 
BRANCH  65  79
ATOM     79  C   UNL A   1      50.236  23.193  36.395  1.00  0.00     0.023 A 
ATOM     80  C   UNL A   1      50.475  22.438  35.232  1.00  0.00     0.031 A 
ATOM     81  C   UNL A   1      50.985  22.777  37.521  1.00  0.00     0.131 A 
ATOM     82  C   UNL A   1      51.397  21.379  35.182  1.00  0.00     0.055 A 
ATOM     83  C   UNL A   1      51.945  21.739  37.466  1.00  0.00     0.041 A 
ATOM     84  F   UNL A   1      50.821  23.324  38.733  1.00  0.00    -0.206 F 
ATOM     85  C   UNL A   1      52.161  21.038  36.288  1.00  0.00     0.022 A 
BRANCH  82  86
ATOM     86  S   UNL A   1      51.572  20.492  33.615  1.00  0.00     0.124 S 
ATOM     87  O   UNL A   1      52.496  21.352  32.884  1.00  0.00    -0.237 OA
ATOM     88  O   UNL A   1      52.099  19.203  34.050  1.00  0.00    -0.237 OA
ATOM     89  O   UNL A   1      50.207  20.455  33.091  1.00  0.00    -0.744 OA
ENDBRANCH  82  86
ENDBRANCH  65  79
BRANCH  66  90
ATOM     90  C   UNL A   1      47.006  32.345  33.865  1.00  0.00     0.023 A 
ATOM     91  C   UNL A   1      46.515  31.810  32.220  1.00  0.00     0.031 A 
ATOM     92  C   UNL A   1      46.926  34.078  34.065  1.00  0.00     0.131 A 
ATOM     93  C   UNL A   1      46.013  32.921  30.894  1.00  0.00     0.055 A 
ATOM     94  C   UNL A   1      46.339  35.198  32.444  1.00  0.00     0.041 A 
ATOM     95  F   UNL A   1      47.717  34.411  35.116  1.00  0.00    -0.206 F 
ATOM     96  C   UNL A   1      46.001  34.525  31.006  1.00  0.00     0.022 A 
BRANCH  93  97
ATOM     97  S   UNL A   1      45.129  32.608  29.239  1.00  0.00     0.124 S 
ATOM     98  O   UNL A   1      46.220  32.176  28.372  1.00  0.00    -0.237 OA
ATOM     99  O   UNL A   1      44.068  31.641  29.481  1.00  0.00    -0.237 OA
ATOM    100  O   UNL A   1      44.591  33.930  28.860  1.00  0.00    -0.744 OA
ENDBRANCH  93  97
ENDBRANCH  66  90
BRANCH  78 101
ATOM    101  C   UNL A   1      46.058  27.476  39.585  1.00  0.00     0.023 A 
ATOM    102  C   UNL A   1      46.641  27.830  40.770  1.00  0.00     0.031 A 
ATOM    103  C   UNL A   1      44.869  26.697  39.662  1.00  0.00     0.131 A 
ATOM    104  C   UNL A   1      45.847  27.842  41.902  1.00  0.00     0.055 A 
ATOM    105  C   UNL A   1      44.169  26.525  40.838  1.00  0.00     0.041 A 
ATOM    106  F   UNL A   1      44.286  26.094  38.618  1.00  0.00    -0.206 F 
ATOM    107  C   UNL A   1      44.615  27.190  41.957  1.00  0.00     0.022 A 
BRANCH 104 108
ATOM    108  S   UNL A   1      46.381  28.958  43.197  1.00  0.00     0.124 S 
ATOM    109  O   UNL A   1      47.642  28.361  43.624  1.00  0.00    -0.237 OA
ATOM    110  O   UNL A   1      46.504  30.215  42.460  1.00  0.00    -0.237 OA
ATOM    111  O   UNL A   1      45.289  28.894  44.160  1.00  0.00    -0.744 OA
ENDBRANCH 104 108
ENDBRANCH  78 101
ENDBRANCH  52  53
ENDBRANCH  45  47
ENDBRANCH  44  45
ENDBRANCH  43  44
ENDBRANCH  42  43
ENDBRANCH  41  42
ENDBRANCH  40  41
ENDBRANCH  39  40
ENDBRANCH  38  39
ENDBRANCH   1  38
TORSDOF 29
ENDMDL
MODEL 3
REMARK VINA RESULT:      -9.5      4.761     10.627
REMARK SMILES Cc1ccc(C2=NN(C(=O)CCC(=O)OCCOCCOCCOCCOC(=O)c3ccc(-c4c5nc(c(-c6cc(S(=O)(=O)[O-])ccc6F)c6ccc([nH]6)c(-c6cc(S(=O)(=O)[O-])ccc6F)c6nc(c(-c7cc(S(=O)(=O)[O-])ccc7F)c7ccc4[nH]7)C=C6)C=C5)cc3)[C@H](C[C@H]3C=c4cccc(C)c4=NC3=O)C2)cc1
REMARK SMILES IDX 20 1 19 2 18 3 17 4 16 5 15 6 13 7 14 8 12 9 11 10 9 11
REMARK SMILES IDX 10 12 8 13 6 14 7 15 107 16 93 17 5 18 1 19 2 20 3 21 109 22
REMARK SMILES IDX 4 23 108 24 94 25 95 26 96 27 105 28 97 29 104 30 106 31
REMARK SMILES IDX 98 32 103 33 99 34 101 35 100 36 102 37 21 38 22 39 23 40
REMARK SMILES IDX 24 41 25 42 26 43 27 44 28 45 29 46 30 47 31 48 92 49 32 50
REMARK SMILES IDX 91 51 33 52 34 53 35 54 85 55 36 56 90 57 84 58 86 59 37 60
REMARK SMILES IDX 89 61 83 62 82 63 38 65 70 66 50 67 69 68 51 69 54 70 68 71
REMARK SMILES IDX 87 72 52 73 53 74 67 76 88 77 55 78 39 79 40 80 48 81 41 82
REMARK SMILES IDX 47 83 49 84 46 85 42 86 43 87 44 88 45 89 71 90 72 91 80 92
REMARK SMILES IDX 73 93 79 94 81 95 78 96 74 97 75 98 76 99 77 100 56 101
REMARK SMILES IDX 57 102 65 103 58 104 64 105 66 106 63 107 59 108 60 109
REMARK SMILES IDX 61 110 62 111
REMARK H PARENT 86 64 54 75
REMARK Flexibility Score: inf
ROOT
ATOM      1  C   UNL A   1      43.499  32.258  35.527  1.00  0.00     0.188 C 
ENDROOT
BRANCH   1   2
ATOM      2  C   UNL A   1      42.953  31.929  33.940  1.00  0.00     0.188 C 
BRANCH   2   3
ATOM      3  O   UNL A   1      41.792  31.139  33.615  1.00  0.00    -0.376 OA
BRANCH   3   4
ATOM      4  C   UNL A   1      41.039  31.529  32.474  1.00  0.00     0.202 C 
BRANCH   4   5
ATOM      5  C   UNL A   1      39.690  30.886  32.316  1.00  0.00     0.261 C 
BRANCH   5   6
ATOM      6  O   UNL A   1      39.726  29.675  33.103  1.00  0.00    -0.463 OA
BRANCH   6   7
ATOM      7  C   UNL A   1      39.643  28.450  32.593  1.00  0.00     0.306 C 
ATOM      8  O   UNL A   1      39.486  27.451  33.288  1.00  0.00    -0.252 OA
BRANCH   7   9
ATOM      9  C   UNL A   1      39.580  28.406  31.038  1.00  0.00     0.132 C 
BRANCH   9  10
ATOM     10  C   UNL A   1      39.025  29.282  29.774  1.00  0.00     0.114 C 
BRANCH  10  11
ATOM     11  C   UNL A   1      38.021  29.674  28.391  1.00  0.00     0.243 C 
ATOM     12  O   UNL A   1      38.789  29.687  27.406  1.00  0.00    -0.273 OA
BRANCH  11  13
ATOM     13  N   UNL A   1      36.465  30.007  28.210  1.00  0.00    -0.230 N 
ATOM     14  C   UNL A   1      33.691  29.558  26.957  1.00  0.00     0.070 C 
ATOM     15  N   UNL A   1      35.009  28.765  27.399  1.00  0.00    -0.174 NA
ATOM     16  C   UNL A   1      33.851  31.502  27.432  1.00  0.00     0.086 C 
ATOM     17  C   UNL A   1      35.612  31.793  28.423  1.00  0.00     0.118 C 
BRANCH  14  18
ATOM     18  C   UNL A   1      32.683  29.010  26.090  1.00  0.00    -0.002 A 
ATOM     19  C   UNL A   1      29.665  27.256  23.699  1.00  0.00     0.044 C 
ATOM     20  C   UNL A   1      30.797  27.828  24.488  1.00  0.00    -0.051 A 
ATOM     21  C   UNL A   1      31.021  27.346  25.788  1.00  0.00     0.004 A 
ATOM     22  C   UNL A   1      31.593  28.858  23.967  1.00  0.00     0.004 A 
ATOM     23  C   UNL A   1      31.987  27.924  26.587  1.00  0.00     0.010 A 
ATOM     24  C   UNL A   1      32.544  29.465  24.777  1.00  0.00     0.010 A 
ENDBRANCH  14  18
BRANCH  17  25
ATOM     25  C   UNL A   1      36.353  33.141  29.705  1.00  0.00     0.045 C 
BRANCH  25  26
ATOM     26  C   UNL A   1      36.554  33.051  31.706  1.00  0.00     0.106 C 
ATOM     27  C   UNL A   1      37.762  33.948  32.542  1.00  0.00    -0.003 C 
ATOM     28  C   UNL A   1      35.596  32.878  32.966  1.00  0.00     0.253 C 
ATOM     29  C   UNL A   1      37.952  34.294  33.804  1.00  0.00    -0.003 A 
ATOM     30  N   UNL A   1      36.279  32.521  34.166  1.00  0.00    -0.212 NA
ATOM     31  O   UNL A   1      34.373  32.856  32.896  1.00  0.00    -0.272 OA
ATOM     32  C   UNL A   1      39.234  34.934  34.098  1.00  0.00     0.010 A 
ATOM     33  C   UNL A   1      37.403  33.120  34.475  1.00  0.00     0.077 A 
ATOM     34  C   UNL A   1      40.114  34.282  34.862  1.00  0.00     0.001 A 
ATOM     35  C   UNL A   1      38.466  32.518  35.384  1.00  0.00    -0.025 A 
ATOM     36  C   UNL A   1      39.703  33.059  35.509  1.00  0.00     0.005 A 
ATOM     37  C   UNL A   1      38.151  31.165  35.890  1.00  0.00     0.047 C 
ENDBRANCH  25  26
ENDBRANCH  17  25
ENDBRANCH  11  13
ENDBRANCH  10  11
ENDBRANCH   9  10
ENDBRANCH   7   9
ENDBRANCH   6   7
ENDBRANCH   5   6
ENDBRANCH   4   5
ENDBRANCH   3   4
ENDBRANCH   2   3
ENDBRANCH   1   2
BRANCH   1  38
ATOM     38  O   UNL A   1      43.400  31.582  37.133  1.00  0.00    -0.377 OA
BRANCH  38  39
ATOM     39  C   UNL A   1      44.359  31.235  38.508  1.00  0.00     0.188 C 
BRANCH  39  40
ATOM     40  C   UNL A   1      45.185  32.328  39.398  1.00  0.00     0.188 C 
BRANCH  40  41
ATOM     41  O   UNL A   1      45.568  33.571  38.772  1.00  0.00    -0.376 OA
BRANCH  41  42
ATOM     42  C   UNL A   1      46.144  34.663  39.429  1.00  0.00     0.202 C 
BRANCH  42  43
ATOM     43  C   UNL A   1      47.610  34.412  39.324  1.00  0.00     0.261 C 
BRANCH  43  44
ATOM     44  O   UNL A   1      47.792  34.010  37.884  1.00  0.00    -0.460 OA
BRANCH  44  45
ATOM     45  C   UNL A   1      48.359  34.788  36.886  1.00  0.00     0.338 C 
ATOM     46  O   UNL A   1      49.361  35.459  37.121  1.00  0.00    -0.246 OA
BRANCH  45  47
ATOM     47  C   UNL A   1      47.770  34.777  35.416  1.00  0.00     0.060 A 
ATOM     48  C   UNL A   1      46.399  34.948  35.152  1.00  0.00     0.016 A 
ATOM     49  C   UNL A   1      48.449  34.436  34.260  1.00  0.00     0.016 A 
ATOM     50  C   UNL A   1      45.739  34.470  33.913  1.00  0.00     0.010 A 
ATOM     51  C   UNL A   1      47.755  33.817  33.121  1.00  0.00     0.010 A 
ATOM     52  C   UNL A   1      46.360  33.555  33.031  1.00  0.00    -0.014 A 
BRANCH  52  53
ATOM     53  C   UNL A   1      45.686  32.519  31.792  1.00  0.00     0.031 A 
ATOM     54  C   UNL A   1      46.293  31.178  32.139  1.00  0.00     0.074 A 
ATOM     55  C   UNL A   1      44.574  32.531  30.770  1.00  0.00     0.049 A 
ATOM     56  N   UNL A   1      45.962  30.083  31.585  1.00  0.00    -0.248 NA
ATOM     57  C   UNL A   1      47.142  30.914  33.312  1.00  0.00     0.031 C 
ATOM     58  C   UNL A   1      43.799  31.502  29.988  1.00  0.00     0.029 A 
ATOM     59  N   UNL A   1      43.693  33.482  30.200  1.00  0.00    -0.354 N 
ATOM     60  C   UNL A   1      46.028  29.089  32.546  1.00  0.00     0.074 A 
ATOM     61  C   UNL A   1      46.870  29.630  33.572  1.00  0.00     0.031 C 
ATOM     62  C   UNL A   1      42.959  31.923  28.985  1.00  0.00     0.029 A 
ATOM     63  C   UNL A   1      43.125  33.324  28.927  1.00  0.00     0.049 A 
ATOM     64  H   UNL A   1      43.470  34.288  30.719  1.00  0.00     0.167 HD
ATOM     65  C   UNL A   1      45.197  28.018  32.381  1.00  0.00     0.034 A 
ATOM     66  C   UNL A   1      43.527  34.121  27.886  1.00  0.00     0.034 A 
ATOM     67  C   UNL A   1      44.508  28.091  31.052  1.00  0.00     0.049 A 
ATOM     68  C   UNL A   1      44.714  33.109  27.368  1.00  0.00     0.074 A 
ATOM     69  C   UNL A   1      43.210  27.982  30.581  1.00  0.00     0.029 A 
ATOM     70  N   UNL A   1      45.230  28.595  29.962  1.00  0.00    -0.354 N 
ATOM     71  N   UNL A   1      45.259  32.143  28.112  1.00  0.00    -0.248 NA
ATOM     72  C   UNL A   1      45.073  32.852  25.971  1.00  0.00     0.031 C 
ATOM     73  C   UNL A   1      43.176  28.544  29.244  1.00  0.00     0.029 A 
ATOM     74  C   UNL A   1      44.447  29.044  28.914  1.00  0.00     0.049 A 
ATOM     75  H   UNL A   1      46.215  28.626  29.944  1.00  0.00     0.167 HD
ATOM     76  C   UNL A   1      45.385  30.977  27.366  1.00  0.00     0.074 A 
ATOM     77  C   UNL A   1      45.623  31.614  26.059  1.00  0.00     0.031 C 
ATOM     78  C   UNL A   1      45.115  29.623  27.716  1.00  0.00     0.034 A 
BRANCH  65  79
ATOM     79  C   UNL A   1      44.859  26.960  33.426  1.00  0.00     0.023 A 
ATOM     80  C   UNL A   1      44.486  27.433  34.698  1.00  0.00     0.031 A 
ATOM     81  C   UNL A   1      44.888  25.550  33.317  1.00  0.00     0.131 A 
ATOM     82  C   UNL A   1      44.145  26.582  35.762  1.00  0.00     0.055 A 
ATOM     83  C   UNL A   1      44.506  24.688  34.373  1.00  0.00     0.041 A 
ATOM     84  F   UNL A   1      45.305  24.925  32.209  1.00  0.00    -0.206 F 
ATOM     85  C   UNL A   1      44.124  25.204  35.603  1.00  0.00     0.022 A 
BRANCH  82  86
ATOM     86  S   UNL A   1      43.710  27.348  37.343  1.00  0.00     0.124 S 
ATOM     87  O   UNL A   1      44.993  27.892  37.776  1.00  0.00    -0.237 OA
ATOM     88  O   UNL A   1      42.699  28.320  36.943  1.00  0.00    -0.237 OA
ATOM     89  O   UNL A   1      43.209  26.227  38.137  1.00  0.00    -0.744 OA
ENDBRANCH  82  86
ENDBRANCH  65  79
BRANCH  66  90
ATOM     90  C   UNL A   1      43.549  35.595  28.495  1.00  0.00     0.023 A 
ATOM     91  C   UNL A   1      44.765  36.668  29.272  1.00  0.00     0.031 A 
ATOM     92  C   UNL A   1      42.246  36.481  27.744  1.00  0.00     0.131 A 
ATOM     93  C   UNL A   1      44.663  38.466  29.308  1.00  0.00     0.055 A 
ATOM     94  C   UNL A   1      42.282  38.532  27.886  1.00  0.00     0.041 A 
ATOM     95  F   UNL A   1      41.196  35.635  27.602  1.00  0.00    -0.206 F 
ATOM     96  C   UNL A   1      43.444  39.321  28.701  1.00  0.00     0.022 A 
BRANCH  93  97
ATOM     97  S   UNL A   1      45.948  39.805  29.727  1.00  0.00     0.124 S 
ATOM     98  O   UNL A   1      45.138  41.015  29.791  1.00  0.00    -0.237 OA
ATOM     99  O   UNL A   1      46.618  39.404  30.956  1.00  0.00    -0.237 OA
ATOM    100  O   UNL A   1      46.869  39.796  28.572  1.00  0.00    -0.744 OA
ENDBRANCH  93  97
ENDBRANCH  66  90
BRANCH  78 101
ATOM    101  C   UNL A   1      45.585  28.488  26.860  1.00  0.00     0.023 A 
ATOM    102  C   UNL A   1      46.883  28.069  26.951  1.00  0.00     0.031 A 
ATOM    103  C   UNL A   1      44.726  27.737  26.007  1.00  0.00     0.131 A 
ATOM    104  C   UNL A   1      47.160  26.752  26.634  1.00  0.00     0.055 A 
ATOM    105  C   UNL A   1      45.075  26.500  25.507  1.00  0.00     0.041 A 
ATOM    106  F   UNL A   1      43.497  28.118  25.639  1.00  0.00    -0.206 F 
ATOM    107  C   UNL A   1      46.274  25.957  25.906  1.00  0.00     0.022 A 
BRANCH 104 108
ATOM    108  S   UNL A   1      48.608  26.063  27.433  1.00  0.00     0.124 S 
ATOM    109  O   UNL A   1      49.700  26.699  26.704  1.00  0.00    -0.237 OA
ATOM    110  O   UNL A   1      48.422  26.524  28.808  1.00  0.00    -0.237 OA
ATOM    111  O   UNL A   1      48.451  24.629  27.220  1.00  0.00    -0.744 OA
ENDBRANCH 104 108
ENDBRANCH  78 101
ENDBRANCH  52  53
ENDBRANCH  45  47
ENDBRANCH  44  45
ENDBRANCH  43  44
ENDBRANCH  42  43
ENDBRANCH  41  42
ENDBRANCH  40  41
ENDBRANCH  39  40
ENDBRANCH  38  39
ENDBRANCH   1  38
TORSDOF 29
ENDMDL
