MODEL 1
REMARK VINA RESULT:      -8.8      0.000      0.000
REMARK SMILES O=C(CNC(=O)OCc1ccccc1)NCC(=O)OCCOCCOCCOCCOC(=O)c1ccc(-c2c3nc(c(-c4cc(S(=O)(=O)[O-])ccc4F)c4ccc([nH]4)c(-c4cc(S(=O)(=O)[O-])ccc4F)c4nc(c(-c5cc(S(=O)(=O)[O-])ccc5F)c5ccc2[nH]5)C=C4)C=C3)cc1
REMARK SMILES IDX 23 1 22 2 21 3 20 4 19 5 17 6 18 7 16 8 15 9 1 10 2 11 3 13
REMARK SMILES IDX 4 14 5 15 6 17 7 18 8 19 9 20 10 21 14 22 11 23 13 24 12 25
REMARK SMILES IDX 24 26 25 27 26 28 27 29 28 30 29 31 30 32 31 33 32 34 33 35
REMARK SMILES IDX 34 36 35 37 96 38 36 39 95 40 37 41 38 42 39 43 89 44 40 45
REMARK SMILES IDX 94 46 88 47 90 48 41 49 93 50 87 51 86 52 42 54 74 55 54 56
REMARK SMILES IDX 73 57 55 58 58 59 72 60 91 61 56 62 57 63 71 65 92 66 59 67
REMARK SMILES IDX 43 68 44 69 52 70 45 71 51 72 53 73 50 74 46 75 47 76 48 77
REMARK SMILES IDX 49 78 75 79 76 80 84 81 77 82 83 83 85 84 82 85 78 86 79 87
REMARK SMILES IDX 80 88 81 89 60 90 61 91 69 92 62 93 68 94 70 95 67 96 63 97
REMARK SMILES IDX 64 98 65 99 66 100
REMARK H PARENT 15 12 4 16 90 53 58 64
REMARK Flexibility Score: inf
ROOT
ATOM      1  C   UNL A   1      32.750  21.865  26.346  1.00  0.00     0.188 C 
ENDROOT
BRANCH   1   2
ATOM      2  O   UNL A   1      32.045  21.564  25.152  1.00  0.00    -0.376 OA
BRANCH   2   3
ATOM      3  C   UNL A   1      32.731  21.039  24.023  1.00  0.00     0.202 C 
BRANCH   3   4
ATOM      4  C   UNL A   1      33.502  21.942  23.042  1.00  0.00     0.261 C 
BRANCH   4   5
ATOM      5  O   UNL A   1      32.706  22.886  22.300  1.00  0.00    -0.462 OA
BRANCH   5   6
ATOM      6  C   UNL A   1      32.759  24.176  22.710  1.00  0.00     0.325 C 
ATOM      7  O   UNL A   1      33.529  25.018  22.254  1.00  0.00    -0.250 OA
BRANCH   6   8
ATOM      8  C   UNL A   1      31.665  24.569  23.714  1.00  0.00     0.238 C 
BRANCH   8   9
ATOM      9  N   UNL A   1      30.612  25.529  23.420  1.00  0.00    -0.344 N 
ATOM     10  O   UNL A   1      29.779  25.735  25.538  1.00  0.00    -0.273 OA
ATOM     11  C   UNL A   1      29.786  26.091  24.366  1.00  0.00     0.240 C 
ATOM     12  H   UNL A   1      30.481  25.793  22.481  1.00  0.00     0.164 HD
BRANCH  11  13
ATOM     13  C   UNL A   1      28.802  27.133  23.791  1.00  0.00     0.219 C 
BRANCH  13  14
ATOM     14  N   UNL A   1      29.434  27.882  22.706  1.00  0.00    -0.312 N 
ATOM     15  C   UNL A   1      29.846  29.182  22.711  1.00  0.00     0.407 C 
ATOM     16  H   UNL A   1      29.578  27.387  21.868  1.00  0.00     0.167 HD
ATOM     17  O   UNL A   1      30.232  29.704  21.679  1.00  0.00    -0.225 OA
BRANCH  15  18
ATOM     18  O   UNL A   1      29.773  29.775  23.925  1.00  0.00    -0.445 OA
BRANCH  18  19
ATOM     19  C   UNL A   1      31.023  30.247  24.461  1.00  0.00     0.270 C 
BRANCH  19  20
ATOM     20  C   UNL A   1      31.833  29.125  25.061  1.00  0.00    -0.011 A 
ATOM     21  C   UNL A   1      32.856  28.508  24.324  1.00  0.00     0.007 A 
ATOM     22  C   UNL A   1      31.582  28.675  26.366  1.00  0.00     0.007 A 
ATOM     23  C   UNL A   1      33.593  27.455  24.866  1.00  0.00     0.000 A 
ATOM     24  C   UNL A   1      32.328  27.627  26.912  1.00  0.00     0.000 A 
ATOM     25  C   UNL A   1      33.327  27.012  26.159  1.00  0.00     0.000 A 
ENDBRANCH  19  20
ENDBRANCH  18  19
ENDBRANCH  15  18
ENDBRANCH  13  14
ENDBRANCH  11  13
ENDBRANCH   8   9
ENDBRANCH   6   8
ENDBRANCH   5   6
ENDBRANCH   4   5
ENDBRANCH   3   4
ENDBRANCH   2   3
ENDBRANCH   1   2
BRANCH   1  26
ATOM     26  C   UNL A   1      34.036  21.105  26.711  1.00  0.00     0.188 C 
BRANCH  26  27
ATOM     27  O   UNL A   1      35.227  21.634  26.173  1.00  0.00    -0.377 OA
BRANCH  27  28
ATOM     28  C   UNL A   1      36.043  20.773  25.386  1.00  0.00     0.188 C 
BRANCH  28  29
ATOM     29  C   UNL A   1      37.357  21.319  24.786  1.00  0.00     0.188 C 
BRANCH  29  30
ATOM     30  O   UNL A   1      38.077  22.198  25.641  1.00  0.00    -0.376 OA
BRANCH  30  31
ATOM     31  C   UNL A   1      39.326  21.761  26.159  1.00  0.00     0.202 C 
BRANCH  31  32
ATOM     32  C   UNL A   1      39.617  20.250  26.115  1.00  0.00     0.261 C 
BRANCH  32  33
ATOM     33  O   UNL A   1      40.809  19.846  25.419  1.00  0.00    -0.460 OA
BRANCH  33  34
ATOM     34  C   UNL A   1      41.895  19.565  26.173  1.00  0.00     0.338 C 
ATOM     35  O   UNL A   1      42.330  18.458  26.428  1.00  0.00    -0.246 OA
BRANCH  34  36
ATOM     36  C   UNL A   1      42.604  20.831  26.468  1.00  0.00     0.060 A 
ATOM     37  C   UNL A   1      42.723  21.228  27.805  1.00  0.00     0.016 A 
ATOM     38  C   UNL A   1      43.122  21.632  25.447  1.00  0.00     0.016 A 
ATOM     39  C   UNL A   1      43.303  22.455  28.123  1.00  0.00     0.010 A 
ATOM     40  C   UNL A   1      43.688  22.873  25.766  1.00  0.00     0.010 A 
ATOM     41  C   UNL A   1      43.739  23.310  27.102  1.00  0.00    -0.014 A 
BRANCH  41  42
ATOM     42  C   UNL A   1      44.036  24.729  27.437  1.00  0.00     0.031 A 
ATOM     43  C   UNL A   1      45.454  25.217  27.292  1.00  0.00     0.074 A 
ATOM     44  C   UNL A   1      43.059  25.588  27.781  1.00  0.00     0.049 A 
ATOM     45  N   UNL A   1      45.951  26.410  27.495  1.00  0.00    -0.248 NA
ATOM     46  C   UNL A   1      46.446  24.220  26.859  1.00  0.00     0.031 C 
ATOM     47  C   UNL A   1      41.642  25.249  27.903  1.00  0.00     0.029 A 
ATOM     48  N   UNL A   1      43.112  26.927  28.081  1.00  0.00    -0.354 N 
ATOM     49  C   UNL A   1      47.310  26.309  27.214  1.00  0.00     0.074 A 
ATOM     50  C   UNL A   1      47.566  24.924  26.875  1.00  0.00     0.031 C 
ATOM     51  C   UNL A   1      40.959  26.354  28.249  1.00  0.00     0.029 A 
ATOM     52  C   UNL A   1      41.890  27.469  28.408  1.00  0.00     0.049 A 
ATOM     53  H   UNL A   1      43.945  27.450  28.063  1.00  0.00     0.167 HD
ATOM     54  C   UNL A   1      48.256  27.280  27.223  1.00  0.00     0.034 A 
ATOM     55  C   UNL A   1      41.566  28.716  28.808  1.00  0.00     0.034 A 
ATOM     56  C   UNL A   1      47.991  28.654  27.577  1.00  0.00     0.049 A 
ATOM     57  C   UNL A   1      42.654  29.763  28.900  1.00  0.00     0.074 A 
ATOM     58  C   UNL A   1      48.874  29.719  27.619  1.00  0.00     0.029 A 
ATOM     59  N   UNL A   1      46.752  29.153  27.964  1.00  0.00    -0.354 N 
ATOM     60  N   UNL A   1      43.935  29.654  28.628  1.00  0.00    -0.248 NA
ATOM     61  C   UNL A   1      42.245  31.104  29.338  1.00  0.00     0.031 C 
ATOM     62  C   UNL A   1      48.192  30.837  28.112  1.00  0.00     0.029 A 
ATOM     63  C   UNL A   1      46.858  30.500  28.279  1.00  0.00     0.049 A 
ATOM     64  H   UNL A   1      45.922  28.627  28.008  1.00  0.00     0.167 HD
ATOM     65  C   UNL A   1      44.475  30.926  28.824  1.00  0.00     0.074 A 
ATOM     66  C   UNL A   1      43.376  31.783  29.217  1.00  0.00     0.031 C 
ATOM     67  C   UNL A   1      45.759  31.348  28.682  1.00  0.00     0.034 A 
BRANCH  54  68
ATOM     68  C   UNL A   1      49.674  26.872  26.897  1.00  0.00     0.023 A 
ATOM     69  C   UNL A   1      50.658  26.734  27.893  1.00  0.00     0.031 A 
ATOM     70  C   UNL A   1      50.058  26.649  25.562  1.00  0.00     0.131 A 
ATOM     71  C   UNL A   1      51.987  26.457  27.533  1.00  0.00     0.055 A 
ATOM     72  C   UNL A   1      51.361  26.285  25.219  1.00  0.00     0.041 A 
ATOM     73  F   UNL A   1      49.172  26.792  24.563  1.00  0.00    -0.206 F 
ATOM     74  C   UNL A   1      52.339  26.203  26.206  1.00  0.00     0.022 A 
BRANCH  71  75
ATOM     75  S   UNL A   1      53.275  26.592  28.802  1.00  0.00     0.124 S 
ATOM     76  O   UNL A   1      53.506  28.035  28.837  1.00  0.00    -0.237 OA
ATOM     77  O   UNL A   1      52.625  26.020  29.976  1.00  0.00    -0.237 OA
ATOM     78  O   UNL A   1      54.379  25.806  28.255  1.00  0.00    -0.744 OA
ENDBRANCH  71  75
ENDBRANCH  54  68
BRANCH  55  79
ATOM     79  C   UNL A   1      40.161  29.052  29.187  1.00  0.00     0.023 A 
ATOM     80  C   UNL A   1      39.745  29.059  30.528  1.00  0.00     0.031 A 
ATOM     81  C   UNL A   1      39.192  29.303  28.198  1.00  0.00     0.131 A 
ATOM     82  C   UNL A   1      38.390  29.259  30.841  1.00  0.00     0.055 A 
ATOM     83  C   UNL A   1      37.858  29.563  28.518  1.00  0.00     0.041 A 
ATOM     84  F   UNL A   1      39.531  29.299  26.899  1.00  0.00    -0.206 F 
ATOM     85  C   UNL A   1      37.448  29.526  29.846  1.00  0.00     0.022 A 
BRANCH  82  86
ATOM     86  S   UNL A   1      37.858  29.060  32.564  1.00  0.00     0.124 S 
ATOM     87  O   UNL A   1      36.509  29.614  32.523  1.00  0.00    -0.237 OA
ATOM     88  O   UNL A   1      37.955  27.616  32.747  1.00  0.00    -0.237 OA
ATOM     89  O   UNL A   1      38.835  29.848  33.315  1.00  0.00    -0.744 OA
ENDBRANCH  82  86
ENDBRANCH  55  79
BRANCH  67  90
ATOM     90  C   UNL A   1      46.029  32.821  28.897  1.00  0.00     0.023 A 
ATOM     91  C   UNL A   1      46.171  33.721  27.826  1.00  0.00     0.031 A 
ATOM     92  C   UNL A   1      46.182  33.327  30.202  1.00  0.00     0.131 A 
ATOM     93  C   UNL A   1      46.539  35.052  28.073  1.00  0.00     0.055 A 
ATOM     94  C   UNL A   1      46.466  34.671  30.445  1.00  0.00     0.041 A 
ATOM     95  F   UNL A   1      46.061  32.519  31.268  1.00  0.00    -0.206 F 
ATOM     96  C   UNL A   1      46.668  35.538  29.376  1.00  0.00     0.022 A 
BRANCH  93  97
ATOM     97  S   UNL A   1      46.988  36.106  26.665  1.00  0.00     0.124 S 
ATOM     98  O   UNL A   1      46.086  35.621  25.625  1.00  0.00    -0.237 OA
ATOM     99  O   UNL A   1      46.712  37.444  27.177  1.00  0.00    -0.237 OA
ATOM    100  O   UNL A   1      48.403  35.805  26.449  1.00  0.00    -0.744 OA
ENDBRANCH  93  97
ENDBRANCH  67  90
ENDBRANCH  41  42
ENDBRANCH  34  36
ENDBRANCH  33  34
ENDBRANCH  32  33
ENDBRANCH  31  32
ENDBRANCH  30  31
ENDBRANCH  29  30
ENDBRANCH  28  29
ENDBRANCH  27  28
ENDBRANCH  26  27
ENDBRANCH   1  26
TORSDOF 29
ENDMDL
MODEL 2
REMARK VINA RESULT:      -8.6      2.036      2.355
REMARK SMILES O=C(CNC(=O)OCc1ccccc1)NCC(=O)OCCOCCOCCOCCOC(=O)c1ccc(-c2c3nc(c(-c4cc(S(=O)(=O)[O-])ccc4F)c4ccc([nH]4)c(-c4cc(S(=O)(=O)[O-])ccc4F)c4nc(c(-c5cc(S(=O)(=O)[O-])ccc5F)c5ccc2[nH]5)C=C4)C=C3)cc1
REMARK SMILES IDX 23 1 22 2 21 3 20 4 19 5 17 6 18 7 16 8 15 9 1 10 2 11 3 13
REMARK SMILES IDX 4 14 5 15 6 17 7 18 8 19 9 20 10 21 14 22 11 23 13 24 12 25
REMARK SMILES IDX 24 26 25 27 26 28 27 29 28 30 29 31 30 32 31 33 32 34 33 35
REMARK SMILES IDX 34 36 35 37 96 38 36 39 95 40 37 41 38 42 39 43 89 44 40 45
REMARK SMILES IDX 94 46 88 47 90 48 41 49 93 50 87 51 86 52 42 54 74 55 54 56
REMARK SMILES IDX 73 57 55 58 58 59 72 60 91 61 56 62 57 63 71 65 92 66 59 67
REMARK SMILES IDX 43 68 44 69 52 70 45 71 51 72 53 73 50 74 46 75 47 76 48 77
REMARK SMILES IDX 49 78 75 79 76 80 84 81 77 82 83 83 85 84 82 85 78 86 79 87
REMARK SMILES IDX 80 88 81 89 60 90 61 91 69 92 62 93 68 94 70 95 67 96 63 97
REMARK SMILES IDX 64 98 65 99 66 100
REMARK H PARENT 15 12 4 16 90 53 58 64
REMARK Flexibility Score: inf
ROOT
ATOM      1  C   UNL A   1      32.101  22.914  26.736  1.00  0.00     0.188 C 
ENDROOT
BRANCH   1   2
ATOM      2  O   UNL A   1      31.418  22.252  25.684  1.00  0.00    -0.376 OA
BRANCH   2   3
ATOM      3  C   UNL A   1      32.041  21.187  24.978  1.00  0.00     0.202 C 
BRANCH   3   4
ATOM      4  C   UNL A   1      32.392  21.292  23.482  1.00  0.00     0.261 C 
BRANCH   4   5
ATOM      5  O   UNL A   1      31.972  22.502  22.822  1.00  0.00    -0.462 OA
BRANCH   5   6
ATOM      6  C   UNL A   1      32.892  23.492  22.730  1.00  0.00     0.325 C 
ATOM      7  O   UNL A   1      33.908  23.434  22.041  1.00  0.00    -0.250 OA
BRANCH   6   8
ATOM      8  C   UNL A   1      32.503  24.789  23.454  1.00  0.00     0.238 C 
BRANCH   8   9
ATOM      9  N   UNL A   1      31.177  25.384  23.379  1.00  0.00    -0.344 N 
ATOM     10  O   UNL A   1      31.043  26.117  25.539  1.00  0.00    -0.273 OA
ATOM     11  C   UNL A   1      30.570  26.062  24.411  1.00  0.00     0.240 C 
ATOM     12  H   UNL A   1      30.681  25.295  22.534  1.00  0.00     0.164 HD
BRANCH  11  13
ATOM     13  C   UNL A   1      29.192  26.653  24.040  1.00  0.00     0.219 C 
BRANCH  13  14
ATOM     14  N   UNL A   1      29.296  27.456  22.823  1.00  0.00    -0.312 N 
ATOM     15  C   UNL A   1      29.857  28.690  22.675  1.00  0.00     0.407 C 
ATOM     16  H   UNL A   1      28.912  27.057  22.009  1.00  0.00     0.167 HD
ATOM     17  O   UNL A   1      29.744  29.291  21.621  1.00  0.00    -0.225 OA
BRANCH  15  18
ATOM     18  O   UNL A   1      30.509  29.131  23.776  1.00  0.00    -0.445 OA
BRANCH  18  19
ATOM     19  C   UNL A   1      31.929  29.311  23.626  1.00  0.00     0.270 C 
BRANCH  19  20
ATOM     20  C   UNL A   1      32.647  29.224  24.951  1.00  0.00    -0.011 A 
ATOM     21  C   UNL A   1      33.693  28.308  25.138  1.00  0.00     0.007 A 
ATOM     22  C   UNL A   1      32.284  30.057  26.020  1.00  0.00     0.007 A 
ATOM     23  C   UNL A   1      34.344  28.208  26.368  1.00  0.00     0.000 A 
ATOM     24  C   UNL A   1      32.944  29.963  27.248  1.00  0.00     0.000 A 
ATOM     25  C   UNL A   1      33.968  29.034  27.424  1.00  0.00     0.000 A 
ENDBRANCH  19  20
ENDBRANCH  18  19
ENDBRANCH  15  18
ENDBRANCH  13  14
ENDBRANCH  11  13
ENDBRANCH   8   9
ENDBRANCH   6   8
ENDBRANCH   5   6
ENDBRANCH   4   5
ENDBRANCH   3   4
ENDBRANCH   2   3
ENDBRANCH   1   2
BRANCH   1  26
ATOM     26  C   UNL A   1      33.433  22.366  27.275  1.00  0.00     0.188 C 
BRANCH  26  27
ATOM     27  O   UNL A   1      34.565  22.631  26.478  1.00  0.00    -0.377 OA
BRANCH  27  28
ATOM     28  C   UNL A   1      35.384  21.530  26.097  1.00  0.00     0.188 C 
BRANCH  28  29
ATOM     29  C   UNL A   1      36.683  21.795  25.306  1.00  0.00     0.188 C 
BRANCH  29  30
ATOM     30  O   UNL A   1      37.554  22.750  25.900  1.00  0.00    -0.376 OA
BRANCH  30  31
ATOM     31  C   UNL A   1      38.907  22.377  26.129  1.00  0.00     0.202 C 
BRANCH  31  32
ATOM     32  C   UNL A   1      39.232  20.873  26.133  1.00  0.00     0.261 C 
BRANCH  32  33
ATOM     33  O   UNL A   1      40.480  20.485  25.536  1.00  0.00    -0.460 OA
BRANCH  33  34
ATOM     34  C   UNL A   1      41.522  20.273  26.371  1.00  0.00     0.338 C 
ATOM     35  O   UNL A   1      41.982  19.193  26.690  1.00  0.00    -0.246 OA
BRANCH  34  36
ATOM     36  C   UNL A   1      42.157  21.576  26.673  1.00  0.00     0.060 A 
ATOM     37  C   UNL A   1      42.424  21.889  28.011  1.00  0.00     0.016 A 
ATOM     38  C   UNL A   1      42.462  22.490  25.661  1.00  0.00     0.016 A 
ATOM     39  C   UNL A   1      42.938  23.139  28.349  1.00  0.00     0.010 A 
ATOM     40  C   UNL A   1      42.961  23.753  26.004  1.00  0.00     0.010 A 
ATOM     41  C   UNL A   1      43.157  24.100  27.353  1.00  0.00    -0.014 A 
BRANCH  41  42
ATOM     42  C   UNL A   1      43.378  25.514  27.760  1.00  0.00     0.031 A 
ATOM     43  C   UNL A   1      44.761  26.094  27.612  1.00  0.00     0.074 A 
ATOM     44  C   UNL A   1      42.361  26.292  28.172  1.00  0.00     0.049 A 
ATOM     45  N   UNL A   1      45.191  27.302  27.870  1.00  0.00    -0.248 NA
ATOM     46  C   UNL A   1      45.799  25.184  27.102  1.00  0.00     0.031 C 
ATOM     47  C   UNL A   1      40.970  25.862  28.305  1.00  0.00     0.029 A 
ATOM     48  N   UNL A   1      42.342  27.614  28.545  1.00  0.00    -0.354 N 
ATOM     49  C   UNL A   1      46.547  27.298  27.555  1.00  0.00     0.074 A 
ATOM     50  C   UNL A   1      46.875  25.952  27.134  1.00  0.00     0.031 C 
ATOM     51  C   UNL A   1      40.231  26.903  28.727  1.00  0.00     0.029 A 
ATOM     52  C   UNL A   1      41.099  28.063  28.929  1.00  0.00     0.049 A 
ATOM     53  H   UNL A   1      43.143  28.186  28.539  1.00  0.00     0.167 HD
ATOM     54  C   UNL A   1      47.434  28.323  27.599  1.00  0.00     0.034 A 
ATOM     55  C   UNL A   1      40.712  29.264  29.405  1.00  0.00     0.034 A 
ATOM     56  C   UNL A   1      47.096  29.657  28.034  1.00  0.00     0.049 A 
ATOM     57  C   UNL A   1      41.738  30.368  29.532  1.00  0.00     0.074 A 
ATOM     58  C   UNL A   1      47.916  30.770  28.117  1.00  0.00     0.029 A 
ATOM     59  N   UNL A   1      45.840  30.059  28.475  1.00  0.00    -0.354 N 
ATOM     60  N   UNL A   1      43.016  30.352  29.227  1.00  0.00    -0.248 NA
ATOM     61  C   UNL A   1      41.262  31.656  30.052  1.00  0.00     0.031 C 
ATOM     62  C   UNL A   1      47.181  31.815  28.686  1.00  0.00     0.029 A 
ATOM     63  C   UNL A   1      45.874  31.390  28.863  1.00  0.00     0.049 A 
ATOM     64  H   UNL A   1      45.044  29.482  28.507  1.00  0.00     0.167 HD
ATOM     65  C   UNL A   1      43.484  31.641  29.481  1.00  0.00     0.074 A 
ATOM     66  C   UNL A   1      42.347  32.407  29.946  1.00  0.00     0.031 C 
ATOM     67  C   UNL A   1      44.737  32.147  29.335  1.00  0.00     0.034 A 
BRANCH  54  68
ATOM     68  C   UNL A   1      48.865  28.020  27.219  1.00  0.00     0.023 A 
ATOM     69  C   UNL A   1      49.346  28.212  25.911  1.00  0.00     0.031 A 
ATOM     70  C   UNL A   1      49.756  27.499  28.175  1.00  0.00     0.131 A 
ATOM     71  C   UNL A   1      50.652  27.818  25.579  1.00  0.00     0.055 A 
ATOM     72  C   UNL A   1      51.081  27.192  27.860  1.00  0.00     0.041 A 
ATOM     73  F   UNL A   1      49.350  27.266  29.433  1.00  0.00    -0.206 F 
ATOM     74  C   UNL A   1      51.532  27.337  26.550  1.00  0.00     0.022 A 
BRANCH  71  75
ATOM     75  S   UNL A   1      51.131  27.792  23.830  1.00  0.00     0.124 S 
ATOM     76  O   UNL A   1      52.397  27.063  23.881  1.00  0.00    -0.237 OA
ATOM     77  O   UNL A   1      50.015  27.091  23.206  1.00  0.00    -0.237 OA
ATOM     78  O   UNL A   1      51.250  29.207  23.486  1.00  0.00    -0.744 OA
ENDBRANCH  71  75
ENDBRANCH  54  68
BRANCH  55  79
ATOM     79  C   UNL A   1      39.299  29.493  29.832  1.00  0.00     0.023 A 
ATOM     80  C   UNL A   1      38.484  30.438  29.188  1.00  0.00     0.031 A 
ATOM     81  C   UNL A   1      38.766  28.813  30.942  1.00  0.00     0.131 A 
ATOM     82  C   UNL A   1      37.202  30.716  29.691  1.00  0.00     0.055 A 
ATOM     83  C   UNL A   1      37.468  29.047  31.400  1.00  0.00     0.041 A 
ATOM     84  F   UNL A   1      39.504  27.905  31.601  1.00  0.00    -0.206 F 
ATOM     85  C   UNL A   1      36.683  30.015  30.782  1.00  0.00     0.022 A 
BRANCH  82  86
ATOM     86  S   UNL A   1      36.258  32.083  28.961  1.00  0.00     0.124 S 
ATOM     87  O   UNL A   1      35.116  32.170  29.863  1.00  0.00    -0.237 OA
ATOM     88  O   UNL A   1      37.216  33.182  29.027  1.00  0.00    -0.237 OA
ATOM     89  O   UNL A   1      35.955  31.604  27.613  1.00  0.00    -0.744 OA
ENDBRANCH  82  86
ENDBRANCH  55  79
BRANCH  67  90
ATOM     90  C   UNL A   1      44.925  33.620  29.627  1.00  0.00     0.023 A 
ATOM     91  C   UNL A   1      44.786  34.604  28.633  1.00  0.00     0.031 A 
ATOM     92  C   UNL A   1      45.286  34.043  30.921  1.00  0.00     0.131 A 
ATOM     93  C   UNL A   1      45.086  35.943  28.924  1.00  0.00     0.055 A 
ATOM     94  C   UNL A   1      45.503  35.387  31.226  1.00  0.00     0.041 A 
ATOM     95  F   UNL A   1      45.438  33.152  31.914  1.00  0.00    -0.206 F 
ATOM     96  C   UNL A   1      45.424  36.344  30.218  1.00  0.00     0.022 A 
BRANCH  93  97
ATOM     97  S   UNL A   1      45.170  37.133  27.556  1.00  0.00     0.124 S 
ATOM     98  O   UNL A   1      43.783  37.173  27.105  1.00  0.00    -0.237 OA
ATOM     99  O   UNL A   1      45.659  38.337  28.221  1.00  0.00    -0.237 OA
ATOM    100  O   UNL A   1      46.110  36.517  26.621  1.00  0.00    -0.744 OA
ENDBRANCH  93  97
ENDBRANCH  67  90
ENDBRANCH  41  42
ENDBRANCH  34  36
ENDBRANCH  33  34
ENDBRANCH  32  33
ENDBRANCH  31  32
ENDBRANCH  30  31
ENDBRANCH  29  30
ENDBRANCH  28  29
ENDBRANCH  27  28
ENDBRANCH  26  27
ENDBRANCH   1  26
TORSDOF 29
ENDMDL
MODEL 3
REMARK VINA RESULT:      -8.6      0.865      7.289
REMARK SMILES O=C(CNC(=O)OCc1ccccc1)NCC(=O)OCCOCCOCCOCCOC(=O)c1ccc(-c2c3nc(c(-c4cc(S(=O)(=O)[O-])ccc4F)c4ccc([nH]4)c(-c4cc(S(=O)(=O)[O-])ccc4F)c4nc(c(-c5cc(S(=O)(=O)[O-])ccc5F)c5ccc2[nH]5)C=C4)C=C3)cc1
REMARK SMILES IDX 23 1 22 2 21 3 20 4 19 5 17 6 18 7 16 8 15 9 1 10 2 11 3 13
REMARK SMILES IDX 4 14 5 15 6 17 7 18 8 19 9 20 10 21 14 22 11 23 13 24 12 25
REMARK SMILES IDX 24 26 25 27 26 28 27 29 28 30 29 31 30 32 31 33 32 34 33 35
REMARK SMILES IDX 34 36 35 37 96 38 36 39 95 40 37 41 38 42 39 43 89 44 40 45
REMARK SMILES IDX 94 46 88 47 90 48 41 49 93 50 87 51 86 52 42 54 74 55 54 56
REMARK SMILES IDX 73 57 55 58 58 59 72 60 91 61 56 62 57 63 71 65 92 66 59 67
REMARK SMILES IDX 43 68 44 69 52 70 45 71 51 72 53 73 50 74 46 75 47 76 48 77
REMARK SMILES IDX 49 78 75 79 76 80 84 81 77 82 83 83 85 84 82 85 78 86 79 87
REMARK SMILES IDX 80 88 81 89 60 90 61 91 69 92 62 93 68 94 70 95 67 96 63 97
REMARK SMILES IDX 64 98 65 99 66 100
REMARK H PARENT 15 12 4 16 90 53 58 64
REMARK Flexibility Score: inf
ROOT
ATOM      1  C   UNL A   1      32.467  22.996  27.088  1.00  0.00     0.188 C 
ENDROOT
BRANCH   1   2
ATOM      2  O   UNL A   1      31.616  22.716  25.988  1.00  0.00    -0.376 OA
BRANCH   2   3
ATOM      3  C   UNL A   1      31.758  21.505  25.257  1.00  0.00     0.202 C 
BRANCH   3   4
ATOM      4  C   UNL A   1      32.674  21.397  24.024  1.00  0.00     0.261 C 
BRANCH   4   5
ATOM      5  O   UNL A   1      32.463  22.386  22.998  1.00  0.00    -0.462 OA
BRANCH   5   6
ATOM      6  C   UNL A   1      33.352  23.407  22.949  1.00  0.00     0.325 C 
ATOM      7  O   UNL A   1      34.369  23.410  22.260  1.00  0.00    -0.250 OA
BRANCH   6   8
ATOM      8  C   UNL A   1      32.922  24.659  23.727  1.00  0.00     0.238 C 
BRANCH   8   9
ATOM      9  N   UNL A   1      31.579  25.218  23.671  1.00  0.00    -0.344 N 
ATOM     10  O   UNL A   1      31.453  25.936  25.837  1.00  0.00    -0.273 OA
ATOM     11  C   UNL A   1      30.967  25.873  24.715  1.00  0.00     0.240 C 
ATOM     12  H   UNL A   1      31.075  25.119  22.832  1.00  0.00     0.164 HD
BRANCH  11  13
ATOM     13  C   UNL A   1      29.569  26.428  24.364  1.00  0.00     0.219 C 
BRANCH  13  14
ATOM     14  N   UNL A   1      29.612  27.145  23.091  1.00  0.00    -0.312 N 
ATOM     15  C   UNL A   1      30.095  28.397  22.848  1.00  0.00     0.407 C 
ATOM     16  H   UNL A   1      29.246  26.665  22.313  1.00  0.00     0.167 HD
ATOM     17  O   UNL A   1      29.935  28.911  21.754  1.00  0.00    -0.225 OA
BRANCH  15  18
ATOM     18  O   UNL A   1      30.728  28.955  23.905  1.00  0.00    -0.445 OA
BRANCH  18  19
ATOM     19  C   UNL A   1      32.165  28.951  23.841  1.00  0.00     0.270 C 
BRANCH  19  20
ATOM     20  C   UNL A   1      32.786  29.308  25.169  1.00  0.00    -0.011 A 
ATOM     21  C   UNL A   1      32.143  30.199  26.042  1.00  0.00     0.007 A 
ATOM     22  C   UNL A   1      34.015  28.758  25.559  1.00  0.00     0.007 A 
ATOM     23  C   UNL A   1      32.723  30.551  27.260  1.00  0.00     0.000 A 
ATOM     24  C   UNL A   1      34.591  29.102  26.785  1.00  0.00     0.000 A 
ATOM     25  C   UNL A   1      33.949  30.004  27.631  1.00  0.00     0.000 A 
ENDBRANCH  19  20
ENDBRANCH  18  19
ENDBRANCH  15  18
ENDBRANCH  13  14
ENDBRANCH  11  13
ENDBRANCH   8   9
ENDBRANCH   6   8
ENDBRANCH   5   6
ENDBRANCH   4   5
ENDBRANCH   3   4
ENDBRANCH   2   3
ENDBRANCH   1   2
BRANCH   1  26
ATOM     26  C   UNL A   1      33.751  22.180  27.315  1.00  0.00     0.188 C 
BRANCH  26  27
ATOM     27  O   UNL A   1      34.839  22.514  26.484  1.00  0.00    -0.377 OA
BRANCH  27  28
ATOM     28  C   UNL A   1      35.642  21.453  25.978  1.00  0.00     0.188 C 
BRANCH  28  29
ATOM     29  C   UNL A   1      36.893  21.789  25.138  1.00  0.00     0.188 C 
BRANCH  29  30
ATOM     30  O   UNL A   1      37.786  22.713  25.749  1.00  0.00    -0.376 OA
BRANCH  30  31
ATOM     31  C   UNL A   1      39.132  22.309  25.962  1.00  0.00     0.202 C 
BRANCH  31  32
ATOM     32  C   UNL A   1      39.382  20.819  26.256  1.00  0.00     0.261 C 
BRANCH  32  33
ATOM     33  O   UNL A   1      40.585  20.250  25.712  1.00  0.00    -0.460 OA
BRANCH  33  34
ATOM     34  C   UNL A   1      41.578  19.964  26.583  1.00  0.00     0.338 C 
ATOM     35  O   UNL A   1      41.853  18.865  27.027  1.00  0.00    -0.246 OA
BRANCH  34  36
ATOM     36  C   UNL A   1      42.421  21.169  26.751  1.00  0.00     0.060 A 
ATOM     37  C   UNL A   1      42.609  21.671  28.044  1.00  0.00     0.016 A 
ATOM     38  C   UNL A   1      42.995  21.816  25.654  1.00  0.00     0.016 A 
ATOM     39  C   UNL A   1      43.320  22.854  28.240  1.00  0.00     0.010 A 
ATOM     40  C   UNL A   1      43.694  23.014  25.850  1.00  0.00     0.010 A 
ATOM     41  C   UNL A   1      43.819  23.563  27.139  1.00  0.00    -0.014 A 
BRANCH  41  42
ATOM     42  C   UNL A   1      44.269  24.967  27.337  1.00  0.00     0.031 A 
ATOM     43  C   UNL A   1      43.242  26.000  27.725  1.00  0.00     0.074 A 
ATOM     44  C   UNL A   1      45.568  25.305  27.258  1.00  0.00     0.049 A 
ATOM     45  N   UNL A   1      43.395  27.274  27.980  1.00  0.00    -0.248 NA
ATOM     46  C   UNL A   1      41.853  25.527  27.841  1.00  0.00     0.031 C 
ATOM     47  C   UNL A   1      46.662  24.387  26.944  1.00  0.00     0.029 A 
ATOM     48  N   UNL A   1      46.190  26.516  27.447  1.00  0.00    -0.354 N 
ATOM     49  C   UNL A   1      42.125  27.755  28.287  1.00  0.00     0.074 A 
ATOM     50  C   UNL A   1      41.209  26.644  28.137  1.00  0.00     0.031 C 
ATOM     51  C   UNL A   1      47.821  25.067  26.965  1.00  0.00     0.029 A 
ATOM     52  C   UNL A   1      47.552  26.474  27.259  1.00  0.00     0.049 A 
ATOM     53  H   UNL A   1      45.705  27.336  27.694  1.00  0.00     0.167 HD
ATOM     54  C   UNL A   1      41.758  29.002  28.671  1.00  0.00     0.034 A 
ATOM     55  C   UNL A   1      48.471  27.461  27.299  1.00  0.00     0.034 A 
ATOM     56  C   UNL A   1      42.680  30.105  28.803  1.00  0.00     0.049 A 
ATOM     57  C   UNL A   1      48.025  28.864  27.641  1.00  0.00     0.074 A 
ATOM     58  C   UNL A   1      42.415  31.409  29.186  1.00  0.00     0.029 A 
ATOM     59  N   UNL A   1      44.044  30.039  28.543  1.00  0.00    -0.354 N 
ATOM     60  N   UNL A   1      46.822  29.305  27.932  1.00  0.00    -0.248 NA
ATOM     61  C   UNL A   1      49.067  29.899  27.675  1.00  0.00     0.031 C 
ATOM     62  C   UNL A   1      43.598  32.148  29.075  1.00  0.00     0.029 A 
ATOM     63  C   UNL A   1      44.624  31.286  28.723  1.00  0.00     0.049 A 
ATOM     64  H   UNL A   1      44.527  29.226  28.270  1.00  0.00     0.167 HD
ATOM     65  C   UNL A   1      46.973  30.661  28.224  1.00  0.00     0.074 A 
ATOM     66  C   UNL A   1      48.384  30.955  28.090  1.00  0.00     0.031 C 
ATOM     67  C   UNL A   1      46.033  31.576  28.578  1.00  0.00     0.034 A 
BRANCH  54  68
ATOM     68  C   UNL A   1      40.287  29.249  28.917  1.00  0.00     0.023 A 
ATOM     69  C   UNL A   1      39.759  29.375  30.216  1.00  0.00     0.031 A 
ATOM     70  C   UNL A   1      39.391  29.326  27.836  1.00  0.00     0.131 A 
ATOM     71  C   UNL A   1      38.373  29.497  30.400  1.00  0.00     0.055 A 
ATOM     72  C   UNL A   1      38.024  29.537  28.023  1.00  0.00     0.041 A 
ATOM     73  F   UNL A   1      39.828  29.184  26.574  1.00  0.00    -0.206 F 
ATOM     74  C   UNL A   1      37.505  29.608  29.313  1.00  0.00     0.022 A 
BRANCH  71  75
ATOM     75  S   UNL A   1      37.706  29.347  32.080  1.00  0.00     0.124 S 
ATOM     76  O   UNL A   1      37.983  27.944  32.384  1.00  0.00    -0.237 OA
ATOM     77  O   UNL A   1      38.490  30.328  32.821  1.00  0.00    -0.237 OA
ATOM     78  O   UNL A   1      36.290  29.673  31.917  1.00  0.00    -0.744 OA
ENDBRANCH  71  75
ENDBRANCH  54  68
BRANCH  55  79
ATOM     79  C   UNL A   1      49.903  27.179  26.981  1.00  0.00     0.023 A 
ATOM     80  C   UNL A   1      50.856  26.993  27.995  1.00  0.00     0.031 A 
ATOM     81  C   UNL A   1      50.351  27.162  25.647  1.00  0.00     0.131 A 
ATOM     82  C   UNL A   1      52.214  26.852  27.663  1.00  0.00     0.055 A 
ATOM     83  C   UNL A   1      51.693  26.958  25.320  1.00  0.00     0.041 A 
ATOM     84  F   UNL A   1      49.485  27.343  24.637  1.00  0.00    -0.206 F 
ATOM     85  C   UNL A   1      52.636  26.817  26.332  1.00  0.00     0.022 A 
BRANCH  82  86
ATOM     86  S   UNL A   1      53.438  26.819  29.003  1.00  0.00     0.124 S 
ATOM     87  O   UNL A   1      52.664  26.242  30.096  1.00  0.00    -0.237 OA
ATOM     88  O   UNL A   1      54.483  25.972  28.438  1.00  0.00    -0.237 OA
ATOM     89  O   UNL A   1      53.799  28.226  29.167  1.00  0.00    -0.744 OA
ENDBRANCH  82  86
ENDBRANCH  55  79
BRANCH  67  90
ATOM     90  C   UNL A   1      46.517  32.972  28.905  1.00  0.00     0.023 A 
ATOM     91  C   UNL A   1      46.540  34.000  27.947  1.00  0.00     0.031 A 
ATOM     92  C   UNL A   1      46.998  33.268  30.195  1.00  0.00     0.131 A 
ATOM     93  C   UNL A   1      47.109  35.243  28.265  1.00  0.00     0.055 A 
ATOM     94  C   UNL A   1      47.486  34.531  30.531  1.00  0.00     0.041 A 
ATOM     95  F   UNL A   1      47.005  32.328  31.155  1.00  0.00    -0.206 F 
ATOM     96  C   UNL A   1      47.563  35.522  29.556  1.00  0.00     0.022 A 
BRANCH  93  97
ATOM     97  S   UNL A   1      47.378  36.444  26.932  1.00  0.00     0.124 S 
ATOM     98  O   UNL A   1      46.692  37.625  27.445  1.00  0.00    -0.237 OA
ATOM     99  O   UNL A   1      48.834  36.525  26.876  1.00  0.00    -0.237 OA
ATOM    100  O   UNL A   1      46.748  35.815  25.772  1.00  0.00    -0.744 OA
ENDBRANCH  93  97
ENDBRANCH  67  90
ENDBRANCH  41  42
ENDBRANCH  34  36
ENDBRANCH  33  34
ENDBRANCH  32  33
ENDBRANCH  31  32
ENDBRANCH  30  31
ENDBRANCH  29  30
ENDBRANCH  28  29
ENDBRANCH  27  28
ENDBRANCH  26  27
ENDBRANCH   1  26
TORSDOF 29
ENDMDL
