MODEL 1
REMARK VINA RESULT:      -9.3      0.000      0.000
REMARK SMILES Cc1ccc(C)c(N2C(=O)C[C@@H](SCC(=O)OCCOCCOCCOCCOC(=O)c3ccc(-c4c5nc(c(-c6cc(S(=O)(=O)[O-])ccc6F)c6ccc([nH]6)c(-c6cc(S(=O)(=O)[O-])ccc6F)c6nc(c(-c7cc(S(=O)(=O)[O-])ccc7F)c7ccc4[nH]7)C=C6)C=C5)cc3)C2=O)c1
REMARK SMILES IDX 23 1 22 2 21 3 20 4 19 5 18 6 17 7 15 8 16 9 14 10 13 11
REMARK SMILES IDX 12 12 8 13 9 14 95 15 10 16 11 17 96 18 7 19 1 20 2 21 3 22
REMARK SMILES IDX 97 23 4 24 5 25 6 26 24 27 25 28 26 29 27 30 28 31 29 32
REMARK SMILES IDX 30 33 31 34 32 35 33 36 94 37 34 38 93 39 35 40 36 41 37 42
REMARK SMILES IDX 87 43 38 44 92 45 86 46 88 47 39 48 91 49 85 50 84 51 40 53
REMARK SMILES IDX 72 54 52 55 71 56 53 57 56 58 70 59 89 60 54 61 55 62 69 64
REMARK SMILES IDX 90 65 57 66 41 67 42 68 50 69 43 70 49 71 51 72 48 73 44 74
REMARK SMILES IDX 45 75 46 76 47 77 73 78 74 79 82 80 75 81 81 82 83 83 80 84
REMARK SMILES IDX 76 85 77 86 78 87 79 88 58 89 59 90 67 91 60 92 66 93 68 94
REMARK SMILES IDX 65 95 61 96 62 97 63 98 64 99
REMARK H PARENT 88 52 56 63
REMARK Flexibility Score: inf
ROOT
ATOM      1  O   UNL A   1      40.100  21.439  26.868  1.00  0.00    -0.377 OA
ENDROOT
BRANCH   1   2
ATOM      2  C   UNL A   1      38.977  21.696  26.043  1.00  0.00     0.188 C 
BRANCH   2   3
ATOM      3  C   UNL A   1      38.547  23.110  25.695  1.00  0.00     0.188 C 
BRANCH   3   4
ATOM      4  O   UNL A   1      37.195  23.321  26.019  1.00  0.00    -0.376 OA
BRANCH   4   5
ATOM      5  C   UNL A   1      36.287  23.644  24.980  1.00  0.00     0.202 C 
BRANCH   5   6
ATOM      6  C   UNL A   1      35.680  22.592  24.030  1.00  0.00     0.261 C 
BRANCH   6   7
ATOM      7  O   UNL A   1      35.084  23.071  22.796  1.00  0.00    -0.463 OA
BRANCH   7   8
ATOM      8  C   UNL A   1      34.033  23.919  22.952  1.00  0.00     0.315 C 
ATOM      9  O   UNL A   1      34.169  25.127  22.830  1.00  0.00    -0.251 OA
BRANCH   8  10
ATOM     10  C   UNL A   1      32.695  23.312  23.256  1.00  0.00     0.192 C 
BRANCH  10  11
ATOM     11  S   UNL A   1      32.632  22.030  24.658  1.00  0.00    -0.136 SA
BRANCH  11  12
ATOM     12  C   UNL A   1      32.069  22.903  26.175  1.00  0.00     0.146 C 
ATOM     13  N   UNL A   1      31.245  25.101  26.118  1.00  0.00    -0.249 N 
ATOM     14  C   UNL A   1      30.191  24.361  26.570  1.00  0.00     0.235 C 
ATOM     15  C   UNL A   1      32.407  24.367  26.134  1.00  0.00     0.247 C 
ATOM     16  O   UNL A   1      29.105  24.759  26.969  1.00  0.00    -0.274 OA
ATOM     17  C   UNL A   1      30.591  22.906  26.527  1.00  0.00     0.125 C 
ATOM     18  O   UNL A   1      33.545  24.812  26.243  1.00  0.00    -0.273 OA
BRANCH  13  19
ATOM     19  C   UNL A   1      31.254  26.484  25.813  1.00  0.00     0.055 A 
ATOM     20  C   UNL A   1      32.350  29.871  27.237  1.00  0.00     0.044 C 
ATOM     21  C   UNL A   1      31.820  28.804  26.324  1.00  0.00    -0.049 A 
ATOM     22  C   UNL A   1      31.460  29.168  25.021  1.00  0.00     0.004 A 
ATOM     23  C   UNL A   1      31.691  27.460  26.727  1.00  0.00     0.030 A 
ATOM     24  C   UNL A   1      30.956  28.222  24.136  1.00  0.00     0.006 A 
ATOM     25  C   UNL A   1      30.820  26.886  24.528  1.00  0.00    -0.027 A 
ATOM     26  C   UNL A   1      30.178  25.931  23.551  1.00  0.00     0.046 C 
ENDBRANCH  13  19
ENDBRANCH  11  12
ENDBRANCH  10  11
ENDBRANCH   8  10
ENDBRANCH   7   8
ENDBRANCH   6   7
ENDBRANCH   5   6
ENDBRANCH   4   5
ENDBRANCH   3   4
ENDBRANCH   2   3
ENDBRANCH   1   2
BRANCH   1  27
ATOM     27  C   UNL A   1      41.360  21.553  26.252  1.00  0.00     0.188 C 
BRANCH  27  28
ATOM     28  C   UNL A   1      42.093  20.221  26.236  1.00  0.00     0.188 C 
BRANCH  28  29
ATOM     29  O   UNL A   1      42.985  20.174  25.127  1.00  0.00    -0.376 OA
BRANCH  29  30
ATOM     30  C   UNL A   1      43.981  19.167  25.202  1.00  0.00     0.202 C 
BRANCH  30  31
ATOM     31  C   UNL A   1      45.277  19.695  24.597  1.00  0.00     0.261 C 
BRANCH  31  32
ATOM     32  O   UNL A   1      46.026  20.617  25.431  1.00  0.00    -0.460 OA
BRANCH  32  33
ATOM     33  C   UNL A   1      46.187  21.900  24.988  1.00  0.00     0.338 C 
ATOM     34  O   UNL A   1      46.641  22.198  23.912  1.00  0.00    -0.246 OA
BRANCH  33  35
ATOM     35  C   UNL A   1      45.690  22.865  26.029  1.00  0.00     0.060 A 
ATOM     36  C   UNL A   1      44.935  22.391  27.096  1.00  0.00     0.016 A 
ATOM     37  C   UNL A   1      45.821  24.253  25.856  1.00  0.00     0.016 A 
ATOM     38  C   UNL A   1      44.190  23.305  27.857  1.00  0.00     0.010 A 
ATOM     39  C   UNL A   1      45.037  25.159  26.583  1.00  0.00     0.010 A 
ATOM     40  C   UNL A   1      44.165  24.700  27.569  1.00  0.00    -0.014 A 
BRANCH  40  41
ATOM     41  C   UNL A   1      43.683  25.652  28.624  1.00  0.00     0.031 A 
ATOM     42  C   UNL A   1      42.625  26.435  27.996  1.00  0.00     0.074 A 
ATOM     43  C   UNL A   1      44.008  25.912  29.923  1.00  0.00     0.049 A 
ATOM     44  N   UNL A   1      42.808  27.638  27.561  1.00  0.00    -0.248 NA
ATOM     45  C   UNL A   1      41.418  25.772  27.475  1.00  0.00     0.031 C 
ATOM     46  C   UNL A   1      45.202  25.420  30.552  1.00  0.00     0.029 A 
ATOM     47  N   UNL A   1      43.497  26.681  30.968  1.00  0.00    -0.354 N 
ATOM     48  C   UNL A   1      41.542  28.017  27.190  1.00  0.00     0.074 A 
ATOM     49  C   UNL A   1      40.825  26.803  26.869  1.00  0.00     0.031 C 
ATOM     50  C   UNL A   1      45.198  25.553  31.890  1.00  0.00     0.029 A 
ATOM     51  C   UNL A   1      44.052  26.371  32.237  1.00  0.00     0.049 A 
ATOM     52  H   UNL A   1      42.812  27.376  30.836  1.00  0.00     0.167 HD
ATOM     53  C   UNL A   1      41.080  29.123  27.822  1.00  0.00     0.034 A 
ATOM     54  C   UNL A   1      43.903  26.876  33.502  1.00  0.00     0.034 A 
ATOM     55  C   UNL A   1      42.137  30.042  28.185  1.00  0.00     0.049 A 
ATOM     56  C   UNL A   1      43.556  28.302  33.333  1.00  0.00     0.074 A 
ATOM     57  C   UNL A   1      43.180  30.650  27.511  1.00  0.00     0.029 A 
ATOM     58  N   UNL A   1      42.414  30.146  29.523  1.00  0.00    -0.354 N 
ATOM     59  N   UNL A   1      44.426  29.209  32.978  1.00  0.00    -0.248 NA
ATOM     60  C   UNL A   1      42.159  28.671  33.161  1.00  0.00     0.031 C 
ATOM     61  C   UNL A   1      44.150  31.000  28.488  1.00  0.00     0.029 A 
ATOM     62  C   UNL A   1      43.664  30.664  29.750  1.00  0.00     0.049 A 
ATOM     63  H   UNL A   1      41.790  29.881  30.238  1.00  0.00     0.167 HD
ATOM     64  C   UNL A   1      43.713  30.056  32.148  1.00  0.00     0.074 A 
ATOM     65  C   UNL A   1      42.310  29.762  32.409  1.00  0.00     0.031 C 
ATOM     66  C   UNL A   1      44.307  30.620  31.057  1.00  0.00     0.034 A 
BRANCH  53  67
ATOM     67  C   UNL A   1      39.799  29.023  28.596  1.00  0.00     0.023 A 
ATOM     68  C   UNL A   1      38.793  29.933  28.298  1.00  0.00     0.031 A 
ATOM     69  C   UNL A   1      39.640  28.264  29.785  1.00  0.00     0.131 A 
ATOM     70  C   UNL A   1      37.685  30.040  29.149  1.00  0.00     0.055 A 
ATOM     71  C   UNL A   1      38.484  28.281  30.554  1.00  0.00     0.041 A 
ATOM     72  F   UNL A   1      40.648  27.575  30.335  1.00  0.00    -0.206 F 
ATOM     73  C   UNL A   1      37.496  29.190  30.243  1.00  0.00     0.022 A 
BRANCH  70  74
ATOM     74  S   UNL A   1      36.590  31.450  28.911  1.00  0.00     0.124 S 
ATOM     75  O   UNL A   1      35.724  31.334  30.080  1.00  0.00    -0.237 OA
ATOM     76  O   UNL A   1      37.532  32.565  28.913  1.00  0.00    -0.237 OA
ATOM     77  O   UNL A   1      35.956  31.169  27.627  1.00  0.00    -0.744 OA
ENDBRANCH  70  74
ENDBRANCH  53  67
BRANCH  54  78
ATOM     78  C   UNL A   1      44.175  26.227  34.846  1.00  0.00     0.023 A 
ATOM     79  C   UNL A   1      44.708  26.942  35.954  1.00  0.00     0.031 A 
ATOM     80  C   UNL A   1      43.684  24.934  35.151  1.00  0.00     0.131 A 
ATOM     81  C   UNL A   1      44.673  26.392  37.268  1.00  0.00     0.055 A 
ATOM     82  C   UNL A   1      43.661  24.395  36.443  1.00  0.00     0.041 A 
ATOM     83  F   UNL A   1      43.132  24.146  34.221  1.00  0.00    -0.206 F 
ATOM     84  C   UNL A   1      44.131  25.132  37.511  1.00  0.00     0.022 A 
BRANCH  81  85
ATOM     85  S   UNL A   1      45.185  27.357  38.737  1.00  0.00     0.124 S 
ATOM     86  O   UNL A   1      44.695  28.693  38.419  1.00  0.00    -0.237 OA
ATOM     87  O   UNL A   1      44.518  26.664  39.833  1.00  0.00    -0.237 OA
ATOM     88  O   UNL A   1      46.644  27.221  38.734  1.00  0.00    -0.744 OA
ENDBRANCH  81  85
ENDBRANCH  54  78
BRANCH  66  89
ATOM     89  C   UNL A   1      45.715  31.149  31.190  1.00  0.00     0.023 A 
ATOM     90  C   UNL A   1      46.898  30.478  30.828  1.00  0.00     0.031 A 
ATOM     91  C   UNL A   1      45.843  32.460  31.698  1.00  0.00     0.131 A 
ATOM     92  C   UNL A   1      48.143  31.126  30.970  1.00  0.00     0.055 A 
ATOM     93  C   UNL A   1      47.071  33.103  31.822  1.00  0.00     0.041 A 
ATOM     94  F   UNL A   1      44.755  33.155  32.071  1.00  0.00    -0.206 F 
ATOM     95  C   UNL A   1      48.231  32.433  31.462  1.00  0.00     0.022 A 
BRANCH  92  96
ATOM     96  S   UNL A   1      49.681  30.261  30.526  1.00  0.00     0.124 S 
ATOM     97  O   UNL A   1      49.213  28.990  29.992  1.00  0.00    -0.237 OA
ATOM     98  O   UNL A   1      50.273  31.172  29.548  1.00  0.00    -0.237 OA
ATOM     99  O   UNL A   1      50.399  30.170  31.798  1.00  0.00    -0.744 OA
ENDBRANCH  92  96
ENDBRANCH  66  89
ENDBRANCH  40  41
ENDBRANCH  33  35
ENDBRANCH  32  33
ENDBRANCH  31  32
ENDBRANCH  30  31
ENDBRANCH  29  30
ENDBRANCH  28  29
ENDBRANCH  27  28
ENDBRANCH   1  27
TORSDOF 26
ENDMDL
MODEL 2
REMARK VINA RESULT:      -9.2      1.933      2.511
REMARK SMILES Cc1ccc(C)c(N2C(=O)C[C@@H](SCC(=O)OCCOCCOCCOCCOC(=O)c3ccc(-c4c5nc(c(-c6cc(S(=O)(=O)[O-])ccc6F)c6ccc([nH]6)c(-c6cc(S(=O)(=O)[O-])ccc6F)c6nc(c(-c7cc(S(=O)(=O)[O-])ccc7F)c7ccc4[nH]7)C=C6)C=C5)cc3)C2=O)c1
REMARK SMILES IDX 23 1 22 2 21 3 20 4 19 5 18 6 17 7 15 8 16 9 14 10 13 11
REMARK SMILES IDX 12 12 8 13 9 14 95 15 10 16 11 17 96 18 7 19 1 20 2 21 3 22
REMARK SMILES IDX 97 23 4 24 5 25 6 26 24 27 25 28 26 29 27 30 28 31 29 32
REMARK SMILES IDX 30 33 31 34 32 35 33 36 94 37 34 38 93 39 35 40 36 41 37 42
REMARK SMILES IDX 87 43 38 44 92 45 86 46 88 47 39 48 91 49 85 50 84 51 40 53
REMARK SMILES IDX 72 54 52 55 71 56 53 57 56 58 70 59 89 60 54 61 55 62 69 64
REMARK SMILES IDX 90 65 57 66 41 67 42 68 50 69 43 70 49 71 51 72 48 73 44 74
REMARK SMILES IDX 45 75 46 76 47 77 73 78 74 79 82 80 75 81 81 82 83 83 80 84
REMARK SMILES IDX 76 85 77 86 78 87 79 88 58 89 59 90 67 91 60 92 66 93 68 94
REMARK SMILES IDX 65 95 61 96 62 97 63 98 64 99
REMARK H PARENT 88 52 56 63
REMARK Flexibility Score: inf
ROOT
ATOM      1  O   UNL A   1      39.411  20.813  26.608  1.00  0.00    -0.377 OA
ENDROOT
BRANCH   1   2
ATOM      2  C   UNL A   1      38.355  21.155  25.729  1.00  0.00     0.188 C 
BRANCH   2   3
ATOM      3  C   UNL A   1      38.091  22.590  25.314  1.00  0.00     0.188 C 
BRANCH   3   4
ATOM      4  O   UNL A   1      37.290  23.252  26.261  1.00  0.00    -0.376 OA
BRANCH   4   5
ATOM      5  C   UNL A   1      36.129  23.932  25.817  1.00  0.00     0.202 C 
BRANCH   5   6
ATOM      6  C   UNL A   1      34.790  23.222  25.531  1.00  0.00     0.261 C 
BRANCH   6   7
ATOM      7  O   UNL A   1      34.720  22.378  24.352  1.00  0.00    -0.463 OA
BRANCH   7   8
ATOM      8  C   UNL A   1      34.303  23.001  23.219  1.00  0.00     0.315 C 
ATOM      9  O   UNL A   1      35.028  23.783  22.622  1.00  0.00    -0.251 OA
BRANCH   8  10
ATOM     10  C   UNL A   1      32.929  22.672  22.715  1.00  0.00     0.192 C 
BRANCH  10  11
ATOM     11  S   UNL A   1      31.520  23.834  23.242  1.00  0.00    -0.136 SA
BRANCH  11  12
ATOM     12  C   UNL A   1      32.206  25.539  23.296  1.00  0.00     0.146 C 
ATOM     13  N   UNL A   1      30.838  27.426  23.579  1.00  0.00    -0.249 N 
ATOM     14  C   UNL A   1      31.651  27.436  24.675  1.00  0.00     0.235 C 
ATOM     15  C   UNL A   1      31.287  26.530  22.639  1.00  0.00     0.247 C 
ATOM     16  O   UNL A   1      31.736  28.293  25.545  1.00  0.00    -0.274 OA
ATOM     17  C   UNL A   1      32.493  26.183  24.642  1.00  0.00     0.125 C 
ATOM     18  O   UNL A   1      31.099  26.593  21.427  1.00  0.00    -0.273 OA
BRANCH  13  19
ATOM     19  C   UNL A   1      29.760  28.302  23.303  1.00  0.00     0.055 A 
ATOM     20  C   UNL A   1      29.003  31.792  21.905  1.00  0.00     0.044 C 
ATOM     21  C   UNL A   1      28.849  30.404  22.456  1.00  0.00    -0.049 A 
ATOM     22  C   UNL A   1      27.558  29.872  22.553  1.00  0.00     0.004 A 
ATOM     23  C   UNL A   1      29.951  29.623  22.857  1.00  0.00     0.030 A 
ATOM     24  C   UNL A   1      27.356  28.594  23.063  1.00  0.00     0.006 A 
ATOM     25  C   UNL A   1      28.443  27.813  23.468  1.00  0.00    -0.027 A 
ATOM     26  C   UNL A   1      28.148  26.475  24.101  1.00  0.00     0.046 C 
ENDBRANCH  13  19
ENDBRANCH  11  12
ENDBRANCH  10  11
ENDBRANCH   8  10
ENDBRANCH   7   8
ENDBRANCH   6   7
ENDBRANCH   5   6
ENDBRANCH   4   5
ENDBRANCH   3   4
ENDBRANCH   2   3
ENDBRANCH   1   2
BRANCH   1  27
ATOM     27  C   UNL A   1      40.689  21.279  26.251  1.00  0.00     0.188 C 
BRANCH  27  28
ATOM     28  C   UNL A   1      41.775  20.303  26.677  1.00  0.00     0.188 C 
BRANCH  28  29
ATOM     29  O   UNL A   1      42.148  19.484  25.574  1.00  0.00    -0.376 OA
BRANCH  29  30
ATOM     30  C   UNL A   1      43.269  18.646  25.802  1.00  0.00     0.202 C 
BRANCH  30  31
ATOM     31  C   UNL A   1      44.285  18.849  24.683  1.00  0.00     0.261 C 
BRANCH  31  32
ATOM     32  O   UNL A   1      45.132  20.020  24.813  1.00  0.00    -0.460 OA
BRANCH  32  33
ATOM     33  C   UNL A   1      44.763  21.158  24.152  1.00  0.00     0.338 C 
ATOM     34  O   UNL A   1      44.658  21.248  22.955  1.00  0.00    -0.246 OA
BRANCH  33  35
ATOM     35  C   UNL A   1      44.486  22.256  25.142  1.00  0.00     0.060 A 
ATOM     36  C   UNL A   1      44.956  22.136  26.445  1.00  0.00     0.016 A 
ATOM     37  C   UNL A   1      43.617  23.314  24.831  1.00  0.00     0.016 A 
ATOM     38  C   UNL A   1      44.414  22.965  27.440  1.00  0.00     0.010 A 
ATOM     39  C   UNL A   1      43.039  24.106  25.832  1.00  0.00     0.010 A 
ATOM     40  C   UNL A   1      43.388  23.916  27.168  1.00  0.00    -0.014 A 
BRANCH  40  41
ATOM     41  C   UNL A   1      43.136  25.015  28.157  1.00  0.00     0.031 A 
ATOM     42  C   UNL A   1      41.978  25.744  27.652  1.00  0.00     0.074 A 
ATOM     43  C   UNL A   1      43.719  25.435  29.317  1.00  0.00     0.049 A 
ATOM     44  N   UNL A   1      42.078  26.871  27.029  1.00  0.00    -0.248 NA
ATOM     45  C   UNL A   1      40.686  25.059  27.479  1.00  0.00     0.031 C 
ATOM     46  C   UNL A   1      45.012  24.990  29.757  1.00  0.00     0.029 A 
ATOM     47  N   UNL A   1      43.435  26.352  30.327  1.00  0.00    -0.354 N 
ATOM     48  C   UNL A   1      40.765  27.241  26.870  1.00  0.00     0.074 A 
ATOM     49  C   UNL A   1      39.990  26.020  26.867  1.00  0.00     0.031 C 
ATOM     50  C   UNL A   1      45.280  25.299  31.038  1.00  0.00     0.029 A 
ATOM     51  C   UNL A   1      44.234  26.195  31.491  1.00  0.00     0.049 A 
ATOM     52  H   UNL A   1      42.742  27.047  30.242  1.00  0.00     0.167 HD
ATOM     53  C   UNL A   1      40.448  28.436  27.423  1.00  0.00     0.034 A 
ATOM     54  C   UNL A   1      44.347  26.869  32.679  1.00  0.00     0.034 A 
ATOM     55  C   UNL A   1      41.563  29.359  27.438  1.00  0.00     0.049 A 
ATOM     56  C   UNL A   1      43.983  28.270  32.389  1.00  0.00     0.074 A 
ATOM     57  C   UNL A   1      42.451  29.835  26.493  1.00  0.00     0.029 A 
ATOM     58  N   UNL A   1      42.105  29.630  28.668  1.00  0.00    -0.354 N 
ATOM     59  N   UNL A   1      44.769  29.092  31.747  1.00  0.00    -0.248 NA
ATOM     60  C   UNL A   1      42.582  28.661  32.450  1.00  0.00     0.031 C 
ATOM     61  C   UNL A   1      43.602  30.278  27.200  1.00  0.00     0.029 A 
ATOM     62  C   UNL A   1      43.379  30.130  28.567  1.00  0.00     0.049 A 
ATOM     63  H   UNL A   1      41.637  29.483  29.521  1.00  0.00     0.167 HD
ATOM     64  C   UNL A   1      43.908  29.845  30.967  1.00  0.00     0.074 A 
ATOM     65  C   UNL A   1      42.585  29.637  31.541  1.00  0.00     0.031 C 
ATOM     66  C   UNL A   1      44.273  30.238  29.713  1.00  0.00     0.034 A 
BRANCH  53  67
ATOM     67  C   UNL A   1      39.350  28.484  28.443  1.00  0.00     0.023 A 
ATOM     68  C   UNL A   1      38.387  29.477  28.310  1.00  0.00     0.031 A 
ATOM     69  C   UNL A   1      39.372  27.780  29.677  1.00  0.00     0.131 A 
ATOM     70  C   UNL A   1      37.493  29.716  29.360  1.00  0.00     0.055 A 
ATOM     71  C   UNL A   1      38.405  27.932  30.660  1.00  0.00     0.041 A 
ATOM     72  F   UNL A   1      40.406  27.015  30.046  1.00  0.00    -0.206 F 
ATOM     73  C   UNL A   1      37.457  28.922  30.510  1.00  0.00     0.022 A 
BRANCH  70  74
ATOM     74  S   UNL A   1      36.500  31.218  29.279  1.00  0.00     0.124 S 
ATOM     75  O   UNL A   1      37.402  32.113  28.563  1.00  0.00    -0.237 OA
ATOM     76  O   UNL A   1      35.325  30.761  28.543  1.00  0.00    -0.237 OA
ATOM     77  O   UNL A   1      36.272  31.545  30.683  1.00  0.00    -0.744 OA
ENDBRANCH  70  74
ENDBRANCH  53  67
BRANCH  54  78
ATOM     78  C   UNL A   1      44.880  26.395  34.017  1.00  0.00     0.023 A 
ATOM     79  C   UNL A   1      45.845  27.125  34.765  1.00  0.00     0.031 A 
ATOM     80  C   UNL A   1      44.269  25.325  34.716  1.00  0.00     0.131 A 
ATOM     81  C   UNL A   1      46.102  26.816  36.132  1.00  0.00     0.055 A 
ATOM     82  C   UNL A   1      44.533  25.019  36.057  1.00  0.00     0.041 A 
ATOM     83  F   UNL A   1      43.327  24.557  34.156  1.00  0.00    -0.206 F 
ATOM     84  C   UNL A   1      45.430  25.780  36.779  1.00  0.00     0.022 A 
BRANCH  81  85
ATOM     85  S   UNL A   1      47.201  27.848  37.171  1.00  0.00     0.124 S 
ATOM     86  O   UNL A   1      47.160  29.134  36.485  1.00  0.00    -0.237 OA
ATOM     87  O   UNL A   1      46.564  27.789  38.481  1.00  0.00    -0.237 OA
ATOM     88  O   UNL A   1      48.487  27.151  37.091  1.00  0.00    -0.744 OA
ENDBRANCH  81  85
ENDBRANCH  54  78
BRANCH  66  89
ATOM     89  C   UNL A   1      45.682  30.731  29.488  1.00  0.00     0.023 A 
ATOM     90  C   UNL A   1      46.144  32.050  29.658  1.00  0.00     0.031 A 
ATOM     91  C   UNL A   1      46.629  29.757  29.102  1.00  0.00     0.131 A 
ATOM     92  C   UNL A   1      47.507  32.347  29.453  1.00  0.00     0.055 A 
ATOM     93  C   UNL A   1      47.977  30.050  28.915  1.00  0.00     0.041 A 
ATOM     94  F   UNL A   1      46.255  28.480  28.914  1.00  0.00    -0.206 F 
ATOM     95  C   UNL A   1      48.422  31.353  29.085  1.00  0.00     0.022 A 
BRANCH  92  96
ATOM     96  S   UNL A   1      48.112  34.051  29.647  1.00  0.00     0.124 S 
ATOM     97  O   UNL A   1      49.388  34.040  28.945  1.00  0.00    -0.237 OA
ATOM     98  O   UNL A   1      47.052  34.827  29.006  1.00  0.00    -0.237 OA
ATOM     99  O   UNL A   1      48.206  34.216  31.098  1.00  0.00    -0.744 OA
ENDBRANCH  92  96
ENDBRANCH  66  89
ENDBRANCH  40  41
ENDBRANCH  33  35
ENDBRANCH  32  33
ENDBRANCH  31  32
ENDBRANCH  30  31
ENDBRANCH  29  30
ENDBRANCH  28  29
ENDBRANCH  27  28
ENDBRANCH   1  27
TORSDOF 26
ENDMDL
MODEL 3
REMARK VINA RESULT:      -8.0      5.013     11.360
REMARK SMILES Cc1ccc(C)c(N2C(=O)C[C@@H](SCC(=O)OCCOCCOCCOCCOC(=O)c3ccc(-c4c5nc(c(-c6cc(S(=O)(=O)[O-])ccc6F)c6ccc([nH]6)c(-c6cc(S(=O)(=O)[O-])ccc6F)c6nc(c(-c7cc(S(=O)(=O)[O-])ccc7F)c7ccc4[nH]7)C=C6)C=C5)cc3)C2=O)c1
REMARK SMILES IDX 23 1 22 2 21 3 20 4 19 5 18 6 17 7 15 8 16 9 14 10 13 11
REMARK SMILES IDX 12 12 8 13 9 14 95 15 10 16 11 17 96 18 7 19 1 20 2 21 3 22
REMARK SMILES IDX 97 23 4 24 5 25 6 26 24 27 25 28 26 29 27 30 28 31 29 32
REMARK SMILES IDX 30 33 31 34 32 35 33 36 94 37 34 38 93 39 35 40 36 41 37 42
REMARK SMILES IDX 87 43 38 44 92 45 86 46 88 47 39 48 91 49 85 50 84 51 40 53
REMARK SMILES IDX 72 54 52 55 71 56 53 57 56 58 70 59 89 60 54 61 55 62 69 64
REMARK SMILES IDX 90 65 57 66 41 67 42 68 50 69 43 70 49 71 51 72 48 73 44 74
REMARK SMILES IDX 45 75 46 76 47 77 73 78 74 79 82 80 75 81 81 82 83 83 80 84
REMARK SMILES IDX 76 85 77 86 78 87 79 88 58 89 59 90 67 91 60 92 66 93 68 94
REMARK SMILES IDX 65 95 61 96 62 97 63 98 64 99
REMARK H PARENT 88 52 56 63
REMARK Flexibility Score: inf
ROOT
ATOM      1  O   UNL A   1      43.223  34.232  29.378  1.00  0.00    -0.377 OA
ENDROOT
BRANCH   1   2
ATOM      2  C   UNL A   1      42.644  32.997  29.761  1.00  0.00     0.188 C 
BRANCH   2   3
ATOM      3  C   UNL A   1      42.630  32.533  31.206  1.00  0.00     0.188 C 
BRANCH   3   4
ATOM      4  O   UNL A   1      41.366  32.729  31.789  1.00  0.00    -0.376 OA
BRANCH   4   5
ATOM      5  C   UNL A   1      40.344  31.779  31.538  1.00  0.00     0.202 C 
BRANCH   5   6
ATOM      6  C   UNL A   1      38.938  32.164  31.036  1.00  0.00     0.261 C 
BRANCH   6   7
ATOM      7  O   UNL A   1      37.810  31.432  31.582  1.00  0.00    -0.463 OA
BRANCH   7   8
ATOM      8  C   UNL A   1      37.108  30.693  30.682  1.00  0.00     0.315 C 
ATOM      9  O   UNL A   1      36.115  31.143  30.130  1.00  0.00    -0.251 OA
BRANCH   8  10
ATOM     10  C   UNL A   1      37.615  29.316  30.374  1.00  0.00     0.192 C 
BRANCH  10  11
ATOM     11  S   UNL A   1      37.835  28.870  28.540  1.00  0.00    -0.136 SA
BRANCH  11  12
ATOM     12  C   UNL A   1      39.638  28.895  28.181  1.00  0.00     0.146 C 
ATOM     13  N   UNL A   1      40.832  26.946  27.645  1.00  0.00    -0.249 N 
ATOM     14  C   UNL A   1      40.951  27.727  26.532  1.00  0.00     0.235 C 
ATOM     15  C   UNL A   1      40.327  27.666  28.701  1.00  0.00     0.247 C 
ATOM     16  O   UNL A   1      41.623  27.517  25.530  1.00  0.00    -0.274 OA
ATOM     17  C   UNL A   1      40.109  28.963  26.737  1.00  0.00     0.125 C 
ATOM     18  O   UNL A   1      40.519  27.439  29.893  1.00  0.00    -0.273 OA
BRANCH  13  19
ATOM     19  C   UNL A   1      41.295  25.618  27.815  1.00  0.00     0.055 A 
ATOM     20  C   UNL A   1      44.301  23.624  29.112  1.00  0.00     0.044 C 
ATOM     21  C   UNL A   1      42.954  23.989  28.559  1.00  0.00    -0.049 A 
ATOM     22  C   UNL A   1      42.027  22.962  28.348  1.00  0.00     0.004 A 
ATOM     23  C   UNL A   1      42.593  25.319  28.267  1.00  0.00     0.030 A 
ATOM     24  C   UNL A   1      40.767  23.243  27.832  1.00  0.00     0.006 A 
ATOM     25  C   UNL A   1      40.400  24.559  27.533  1.00  0.00    -0.027 A 
ATOM     26  C   UNL A   1      39.055  24.783  26.885  1.00  0.00     0.046 C 
ENDBRANCH  13  19
ENDBRANCH  11  12
ENDBRANCH  10  11
ENDBRANCH   8  10
ENDBRANCH   7   8
ENDBRANCH   6   7
ENDBRANCH   5   6
ENDBRANCH   4   5
ENDBRANCH   3   4
ENDBRANCH   2   3
ENDBRANCH   1   2
BRANCH   1  27
ATOM     27  C   UNL A   1      43.130  34.563  28.014  1.00  0.00     0.188 C 
BRANCH  27  28
ATOM     28  C   UNL A   1      42.882  36.050  27.820  1.00  0.00     0.188 C 
BRANCH  28  29
ATOM     29  O   UNL A   1      44.006  36.791  28.284  1.00  0.00    -0.376 OA
BRANCH  29  30
ATOM     30  C   UNL A   1      44.338  37.928  27.503  1.00  0.00     0.202 C 
BRANCH  30  31
ATOM     31  C   UNL A   1      45.764  37.781  26.982  1.00  0.00     0.261 C 
BRANCH  31  32
ATOM     32  O   UNL A   1      46.264  36.421  26.907  1.00  0.00    -0.460 OA
BRANCH  32  33
ATOM     33  C   UNL A   1      47.593  36.211  27.146  1.00  0.00     0.338 C 
ATOM     34  O   UNL A   1      48.434  37.075  27.130  1.00  0.00    -0.246 OA
BRANCH  33  35
ATOM     35  C   UNL A   1      47.833  34.758  27.452  1.00  0.00     0.060 A 
ATOM     36  C   UNL A   1      48.630  34.411  28.537  1.00  0.00     0.016 A 
ATOM     37  C   UNL A   1      47.419  33.750  26.567  1.00  0.00     0.016 A 
ATOM     38  C   UNL A   1      49.134  33.103  28.616  1.00  0.00     0.010 A 
ATOM     39  C   UNL A   1      47.964  32.460  26.618  1.00  0.00     0.010 A 
ATOM     40  C   UNL A   1      48.874  32.121  27.617  1.00  0.00    -0.014 A 
BRANCH  40  41
ATOM     41  C   UNL A   1      49.103  30.675  27.943  1.00  0.00     0.031 A 
ATOM     42  C   UNL A   1      50.334  30.304  27.256  1.00  0.00     0.074 A 
ATOM     43  C   UNL A   1      48.450  29.726  28.676  1.00  0.00     0.049 A 
ATOM     44  N   UNL A   1      50.344  29.642  26.146  1.00  0.00    -0.248 NA
ATOM     45  C   UNL A   1      51.598  30.989  27.574  1.00  0.00     0.031 C 
ATOM     46  C   UNL A   1      47.104  29.884  29.152  1.00  0.00     0.029 A 
ATOM     47  N   UNL A   1      48.699  28.426  29.113  1.00  0.00    -0.354 N 
ATOM     48  C   UNL A   1      51.683  29.408  25.951  1.00  0.00     0.074 A 
ATOM     49  C   UNL A   1      52.391  30.468  26.633  1.00  0.00     0.031 C 
ATOM     50  C   UNL A   1      46.750  28.972  30.074  1.00  0.00     0.029 A 
ATOM     51  C   UNL A   1      47.801  27.974  30.116  1.00  0.00     0.049 A 
ATOM     52  H   UNL A   1      49.432  27.872  28.759  1.00  0.00     0.167 HD
ATOM     53  C   UNL A   1      52.017  28.098  25.860  1.00  0.00     0.034 A 
ATOM     54  C   UNL A   1      47.627  26.794  30.791  1.00  0.00     0.034 A 
ATOM     55  C   UNL A   1      50.953  27.288  25.304  1.00  0.00     0.049 A 
ATOM     56  C   UNL A   1      48.087  25.730  29.876  1.00  0.00     0.074 A 
ATOM     57  C   UNL A   1      50.171  27.348  24.167  1.00  0.00     0.029 A 
ATOM     58  N   UNL A   1      50.328  26.433  26.174  1.00  0.00    -0.354 N 
ATOM     59  N   UNL A   1      47.399  25.339  28.836  1.00  0.00    -0.248 NA
ATOM     60  C   UNL A   1      49.497  25.368  29.868  1.00  0.00     0.031 C 
ATOM     61  C   UNL A   1      48.991  26.604  24.442  1.00  0.00     0.029 A 
ATOM     62  C   UNL A   1      49.094  26.046  25.715  1.00  0.00     0.049 A 
ATOM     63  H   UNL A   1      50.717  26.133  27.027  1.00  0.00     0.167 HD
ATOM     64  C   UNL A   1      48.359  25.083  27.872  1.00  0.00     0.074 A 
ATOM     65  C   UNL A   1      49.618  24.981  28.598  1.00  0.00     0.031 C 
ATOM     66  C   UNL A   1      48.118  25.373  26.561  1.00  0.00     0.034 A 
BRANCH  53  67
ATOM     67  C   UNL A   1      53.029  27.549  26.820  1.00  0.00     0.023 A 
ATOM     68  C   UNL A   1      54.110  26.855  26.290  1.00  0.00     0.031 A 
ATOM     69  C   UNL A   1      52.827  27.441  28.221  1.00  0.00     0.131 A 
ATOM     70  C   UNL A   1      54.942  26.119  27.144  1.00  0.00     0.055 A 
ATOM     71  C   UNL A   1      53.726  26.818  29.077  1.00  0.00     0.041 A 
ATOM     72  F   UNL A   1      51.684  27.811  28.811  1.00  0.00    -0.206 F 
ATOM     73  C   UNL A   1      54.793  26.135  28.534  1.00  0.00     0.022 A 
BRANCH  70  74
ATOM     74  S   UNL A   1      56.109  24.977  26.382  1.00  0.00     0.124 S 
ATOM     75  O   UNL A   1      55.584  24.903  25.024  1.00  0.00    -0.237 OA
ATOM     76  O   UNL A   1      57.374  25.687  26.548  1.00  0.00    -0.237 OA
ATOM     77  O   UNL A   1      55.962  23.765  27.182  1.00  0.00    -0.744 OA
ENDBRANCH  70  74
ENDBRANCH  53  67
BRANCH  54  78
ATOM     78  C   UNL A   1      46.963  26.528  32.128  1.00  0.00     0.023 A 
ATOM     79  C   UNL A   1      46.132  25.398  32.366  1.00  0.00     0.031 A 
ATOM     80  C   UNL A   1      47.329  27.254  33.289  1.00  0.00     0.131 A 
ATOM     81  C   UNL A   1      45.770  25.018  33.691  1.00  0.00     0.055 A 
ATOM     82  C   UNL A   1      46.961  26.882  34.588  1.00  0.00     0.041 A 
ATOM     83  F   UNL A   1      48.124  28.329  33.233  1.00  0.00    -0.206 F 
ATOM     84  C   UNL A   1      46.204  25.747  34.797  1.00  0.00     0.022 A 
BRANCH  81  85
ATOM     85  S   UNL A   1      44.855  23.473  34.041  1.00  0.00     0.124 S 
ATOM     86  O   UNL A   1      45.912  22.469  33.999  1.00  0.00    -0.237 OA
ATOM     87  O   UNL A   1      44.259  23.733  35.346  1.00  0.00    -0.237 OA
ATOM     88  O   UNL A   1      43.892  23.397  32.939  1.00  0.00    -0.744 OA
ENDBRANCH  81  85
ENDBRANCH  54  78
BRANCH  66  89
ATOM     89  C   UNL A   1      46.759  25.053  25.985  1.00  0.00     0.023 A 
ATOM     90  C   UNL A   1      46.305  23.789  25.564  1.00  0.00     0.031 A 
ATOM     91  C   UNL A   1      45.851  26.131  25.896  1.00  0.00     0.131 A 
ATOM     92  C   UNL A   1      44.986  23.641  25.089  1.00  0.00     0.055 A 
ATOM     93  C   UNL A   1      44.544  25.978  25.441  1.00  0.00     0.041 A 
ATOM     94  F   UNL A   1      46.220  27.366  26.273  1.00  0.00    -0.206 F 
ATOM     95  C   UNL A   1      44.106  24.729  25.029  1.00  0.00     0.022 A 
BRANCH  92  96
ATOM     96  S   UNL A   1      44.395  22.017  24.521  1.00  0.00     0.124 S 
ATOM     97  O   UNL A   1      43.077  21.903  25.131  1.00  0.00    -0.237 OA
ATOM     98  O   UNL A   1      44.399  22.181  23.067  1.00  0.00    -0.237 OA
ATOM     99  O   UNL A   1      45.399  21.088  25.040  1.00  0.00    -0.744 OA
ENDBRANCH  92  96
ENDBRANCH  66  89
ENDBRANCH  40  41
ENDBRANCH  33  35
ENDBRANCH  32  33
ENDBRANCH  31  32
ENDBRANCH  30  31
ENDBRANCH  29  30
ENDBRANCH  28  29
ENDBRANCH  27  28
ENDBRANCH   1  27
TORSDOF 26
ENDMDL
