MODEL 1
REMARK VINA RESULT:      -8.5      0.000      0.000
REMARK SMILES CCc1nc(C)c(C(=O)OCCOCCOCCOCCOC(=O)c2ccc(-c3c4nc(c(-c5cc(S(=O)(=O)[O-])ccc5F)c5ccc([nH]5)c(-c5cc(S(=O)(=O)[O-])ccc5F)c5nc(c(-c6cc(S(=O)(=O)[O-])ccc6F)c6ccc3[nH]6)C=C5)C=C4)cc2)c(SCc2cnc(Cl)s2)n1
REMARK SMILES IDX 16 1 15 2 14 3 13 4 12 5 11 6 10 7 8 8 9 9 7 10 3 11 4 12
REMARK SMILES IDX 97 13 5 14 88 15 6 16 2 17 1 18 89 19 90 20 91 21 92 22
REMARK SMILES IDX 96 23 93 24 94 25 95 26 17 27 18 28 19 29 20 30 21 31 22 32
REMARK SMILES IDX 23 33 24 34 25 35 26 36 87 37 27 38 86 39 28 40 29 41 30 42
REMARK SMILES IDX 80 43 31 44 85 45 79 46 81 47 32 48 84 49 78 50 77 51 33 53
REMARK SMILES IDX 65 54 45 55 64 56 46 57 49 58 63 59 82 60 47 61 48 62 62 64
REMARK SMILES IDX 83 65 50 66 34 67 35 68 43 69 36 70 42 71 44 72 41 73 37 74
REMARK SMILES IDX 38 75 39 76 40 77 66 78 67 79 75 80 68 81 74 82 76 83 73 84
REMARK SMILES IDX 69 85 70 86 71 87 72 88 51 89 52 90 60 91 53 92 59 93 61 94
REMARK SMILES IDX 58 95 54 96 55 97 56 98 57 99
REMARK H PARENT 81 52 49 63
REMARK Flexibility Score: inf
ROOT
ATOM      1  O   UNL A   1      36.697  21.766  25.836  1.00  0.00    -0.377 OA
ENDROOT
BRANCH   1   2
ATOM      2  C   UNL A   1      35.377  21.454  25.460  1.00  0.00     0.188 C 
BRANCH   2   3
ATOM      3  C   UNL A   1      34.326  22.307  26.177  1.00  0.00     0.188 C 
BRANCH   3   4
ATOM      4  O   UNL A   1      32.948  22.146  25.882  1.00  0.00    -0.376 OA
BRANCH   4   5
ATOM      5  C   UNL A   1      31.986  23.190  26.017  1.00  0.00     0.202 C 
BRANCH   5   6
ATOM      6  C   UNL A   1      32.217  24.486  26.810  1.00  0.00     0.261 C 
BRANCH   6   7
ATOM      7  O   UNL A   1      31.990  25.661  26.038  1.00  0.00    -0.460 OA
BRANCH   7   8
ATOM      8  C   UNL A   1      32.626  25.848  24.878  1.00  0.00     0.342 C 
ATOM      9  O   UNL A   1      33.696  25.373  24.510  1.00  0.00    -0.246 OA
BRANCH   8  10
ATOM     10  C   UNL A   1      31.820  26.793  24.123  1.00  0.00     0.113 A 
ATOM     11  C   UNL A   1      30.072  28.439  22.864  1.00  0.00     0.129 A 
ATOM     12  N   UNL A   1      29.797  27.132  22.855  1.00  0.00    -0.237 NA
ATOM     13  N   UNL A   1      31.188  28.959  23.391  1.00  0.00    -0.226 NA
ATOM     14  C   UNL A   1      30.676  26.311  23.473  1.00  0.00     0.057 A 
ATOM     15  C   UNL A   1      32.067  28.155  24.040  1.00  0.00     0.115 A 
ATOM     16  C   UNL A   1      30.271  24.860  23.468  1.00  0.00     0.068 C 
BRANCH  11  17
ATOM     17  C   UNL A   1      28.971  29.371  22.438  1.00  0.00     0.074 C 
ATOM     18  C   UNL A   1      27.616  29.065  23.062  1.00  0.00     0.012 C 
ENDBRANCH  11  17
BRANCH  15  19
ATOM     19  S   UNL A   1      33.280  29.221  24.789  1.00  0.00    -0.100 SA
BRANCH  19  20
ATOM     20  C   UNL A   1      33.018  29.379  26.585  1.00  0.00     0.125 C 
BRANCH  20  21
ATOM     21  C   UNL A   1      33.990  30.267  27.286  1.00  0.00     0.036 A 
ATOM     22  C   UNL A   1      33.840  31.594  27.651  1.00  0.00     0.129 A 
ATOM     23  S   UNL A   1      35.517  29.713  27.869  1.00  0.00    -0.107 S 
ATOM     24  N   UNL A   1      34.954  32.201  28.198  1.00  0.00    -0.233 NA
ATOM     25  C   UNL A   1      35.911  31.309  28.276  1.00  0.00     0.183 A 
ATOM     26  Cl  UNL A   1      37.493  31.678  28.822  1.00  0.00    -0.051 Cl
ENDBRANCH  20  21
ENDBRANCH  19  20
ENDBRANCH  15  19
ENDBRANCH   8  10
ENDBRANCH   7   8
ENDBRANCH   6   7
ENDBRANCH   5   6
ENDBRANCH   4   5
ENDBRANCH   3   4
ENDBRANCH   2   3
ENDBRANCH   1   2
BRANCH   1  27
ATOM     27  C   UNL A   1      37.738  20.962  25.293  1.00  0.00     0.188 C 
BRANCH  27  28
ATOM     28  C   UNL A   1      39.210  21.074  25.760  1.00  0.00     0.188 C 
BRANCH  28  29
ATOM     29  O   UNL A   1      39.503  22.174  26.620  1.00  0.00    -0.376 OA
BRANCH  29  30
ATOM     30  C   UNL A   1      40.831  22.681  26.581  1.00  0.00     0.202 C 
BRANCH  30  31
ATOM     31  C   UNL A   1      40.992  24.024  27.303  1.00  0.00     0.261 C 
BRANCH  31  32
ATOM     32  O   UNL A   1      40.999  25.168  26.439  1.00  0.00    -0.460 OA
BRANCH  32  33
ATOM     33  C   UNL A   1      42.190  25.513  25.896  1.00  0.00     0.338 C 
ATOM     34  O   UNL A   1      42.786  24.930  25.008  1.00  0.00    -0.246 OA
BRANCH  33  35
ATOM     35  C   UNL A   1      42.546  26.847  26.421  1.00  0.00     0.060 A 
ATOM     36  C   UNL A   1      43.469  26.934  27.473  1.00  0.00     0.016 A 
ATOM     37  C   UNL A   1      42.011  28.001  25.845  1.00  0.00     0.016 A 
ATOM     38  C   UNL A   1      43.826  28.183  27.980  1.00  0.00     0.010 A 
ATOM     39  C   UNL A   1      42.348  29.248  26.370  1.00  0.00     0.010 A 
ATOM     40  C   UNL A   1      43.225  29.340  27.465  1.00  0.00    -0.014 A 
BRANCH  40  41
ATOM     41  C   UNL A   1      43.258  30.598  28.245  1.00  0.00     0.031 A 
ATOM     42  C   UNL A   1      44.369  31.565  27.934  1.00  0.00     0.074 A 
ATOM     43  C   UNL A   1      42.362  30.869  29.209  1.00  0.00     0.049 A 
ATOM     44  N   UNL A   1      44.698  32.680  28.529  1.00  0.00    -0.248 NA
ATOM     45  C   UNL A   1      45.234  31.209  26.797  1.00  0.00     0.031 C 
ATOM     46  C   UNL A   1      41.220  30.032  29.566  1.00  0.00     0.029 A 
ATOM     47  N   UNL A   1      42.287  31.930  30.077  1.00  0.00    -0.354 N 
ATOM     48  C   UNL A   1      45.807  33.159  27.840  1.00  0.00     0.074 A 
ATOM     49  C   UNL A   1      46.115  32.195  26.807  1.00  0.00     0.031 C 
ATOM     50  C   UNL A   1      40.567  30.603  30.596  1.00  0.00     0.029 A 
ATOM     51  C   UNL A   1      41.267  31.824  30.994  1.00  0.00     0.049 A 
ATOM     52  H   UNL A   1      42.905  32.696  30.046  1.00  0.00     0.167 HD
ATOM     53  C   UNL A   1      46.505  34.300  28.048  1.00  0.00     0.034 A 
ATOM     54  C   UNL A   1      40.963  32.609  32.049  1.00  0.00     0.034 A 
ATOM     55  C   UNL A   1      46.211  35.231  29.105  1.00  0.00     0.049 A 
ATOM     56  C   UNL A   1      41.814  33.828  32.325  1.00  0.00     0.074 A 
ATOM     57  C   UNL A   1      46.860  36.409  29.424  1.00  0.00     0.029 A 
ATOM     58  N   UNL A   1      45.184  35.076  30.029  1.00  0.00    -0.354 N 
ATOM     59  N   UNL A   1      42.862  34.274  31.668  1.00  0.00    -0.248 NA
ATOM     60  C   UNL A   1      41.441  34.654  33.483  1.00  0.00     0.031 C 
ATOM     61  C   UNL A   1      46.268  36.933  30.579  1.00  0.00     0.029 A 
ATOM     62  C   UNL A   1      45.199  36.124  30.933  1.00  0.00     0.049 A 
ATOM     63  H   UNL A   1      44.542  34.331  30.039  1.00  0.00     0.167 HD
ATOM     64  C   UNL A   1      43.243  35.452  32.307  1.00  0.00     0.074 A 
ATOM     65  C   UNL A   1      42.315  35.647  33.403  1.00  0.00     0.031 C 
ATOM     66  C   UNL A   1      44.258  36.304  32.013  1.00  0.00     0.034 A 
BRANCH  53  67
ATOM     67  C   UNL A   1      47.687  34.551  27.145  1.00  0.00     0.023 A 
ATOM     68  C   UNL A   1      48.981  34.125  27.489  1.00  0.00     0.031 A 
ATOM     69  C   UNL A   1      47.526  35.282  25.955  1.00  0.00     0.131 A 
ATOM     70  C   UNL A   1      50.074  34.501  26.695  1.00  0.00     0.055 A 
ATOM     71  C   UNL A   1      48.608  35.582  25.126  1.00  0.00     0.041 A 
ATOM     72  F   UNL A   1      46.318  35.739  25.591  1.00  0.00    -0.206 F 
ATOM     73  C   UNL A   1      49.894  35.205  25.503  1.00  0.00     0.022 A 
BRANCH  70  74
ATOM     74  S   UNL A   1      51.748  34.189  27.323  1.00  0.00     0.124 S 
ATOM     75  O   UNL A   1      52.572  34.732  26.247  1.00  0.00    -0.237 OA
ATOM     76  O   UNL A   1      51.760  34.936  28.576  1.00  0.00    -0.237 OA
ATOM     77  O   UNL A   1      51.795  32.735  27.462  1.00  0.00    -0.744 OA
ENDBRANCH  70  74
ENDBRANCH  53  67
BRANCH  54  78
ATOM     78  C   UNL A   1      39.834  32.257  32.959  1.00  0.00     0.023 A 
ATOM     79  C   UNL A   1      38.583  32.885  32.844  1.00  0.00     0.031 A 
ATOM     80  C   UNL A   1      40.012  31.335  34.007  1.00  0.00     0.131 A 
ATOM     81  C   UNL A   1      37.576  32.621  33.787  1.00  0.00     0.055 A 
ATOM     82  C   UNL A   1      38.990  31.036  34.911  1.00  0.00     0.041 A 
ATOM     83  F   UNL A   1      41.188  30.707  34.166  1.00  0.00    -0.206 F 
ATOM     84  C   UNL A   1      37.768  31.691  34.811  1.00  0.00     0.022 A 
BRANCH  81  85
ATOM     85  S   UNL A   1      36.037  33.579  33.709  1.00  0.00     0.124 S 
ATOM     86  O   UNL A   1      35.595  33.542  35.097  1.00  0.00    -0.237 OA
ATOM     87  O   UNL A   1      36.511  34.870  33.219  1.00  0.00    -0.237 OA
ATOM     88  O   UNL A   1      35.212  32.823  32.768  1.00  0.00    -0.744 OA
ENDBRANCH  81  85
ENDBRANCH  54  78
BRANCH  66  89
ATOM     89  C   UNL A   1      44.372  37.563  32.835  1.00  0.00     0.023 A 
ATOM     90  C   UNL A   1      43.798  38.778  32.423  1.00  0.00     0.031 A 
ATOM     91  C   UNL A   1      45.047  37.530  34.069  1.00  0.00     0.131 A 
ATOM     92  C   UNL A   1      43.943  39.922  33.225  1.00  0.00     0.055 A 
ATOM     93  C   UNL A   1      45.142  38.657  34.885  1.00  0.00     0.041 A 
ATOM     94  F   UNL A   1      45.610  36.393  34.508  1.00  0.00    -0.206 F 
ATOM     95  C   UNL A   1      44.596  39.865  34.460  1.00  0.00     0.022 A 
BRANCH  92  96
ATOM     96  S   UNL A   1      43.317  41.509  32.606  1.00  0.00     0.124 S 
ATOM     97  O   UNL A   1      43.982  42.463  33.489  1.00  0.00    -0.237 OA
ATOM     98  O   UNL A   1      43.770  41.503  31.218  1.00  0.00    -0.237 OA
ATOM     99  O   UNL A   1      41.871  41.401  32.785  1.00  0.00    -0.744 OA
ENDBRANCH  92  96
ENDBRANCH  66  89
ENDBRANCH  40  41
ENDBRANCH  33  35
ENDBRANCH  32  33
ENDBRANCH  31  32
ENDBRANCH  30  31
ENDBRANCH  29  30
ENDBRANCH  28  29
ENDBRANCH  27  28
ENDBRANCH   1  27
TORSDOF 27
ENDMDL
MODEL 2
REMARK VINA RESULT:      -8.3      0.966      7.470
REMARK SMILES CCc1nc(C)c(C(=O)OCCOCCOCCOCCOC(=O)c2ccc(-c3c4nc(c(-c5cc(S(=O)(=O)[O-])ccc5F)c5ccc([nH]5)c(-c5cc(S(=O)(=O)[O-])ccc5F)c5nc(c(-c6cc(S(=O)(=O)[O-])ccc6F)c6ccc3[nH]6)C=C5)C=C4)cc2)c(SCc2cnc(Cl)s2)n1
REMARK SMILES IDX 16 1 15 2 14 3 13 4 12 5 11 6 10 7 8 8 9 9 7 10 3 11 4 12
REMARK SMILES IDX 97 13 5 14 88 15 6 16 2 17 1 18 89 19 90 20 91 21 92 22
REMARK SMILES IDX 96 23 93 24 94 25 95 26 17 27 18 28 19 29 20 30 21 31 22 32
REMARK SMILES IDX 23 33 24 34 25 35 26 36 87 37 27 38 86 39 28 40 29 41 30 42
REMARK SMILES IDX 80 43 31 44 85 45 79 46 81 47 32 48 84 49 78 50 77 51 33 53
REMARK SMILES IDX 65 54 45 55 64 56 46 57 49 58 63 59 82 60 47 61 48 62 62 64
REMARK SMILES IDX 83 65 50 66 34 67 35 68 43 69 36 70 42 71 44 72 41 73 37 74
REMARK SMILES IDX 38 75 39 76 40 77 66 78 67 79 75 80 68 81 74 82 76 83 73 84
REMARK SMILES IDX 69 85 70 86 71 87 72 88 51 89 52 90 60 91 53 92 59 93 61 94
REMARK SMILES IDX 58 95 54 96 55 97 56 98 57 99
REMARK H PARENT 81 52 49 63
REMARK Flexibility Score: inf
ROOT
ATOM      1  O   UNL A   1      36.883  22.236  25.791  1.00  0.00    -0.377 OA
ENDROOT
BRANCH   1   2
ATOM      2  C   UNL A   1      35.702  21.857  25.126  1.00  0.00     0.188 C 
BRANCH   2   3
ATOM      3  C   UNL A   1      34.545  22.838  25.342  1.00  0.00     0.188 C 
BRANCH   3   4
ATOM      4  O   UNL A   1      33.399  22.791  24.508  1.00  0.00    -0.376 OA
BRANCH   4   5
ATOM      5  C   UNL A   1      32.372  23.780  24.524  1.00  0.00     0.202 C 
BRANCH   5   6
ATOM      6  C   UNL A   1      31.983  24.608  25.759  1.00  0.00     0.261 C 
BRANCH   6   7
ATOM      7  O   UNL A   1      31.672  25.962  25.448  1.00  0.00    -0.460 OA
BRANCH   7   8
ATOM      8  C   UNL A   1      32.528  26.717  24.755  1.00  0.00     0.342 C 
ATOM      9  O   UNL A   1      33.750  26.620  24.691  1.00  0.00    -0.246 OA
BRANCH   8  10
ATOM     10  C   UNL A   1      31.731  27.746  24.109  1.00  0.00     0.113 A 
ATOM     11  C   UNL A   1      30.021  29.451  22.878  1.00  0.00     0.129 A 
ATOM     12  N   UNL A   1      30.247  28.277  22.285  1.00  0.00    -0.237 NA
ATOM     13  N   UNL A   1      30.644  29.852  23.994  1.00  0.00    -0.226 NA
ATOM     14  C   UNL A   1      31.110  27.432  22.894  1.00  0.00     0.057 A 
ATOM     15  C   UNL A   1      31.490  29.007  24.635  1.00  0.00     0.115 A 
ATOM     16  C   UNL A   1      31.271  26.107  22.194  1.00  0.00     0.068 C 
BRANCH  11  17
ATOM     17  C   UNL A   1      28.862  30.263  22.366  1.00  0.00     0.074 C 
ATOM     18  C   UNL A   1      27.947  30.802  23.457  1.00  0.00     0.012 C 
ENDBRANCH  11  17
BRANCH  15  19
ATOM     19  S   UNL A   1      31.932  29.792  26.171  1.00  0.00    -0.100 SA
BRANCH  19  20
ATOM     20  C   UNL A   1      33.738  29.844  26.403  1.00  0.00     0.125 C 
BRANCH  20  21
ATOM     21  C   UNL A   1      34.212  30.814  27.432  1.00  0.00     0.036 A 
ATOM     22  C   UNL A   1      33.611  31.988  27.855  1.00  0.00     0.129 A 
ATOM     23  S   UNL A   1      35.631  30.559  28.381  1.00  0.00    -0.107 S 
ATOM     24  N   UNL A   1      34.334  32.749  28.754  1.00  0.00    -0.233 NA
ATOM     25  C   UNL A   1      35.448  32.114  29.025  1.00  0.00     0.183 A 
ATOM     26  Cl  UNL A   1      36.671  32.760  30.037  1.00  0.00    -0.051 Cl
ENDBRANCH  20  21
ENDBRANCH  19  20
ENDBRANCH  15  19
ENDBRANCH   8  10
ENDBRANCH   7   8
ENDBRANCH   6   7
ENDBRANCH   5   6
ENDBRANCH   4   5
ENDBRANCH   3   4
ENDBRANCH   2   3
ENDBRANCH   1   2
BRANCH   1  27
ATOM     27  C   UNL A   1      38.052  21.466  25.534  1.00  0.00     0.188 C 
BRANCH  27  28
ATOM     28  C   UNL A   1      39.433  21.815  26.144  1.00  0.00     0.188 C 
BRANCH  28  29
ATOM     29  O   UNL A   1      39.550  23.125  26.697  1.00  0.00    -0.376 OA
BRANCH  29  30
ATOM     30  C   UNL A   1      40.863  23.568  27.019  1.00  0.00     0.202 C 
BRANCH  30  31
ATOM     31  C   UNL A   1      40.885  24.892  27.792  1.00  0.00     0.261 C 
BRANCH  31  32
ATOM     32  O   UNL A   1      40.601  26.051  26.997  1.00  0.00    -0.460 OA
BRANCH  32  33
ATOM     33  C   UNL A   1      41.557  26.439  26.121  1.00  0.00     0.338 C 
ATOM     34  O   UNL A   1      41.777  25.964  25.022  1.00  0.00    -0.246 OA
BRANCH  33  35
ATOM     35  C   UNL A   1      42.156  27.684  26.641  1.00  0.00     0.060 A 
ATOM     36  C   UNL A   1      43.245  27.594  27.519  1.00  0.00     0.016 A 
ATOM     37  C   UNL A   1      41.676  28.928  26.227  1.00  0.00     0.016 A 
ATOM     38  C   UNL A   1      43.832  28.757  28.018  1.00  0.00     0.010 A 
ATOM     39  C   UNL A   1      42.246  30.090  26.746  1.00  0.00     0.010 A 
ATOM     40  C   UNL A   1      43.298  30.007  27.674  1.00  0.00    -0.014 A 
BRANCH  40  41
ATOM     41  C   UNL A   1      43.615  31.196  28.499  1.00  0.00     0.031 A 
ATOM     42  C   UNL A   1      42.730  31.457  29.688  1.00  0.00     0.074 A 
ATOM     43  C   UNL A   1      44.627  32.028  28.198  1.00  0.00     0.049 A 
ATOM     44  N   UNL A   1      42.714  32.472  30.510  1.00  0.00    -0.248 NA
ATOM     45  C   UNL A   1      41.716  30.429  29.976  1.00  0.00     0.031 C 
ATOM     46  C   UNL A   1      45.574  31.852  27.102  1.00  0.00     0.029 A 
ATOM     47  N   UNL A   1      45.012  33.205  28.791  1.00  0.00    -0.354 N 
ATOM     48  C   UNL A   1      41.689  32.206  31.412  1.00  0.00     0.074 A 
ATOM     49  C   UNL A   1      41.086  30.953  31.014  1.00  0.00     0.031 C 
ATOM     50  C   UNL A   1      46.423  32.897  27.088  1.00  0.00     0.029 A 
ATOM     51  C   UNL A   1      46.053  33.833  28.149  1.00  0.00     0.049 A 
ATOM     52  H   UNL A   1      44.583  33.566  29.601  1.00  0.00     0.167 HD
ATOM     53  C   UNL A   1      41.288  32.938  32.477  1.00  0.00     0.034 A 
ATOM     54  C   UNL A   1      46.614  35.039  28.378  1.00  0.00     0.034 A 
ATOM     55  C   UNL A   1      41.872  34.202  32.839  1.00  0.00     0.049 A 
ATOM     56  C   UNL A   1      46.087  35.889  29.514  1.00  0.00     0.074 A 
ATOM     57  C   UNL A   1      41.536  35.042  33.884  1.00  0.00     0.029 A 
ATOM     58  N   UNL A   1      42.910  34.818  32.149  1.00  0.00    -0.354 N 
ATOM     59  N   UNL A   1      45.117  35.629  30.362  1.00  0.00    -0.248 NA
ATOM     60  C   UNL A   1      46.733  37.192  29.726  1.00  0.00     0.031 C 
ATOM     61  C   UNL A   1      42.325  36.194  33.788  1.00  0.00     0.029 A 
ATOM     62  C   UNL A   1      43.207  36.037  32.731  1.00  0.00     0.049 A 
ATOM     63  H   UNL A   1      43.365  34.441  31.362  1.00  0.00     0.167 HD
ATOM     64  C   UNL A   1      45.068  36.716  31.232  1.00  0.00     0.074 A 
ATOM     65  C   UNL A   1      46.103  37.635  30.805  1.00  0.00     0.031 C 
ATOM     66  C   UNL A   1      44.251  36.934  32.294  1.00  0.00     0.034 A 
BRANCH  53  67
ATOM     67  C   UNL A   1      40.123  32.403  33.273  1.00  0.00     0.023 A 
ATOM     68  C   UNL A   1      38.840  32.967  33.170  1.00  0.00     0.031 A 
ATOM     69  C   UNL A   1      40.315  31.358  34.193  1.00  0.00     0.131 A 
ATOM     70  C   UNL A   1      37.818  32.538  34.029  1.00  0.00     0.055 A 
ATOM     71  C   UNL A   1      39.271  30.879  34.987  1.00  0.00     0.041 A 
ATOM     72  F   UNL A   1      41.525  30.802  34.354  1.00  0.00    -0.206 F 
ATOM     73  C   UNL A   1      38.017  31.480  34.919  1.00  0.00     0.022 A 
BRANCH  70  74
ATOM     74  S   UNL A   1      36.270  33.483  34.074  1.00  0.00     0.124 S 
ATOM     75  O   UNL A   1      35.415  32.690  33.195  1.00  0.00    -0.237 OA
ATOM     76  O   UNL A   1      35.926  33.461  35.491  1.00  0.00    -0.237 OA
ATOM     77  O   UNL A   1      36.654  34.791  33.544  1.00  0.00    -0.744 OA
ENDBRANCH  70  74
ENDBRANCH  53  67
BRANCH  54  78
ATOM     78  C   UNL A   1      47.705  35.551  27.498  1.00  0.00     0.023 A 
ATOM     79  C   UNL A   1      49.053  35.261  27.766  1.00  0.00     0.031 A 
ATOM     80  C   UNL A   1      47.419  36.400  26.413  1.00  0.00     0.131 A 
ATOM     81  C   UNL A   1      50.065  35.851  26.992  1.00  0.00     0.055 A 
ATOM     82  C   UNL A   1      48.426  36.943  25.614  1.00  0.00     0.041 A 
ATOM     83  F   UNL A   1      46.149  36.713  26.114  1.00  0.00    -0.206 F 
ATOM     84  C   UNL A   1      49.760  36.681  25.910  1.00  0.00     0.022 A 
BRANCH  81  85
ATOM     85  S   UNL A   1      51.794  35.593  27.476  1.00  0.00     0.124 S 
ATOM     86  O   UNL A   1      51.664  35.302  28.899  1.00  0.00    -0.237 OA
ATOM     87  O   UNL A   1      52.180  34.473  26.624  1.00  0.00    -0.237 OA
ATOM     88  O   UNL A   1      52.433  36.867  27.153  1.00  0.00    -0.744 OA
ENDBRANCH  81  85
ENDBRANCH  54  78
BRANCH  66  89
ATOM     89  C   UNL A   1      44.494  38.174  33.117  1.00  0.00     0.023 A 
ATOM     90  C   UNL A   1      43.754  39.353  32.929  1.00  0.00     0.031 A 
ATOM     91  C   UNL A   1      45.471  38.157  34.130  1.00  0.00     0.131 A 
ATOM     92  C   UNL A   1      44.029  40.481  33.719  1.00  0.00     0.055 A 
ATOM     93  C   UNL A   1      45.704  39.265  34.945  1.00  0.00     0.041 A 
ATOM     94  F   UNL A   1      46.204  37.055  34.353  1.00  0.00    -0.206 F 
ATOM     95  C   UNL A   1      44.987  40.439  34.736  1.00  0.00     0.022 A 
BRANCH  92  96
ATOM     96  S   UNL A   1      43.159  42.033  33.361  1.00  0.00     0.124 S 
ATOM     97  O   UNL A   1      43.901  42.992  34.173  1.00  0.00    -0.237 OA
ATOM     98  O   UNL A   1      43.324  42.158  31.916  1.00  0.00    -0.237 OA
ATOM     99  O   UNL A   1      41.792  41.770  33.806  1.00  0.00    -0.744 OA
ENDBRANCH  92  96
ENDBRANCH  66  89
ENDBRANCH  40  41
ENDBRANCH  33  35
ENDBRANCH  32  33
ENDBRANCH  31  32
ENDBRANCH  30  31
ENDBRANCH  29  30
ENDBRANCH  28  29
ENDBRANCH  27  28
ENDBRANCH   1  27
TORSDOF 27
ENDMDL
MODEL 3
REMARK VINA RESULT:      -7.8      7.040     11.590
REMARK SMILES CCc1nc(C)c(C(=O)OCCOCCOCCOCCOC(=O)c2ccc(-c3c4nc(c(-c5cc(S(=O)(=O)[O-])ccc5F)c5ccc([nH]5)c(-c5cc(S(=O)(=O)[O-])ccc5F)c5nc(c(-c6cc(S(=O)(=O)[O-])ccc6F)c6ccc3[nH]6)C=C5)C=C4)cc2)c(SCc2cnc(Cl)s2)n1
REMARK SMILES IDX 16 1 15 2 14 3 13 4 12 5 11 6 10 7 8 8 9 9 7 10 3 11 4 12
REMARK SMILES IDX 97 13 5 14 88 15 6 16 2 17 1 18 89 19 90 20 91 21 92 22
REMARK SMILES IDX 96 23 93 24 94 25 95 26 17 27 18 28 19 29 20 30 21 31 22 32
REMARK SMILES IDX 23 33 24 34 25 35 26 36 87 37 27 38 86 39 28 40 29 41 30 42
REMARK SMILES IDX 80 43 31 44 85 45 79 46 81 47 32 48 84 49 78 50 77 51 33 53
REMARK SMILES IDX 65 54 45 55 64 56 46 57 49 58 63 59 82 60 47 61 48 62 62 64
REMARK SMILES IDX 83 65 50 66 34 67 35 68 43 69 36 70 42 71 44 72 41 73 37 74
REMARK SMILES IDX 38 75 39 76 40 77 66 78 67 79 75 80 68 81 74 82 76 83 73 84
REMARK SMILES IDX 69 85 70 86 71 87 72 88 51 89 52 90 60 91 53 92 59 93 61 94
REMARK SMILES IDX 58 95 54 96 55 97 56 98 57 99
REMARK H PARENT 81 52 49 63
REMARK Flexibility Score: inf
ROOT
ATOM      1  O   UNL A   1      37.153  21.542  25.721  1.00  0.00    -0.377 OA
ENDROOT
BRANCH   1   2
ATOM      2  C   UNL A   1      36.200  21.220  24.737  1.00  0.00     0.188 C 
BRANCH   2   3
ATOM      3  C   UNL A   1      34.950  22.103  24.794  1.00  0.00     0.188 C 
BRANCH   3   4
ATOM      4  O   UNL A   1      34.366  22.600  23.600  1.00  0.00    -0.376 OA
BRANCH   4   5
ATOM      5  C   UNL A   1      33.145  23.334  23.566  1.00  0.00     0.202 C 
BRANCH   5   6
ATOM      6  C   UNL A   1      32.367  23.784  24.813  1.00  0.00     0.261 C 
BRANCH   6   7
ATOM      7  O   UNL A   1      31.944  25.141  24.748  1.00  0.00    -0.460 OA
BRANCH   7   8
ATOM      8  C   UNL A   1      32.765  26.091  24.292  1.00  0.00     0.342 C 
ATOM      9  O   UNL A   1      33.992  26.086  24.259  1.00  0.00    -0.246 OA
BRANCH   8  10
ATOM     10  C   UNL A   1      31.916  27.194  23.874  1.00  0.00     0.113 A 
ATOM     11  C   UNL A   1      30.129  29.037  23.003  1.00  0.00     0.129 A 
ATOM     12  N   UNL A   1      30.470  28.066  22.153  1.00  0.00    -0.237 NA
ATOM     13  N   UNL A   1      30.673  29.186  24.218  1.00  0.00    -0.226 NA
ATOM     14  C   UNL A   1      31.371  27.154  22.584  1.00  0.00     0.057 A 
ATOM     15  C   UNL A   1      31.556  28.265  24.679  1.00  0.00     0.115 A 
ATOM     16  C   UNL A   1      31.664  26.061  21.590  1.00  0.00     0.068 C 
BRANCH  11  17
ATOM     17  C   UNL A   1      28.931  29.873  22.641  1.00  0.00     0.074 C 
ATOM     18  C   UNL A   1      28.726  31.090  23.531  1.00  0.00     0.012 C 
ENDBRANCH  11  17
BRANCH  15  19
ATOM     19  S   UNL A   1      31.873  28.667  26.384  1.00  0.00    -0.100 SA
BRANCH  19  20
ATOM     20  C   UNL A   1      33.655  28.645  26.760  1.00  0.00     0.125 C 
BRANCH  20  21
ATOM     21  C   UNL A   1      34.202  29.928  27.289  1.00  0.00     0.036 A 
ATOM     22  C   UNL A   1      33.532  31.113  27.545  1.00  0.00     0.129 A 
ATOM     23  S   UNL A   1      35.846  30.118  27.781  1.00  0.00    -0.107 S 
ATOM     24  N   UNL A   1      34.317  32.181  27.935  1.00  0.00    -0.233 NA
ATOM     25  C   UNL A   1      35.560  31.772  28.006  1.00  0.00     0.183 A 
ATOM     26  Cl  UNL A   1      36.870  32.814  28.373  1.00  0.00    -0.051 Cl
ENDBRANCH  20  21
ENDBRANCH  19  20
ENDBRANCH  15  19
ENDBRANCH   8  10
ENDBRANCH   7   8
ENDBRANCH   6   7
ENDBRANCH   5   6
ENDBRANCH   4   5
ENDBRANCH   3   4
ENDBRANCH   2   3
ENDBRANCH   1   2
BRANCH   1  27
ATOM     27  C   UNL A   1      38.458  20.994  25.570  1.00  0.00     0.188 C 
BRANCH  27  28
ATOM     28  C   UNL A   1      39.667  21.471  26.412  1.00  0.00     0.188 C 
BRANCH  28  29
ATOM     29  O   UNL A   1      39.628  22.835  26.830  1.00  0.00    -0.376 OA
BRANCH  29  30
ATOM     30  C   UNL A   1      40.860  23.413  27.244  1.00  0.00     0.202 C 
BRANCH  30  31
ATOM     31  C   UNL A   1      40.686  24.601  28.196  1.00  0.00     0.261 C 
BRANCH  31  32
ATOM     32  O   UNL A   1      40.776  25.887  27.568  1.00  0.00    -0.460 OA
BRANCH  32  33
ATOM     33  C   UNL A   1      41.384  25.933  26.360  1.00  0.00     0.338 C 
ATOM     34  O   UNL A   1      40.844  26.032  25.273  1.00  0.00    -0.246 OA
BRANCH  33  35
ATOM     35  C   UNL A   1      42.836  26.056  26.599  1.00  0.00     0.060 A 
ATOM     36  C   UNL A   1      43.675  25.000  26.216  1.00  0.00     0.016 A 
ATOM     37  C   UNL A   1      43.367  27.224  27.151  1.00  0.00     0.016 A 
ATOM     38  C   UNL A   1      45.051  25.096  26.425  1.00  0.00     0.010 A 
ATOM     39  C   UNL A   1      44.739  27.309  27.384  1.00  0.00     0.010 A 
ATOM     40  C   UNL A   1      45.579  26.230  27.060  1.00  0.00    -0.014 A 
BRANCH  40  41
ATOM     41  C   UNL A   1      46.930  26.174  27.663  1.00  0.00     0.031 A 
ATOM     42  C   UNL A   1      47.004  25.978  29.154  1.00  0.00     0.074 A 
ATOM     43  C   UNL A   1      48.050  26.315  26.932  1.00  0.00     0.049 A 
ATOM     44  N   UNL A   1      48.041  25.998  29.949  1.00  0.00    -0.248 NA
ATOM     45  C   UNL A   1      45.723  25.738  29.838  1.00  0.00     0.031 C 
ATOM     46  C   UNL A   1      48.102  26.464  25.481  1.00  0.00     0.029 A 
ATOM     47  N   UNL A   1      49.363  26.371  27.326  1.00  0.00    -0.354 N 
ATOM     48  C   UNL A   1      47.537  25.774  31.226  1.00  0.00     0.074 A 
ATOM     49  C   UNL A   1      46.101  25.658  31.102  1.00  0.00     0.031 C 
ATOM     50  C   UNL A   1      49.386  26.615  25.105  1.00  0.00     0.029 A 
ATOM     51  C   UNL A   1      50.240  26.613  26.293  1.00  0.00     0.049 A 
ATOM     52  H   UNL A   1      49.652  26.250  28.259  1.00  0.00     0.167 HD
ATOM     53  C   UNL A   1      48.210  25.673  32.396  1.00  0.00     0.034 A 
ATOM     54  C   UNL A   1      51.570  26.837  26.318  1.00  0.00     0.034 A 
ATOM     55  C   UNL A   1      49.636  25.829  32.509  1.00  0.00     0.049 A 
ATOM     56  C   UNL A   1      52.292  26.818  27.647  1.00  0.00     0.074 A 
ATOM     57  C   UNL A   1      50.424  25.768  33.642  1.00  0.00     0.029 A 
ATOM     58  N   UNL A   1      50.487  26.097  31.443  1.00  0.00    -0.354 N 
ATOM     59  N   UNL A   1      51.807  26.606  28.850  1.00  0.00    -0.248 NA
ATOM     60  C   UNL A   1      53.741  27.063  27.623  1.00  0.00     0.031 C 
ATOM     61  C   UNL A   1      51.742  26.062  33.273  1.00  0.00     0.029 A 
ATOM     62  C   UNL A   1      51.787  26.228  31.897  1.00  0.00     0.049 A 
ATOM     63  H   UNL A   1      50.206  26.182  30.504  1.00  0.00     0.167 HD
ATOM     64  C   UNL A   1      52.898  26.650  29.716  1.00  0.00     0.074 A 
ATOM     65  C   UNL A   1      54.065  26.911  28.898  1.00  0.00     0.031 C 
ATOM     66  C   UNL A   1      52.938  26.479  31.062  1.00  0.00     0.034 A 
BRANCH  53  67
ATOM     67  C   UNL A   1      47.387  25.444  33.638  1.00  0.00     0.023 A 
ATOM     68  C   UNL A   1      47.047  24.150  34.069  1.00  0.00     0.031 A 
ATOM     69  C   UNL A   1      46.882  26.537  34.365  1.00  0.00     0.131 A 
ATOM     70  C   UNL A   1      46.162  23.982  35.145  1.00  0.00     0.055 A 
ATOM     71  C   UNL A   1      46.070  26.360  35.486  1.00  0.00     0.041 A 
ATOM     72  F   UNL A   1      47.150  27.795  33.982  1.00  0.00    -0.206 F 
ATOM     73  C   UNL A   1      45.692  25.077  35.872  1.00  0.00     0.022 A 
BRANCH  70  74
ATOM     74  S   UNL A   1      45.516  22.320  35.482  1.00  0.00     0.124 S 
ATOM     75  O   UNL A   1      46.482  21.480  34.780  1.00  0.00    -0.237 OA
ATOM     76  O   UNL A   1      45.553  22.257  36.939  1.00  0.00    -0.237 OA
ATOM     77  O   UNL A   1      44.179  22.347  34.892  1.00  0.00    -0.744 OA
ENDBRANCH  70  74
ENDBRANCH  53  67
BRANCH  54  78
ATOM     78  C   UNL A   1      52.314  27.147  25.061  1.00  0.00     0.023 A 
ATOM     79  C   UNL A   1      52.322  28.443  24.521  1.00  0.00     0.031 A 
ATOM     80  C   UNL A   1      52.970  26.131  24.342  1.00  0.00     0.131 A 
ATOM     81  C   UNL A   1      52.929  28.681  23.278  1.00  0.00     0.055 A 
ATOM     82  C   UNL A   1      53.619  26.383  23.131  1.00  0.00     0.041 A 
ATOM     83  F   UNL A   1      52.991  24.873  24.810  1.00  0.00    -0.206 F 
ATOM     84  C   UNL A   1      53.588  27.662  22.586  1.00  0.00     0.022 A 
BRANCH  81  85
ATOM     85  S   UNL A   1      52.769  30.327  22.531  1.00  0.00     0.124 S 
ATOM     86  O   UNL A   1      54.115  30.861  22.700  1.00  0.00    -0.237 OA
ATOM     87  O   UNL A   1      52.374  30.000  21.165  1.00  0.00    -0.237 OA
ATOM     88  O   UNL A   1      51.734  30.969  23.339  1.00  0.00    -0.744 OA
ENDBRANCH  81  85
ENDBRANCH  54  78
BRANCH  66  89
ATOM     89  C   UNL A   1      54.292  26.490  31.727  1.00  0.00     0.023 A 
ATOM     90  C   UNL A   1      55.059  25.322  31.879  1.00  0.00     0.031 A 
ATOM     91  C   UNL A   1      54.832  27.705  32.187  1.00  0.00     0.131 A 
ATOM     92  C   UNL A   1      56.310  25.390  32.514  1.00  0.00     0.055 A 
ATOM     93  C   UNL A   1      56.098  27.773  32.770  1.00  0.00     0.041 A 
ATOM     94  F   UNL A   1      54.141  28.849  32.063  1.00  0.00    -0.206 F 
ATOM     95  C   UNL A   1      56.840  26.610  32.944  1.00  0.00     0.022 A 
BRANCH  92  96
ATOM     96  S   UNL A   1      57.216  23.849  32.826  1.00  0.00     0.124 S 
ATOM     97  O   UNL A   1      56.221  23.050  33.534  1.00  0.00    -0.237 OA
ATOM     98  O   UNL A   1      57.549  23.404  31.476  1.00  0.00    -0.237 OA
ATOM     99  O   UNL A   1      58.356  24.279  33.633  1.00  0.00    -0.744 OA
ENDBRANCH  92  96
ENDBRANCH  66  89
ENDBRANCH  40  41
ENDBRANCH  33  35
ENDBRANCH  32  33
ENDBRANCH  31  32
ENDBRANCH  30  31
ENDBRANCH  29  30
ENDBRANCH  28  29
ENDBRANCH  27  28
ENDBRANCH   1  27
TORSDOF 27
ENDMDL
