MODEL 1
REMARK VINA RESULT:      -7.8      0.000      0.000
REMARK SMILES CC[C@H](C)[C@@H](C)NC(=O)c1ccncc1/C=C/C(=O)OCCOCCOCCOCCOC(=O)c1ccc(-c2c3nc(c(-c4cc(S(=O)(=O)[O-])ccc4F)c4ccc([nH]4)c(-c4cc(S(=O)(=O)[O-])ccc4F)c4nc(c(-c5cc(S(=O)(=O)[O-])ccc5F)c5ccc2[nH]5)C=C4)C=C3)cc1
REMARK SMILES IDX 25 1 24 2 23 3 22 4 21 5 20 6 18 7 19 8 17 9 16 10 15 11
REMARK SMILES IDX 10 12 11 13 12 14 14 15 13 16 8 17 7 18 9 20 5 21 6 22 3 23
REMARK SMILES IDX 4 24 2 25 1 26 26 27 27 28 28 29 29 30 30 31 31 32 32 33
REMARK SMILES IDX 33 34 34 35 35 36 36 37 97 38 37 39 96 40 38 41 39 42 40 43
REMARK SMILES IDX 90 44 41 45 95 46 89 47 91 48 42 49 94 50 88 51 87 52 43 54
REMARK SMILES IDX 75 55 55 56 74 57 56 58 59 59 73 60 92 61 57 62 58 63 72 65
REMARK SMILES IDX 93 66 60 67 44 68 45 69 53 70 46 71 52 72 54 73 51 74 47 75
REMARK SMILES IDX 48 76 49 77 50 78 76 79 77 80 85 81 78 82 84 83 86 84 83 85
REMARK SMILES IDX 79 86 80 87 81 88 82 89 61 90 62 91 70 92 63 93 69 94 71 95
REMARK SMILES IDX 68 96 64 97 65 98 66 99 67 100
REMARK H PARENT 7 19 91 53 59 64
REMARK Flexibility Score: inf
ROOT
ATOM      1  C   UNL A   1      41.045  25.585  27.324  1.00  0.00     0.188 C 
ENDROOT
BRANCH   1   2
ATOM      2  C   UNL A   1      40.982  24.194  26.664  1.00  0.00     0.188 C 
BRANCH   2   3
ATOM      3  O   UNL A   1      39.928  23.380  27.135  1.00  0.00    -0.376 OA
BRANCH   3   4
ATOM      4  C   UNL A   1      39.612  22.153  26.505  1.00  0.00     0.202 C 
BRANCH   4   5
ATOM      5  C   UNL A   1      38.444  21.990  25.516  1.00  0.00     0.261 C 
BRANCH   5   6
ATOM      6  O   UNL A   1      37.147  22.389  25.964  1.00  0.00    -0.460 OA
BRANCH   6   7
ATOM      7  C   UNL A   1      36.831  23.690  25.833  1.00  0.00     0.330 C 
ATOM      8  O   UNL A   1      37.433  24.636  26.320  1.00  0.00    -0.247 OA
BRANCH   7   9
ATOM      9  C   UNL A   1      35.722  23.878  24.870  1.00  0.00     0.094 C 
ATOM     10  C   UNL A   1      34.663  24.694  25.026  1.00  0.00     0.018 C 
BRANCH  10  11
ATOM     11  C   UNL A   1      33.620  24.822  23.986  1.00  0.00     0.006 A 
ATOM     12  C   UNL A   1      32.349  24.228  24.051  1.00  0.00     0.050 A 
ATOM     13  C   UNL A   1      31.357  24.610  23.141  1.00  0.00     0.034 A 
ATOM     14  C   UNL A   1      31.708  25.425  22.083  1.00  0.00     0.112 A 
ATOM     15  C   UNL A   1      33.868  25.588  22.844  1.00  0.00     0.119 A 
ATOM     16  N   UNL A   1      32.955  25.889  21.890  1.00  0.00    -0.264 NA
BRANCH  12  17
ATOM     17  C   UNL A   1      32.011  23.223  25.089  1.00  0.00     0.252 C 
ATOM     18  N   UNL A   1      32.399  21.909  24.956  1.00  0.00    -0.349 N 
ATOM     19  H   UNL A   1      32.197  21.356  25.745  1.00  0.00     0.164 HD
ATOM     20  O   UNL A   1      31.397  23.571  26.092  1.00  0.00    -0.269 OA
BRANCH  18  21
ATOM     21  C   UNL A   1      33.056  21.168  23.867  1.00  0.00     0.082 C 
ATOM     22  C   UNL A   1      31.994  20.902  22.794  1.00  0.00     0.031 C 
BRANCH  21  23
ATOM     23  C   UNL A   1      33.736  19.870  24.381  1.00  0.00     0.008 C 
ATOM     24  C   UNL A   1      35.131  20.138  24.969  1.00  0.00     0.010 C 
BRANCH  23  25
ATOM     25  C   UNL A   1      32.866  19.103  25.405  1.00  0.00     0.002 C 
ATOM     26  C   UNL A   1      32.421  17.708  24.981  1.00  0.00     0.004 C 
ENDBRANCH  23  25
ENDBRANCH  21  23
ENDBRANCH  18  21
ENDBRANCH  12  17
ENDBRANCH  10  11
ENDBRANCH   7   9
ENDBRANCH   6   7
ENDBRANCH   5   6
ENDBRANCH   4   5
ENDBRANCH   3   4
ENDBRANCH   2   3
ENDBRANCH   1   2
BRANCH   1  27
ATOM     27  O   UNL A   1      40.641  26.694  26.541  1.00  0.00    -0.377 OA
BRANCH  27  28
ATOM     28  C   UNL A   1      39.925  27.773  27.143  1.00  0.00     0.188 C 
BRANCH  28  29
ATOM     29  C   UNL A   1      39.015  27.595  28.383  1.00  0.00     0.188 C 
BRANCH  29  30
ATOM     30  O   UNL A   1      38.632  28.801  29.025  1.00  0.00    -0.376 OA
BRANCH  30  31
ATOM     31  C   UNL A   1      37.465  29.452  28.556  1.00  0.00     0.202 C 
BRANCH  31  32
ATOM     32  C   UNL A   1      36.361  29.696  29.593  1.00  0.00     0.261 C 
BRANCH  32  33
ATOM     33  O   UNL A   1      36.611  29.191  30.912  1.00  0.00    -0.460 OA
BRANCH  33  34
ATOM     34  C   UNL A   1      37.061  30.073  31.832  1.00  0.00     0.338 C 
ATOM     35  O   UNL A   1      36.399  30.907  32.430  1.00  0.00    -0.246 OA
BRANCH  34  36
ATOM     36  C   UNL A   1      38.466  29.728  32.131  1.00  0.00     0.060 A 
ATOM     37  C   UNL A   1      39.460  30.702  31.971  1.00  0.00     0.016 A 
ATOM     38  C   UNL A   1      38.794  28.449  32.587  1.00  0.00     0.016 A 
ATOM     39  C   UNL A   1      40.794  30.388  32.237  1.00  0.00     0.010 A 
ATOM     40  C   UNL A   1      40.130  28.130  32.835  1.00  0.00     0.010 A 
ATOM     41  C   UNL A   1      41.141  29.088  32.630  1.00  0.00    -0.014 A 
BRANCH  41  42
ATOM     42  C   UNL A   1      42.565  28.668  32.633  1.00  0.00     0.031 A 
ATOM     43  C   UNL A   1      43.120  28.028  31.389  1.00  0.00     0.074 A 
ATOM     44  C   UNL A   1      43.352  28.854  33.707  1.00  0.00     0.049 A 
ATOM     45  N   UNL A   1      44.306  27.527  31.166  1.00  0.00    -0.248 NA
ATOM     46  C   UNL A   1      42.199  27.937  30.248  1.00  0.00     0.031 C 
ATOM     47  C   UNL A   1      42.947  29.509  34.948  1.00  0.00     0.029 A 
ATOM     48  N   UNL A   1      44.662  28.504  33.922  1.00  0.00    -0.354 N 
ATOM     49  C   UNL A   1      44.273  27.046  29.861  1.00  0.00     0.074 A 
ATOM     50  C   UNL A   1      42.933  27.280  29.364  1.00  0.00     0.031 C 
ATOM     51  C   UNL A   1      43.991  29.517  35.796  1.00  0.00     0.029 A 
ATOM     52  C   UNL A   1      45.121  28.827  35.177  1.00  0.00     0.049 A 
ATOM     53  H   UNL A   1      45.220  28.063  33.241  1.00  0.00     0.167 HD
ATOM     54  C   UNL A   1      45.268  26.470  29.142  1.00  0.00     0.034 A 
ATOM     55  C   UNL A   1      46.310  28.573  35.762  1.00  0.00     0.034 A 
ATOM     56  C   UNL A   1      46.592  26.229  29.662  1.00  0.00     0.049 A 
ATOM     57  C   UNL A   1      47.371  27.831  34.983  1.00  0.00     0.074 A 
ATOM     58  C   UNL A   1      47.684  25.675  29.017  1.00  0.00     0.029 A 
ATOM     59  N   UNL A   1      47.000  26.505  30.963  1.00  0.00    -0.354 N 
ATOM     60  N   UNL A   1      47.336  27.390  33.746  1.00  0.00    -0.248 NA
ATOM     61  C   UNL A   1      48.632  27.553  35.683  1.00  0.00     0.031 C 
ATOM     62  C   UNL A   1      48.716  25.528  29.951  1.00  0.00     0.029 A 
ATOM     63  C   UNL A   1      48.309  26.085  31.152  1.00  0.00     0.049 A 
ATOM     64  H   UNL A   1      46.440  26.935  31.649  1.00  0.00     0.167 HD
ATOM     65  C   UNL A   1      48.585  26.819  33.509  1.00  0.00     0.074 A 
ATOM     66  C   UNL A   1      49.349  26.977  34.729  1.00  0.00     0.031 C 
ATOM     67  C   UNL A   1      49.060  26.229  32.380  1.00  0.00     0.034 A 
BRANCH  54  68
ATOM     68  C   UNL A   1      44.926  25.999  27.746  1.00  0.00     0.023 A 
ATOM     69  C   UNL A   1      44.651  24.649  27.460  1.00  0.00     0.031 A 
ATOM     70  C   UNL A   1      44.942  26.906  26.670  1.00  0.00     0.131 A 
ATOM     71  C   UNL A   1      44.506  24.231  26.130  1.00  0.00     0.055 A 
ATOM     72  C   UNL A   1      44.697  26.497  25.358  1.00  0.00     0.041 A 
ATOM     73  F   UNL A   1      45.224  28.202  26.872  1.00  0.00    -0.206 F 
ATOM     74  C   UNL A   1      44.499  25.149  25.078  1.00  0.00     0.022 A 
BRANCH  71  75
ATOM     75  S   UNL A   1      44.527  22.450  25.778  1.00  0.00     0.124 S 
ATOM     76  O   UNL A   1      44.179  22.427  24.358  1.00  0.00    -0.237 OA
ATOM     77  O   UNL A   1      45.898  22.080  26.105  1.00  0.00    -0.237 OA
ATOM     78  O   UNL A   1      43.503  21.912  26.670  1.00  0.00    -0.744 OA
ENDBRANCH  71  75
ENDBRANCH  54  68
BRANCH  55  79
ATOM     79  C   UNL A   1      46.562  29.001  37.169  1.00  0.00     0.023 A 
ATOM     80  C   UNL A   1      46.027  28.282  38.249  1.00  0.00     0.031 A 
ATOM     81  C   UNL A   1      47.311  30.157  37.453  1.00  0.00     0.131 A 
ATOM     82  C   UNL A   1      46.218  28.743  39.561  1.00  0.00     0.055 A 
ATOM     83  C   UNL A   1      47.545  30.581  38.762  1.00  0.00     0.041 A 
ATOM     84  F   UNL A   1      47.838  30.887  36.457  1.00  0.00    -0.206 F 
ATOM     85  C   UNL A   1      46.988  29.878  39.826  1.00  0.00     0.022 A 
BRANCH  82  86
ATOM     86  S   UNL A   1      45.383  27.875  40.918  1.00  0.00     0.124 S 
ATOM     87  O   UNL A   1      44.575  26.901  40.193  1.00  0.00    -0.237 OA
ATOM     88  O   UNL A   1      46.509  27.340  41.675  1.00  0.00    -0.237 OA
ATOM     89  O   UNL A   1      44.632  28.934  41.588  1.00  0.00    -0.744 OA
ENDBRANCH  82  86
ENDBRANCH  55  79
BRANCH  67  90
ATOM     90  C   UNL A   1      50.496  25.756  32.397  1.00  0.00     0.023 A 
ATOM     91  C   UNL A   1      50.851  24.458  32.804  1.00  0.00     0.031 A 
ATOM     92  C   UNL A   1      51.530  26.625  31.998  1.00  0.00     0.131 A 
ATOM     93  C   UNL A   1      52.204  24.086  32.859  1.00  0.00     0.055 A 
ATOM     94  C   UNL A   1      52.867  26.227  31.987  1.00  0.00     0.041 A 
ATOM     95  F   UNL A   1      51.254  27.879  31.603  1.00  0.00    -0.206 F 
ATOM     96  C   UNL A   1      53.212  24.954  32.433  1.00  0.00     0.022 A 
BRANCH  93  97
ATOM     97  S   UNL A   1      52.640  22.488  33.598  1.00  0.00     0.124 S 
ATOM     98  O   UNL A   1      51.383  22.090  34.224  1.00  0.00    -0.237 OA
ATOM     99  O   UNL A   1      53.049  21.706  32.435  1.00  0.00    -0.237 OA
ATOM    100  O   UNL A   1      53.716  22.822  34.529  1.00  0.00    -0.744 OA
ENDBRANCH  93  97
ENDBRANCH  67  90
ENDBRANCH  41  42
ENDBRANCH  34  36
ENDBRANCH  33  34
ENDBRANCH  32  33
ENDBRANCH  31  32
ENDBRANCH  30  31
ENDBRANCH  29  30
ENDBRANCH  28  29
ENDBRANCH  27  28
ENDBRANCH   1  27
TORSDOF 28
ENDMDL
MODEL 2
REMARK VINA RESULT:      -7.4      7.417     11.804
REMARK SMILES CC[C@H](C)[C@@H](C)NC(=O)c1ccncc1/C=C/C(=O)OCCOCCOCCOCCOC(=O)c1ccc(-c2c3nc(c(-c4cc(S(=O)(=O)[O-])ccc4F)c4ccc([nH]4)c(-c4cc(S(=O)(=O)[O-])ccc4F)c4nc(c(-c5cc(S(=O)(=O)[O-])ccc5F)c5ccc2[nH]5)C=C4)C=C3)cc1
REMARK SMILES IDX 25 1 24 2 23 3 22 4 21 5 20 6 18 7 19 8 17 9 16 10 15 11
REMARK SMILES IDX 10 12 11 13 12 14 14 15 13 16 8 17 7 18 9 20 5 21 6 22 3 23
REMARK SMILES IDX 4 24 2 25 1 26 26 27 27 28 28 29 29 30 30 31 31 32 32 33
REMARK SMILES IDX 33 34 34 35 35 36 36 37 97 38 37 39 96 40 38 41 39 42 40 43
REMARK SMILES IDX 90 44 41 45 95 46 89 47 91 48 42 49 94 50 88 51 87 52 43 54
REMARK SMILES IDX 75 55 55 56 74 57 56 58 59 59 73 60 92 61 57 62 58 63 72 65
REMARK SMILES IDX 93 66 60 67 44 68 45 69 53 70 46 71 52 72 54 73 51 74 47 75
REMARK SMILES IDX 48 76 49 77 50 78 76 79 77 80 85 81 78 82 84 83 86 84 83 85
REMARK SMILES IDX 79 86 80 87 81 88 82 89 61 90 62 91 70 92 63 93 69 94 71 95
REMARK SMILES IDX 68 96 64 97 65 98 66 99 67 100
REMARK H PARENT 7 19 91 53 59 64
REMARK Flexibility Score: inf
ROOT
ATOM      1  C   UNL A   1      41.772  24.573  28.350  1.00  0.00     0.188 C 
ENDROOT
BRANCH   1   2
ATOM      2  C   UNL A   1      41.943  23.042  28.354  1.00  0.00     0.188 C 
BRANCH   2   3
ATOM      3  O   UNL A   1      40.738  22.327  28.177  1.00  0.00    -0.376 OA
BRANCH   3   4
ATOM      4  C   UNL A   1      40.589  21.391  27.125  1.00  0.00     0.202 C 
BRANCH   4   5
ATOM      5  C   UNL A   1      39.808  21.692  25.834  1.00  0.00     0.261 C 
BRANCH   5   6
ATOM      6  O   UNL A   1      38.386  21.560  25.883  1.00  0.00    -0.460 OA
BRANCH   6   7
ATOM      7  C   UNL A   1      37.839  20.580  25.143  1.00  0.00     0.330 C 
ATOM      8  O   UNL A   1      38.358  19.511  24.856  1.00  0.00    -0.247 OA
BRANCH   7   9
ATOM      9  C   UNL A   1      36.423  20.876  24.824  1.00  0.00     0.094 C 
ATOM     10  C   UNL A   1      35.803  22.060  24.980  1.00  0.00     0.018 C 
BRANCH  10  11
ATOM     11  C   UNL A   1      34.386  22.251  24.606  1.00  0.00     0.006 A 
ATOM     12  C   UNL A   1      33.291  21.855  25.392  1.00  0.00     0.050 A 
ATOM     13  C   UNL A   1      32.006  22.300  25.065  1.00  0.00     0.034 A 
ATOM     14  C   UNL A   1      31.820  22.966  23.870  1.00  0.00     0.112 A 
ATOM     15  C   UNL A   1      34.065  22.877  23.398  1.00  0.00     0.119 A 
ATOM     16  N   UNL A   1      32.816  23.227  23.007  1.00  0.00    -0.264 NA
BRANCH  12  17
ATOM     17  C   UNL A   1      33.463  20.999  26.590  1.00  0.00     0.252 C 
ATOM     18  N   UNL A   1      33.240  19.642  26.530  1.00  0.00    -0.349 N 
ATOM     19  H   UNL A   1      33.471  19.167  27.362  1.00  0.00     0.164 HD
ATOM     20  O   UNL A   1      33.833  21.502  27.647  1.00  0.00    -0.269 OA
BRANCH  18  21
ATOM     21  C   UNL A   1      32.723  18.761  25.470  1.00  0.00     0.082 C 
ATOM     22  C   UNL A   1      32.645  17.346  26.053  1.00  0.00     0.031 C 
BRANCH  21  23
ATOM     23  C   UNL A   1      33.588  18.839  24.183  1.00  0.00     0.008 C 
ATOM     24  C   UNL A   1      34.375  17.543  23.932  1.00  0.00     0.010 C 
BRANCH  23  25
ATOM     25  C   UNL A   1      32.762  19.211  22.928  1.00  0.00     0.002 C 
ATOM     26  C   UNL A   1      32.134  18.040  22.180  1.00  0.00     0.004 C 
ENDBRANCH  23  25
ENDBRANCH  21  23
ENDBRANCH  18  21
ENDBRANCH  12  17
ENDBRANCH  10  11
ENDBRANCH   7   9
ENDBRANCH   6   7
ENDBRANCH   5   6
ENDBRANCH   4   5
ENDBRANCH   3   4
ENDBRANCH   2   3
ENDBRANCH   1   2
BRANCH   1  27
ATOM     27  O   UNL A   1      40.952  25.131  27.339  1.00  0.00    -0.377 OA
BRANCH  27  28
ATOM     28  C   UNL A   1      39.890  26.021  27.688  1.00  0.00     0.188 C 
BRANCH  28  29
ATOM     29  C   UNL A   1      39.730  26.629  29.104  1.00  0.00     0.188 C 
BRANCH  29  30
ATOM     30  O   UNL A   1      39.750  28.046  29.154  1.00  0.00    -0.376 OA
BRANCH  30  31
ATOM     31  C   UNL A   1      38.875  28.747  28.290  1.00  0.00     0.202 C 
BRANCH  31  32
ATOM     32  C   UNL A   1      37.589  29.294  28.923  1.00  0.00     0.261 C 
BRANCH  32  33
ATOM     33  O   UNL A   1      37.727  29.878  30.226  1.00  0.00    -0.460 OA
BRANCH  33  34
ATOM     34  C   UNL A   1      37.107  31.060  30.438  1.00  0.00     0.338 C 
ATOM     35  O   UNL A   1      35.966  31.356  30.117  1.00  0.00    -0.246 OA
BRANCH  34  36
ATOM     36  C   UNL A   1      37.988  31.878  31.296  1.00  0.00     0.060 A 
ATOM     37  C   UNL A   1      37.648  33.213  31.554  1.00  0.00     0.016 A 
ATOM     38  C   UNL A   1      39.137  31.318  31.859  1.00  0.00     0.016 A 
ATOM     39  C   UNL A   1      38.478  34.002  32.353  1.00  0.00     0.010 A 
ATOM     40  C   UNL A   1      39.976  32.113  32.643  1.00  0.00     0.010 A 
ATOM     41  C   UNL A   1      39.667  33.469  32.867  1.00  0.00    -0.014 A 
BRANCH  41  42
ATOM     42  C   UNL A   1      40.687  34.367  33.464  1.00  0.00     0.031 A 
ATOM     43  C   UNL A   1      40.604  34.657  34.937  1.00  0.00     0.074 A 
ATOM     44  C   UNL A   1      41.671  34.906  32.722  1.00  0.00     0.049 A 
ATOM     45  N   UNL A   1      41.337  35.450  35.675  1.00  0.00    -0.248 NA
ATOM     46  C   UNL A   1      39.538  33.961  35.671  1.00  0.00     0.031 C 
ATOM     47  C   UNL A   1      41.889  34.658  31.300  1.00  0.00     0.029 A 
ATOM     48  N   UNL A   1      42.671  35.780  33.070  1.00  0.00    -0.354 N 
ATOM     49  C   UNL A   1      40.812  35.360  36.961  1.00  0.00     0.074 A 
ATOM     50  C   UNL A   1      39.673  34.468  36.886  1.00  0.00     0.031 C 
ATOM     51  C   UNL A   1      42.961  35.363  30.895  1.00  0.00     0.029 A 
ATOM     52  C   UNL A   1      43.475  36.147  32.017  1.00  0.00     0.049 A 
ATOM     53  H   UNL A   1      42.800  36.113  33.988  1.00  0.00     0.167 HD
ATOM     54  C   UNL A   1      41.243  35.959  38.099  1.00  0.00     0.034 A 
ATOM     55  C   UNL A   1      44.492  37.031  31.964  1.00  0.00     0.034 A 
ATOM     56  C   UNL A   1      42.369  36.858  38.148  1.00  0.00     0.049 A 
ATOM     57  C   UNL A   1      44.889  37.773  33.219  1.00  0.00     0.074 A 
ATOM     58  C   UNL A   1      42.909  37.503  39.248  1.00  0.00     0.029 A 
ATOM     59  N   UNL A   1      43.117  37.263  37.047  1.00  0.00    -0.354 N 
ATOM     60  N   UNL A   1      44.396  37.674  34.433  1.00  0.00    -0.248 NA
ATOM     61  C   UNL A   1      45.981  38.747  33.094  1.00  0.00     0.031 C 
ATOM     62  C   UNL A   1      43.916  38.366  38.799  1.00  0.00     0.029 A 
ATOM     63  C   UNL A   1      44.078  38.186  37.435  1.00  0.00     0.049 A 
ATOM     64  H   UNL A   1      42.982  36.941  36.127  1.00  0.00     0.167 HD
ATOM     65  C   UNL A   1      45.147  38.544  35.222  1.00  0.00     0.074 A 
ATOM     66  C   UNL A   1      46.127  39.153  34.347  1.00  0.00     0.031 C 
ATOM     67  C   UNL A   1      45.042  38.805  36.552  1.00  0.00     0.034 A 
BRANCH  54  68
ATOM     68  C   UNL A   1      40.440  35.710  39.356  1.00  0.00     0.023 A 
ATOM     69  C   UNL A   1      40.706  34.622  40.207  1.00  0.00     0.031 A 
ATOM     70  C   UNL A   1      39.347  36.537  39.672  1.00  0.00     0.131 A 
ATOM     71  C   UNL A   1      39.833  34.332  41.266  1.00  0.00     0.055 A 
ATOM     72  C   UNL A   1      38.542  36.300  40.788  1.00  0.00     0.041 A 
ATOM     73  F   UNL A   1      39.025  37.576  38.886  1.00  0.00    -0.206 F 
ATOM     74  C   UNL A   1      38.769  35.179  41.580  1.00  0.00     0.022 A 
BRANCH  71  75
ATOM     75  S   UNL A   1      39.991  32.728  42.101  1.00  0.00     0.124 S 
ATOM     76  O   UNL A   1      40.385  31.858  40.995  1.00  0.00    -0.237 OA
ATOM     77  O   UNL A   1      41.017  32.993  43.102  1.00  0.00    -0.237 OA
ATOM     78  O   UNL A   1      38.651  32.483  42.628  1.00  0.00    -0.744 OA
ENDBRANCH  71  75
ENDBRANCH  54  68
BRANCH  55  79
ATOM     79  C   UNL A   1      45.201  37.286  30.676  1.00  0.00     0.023 A 
ATOM     80  C   UNL A   1      44.828  38.357  29.848  1.00  0.00     0.031 A 
ATOM     81  C   UNL A   1      46.235  36.442  30.236  1.00  0.00     0.131 A 
ATOM     82  C   UNL A   1      45.460  38.535  28.607  1.00  0.00     0.055 A 
ATOM     83  C   UNL A   1      46.899  36.656  29.027  1.00  0.00     0.041 A 
ATOM     84  F   UNL A   1      46.626  35.398  30.985  1.00  0.00    -0.206 F 
ATOM     85  C   UNL A   1      46.506  37.703  28.199  1.00  0.00     0.022 A 
BRANCH  82  86
ATOM     86  S   UNL A   1      44.848  39.834  27.498  1.00  0.00     0.124 S 
ATOM     87  O   UNL A   1      46.092  40.387  26.976  1.00  0.00    -0.237 OA
ATOM     88  O   UNL A   1      44.038  39.070  26.554  1.00  0.00    -0.237 OA
ATOM     89  O   UNL A   1      44.096  40.715  28.388  1.00  0.00    -0.744 OA
ENDBRANCH  82  86
ENDBRANCH  55  79
BRANCH  67  90
ATOM     90  C   UNL A   1      46.051  39.757  37.153  1.00  0.00     0.023 A 
ATOM     91  C   UNL A   1      45.755  41.112  37.383  1.00  0.00     0.031 A 
ATOM     92  C   UNL A   1      47.335  39.296  37.501  1.00  0.00     0.131 A 
ATOM     93  C   UNL A   1      46.746  41.970  37.887  1.00  0.00     0.055 A 
ATOM     94  C   UNL A   1      48.293  40.138  38.069  1.00  0.00     0.041 A 
ATOM     95  F   UNL A   1      47.678  38.014  37.301  1.00  0.00    -0.206 F 
ATOM     96  C   UNL A   1      48.005  41.487  38.251  1.00  0.00     0.022 A 
BRANCH  93  97
ATOM     97  S   UNL A   1      46.405  43.750  37.961  1.00  0.00     0.124 S 
ATOM     98  O   UNL A   1      46.180  44.074  36.556  1.00  0.00    -0.237 OA
ATOM     99  O   UNL A   1      45.229  43.808  38.824  1.00  0.00    -0.237 OA
ATOM    100  O   UNL A   1      47.625  44.311  38.538  1.00  0.00    -0.744 OA
ENDBRANCH  93  97
ENDBRANCH  67  90
ENDBRANCH  41  42
ENDBRANCH  34  36
ENDBRANCH  33  34
ENDBRANCH  32  33
ENDBRANCH  31  32
ENDBRANCH  30  31
ENDBRANCH  29  30
ENDBRANCH  28  29
ENDBRANCH  27  28
ENDBRANCH   1  27
TORSDOF 28
ENDMDL
MODEL 3
REMARK VINA RESULT:      -7.2      2.236      7.433
REMARK SMILES CC[C@H](C)[C@@H](C)NC(=O)c1ccncc1/C=C/C(=O)OCCOCCOCCOCCOC(=O)c1ccc(-c2c3nc(c(-c4cc(S(=O)(=O)[O-])ccc4F)c4ccc([nH]4)c(-c4cc(S(=O)(=O)[O-])ccc4F)c4nc(c(-c5cc(S(=O)(=O)[O-])ccc5F)c5ccc2[nH]5)C=C4)C=C3)cc1
REMARK SMILES IDX 25 1 24 2 23 3 22 4 21 5 20 6 18 7 19 8 17 9 16 10 15 11
REMARK SMILES IDX 10 12 11 13 12 14 14 15 13 16 8 17 7 18 9 20 5 21 6 22 3 23
REMARK SMILES IDX 4 24 2 25 1 26 26 27 27 28 28 29 29 30 30 31 31 32 32 33
REMARK SMILES IDX 33 34 34 35 35 36 36 37 97 38 37 39 96 40 38 41 39 42 40 43
REMARK SMILES IDX 90 44 41 45 95 46 89 47 91 48 42 49 94 50 88 51 87 52 43 54
REMARK SMILES IDX 75 55 55 56 74 57 56 58 59 59 73 60 92 61 57 62 58 63 72 65
REMARK SMILES IDX 93 66 60 67 44 68 45 69 53 70 46 71 52 72 54 73 51 74 47 75
REMARK SMILES IDX 48 76 49 77 50 78 76 79 77 80 85 81 78 82 84 83 86 84 83 85
REMARK SMILES IDX 79 86 80 87 81 88 82 89 61 90 62 91 70 92 63 93 69 94 71 95
REMARK SMILES IDX 68 96 64 97 65 98 66 99 67 100
REMARK H PARENT 7 19 91 53 59 64
REMARK Flexibility Score: inf
ROOT
ATOM      1  C   UNL A   1      41.145  25.317  28.420  1.00  0.00     0.188 C 
ENDROOT
BRANCH   1   2
ATOM      2  C   UNL A   1      41.253  23.799  28.180  1.00  0.00     0.188 C 
BRANCH   2   3
ATOM      3  O   UNL A   1      40.030  23.182  27.836  1.00  0.00    -0.376 OA
BRANCH   3   4
ATOM      4  C   UNL A   1      40.001  21.938  27.162  1.00  0.00     0.202 C 
BRANCH   4   5
ATOM      5  C   UNL A   1      39.270  21.719  25.826  1.00  0.00     0.261 C 
BRANCH   5   6
ATOM      6  O   UNL A   1      37.852  21.896  25.819  1.00  0.00    -0.460 OA
BRANCH   6   7
ATOM      7  C   UNL A   1      37.396  23.156  25.708  1.00  0.00     0.330 C 
ATOM      8  O   UNL A   1      38.056  24.179  25.813  1.00  0.00    -0.247 OA
BRANCH   7   9
ATOM      9  C   UNL A   1      35.980  23.178  25.273  1.00  0.00     0.094 C 
ATOM     10  C   UNL A   1      35.030  24.031  25.700  1.00  0.00     0.018 C 
BRANCH  10  11
ATOM     11  C   UNL A   1      33.647  23.977  25.180  1.00  0.00     0.006 A 
ATOM     12  C   UNL A   1      32.641  23.127  25.671  1.00  0.00     0.050 A 
ATOM     13  C   UNL A   1      31.313  23.329  25.280  1.00  0.00     0.034 A 
ATOM     14  C   UNL A   1      31.049  24.239  24.276  1.00  0.00     0.112 A 
ATOM     15  C   UNL A   1      33.265  24.821  24.134  1.00  0.00     0.119 A 
ATOM     16  N   UNL A   1      32.002  24.960  23.663  1.00  0.00    -0.264 NA
BRANCH  12  17
ATOM     17  C   UNL A   1      32.943  22.036  26.628  1.00  0.00     0.252 C 
ATOM     18  N   UNL A   1      33.383  20.808  26.188  1.00  0.00    -0.349 N 
ATOM     19  H   UNL A   1      33.634  20.195  26.916  1.00  0.00     0.164 HD
ATOM     20  O   UNL A   1      32.820  22.235  27.833  1.00  0.00    -0.269 OA
BRANCH  18  21
ATOM     21  C   UNL A   1      33.551  20.232  24.844  1.00  0.00     0.082 C 
ATOM     22  C   UNL A   1      32.481  20.859  23.944  1.00  0.00     0.031 C 
BRANCH  21  23
ATOM     23  C   UNL A   1      33.487  18.680  24.869  1.00  0.00     0.008 C 
ATOM     24  C   UNL A   1      32.416  18.127  23.916  1.00  0.00     0.010 C 
BRANCH  23  25
ATOM     25  C   UNL A   1      34.855  18.020  24.574  1.00  0.00     0.002 C 
ATOM     26  C   UNL A   1      34.896  16.502  24.700  1.00  0.00     0.004 C 
ENDBRANCH  23  25
ENDBRANCH  21  23
ENDBRANCH  18  21
ENDBRANCH  12  17
ENDBRANCH  10  11
ENDBRANCH   7   9
ENDBRANCH   6   7
ENDBRANCH   5   6
ENDBRANCH   4   5
ENDBRANCH   3   4
ENDBRANCH   2   3
ENDBRANCH   1   2
BRANCH   1  27
ATOM     27  O   UNL A   1      40.858  26.133  27.299  1.00  0.00    -0.377 OA
BRANCH  27  28
ATOM     28  C   UNL A   1      39.947  27.226  27.423  1.00  0.00     0.188 C 
BRANCH  28  29
ATOM     29  C   UNL A   1      39.194  27.553  28.737  1.00  0.00     0.188 C 
BRANCH  29  30
ATOM     30  O   UNL A   1      38.885  28.924  28.926  1.00  0.00    -0.376 OA
BRANCH  30  31
ATOM     31  C   UNL A   1      37.584  29.359  28.579  1.00  0.00     0.202 C 
BRANCH  31  32
ATOM     32  C   UNL A   1      36.583  29.500  29.733  1.00  0.00     0.261 C 
BRANCH  32  33
ATOM     33  O   UNL A   1      37.036  29.049  31.018  1.00  0.00    -0.460 OA
BRANCH  33  34
ATOM     34  C   UNL A   1      37.622  29.967  31.819  1.00  0.00     0.338 C 
ATOM     35  O   UNL A   1      37.111  30.984  32.261  1.00  0.00    -0.246 OA
BRANCH  34  36
ATOM     36  C   UNL A   1      38.938  29.431  32.224  1.00  0.00     0.060 A 
ATOM     37  C   UNL A   1      40.048  30.285  32.252  1.00  0.00     0.016 A 
ATOM     38  C   UNL A   1      39.066  28.090  32.593  1.00  0.00     0.016 A 
ATOM     39  C   UNL A   1      41.300  29.790  32.620  1.00  0.00     0.010 A 
ATOM     40  C   UNL A   1      40.322  27.591  32.943  1.00  0.00     0.010 A 
ATOM     41  C   UNL A   1      41.452  28.431  32.927  1.00  0.00    -0.014 A 
BRANCH  41  42
ATOM     42  C   UNL A   1      42.810  27.840  33.033  1.00  0.00     0.031 A 
ATOM     43  C   UNL A   1      43.398  27.651  34.405  1.00  0.00     0.074 A 
ATOM     44  C   UNL A   1      43.504  27.471  31.942  1.00  0.00     0.049 A 
ATOM     45  N   UNL A   1      44.580  27.213  34.754  1.00  0.00    -0.248 NA
ATOM     46  C   UNL A   1      42.531  28.018  35.533  1.00  0.00     0.031 C 
ATOM     47  C   UNL A   1      43.021  27.553  30.566  1.00  0.00     0.029 A 
ATOM     48  N   UNL A   1      44.770  26.953  31.826  1.00  0.00    -0.354 N 
ATOM     49  C   UNL A   1      44.605  27.265  36.144  1.00  0.00     0.074 A 
ATOM     50  C   UNL A   1      43.334  27.817  36.564  1.00  0.00     0.031 C 
ATOM     51  C   UNL A   1      43.982  27.098  29.741  1.00  0.00     0.029 A 
ATOM     52  C   UNL A   1      45.161  26.736  30.526  1.00  0.00     0.049 A 
ATOM     53  H   UNL A   1      45.344  26.755  32.601  1.00  0.00     0.167 HD
ATOM     54  C   UNL A   1      45.592  26.880  36.990  1.00  0.00     0.034 A 
ATOM     55  C   UNL A   1      46.343  26.316  30.030  1.00  0.00     0.034 A 
ATOM     56  C   UNL A   1      46.858  26.349  36.550  1.00  0.00     0.049 A 
ATOM     57  C   UNL A   1      47.471  25.997  30.983  1.00  0.00     0.074 A 
ATOM     58  C   UNL A   1      47.921  25.906  37.318  1.00  0.00     0.029 A 
ATOM     59  N   UNL A   1      47.247  26.211  35.221  1.00  0.00    -0.354 N 
ATOM     60  N   UNL A   1      47.483  26.036  32.297  1.00  0.00    -0.248 NA
ATOM     61  C   UNL A   1      48.744  25.576  30.385  1.00  0.00     0.031 C 
ATOM     62  C   UNL A   1      48.981  25.592  36.460  1.00  0.00     0.029 A 
ATOM     63  C   UNL A   1      48.549  25.738  35.151  1.00  0.00     0.049 A 
ATOM     64  H   UNL A   1      46.679  26.419  34.445  1.00  0.00     0.167 HD
ATOM     65  C   UNL A   1      48.753  25.607  32.679  1.00  0.00     0.074 A 
ATOM     66  C   UNL A   1      49.473  25.310  31.459  1.00  0.00     0.031 C 
ATOM     67  C   UNL A   1      49.270  25.460  33.928  1.00  0.00     0.034 A 
BRANCH  54  68
ATOM     68  C   UNL A   1      45.356  27.097  38.468  1.00  0.00     0.023 A 
ATOM     69  C   UNL A   1      45.727  28.289  39.117  1.00  0.00     0.031 A 
ATOM     70  C   UNL A   1      44.811  26.066  39.256  1.00  0.00     0.131 A 
ATOM     71  C   UNL A   1      45.645  28.381  40.513  1.00  0.00     0.055 A 
ATOM     72  C   UNL A   1      44.638  26.204  40.634  1.00  0.00     0.041 A 
ATOM     73  F   UNL A   1      44.460  24.894  38.703  1.00  0.00    -0.206 F 
ATOM     74  C   UNL A   1      45.077  27.357  41.275  1.00  0.00     0.022 A 
BRANCH  71  75
ATOM     75  S   UNL A   1      46.473  29.771  41.337  1.00  0.00     0.124 S 
ATOM     76  O   UNL A   1      46.156  30.877  40.437  1.00  0.00    -0.237 OA
ATOM     77  O   UNL A   1      45.819  29.800  42.639  1.00  0.00    -0.237 OA
ATOM     78  O   UNL A   1      47.879  29.373  41.351  1.00  0.00    -0.744 OA
ENDBRANCH  71  75
ENDBRANCH  54  68
BRANCH  55  79
ATOM     79  C   UNL A   1      46.538  26.190  28.556  1.00  0.00     0.023 A 
ATOM     80  C   UNL A   1      47.056  27.256  27.803  1.00  0.00     0.031 A 
ATOM     81  C   UNL A   1      46.173  25.016  27.873  1.00  0.00     0.131 A 
ATOM     82  C   UNL A   1      47.164  27.140  26.408  1.00  0.00     0.055 A 
ATOM     83  C   UNL A   1      46.335  24.886  26.492  1.00  0.00     0.041 A 
ATOM     84  F   UNL A   1      45.665  23.970  28.543  1.00  0.00    -0.206 F 
ATOM     85  C   UNL A   1      46.824  25.956  25.749  1.00  0.00     0.022 A 
BRANCH  82  86
ATOM     86  S   UNL A   1      47.692  28.590  25.454  1.00  0.00     0.124 S 
ATOM     87  O   UNL A   1      48.869  28.075  24.762  1.00  0.00    -0.237 OA
ATOM     88  O   UNL A   1      46.521  28.851  24.624  1.00  0.00    -0.237 OA
ATOM     89  O   UNL A   1      47.960  29.594  26.481  1.00  0.00    -0.744 OA
ENDBRANCH  82  86
ENDBRANCH  55  79
BRANCH  67  90
ATOM     90  C   UNL A   1      50.672  24.904  34.036  1.00  0.00     0.023 A 
ATOM     91  C   UNL A   1      50.939  23.527  33.940  1.00  0.00     0.031 A 
ATOM     92  C   UNL A   1      51.761  25.772  34.242  1.00  0.00     0.131 A 
ATOM     93  C   UNL A   1      52.251  23.055  34.108  1.00  0.00     0.055 A 
ATOM     94  C   UNL A   1      53.072  25.304  34.337  1.00  0.00     0.041 A 
ATOM     95  F   UNL A   1      51.568  27.097  34.348  1.00  0.00    -0.206 F 
ATOM     96  C   UNL A   1      53.321  23.935  34.285  1.00  0.00     0.022 A 
BRANCH  93  97
ATOM     97  S   UNL A   1      52.529  21.264  34.201  1.00  0.00     0.124 S 
ATOM     98  O   UNL A   1      52.709  20.913  32.796  1.00  0.00    -0.237 OA
ATOM     99  O   UNL A   1      53.722  21.176  35.038  1.00  0.00    -0.237 OA
ATOM    100  O   UNL A   1      51.303  20.758  34.815  1.00  0.00    -0.744 OA
ENDBRANCH  93  97
ENDBRANCH  67  90
ENDBRANCH  41  42
ENDBRANCH  34  36
ENDBRANCH  33  34
ENDBRANCH  32  33
ENDBRANCH  31  32
ENDBRANCH  30  31
ENDBRANCH  29  30
ENDBRANCH  28  29
ENDBRANCH  27  28
ENDBRANCH   1  27
TORSDOF 28
ENDMDL
