MODEL 1
REMARK VINA RESULT:     -10.7      0.000      0.000
REMARK SMILES O=C(OCCOCCOCCOCCOC(=O)c1ccc(-c2c3nc(c(-c4cc(S(=O)(=O)[O-])ccc4F)c4ccc([nH]4)c(-c4cc(S(=O)(=O)[O-])ccc4F)c4nc(c(-c5cc(S(=O)(=O)[O-])ccc5F)c5ccc2[nH]5)C=C4)C=C3)cc1)C1=Cc2cc(OC(F)(F)F)ccc2O[C@@H]1C(F)(F)F
REMARK SMILES IDX 10 1 9 2 8 3 7 4 6 5 5 6 4 7 3 8 2 9 1 10 81 11 82 12 95 13
REMARK SMILES IDX 83 14 94 15 84 16 93 17 85 18 92 19 91 20 96 21 97 22 98 23
REMARK SMILES IDX 99 24 86 25 87 26 88 27 89 28 90 29 11 30 12 31 13 32 14 33
REMARK SMILES IDX 15 34 16 35 17 36 18 37 19 38 80 39 20 40 79 41 21 42 22 43
REMARK SMILES IDX 23 44 73 45 24 46 78 47 72 48 74 49 25 50 77 51 71 52 70 53
REMARK SMILES IDX 26 55 58 56 38 57 57 58 39 59 42 60 56 61 75 62 40 63 41 64
REMARK SMILES IDX 55 66 76 67 43 68 27 69 28 70 36 71 29 72 35 73 37 74 34 75
REMARK SMILES IDX 30 76 31 77 32 78 33 79 59 80 60 81 68 82 61 83 67 84 69 85
REMARK SMILES IDX 66 86 62 87 63 88 64 89 65 90 44 91 45 92 53 93 46 94 52 95
REMARK SMILES IDX 54 96 51 97 47 98 48 99 49 100 50 101
REMARK H PARENT 74 54 42 65
REMARK Flexibility Score: inf
ROOT
ATOM      1  C   UNL A   1      35.959  21.793  25.791  1.00  0.00     0.188 C 
ENDROOT
BRANCH   1   2
ATOM      2  O   UNL A   1      34.705  22.412  25.524  1.00  0.00    -0.377 OA
BRANCH   2   3
ATOM      3  C   UNL A   1      34.720  23.419  24.522  1.00  0.00     0.188 C 
BRANCH   3   4
ATOM      4  C   UNL A   1      34.096  22.940  23.218  1.00  0.00     0.188 C 
BRANCH   4   5
ATOM      5  O   UNL A   1      34.045  23.940  22.214  1.00  0.00    -0.376 OA
BRANCH   5   6
ATOM      6  C   UNL A   1      32.843  24.682  22.058  1.00  0.00     0.202 C 
BRANCH   6   7
ATOM      7  C   UNL A   1      33.019  26.177  21.791  1.00  0.00     0.261 C 
BRANCH   7   8
ATOM      8  O   UNL A   1      33.837  26.811  22.791  1.00  0.00    -0.460 OA
BRANCH   8   9
ATOM      9  C   UNL A   1      33.475  28.063  23.160  1.00  0.00     0.338 C 
ATOM     10  O   UNL A   1      33.943  29.069  22.647  1.00  0.00    -0.246 OA
BRANCH   9  11
ATOM     11  C   UNL A   1      32.563  28.091  24.342  1.00  0.00     0.087 C 
ATOM     12  C   UNL A   1      31.838  29.225  24.369  1.00  0.00     0.027 C 
ATOM     13  C   UNL A   1      31.970  26.766  24.763  1.00  0.00     0.316 C 
ATOM     14  C   UNL A   1      30.423  29.028  24.037  1.00  0.00     0.021 A 
ATOM     15  O   UNL A   1      30.531  26.677  24.634  1.00  0.00    -0.475 OA
ATOM     16  C   UNL A   1      29.649  30.092  23.560  1.00  0.00     0.058 A 
ATOM     17  C   UNL A   1      29.886  27.742  24.067  1.00  0.00     0.128 A 
ATOM     18  C   UNL A   1      28.384  29.855  23.010  1.00  0.00     0.130 A 
ATOM     19  C   UNL A   1      28.656  27.495  23.468  1.00  0.00     0.051 A 
ATOM     20  C   UNL A   1      27.935  28.540  22.885  1.00  0.00     0.050 A 
BRANCH  13  21
ATOM     21  C   UNL A   1      32.447  26.357  26.158  1.00  0.00     0.430 C 
ATOM     22  F   UNL A   1      33.695  26.821  26.409  1.00  0.00    -0.167 F 
ATOM     23  F   UNL A   1      31.645  26.885  27.120  1.00  0.00    -0.167 F 
ATOM     24  F   UNL A   1      32.458  25.019  26.339  1.00  0.00    -0.167 F 
ENDBRANCH  13  21
BRANCH  18  25
ATOM     25  O   UNL A   1      27.695  30.973  22.636  1.00  0.00    -0.406 OA
BRANCH  25  26
ATOM     26  C   UNL A   1      28.138  31.674  21.478  1.00  0.00     0.573 C 
ATOM     27  F   UNL A   1      29.430  32.024  21.617  1.00  0.00    -0.132 F 
ATOM     28  F   UNL A   1      27.985  30.941  20.353  1.00  0.00    -0.132 F 
ATOM     29  F   UNL A   1      27.393  32.791  21.338  1.00  0.00    -0.132 F 
ENDBRANCH  25  26
ENDBRANCH  18  25
ENDBRANCH   9  11
ENDBRANCH   8   9
ENDBRANCH   7   8
ENDBRANCH   6   7
ENDBRANCH   5   6
ENDBRANCH   4   5
ENDBRANCH   3   4
ENDBRANCH   2   3
ENDBRANCH   1   2
BRANCH   1  30
ATOM     30  C   UNL A   1      36.755  21.279  24.567  1.00  0.00     0.188 C 
BRANCH  30  31
ATOM     31  O   UNL A   1      37.753  20.265  24.648  1.00  0.00    -0.376 OA
BRANCH  31  32
ATOM     32  C   UNL A   1      38.612  20.216  25.768  1.00  0.00     0.202 C 
BRANCH  32  33
ATOM     33  C   UNL A   1      39.772  19.213  25.663  1.00  0.00     0.261 C 
BRANCH  33  34
ATOM     34  O   UNL A   1      41.076  19.813  25.574  1.00  0.00    -0.460 OA
BRANCH  34  35
ATOM     35  C   UNL A   1      41.737  19.962  26.759  1.00  0.00     0.338 C 
ATOM     36  O   UNL A   1      42.372  19.118  27.338  1.00  0.00    -0.246 OA
BRANCH  35  37
ATOM     37  C   UNL A   1      41.729  21.407  27.150  1.00  0.00     0.060 A 
ATOM     38  C   UNL A   1      41.309  22.336  26.188  1.00  0.00     0.016 A 
ATOM     39  C   UNL A   1      42.071  21.849  28.433  1.00  0.00     0.016 A 
ATOM     40  C   UNL A   1      41.256  23.701  26.488  1.00  0.00     0.010 A 
ATOM     41  C   UNL A   1      42.033  23.221  28.731  1.00  0.00     0.010 A 
ATOM     42  C   UNL A   1      41.660  24.159  27.748  1.00  0.00    -0.014 A 
BRANCH  42  43
ATOM     43  C   UNL A   1      41.964  25.605  27.940  1.00  0.00     0.031 A 
ATOM     44  C   UNL A   1      43.270  26.114  27.381  1.00  0.00     0.074 A 
ATOM     45  C   UNL A   1      41.117  26.459  28.546  1.00  0.00     0.049 A 
ATOM     46  N   UNL A   1      43.809  27.301  27.464  1.00  0.00    -0.248 NA
ATOM     47  C   UNL A   1      44.075  25.140  26.625  1.00  0.00     0.031 C 
ATOM     48  C   UNL A   1      39.795  26.118  29.067  1.00  0.00     0.029 A 
ATOM     49  N   UNL A   1      41.251  27.799  28.831  1.00  0.00    -0.354 N 
ATOM     50  C   UNL A   1      45.019  27.215  26.781  1.00  0.00     0.074 A 
ATOM     51  C   UNL A   1      45.147  25.851  26.319  1.00  0.00     0.031 C 
ATOM     52  C   UNL A   1      39.248  27.216  29.622  1.00  0.00     0.029 A 
ATOM     53  C   UNL A   1      40.193  28.330  29.535  1.00  0.00     0.049 A 
ATOM     54  H   UNL A   1      42.033  28.330  28.555  1.00  0.00     0.167 HD
ATOM     55  C   UNL A   1      45.938  28.183  26.555  1.00  0.00     0.034 A 
ATOM     56  C   UNL A   1      40.024  29.558  30.071  1.00  0.00     0.034 A 
ATOM     57  C   UNL A   1      45.811  29.538  27.026  1.00  0.00     0.049 A 
ATOM     58  C   UNL A   1      41.118  30.595  29.897  1.00  0.00     0.074 A 
ATOM     59  C   UNL A   1      46.683  30.597  26.845  1.00  0.00     0.029 A 
ATOM     60  N   UNL A   1      44.752  30.020  27.784  1.00  0.00    -0.354 N 
ATOM     61  N   UNL A   1      42.255  30.499  29.248  1.00  0.00    -0.248 NA
ATOM     62  C   UNL A   1      40.899  31.908  30.525  1.00  0.00     0.031 C 
ATOM     63  C   UNL A   1      46.192  31.693  27.559  1.00  0.00     0.029 A 
ATOM     64  C   UNL A   1      44.969  31.349  28.111  1.00  0.00     0.049 A 
ATOM     65  H   UNL A   1      43.963  29.494  28.050  1.00  0.00     0.167 HD
ATOM     66  C   UNL A   1      42.866  31.749  29.361  1.00  0.00     0.074 A 
ATOM     67  C   UNL A   1      41.966  32.584  30.125  1.00  0.00     0.031 C 
ATOM     68  C   UNL A   1      44.063  32.171  28.876  1.00  0.00     0.034 A 
BRANCH  55  69
ATOM     69  C   UNL A   1      47.193  27.789  25.816  1.00  0.00     0.023 A 
ATOM     70  C   UNL A   1      47.339  27.998  24.433  1.00  0.00     0.031 A 
ATOM     71  C   UNL A   1      48.255  27.181  26.508  1.00  0.00     0.131 A 
ATOM     72  C   UNL A   1      48.495  27.549  23.778  1.00  0.00     0.055 A 
ATOM     73  C   UNL A   1      49.435  26.807  25.863  1.00  0.00     0.041 A 
ATOM     74  F   UNL A   1      48.159  26.932  27.823  1.00  0.00    -0.206 F 
ATOM     75  C   UNL A   1      49.556  26.979  24.488  1.00  0.00     0.022 A 
BRANCH  72  76
ATOM     76  S   UNL A   1      48.543  27.603  21.966  1.00  0.00     0.124 S 
ATOM     77  O   UNL A   1      49.682  28.485  21.728  1.00  0.00    -0.237 OA
ATOM     78  O   UNL A   1      48.735  26.202  21.613  1.00  0.00    -0.237 OA
ATOM     79  O   UNL A   1      47.243  28.166  21.606  1.00  0.00    -0.744 OA
ENDBRANCH  72  76
ENDBRANCH  55  69
BRANCH  56  80
ATOM     80  C   UNL A   1      38.813  29.886  30.887  1.00  0.00     0.023 A 
ATOM     81  C   UNL A   1      37.828  30.769  30.414  1.00  0.00     0.031 A 
ATOM     82  C   UNL A   1      38.677  29.402  32.201  1.00  0.00     0.131 A 
ATOM     83  C   UNL A   1      36.790  31.187  31.265  1.00  0.00     0.055 A 
ATOM     84  C   UNL A   1      37.609  29.770  33.022  1.00  0.00     0.041 A 
ATOM     85  F   UNL A   1      39.592  28.564  32.715  1.00  0.00    -0.206 F 
ATOM     86  C   UNL A   1      36.665  30.682  32.560  1.00  0.00     0.022 A 
BRANCH  83  87
ATOM     87  S   UNL A   1      35.667  32.496  30.695  1.00  0.00     0.124 S 
ATOM     88  O   UNL A   1      36.351  33.696  31.163  1.00  0.00    -0.237 OA
ATOM     89  O   UNL A   1      35.661  32.280  29.252  1.00  0.00    -0.237 OA
ATOM     90  O   UNL A   1      34.411  32.186  31.376  1.00  0.00    -0.744 OA
ENDBRANCH  83  87
ENDBRANCH  56  80
BRANCH  68  91
ATOM     91  C   UNL A   1      44.440  33.616  29.108  1.00  0.00     0.023 A 
ATOM     92  C   UNL A   1      43.968  34.651  28.281  1.00  0.00     0.031 A 
ATOM     93  C   UNL A   1      45.285  33.962  30.179  1.00  0.00     0.131 A 
ATOM     94  C   UNL A   1      44.389  35.972  28.504  1.00  0.00     0.055 A 
ATOM     95  C   UNL A   1      45.647  35.285  30.436  1.00  0.00     0.041 A 
ATOM     96  F   UNL A   1      45.767  33.016  31.001  1.00  0.00    -0.206 F 
ATOM     97  C   UNL A   1      45.210  36.297  29.588  1.00  0.00     0.022 A 
BRANCH  94  98
ATOM     98  S   UNL A   1      43.929  37.248  27.301  1.00  0.00     0.124 S 
ATOM     99  O   UNL A   1      42.899  36.571  26.521  1.00  0.00    -0.237 OA
ATOM    100  O   UNL A   1      43.467  38.334  28.160  1.00  0.00    -0.237 OA
ATOM    101  O   UNL A   1      45.176  37.512  26.585  1.00  0.00    -0.744 OA
ENDBRANCH  94  98
ENDBRANCH  68  91
ENDBRANCH  42  43
ENDBRANCH  35  37
ENDBRANCH  34  35
ENDBRANCH  33  34
ENDBRANCH  32  33
ENDBRANCH  31  32
ENDBRANCH  30  31
ENDBRANCH   1  30
TORSDOF 26
ENDMDL
MODEL 2
REMARK VINA RESULT:     -10.4      1.899      2.187
REMARK SMILES O=C(OCCOCCOCCOCCOC(=O)c1ccc(-c2c3nc(c(-c4cc(S(=O)(=O)[O-])ccc4F)c4ccc([nH]4)c(-c4cc(S(=O)(=O)[O-])ccc4F)c4nc(c(-c5cc(S(=O)(=O)[O-])ccc5F)c5ccc2[nH]5)C=C4)C=C3)cc1)C1=Cc2cc(OC(F)(F)F)ccc2O[C@@H]1C(F)(F)F
REMARK SMILES IDX 10 1 9 2 8 3 7 4 6 5 5 6 4 7 3 8 2 9 1 10 81 11 82 12 95 13
REMARK SMILES IDX 83 14 94 15 84 16 93 17 85 18 92 19 91 20 96 21 97 22 98 23
REMARK SMILES IDX 99 24 86 25 87 26 88 27 89 28 90 29 11 30 12 31 13 32 14 33
REMARK SMILES IDX 15 34 16 35 17 36 18 37 19 38 80 39 20 40 79 41 21 42 22 43
REMARK SMILES IDX 23 44 73 45 24 46 78 47 72 48 74 49 25 50 77 51 71 52 70 53
REMARK SMILES IDX 26 55 58 56 38 57 57 58 39 59 42 60 56 61 75 62 40 63 41 64
REMARK SMILES IDX 55 66 76 67 43 68 27 69 28 70 36 71 29 72 35 73 37 74 34 75
REMARK SMILES IDX 30 76 31 77 32 78 33 79 59 80 60 81 68 82 61 83 67 84 69 85
REMARK SMILES IDX 66 86 62 87 63 88 64 89 65 90 44 91 45 92 53 93 46 94 52 95
REMARK SMILES IDX 54 96 51 97 47 98 48 99 49 100 50 101
REMARK H PARENT 74 54 42 65
REMARK Flexibility Score: inf
ROOT
ATOM      1  C   UNL A   1      36.305  22.618  25.634  1.00  0.00     0.188 C 
ENDROOT
BRANCH   1   2
ATOM      2  O   UNL A   1      35.121  23.385  25.451  1.00  0.00    -0.377 OA
BRANCH   2   3
ATOM      3  C   UNL A   1      34.997  24.032  24.192  1.00  0.00     0.188 C 
BRANCH   3   4
ATOM      4  C   UNL A   1      33.865  23.452  23.357  1.00  0.00     0.188 C 
BRANCH   4   5
ATOM      5  O   UNL A   1      33.784  24.002  22.052  1.00  0.00    -0.376 OA
BRANCH   5   6
ATOM      6  C   UNL A   1      32.640  24.774  21.713  1.00  0.00     0.202 C 
BRANCH   6   7
ATOM      7  C   UNL A   1      32.858  26.286  21.650  1.00  0.00     0.261 C 
BRANCH   7   8
ATOM      8  O   UNL A   1      33.808  26.736  22.633  1.00  0.00    -0.460 OA
BRANCH   8   9
ATOM      9  C   UNL A   1      33.630  27.991  23.111  1.00  0.00     0.338 C 
ATOM     10  O   UNL A   1      34.241  28.959  22.682  1.00  0.00    -0.246 OA
BRANCH   9  11
ATOM     11  C   UNL A   1      32.729  28.050  24.300  1.00  0.00     0.087 C 
ATOM     12  C   UNL A   1      31.998  29.180  24.301  1.00  0.00     0.027 C 
ATOM     13  C   UNL A   1      32.147  26.734  24.766  1.00  0.00     0.316 C 
ATOM     14  C   UNL A   1      30.581  28.965  23.988  1.00  0.00     0.021 A 
ATOM     15  O   UNL A   1      30.707  26.634  24.654  1.00  0.00    -0.475 OA
ATOM     16  C   UNL A   1      29.796  30.011  23.487  1.00  0.00     0.058 A 
ATOM     17  C   UNL A   1      30.052  27.678  24.061  1.00  0.00     0.128 A 
ATOM     18  C   UNL A   1      28.528  29.750  22.955  1.00  0.00     0.130 A 
ATOM     19  C   UNL A   1      28.818  27.407  23.481  1.00  0.00     0.051 A 
ATOM     20  C   UNL A   1      28.086  28.430  22.874  1.00  0.00     0.050 A 
BRANCH  13  21
ATOM     21  C   UNL A   1      32.639  26.370  26.168  1.00  0.00     0.430 C 
ATOM     22  F   UNL A   1      31.836  26.892  27.126  1.00  0.00    -0.167 F 
ATOM     23  F   UNL A   1      32.625  25.024  26.353  1.00  0.00    -0.167 F 
ATOM     24  F   UNL A   1      33.899  26.792  26.410  1.00  0.00    -0.167 F 
ENDBRANCH  13  21
BRANCH  18  25
ATOM     25  O   UNL A   1      27.829  30.853  22.555  1.00  0.00    -0.406 OA
BRANCH  25  26
ATOM     26  C   UNL A   1      28.360  31.626  21.483  1.00  0.00     0.573 C 
ATOM     27  F   UNL A   1      28.863  32.783  21.954  1.00  0.00    -0.132 F 
ATOM     28  F   UNL A   1      29.317  30.959  20.802  1.00  0.00    -0.132 F 
ATOM     29  F   UNL A   1      27.363  31.903  20.615  1.00  0.00    -0.132 F 
ENDBRANCH  25  26
ENDBRANCH  18  25
ENDBRANCH   9  11
ENDBRANCH   8   9
ENDBRANCH   7   8
ENDBRANCH   6   7
ENDBRANCH   5   6
ENDBRANCH   4   5
ENDBRANCH   3   4
ENDBRANCH   2   3
ENDBRANCH   1   2
BRANCH   1  30
ATOM     30  C   UNL A   1      36.495  21.399  24.700  1.00  0.00     0.188 C 
BRANCH  30  31
ATOM     31  O   UNL A   1      37.338  20.293  25.011  1.00  0.00    -0.376 OA
BRANCH  31  32
ATOM     32  C   UNL A   1      38.596  20.519  25.611  1.00  0.00     0.202 C 
BRANCH  32  33
ATOM     33  C   UNL A   1      39.595  19.355  25.504  1.00  0.00     0.261 C 
BRANCH  33  34
ATOM     34  O   UNL A   1      40.976  19.753  25.479  1.00  0.00    -0.460 OA
BRANCH  34  35
ATOM     35  C   UNL A   1      41.588  19.831  26.697  1.00  0.00     0.338 C 
ATOM     36  O   UNL A   1      42.150  18.938  27.277  1.00  0.00    -0.246 OA
BRANCH  35  37
ATOM     37  C   UNL A   1      41.637  21.262  27.133  1.00  0.00     0.060 A 
ATOM     38  C   UNL A   1      41.051  22.216  26.289  1.00  0.00     0.016 A 
ATOM     39  C   UNL A   1      42.189  21.668  28.352  1.00  0.00     0.016 A 
ATOM     40  C   UNL A   1      41.041  23.570  26.640  1.00  0.00     0.010 A 
ATOM     41  C   UNL A   1      42.194  23.028  28.699  1.00  0.00     0.010 A 
ATOM     42  C   UNL A   1      41.652  23.993  27.827  1.00  0.00    -0.014 A 
BRANCH  42  43
ATOM     43  C   UNL A   1      41.974  25.435  28.013  1.00  0.00     0.031 A 
ATOM     44  C   UNL A   1      43.330  25.904  27.545  1.00  0.00     0.074 A 
ATOM     45  C   UNL A   1      41.104  26.320  28.537  1.00  0.00     0.049 A 
ATOM     46  N   UNL A   1      43.888  27.081  27.646  1.00  0.00    -0.248 NA
ATOM     47  C   UNL A   1      44.166  24.897  26.871  1.00  0.00     0.031 C 
ATOM     48  C   UNL A   1      39.739  26.019  28.964  1.00  0.00     0.029 A 
ATOM     49  N   UNL A   1      41.247  27.662  28.806  1.00  0.00    -0.354 N 
ATOM     50  C   UNL A   1      45.143  26.954  27.058  1.00  0.00     0.074 A 
ATOM     51  C   UNL A   1      45.274  25.579  26.633  1.00  0.00     0.031 C 
ATOM     52  C   UNL A   1      39.177  27.140  29.455  1.00  0.00     0.029 A 
ATOM     53  C   UNL A   1      40.152  28.231  29.418  1.00  0.00     0.049 A 
ATOM     54  H   UNL A   1      42.060  28.170  28.579  1.00  0.00     0.167 HD
ATOM     55  C   UNL A   1      46.099  27.897  26.883  1.00  0.00     0.034 A 
ATOM     56  C   UNL A   1      39.972  29.474  29.916  1.00  0.00     0.034 A 
ATOM     57  C   UNL A   1      45.969  29.264  27.318  1.00  0.00     0.049 A 
ATOM     58  C   UNL A   1      41.099  30.483  29.804  1.00  0.00     0.074 A 
ATOM     59  C   UNL A   1      46.876  30.300  27.182  1.00  0.00     0.029 A 
ATOM     60  N   UNL A   1      44.867  29.785  27.984  1.00  0.00    -0.354 N 
ATOM     61  N   UNL A   1      42.280  30.349  29.245  1.00  0.00    -0.248 NA
ATOM     62  C   UNL A   1      40.864  31.813  30.389  1.00  0.00     0.031 C 
ATOM     63  C   UNL A   1      46.358  31.422  27.836  1.00  0.00     0.029 A 
ATOM     64  C   UNL A   1      45.089  31.115  28.300  1.00  0.00     0.049 A 
ATOM     65  H   UNL A   1      44.048  29.282  28.199  1.00  0.00     0.167 HD
ATOM     66  C   UNL A   1      42.909  31.587  29.380  1.00  0.00     0.074 A 
ATOM     67  C   UNL A   1      41.973  32.457  30.058  1.00  0.00     0.031 C 
ATOM     68  C   UNL A   1      44.148  31.973  28.978  1.00  0.00     0.034 A 
BRANCH  55  69
ATOM     69  C   UNL A   1      47.397  27.461  26.249  1.00  0.00     0.023 A 
ATOM     70  C   UNL A   1      48.419  26.844  26.992  1.00  0.00     0.031 A 
ATOM     71  C   UNL A   1      47.619  27.683  24.879  1.00  0.00     0.131 A 
ATOM     72  C   UNL A   1      49.635  26.523  26.373  1.00  0.00     0.055 A 
ATOM     73  C   UNL A   1      48.802  27.291  24.252  1.00  0.00     0.041 A 
ATOM     74  F   UNL A   1      46.690  28.294  24.127  1.00  0.00    -0.206 F 
ATOM     75  C   UNL A   1      49.824  26.717  25.002  1.00  0.00     0.022 A 
BRANCH  72  76
ATOM     76  S   UNL A   1      51.016  25.965  27.408  1.00  0.00     0.124 S 
ATOM     77  O   UNL A   1      51.573  24.884  26.599  1.00  0.00    -0.237 OA
ATOM     78  O   UNL A   1      51.833  27.166  27.520  1.00  0.00    -0.237 OA
ATOM     79  O   UNL A   1      50.364  25.535  28.645  1.00  0.00    -0.744 OA
ENDBRANCH  72  76
ENDBRANCH  55  69
BRANCH  56  80
ATOM     80  C   UNL A   1      38.711  29.845  30.632  1.00  0.00     0.023 A 
ATOM     81  C   UNL A   1      37.754  30.688  30.041  1.00  0.00     0.031 A 
ATOM     82  C   UNL A   1      38.494  29.446  31.964  1.00  0.00     0.131 A 
ATOM     83  C   UNL A   1      36.663  31.152  30.796  1.00  0.00     0.055 A 
ATOM     84  C   UNL A   1      37.375  29.859  32.690  1.00  0.00     0.041 A 
ATOM     85  F   UNL A   1      39.378  28.650  32.587  1.00  0.00    -0.206 F 
ATOM     86  C   UNL A   1      36.459  30.731  32.112  1.00  0.00     0.022 A 
BRANCH  83  87
ATOM     87  S   UNL A   1      35.574  32.412  30.073  1.00  0.00     0.124 S 
ATOM     88  O   UNL A   1      34.478  32.442  31.035  1.00  0.00    -0.237 OA
ATOM     89  O   UNL A   1      36.442  33.584  30.050  1.00  0.00    -0.237 OA
ATOM     90  O   UNL A   1      35.239  31.859  28.762  1.00  0.00    -0.744 OA
ENDBRANCH  83  87
ENDBRANCH  56  80
BRANCH  68  91
ATOM     91  C   UNL A   1      44.540  33.414  29.211  1.00  0.00     0.023 A 
ATOM     92  C   UNL A   1      45.218  33.823  30.372  1.00  0.00     0.031 A 
ATOM     93  C   UNL A   1      44.230  34.394  28.249  1.00  0.00     0.131 A 
ATOM     94  C   UNL A   1      45.513  35.182  30.568  1.00  0.00     0.055 A 
ATOM     95  C   UNL A   1      44.585  35.732  28.418  1.00  0.00     0.041 A 
ATOM     96  F   UNL A   1      43.582  34.062  27.120  1.00  0.00    -0.206 F 
ATOM     97  C   UNL A   1      45.218  36.136  29.590  1.00  0.00     0.022 A 
BRANCH  94  98
ATOM     98  S   UNL A   1      46.201  35.703  32.163  1.00  0.00     0.124 S 
ATOM     99  O   UNL A   1      46.069  37.153  32.090  1.00  0.00    -0.237 OA
ATOM    100  O   UNL A   1      45.323  35.030  33.116  1.00  0.00    -0.237 OA
ATOM    101  O   UNL A   1      47.574  35.201  32.126  1.00  0.00    -0.744 OA
ENDBRANCH  94  98
ENDBRANCH  68  91
ENDBRANCH  42  43
ENDBRANCH  35  37
ENDBRANCH  34  35
ENDBRANCH  33  34
ENDBRANCH  32  33
ENDBRANCH  31  32
ENDBRANCH  30  31
ENDBRANCH   1  30
TORSDOF 26
ENDMDL
MODEL 3
REMARK VINA RESULT:      -9.9      3.400      8.239
REMARK SMILES O=C(OCCOCCOCCOCCOC(=O)c1ccc(-c2c3nc(c(-c4cc(S(=O)(=O)[O-])ccc4F)c4ccc([nH]4)c(-c4cc(S(=O)(=O)[O-])ccc4F)c4nc(c(-c5cc(S(=O)(=O)[O-])ccc5F)c5ccc2[nH]5)C=C4)C=C3)cc1)C1=Cc2cc(OC(F)(F)F)ccc2O[C@@H]1C(F)(F)F
REMARK SMILES IDX 10 1 9 2 8 3 7 4 6 5 5 6 4 7 3 8 2 9 1 10 81 11 82 12 95 13
REMARK SMILES IDX 83 14 94 15 84 16 93 17 85 18 92 19 91 20 96 21 97 22 98 23
REMARK SMILES IDX 99 24 86 25 87 26 88 27 89 28 90 29 11 30 12 31 13 32 14 33
REMARK SMILES IDX 15 34 16 35 17 36 18 37 19 38 80 39 20 40 79 41 21 42 22 43
REMARK SMILES IDX 23 44 73 45 24 46 78 47 72 48 74 49 25 50 77 51 71 52 70 53
REMARK SMILES IDX 26 55 58 56 38 57 57 58 39 59 42 60 56 61 75 62 40 63 41 64
REMARK SMILES IDX 55 66 76 67 43 68 27 69 28 70 36 71 29 72 35 73 37 74 34 75
REMARK SMILES IDX 30 76 31 77 32 78 33 79 59 80 60 81 68 82 61 83 67 84 69 85
REMARK SMILES IDX 66 86 62 87 63 88 64 89 65 90 44 91 45 92 53 93 46 94 52 95
REMARK SMILES IDX 54 96 51 97 47 98 48 99 49 100 50 101
REMARK H PARENT 74 54 42 65
REMARK Flexibility Score: inf
ROOT
ATOM      1  C   UNL A   1      36.679  23.003  23.491  1.00  0.00     0.188 C 
ENDROOT
BRANCH   1   2
ATOM      2  O   UNL A   1      35.607  22.945  22.556  1.00  0.00    -0.377 OA
BRANCH   2   3
ATOM      3  C   UNL A   1      34.358  23.436  23.024  1.00  0.00     0.188 C 
BRANCH   3   4
ATOM      4  C   UNL A   1      33.247  22.406  22.881  1.00  0.00     0.188 C 
BRANCH   4   5
ATOM      5  O   UNL A   1      33.218  21.454  23.932  1.00  0.00    -0.376 OA
BRANCH   5   6
ATOM      6  C   UNL A   1      32.028  21.328  24.698  1.00  0.00     0.202 C 
BRANCH   6   7
ATOM      7  C   UNL A   1      31.988  22.136  25.995  1.00  0.00     0.261 C 
BRANCH   7   8
ATOM      8  O   UNL A   1      32.543  23.454  25.828  1.00  0.00    -0.460 OA
BRANCH   8   9
ATOM      9  C   UNL A   1      31.932  24.455  26.506  1.00  0.00     0.338 C 
ATOM     10  O   UNL A   1      31.827  24.465  27.723  1.00  0.00    -0.246 OA
BRANCH   9  11
ATOM     11  C   UNL A   1      31.280  25.460  25.615  1.00  0.00     0.087 C 
ATOM     12  C   UNL A   1      31.011  26.598  26.283  1.00  0.00     0.027 C 
ATOM     13  C   UNL A   1      31.742  25.482  24.176  1.00  0.00     0.316 C 
ATOM     14  C   UNL A   1      31.880  27.720  25.911  1.00  0.00     0.021 A 
ATOM     15  O   UNL A   1      32.405  26.703  23.770  1.00  0.00    -0.475 OA
ATOM     16  C   UNL A   1      32.072  28.792  26.790  1.00  0.00     0.058 A 
ATOM     17  C   UNL A   1      32.624  27.647  24.735  1.00  0.00     0.128 A 
ATOM     18  C   UNL A   1      33.084  29.729  26.550  1.00  0.00     0.130 A 
ATOM     19  C   UNL A   1      33.668  28.541  24.525  1.00  0.00     0.051 A 
ATOM     20  C   UNL A   1      33.936  29.542  25.461  1.00  0.00     0.050 A 
BRANCH  13  21
ATOM     21  C   UNL A   1      30.612  25.098  23.220  1.00  0.00     0.430 C 
ATOM     22  F   UNL A   1      30.164  23.842  23.463  1.00  0.00    -0.167 F 
ATOM     23  F   UNL A   1      29.541  25.920  23.377  1.00  0.00    -0.167 F 
ATOM     24  F   UNL A   1      30.977  25.163  21.921  1.00  0.00    -0.167 F 
ENDBRANCH  13  21
BRANCH  18  25
ATOM     25  O   UNL A   1      33.137  30.766  27.437  1.00  0.00    -0.406 OA
BRANCH  25  26
ATOM     26  C   UNL A   1      34.378  31.027  28.085  1.00  0.00     0.573 C 
ATOM     27  F   UNL A   1      34.975  29.868  28.421  1.00  0.00    -0.132 F 
ATOM     28  F   UNL A   1      35.210  31.758  27.312  1.00  0.00    -0.132 F 
ATOM     29  F   UNL A   1      34.138  31.738  29.208  1.00  0.00    -0.132 F 
ENDBRANCH  25  26
ENDBRANCH  18  25
ENDBRANCH   9  11
ENDBRANCH   8   9
ENDBRANCH   7   8
ENDBRANCH   6   7
ENDBRANCH   5   6
ENDBRANCH   4   5
ENDBRANCH   3   4
ENDBRANCH   2   3
ENDBRANCH   1   2
BRANCH   1  30
ATOM     30  C   UNL A   1      37.059  21.680  24.196  1.00  0.00     0.188 C 
BRANCH  30  31
ATOM     31  O   UNL A   1      37.216  21.557  25.607  1.00  0.00    -0.376 OA
BRANCH  31  32
ATOM     32  C   UNL A   1      38.291  22.208  26.251  1.00  0.00     0.202 C 
BRANCH  32  33
ATOM     33  C   UNL A   1      39.690  21.693  25.880  1.00  0.00     0.261 C 
BRANCH  33  34
ATOM     34  O   UNL A   1      39.909  20.300  26.162  1.00  0.00    -0.460 OA
BRANCH  34  35
ATOM     35  C   UNL A   1      41.215  19.909  26.217  1.00  0.00     0.338 C 
ATOM     36  O   UNL A   1      41.648  18.811  25.975  1.00  0.00    -0.246 OA
BRANCH  35  37
ATOM     37  C   UNL A   1      42.081  21.110  26.433  1.00  0.00     0.060 A 
ATOM     38  C   UNL A   1      42.326  21.502  27.758  1.00  0.00     0.016 A 
ATOM     39  C   UNL A   1      42.685  21.812  25.384  1.00  0.00     0.016 A 
ATOM     40  C   UNL A   1      43.142  22.603  28.037  1.00  0.00     0.010 A 
ATOM     41  C   UNL A   1      43.491  22.927  25.663  1.00  0.00     0.010 A 
ATOM     42  C   UNL A   1      43.695  23.351  26.991  1.00  0.00    -0.014 A 
BRANCH  42  43
ATOM     43  C   UNL A   1      44.233  24.713  27.267  1.00  0.00     0.031 A 
ATOM     44  C   UNL A   1      43.261  25.744  27.788  1.00  0.00     0.074 A 
ATOM     45  C   UNL A   1      45.531  25.036  27.108  1.00  0.00     0.049 A 
ATOM     46  N   UNL A   1      43.446  27.012  28.045  1.00  0.00    -0.248 NA
ATOM     47  C   UNL A   1      41.893  25.270  28.051  1.00  0.00     0.031 C 
ATOM     48  C   UNL A   1      46.588  24.121  26.682  1.00  0.00     0.029 A 
ATOM     49  N   UNL A   1      46.181  26.236  27.284  1.00  0.00    -0.354 N 
ATOM     50  C   UNL A   1      42.217  27.489  28.490  1.00  0.00     0.074 A 
ATOM     51  C   UNL A   1      41.289  26.381  28.437  1.00  0.00     0.031 C 
ATOM     52  C   UNL A   1      47.750  24.798  26.615  1.00  0.00     0.029 A 
ATOM     53  C   UNL A   1      47.518  26.203  26.952  1.00  0.00     0.049 A 
ATOM     54  H   UNL A   1      45.731  27.045  27.619  1.00  0.00     0.167 HD
ATOM     55  C   UNL A   1      41.890  28.734  28.910  1.00  0.00     0.034 A 
ATOM     56  C   UNL A   1      48.433  27.195  26.896  1.00  0.00     0.034 A 
ATOM     57  C   UNL A   1      42.815  29.837  28.952  1.00  0.00     0.049 A 
ATOM     58  C   UNL A   1      48.015  28.605  27.268  1.00  0.00     0.074 A 
ATOM     59  C   UNL A   1      42.586  31.136  29.368  1.00  0.00     0.029 A 
ATOM     60  N   UNL A   1      44.144  29.775  28.554  1.00  0.00    -0.354 N 
ATOM     61  N   UNL A   1      46.849  29.041  27.688  1.00  0.00    -0.248 NA
ATOM     62  C   UNL A   1      49.040  29.655  27.162  1.00  0.00     0.031 C 
ATOM     63  C   UNL A   1      43.750  31.877  29.145  1.00  0.00     0.029 A 
ATOM     64  C   UNL A   1      44.734  31.022  28.676  1.00  0.00     0.049 A 
ATOM     65  H   UNL A   1      44.600  28.964  28.231  1.00  0.00     0.167 HD
ATOM     66  C   UNL A   1      47.016  30.405  27.929  1.00  0.00     0.074 A 
ATOM     67  C   UNL A   1      48.395  30.716  27.625  1.00  0.00     0.031 C 
ATOM     68  C   UNL A   1      46.112  31.320  28.367  1.00  0.00     0.034 A 
BRANCH  55  69
ATOM     69  C   UNL A   1      40.453  28.981  29.296  1.00  0.00     0.023 A 
ATOM     70  C   UNL A   1      40.017  28.910  30.631  1.00  0.00     0.031 A 
ATOM     71  C   UNL A   1      39.500  29.278  28.306  1.00  0.00     0.131 A 
ATOM     72  C   UNL A   1      38.657  29.076  30.931  1.00  0.00     0.055 A 
ATOM     73  C   UNL A   1      38.162  29.519  28.620  1.00  0.00     0.041 A 
ATOM     74  F   UNL A   1      39.853  29.331  27.012  1.00  0.00    -0.206 F 
ATOM     75  C   UNL A   1      37.731  29.407  29.938  1.00  0.00     0.022 A 
BRANCH  72  76
ATOM     76  S   UNL A   1      38.092  28.729  32.619  1.00  0.00     0.124 S 
ATOM     77  O   UNL A   1      39.023  29.528  33.412  1.00  0.00    -0.237 OA
ATOM     78  O   UNL A   1      36.712  29.196  32.592  1.00  0.00    -0.237 OA
ATOM     79  O   UNL A   1      38.261  27.282  32.746  1.00  0.00    -0.744 OA
ENDBRANCH  72  76
ENDBRANCH  55  69
BRANCH  56  80
ATOM     80  C   UNL A   1      49.825  26.937  26.411  1.00  0.00     0.023 A 
ATOM     81  C   UNL A   1      50.890  26.747  27.307  1.00  0.00     0.031 A 
ATOM     82  C   UNL A   1      50.129  26.983  25.037  1.00  0.00     0.131 A 
ATOM     83  C   UNL A   1      52.209  26.673  26.827  1.00  0.00     0.055 A 
ATOM     84  C   UNL A   1      51.434  26.845  24.560  1.00  0.00     0.041 A 
ATOM     85  F   UNL A   1      49.155  27.173  24.131  1.00  0.00    -0.206 F 
ATOM     86  C   UNL A   1      52.486  26.705  25.459  1.00  0.00     0.022 A 
BRANCH  83  87
ATOM     87  S   UNL A   1      53.574  26.653  28.024  1.00  0.00     0.124 S 
ATOM     88  O   UNL A   1      52.877  26.316  29.260  1.00  0.00    -0.237 OA
ATOM     89  O   UNL A   1      54.444  25.620  27.474  1.00  0.00    -0.237 OA
ATOM     90  O   UNL A   1      54.105  28.014  27.957  1.00  0.00    -0.744 OA
ENDBRANCH  83  87
ENDBRANCH  56  80
BRANCH  68  91
ATOM     91  C   UNL A   1      46.602  32.731  28.595  1.00  0.00     0.023 A 
ATOM     92  C   UNL A   1      47.224  33.118  29.795  1.00  0.00     0.031 A 
ATOM     93  C   UNL A   1      46.444  33.705  27.591  1.00  0.00     0.131 A 
ATOM     94  C   UNL A   1      47.614  34.454  29.982  1.00  0.00     0.055 A 
ATOM     95  C   UNL A   1      46.894  35.015  27.757  1.00  0.00     0.041 A 
ATOM     96  F   UNL A   1      45.856  33.394  26.424  1.00  0.00    -0.206 F 
ATOM     97  C   UNL A   1      47.470  35.400  28.963  1.00  0.00     0.022 A 
BRANCH  94  98
ATOM     98  S   UNL A   1      48.224  34.964  31.612  1.00  0.00     0.124 S 
ATOM     99  O   UNL A   1      48.049  33.746  32.396  1.00  0.00    -0.237 OA
ATOM    100  O   UNL A   1      49.603  35.344  31.324  1.00  0.00    -0.237 OA
ATOM    101  O   UNL A   1      47.341  36.070  31.979  1.00  0.00    -0.744 OA
ENDBRANCH  94  98
ENDBRANCH  68  91
ENDBRANCH  42  43
ENDBRANCH  35  37
ENDBRANCH  34  35
ENDBRANCH  33  34
ENDBRANCH  32  33
ENDBRANCH  31  32
ENDBRANCH  30  31
ENDBRANCH   1  30
TORSDOF 26
ENDMDL
