MODEL 1
REMARK VINA RESULT:     -10.1      0.000      0.000
REMARK SMILES COc1c(C(=O)OCCOCCOCCOCCOC(=O)c2ccc(-c3c4nc(c(-c5cc(S(=O)(=O)[O-])ccc5F)c5ccc([nH]5)c(-c5cc(S(=O)(=O)[O-])ccc5F)c5nc(c(-c6cc(S(=O)(=O)[O-])ccc6F)c6ccc3[nH]6)C=C5)C=C4)cc2)cccc1-c1cc(C)ccc1C
REMARK SMILES IDX 14 1 13 2 12 3 11 4 10 5 9 6 8 7 7 8 5 9 6 10 4 11 3 12
REMARK SMILES IDX 88 13 85 14 87 15 86 16 2 17 1 18 89 19 90 20 95 21 91 22
REMARK SMILES IDX 94 23 96 24 92 25 93 26 15 27 16 28 17 29 18 30 19 31 20 32
REMARK SMILES IDX 21 33 22 34 23 35 84 36 24 37 83 38 25 39 26 40 27 41 77 42
REMARK SMILES IDX 28 43 82 44 76 45 78 46 29 47 81 48 75 49 74 50 30 52 62 53
REMARK SMILES IDX 42 54 61 55 43 56 46 57 60 58 79 59 44 60 45 61 59 63 80 64
REMARK SMILES IDX 47 65 31 66 32 67 40 68 33 69 39 70 41 71 38 72 34 73 35 74
REMARK SMILES IDX 36 75 37 76 63 77 64 78 72 79 65 80 71 81 73 82 70 83 66 84
REMARK SMILES IDX 67 85 68 86 69 87 48 88 49 89 57 90 50 91 56 92 58 93 55 94
REMARK SMILES IDX 51 95 52 96 53 97 54 98
REMARK H PARENT 78 51 46 62
REMARK Flexibility Score: inf
ROOT
ATOM      1  C   UNL A   1      29.576  31.398  24.446  1.00  0.00     0.188 C 
ENDROOT
BRANCH   1   2
ATOM      2  O   UNL A   1      29.256  32.034  23.212  1.00  0.00    -0.377 OA
BRANCH   2   3
ATOM      3  C   UNL A   1      28.960  31.252  22.068  1.00  0.00     0.188 C 
BRANCH   3   4
ATOM      4  C   UNL A   1      29.777  29.970  21.803  1.00  0.00     0.188 C 
BRANCH   4   5
ATOM      5  O   UNL A   1      29.201  28.790  22.323  1.00  0.00    -0.376 OA
BRANCH   5   6
ATOM      6  C   UNL A   1      30.006  27.691  22.707  1.00  0.00     0.202 C 
BRANCH   6   7
ATOM      7  C   UNL A   1      30.288  27.326  24.174  1.00  0.00     0.261 C 
BRANCH   7   8
ATOM      8  O   UNL A   1      31.503  26.624  24.425  1.00  0.00    -0.460 OA
BRANCH   8   9
ATOM      9  C   UNL A   1      31.657  26.071  25.646  1.00  0.00     0.342 C 
ATOM     10  O   UNL A   1      30.980  26.290  26.637  1.00  0.00    -0.246 OA
BRANCH   9  11
ATOM     11  C   UNL A   1      32.602  24.935  25.541  1.00  0.00     0.102 A 
ATOM     12  C   UNL A   1      32.190  23.605  25.347  1.00  0.00     0.141 A 
ATOM     13  C   UNL A   1      33.163  22.601  25.135  1.00  0.00     0.025 A 
ATOM     14  C   UNL A   1      33.963  25.244  25.700  1.00  0.00     0.019 A 
ATOM     15  C   UNL A   1      34.519  22.935  25.355  1.00  0.00     0.012 A 
ATOM     16  C   UNL A   1      34.916  24.235  25.661  1.00  0.00     0.002 A 
BRANCH  12  17
ATOM     17  O   UNL A   1      30.841  23.359  25.254  1.00  0.00    -0.495 OA
ATOM     18  C   UNL A   1      30.272  22.865  26.472  1.00  0.00     0.278 C 
ENDBRANCH  12  17
BRANCH  13  19
ATOM     19  C   UNL A   1      32.849  21.264  24.574  1.00  0.00    -0.011 A 
ATOM     20  C   UNL A   1      32.878  20.129  25.415  1.00  0.00     0.012 A 
ATOM     21  C   UNL A   1      32.577  21.065  23.197  1.00  0.00    -0.043 A 
ATOM     22  C   UNL A   1      32.640  18.836  24.925  1.00  0.00    -0.050 A 
ATOM     23  C   UNL A   1      32.273  19.775  22.730  1.00  0.00     0.004 A 
ATOM     24  C   UNL A   1      32.553  22.178  22.179  1.00  0.00     0.045 C 
ATOM     25  C   UNL A   1      32.747  17.651  25.837  1.00  0.00     0.044 C 
ATOM     26  C   UNL A   1      32.313  18.673  23.579  1.00  0.00     0.004 A 
ENDBRANCH  13  19
ENDBRANCH   9  11
ENDBRANCH   8   9
ENDBRANCH   7   8
ENDBRANCH   6   7
ENDBRANCH   5   6
ENDBRANCH   4   5
ENDBRANCH   3   4
ENDBRANCH   2   3
ENDBRANCH   1   2
BRANCH   1  27
ATOM     27  C   UNL A   1      30.526  32.049  25.481  1.00  0.00     0.188 C 
BRANCH  27  28
ATOM     28  O   UNL A   1      31.627  31.247  25.878  1.00  0.00    -0.376 OA
BRANCH  28  29
ATOM     29  C   UNL A   1      32.159  31.456  27.174  1.00  0.00     0.202 C 
BRANCH  29  30
ATOM     30  C   UNL A   1      32.247  32.910  27.664  1.00  0.00     0.261 C 
BRANCH  30  31
ATOM     31  O   UNL A   1      33.563  33.483  27.704  1.00  0.00    -0.460 OA
BRANCH  31  32
ATOM     32  C   UNL A   1      34.102  33.660  28.929  1.00  0.00     0.338 C 
ATOM     33  O   UNL A   1      33.614  34.291  29.855  1.00  0.00    -0.246 OA
BRANCH  32  34
ATOM     34  C   UNL A   1      35.292  32.795  29.039  1.00  0.00     0.060 A 
ATOM     35  C   UNL A   1      35.167  31.562  29.693  1.00  0.00     0.016 A 
ATOM     36  C   UNL A   1      36.523  33.202  28.517  1.00  0.00     0.016 A 
ATOM     37  C   UNL A   1      36.290  30.761  29.885  1.00  0.00     0.010 A 
ATOM     38  C   UNL A   1      37.652  32.405  28.728  1.00  0.00     0.010 A 
ATOM     39  C   UNL A   1      37.548  31.208  29.461  1.00  0.00    -0.014 A 
BRANCH  39  40
ATOM     40  C   UNL A   1      38.756  30.555  30.023  1.00  0.00     0.031 A 
ATOM     41  C   UNL A   1      39.156  30.909  31.433  1.00  0.00     0.074 A 
ATOM     42  C   UNL A   1      39.431  29.613  29.343  1.00  0.00     0.049 A 
ATOM     43  N   UNL A   1      40.133  30.443  32.167  1.00  0.00    -0.248 NA
ATOM     44  C   UNL A   1      38.338  31.933  32.101  1.00  0.00     0.031 C 
ATOM     45  C   UNL A   1      39.104  29.146  27.997  1.00  0.00     0.029 A 
ATOM     46  N   UNL A   1      40.525  28.866  29.703  1.00  0.00    -0.354 N 
ATOM     47  C   UNL A   1      40.051  31.122  33.380  1.00  0.00     0.074 A 
ATOM     48  C   UNL A   1      38.961  32.065  33.260  1.00  0.00     0.031 C 
ATOM     49  C   UNL A   1      39.972  28.179  27.651  1.00  0.00     0.029 A 
ATOM     50  C   UNL A   1      40.934  27.981  28.734  1.00  0.00     0.049 A 
ATOM     51  H   UNL A   1      40.974  28.956  30.575  1.00  0.00     0.167 HD
ATOM     52  C   UNL A   1      40.806  30.965  34.495  1.00  0.00     0.034 A 
ATOM     53  C   UNL A   1      41.971  27.120  28.724  1.00  0.00     0.034 A 
ATOM     54  C   UNL A   1      41.898  30.027  34.591  1.00  0.00     0.049 A 
ATOM     55  C   UNL A   1      42.856  27.024  29.945  1.00  0.00     0.074 A 
ATOM     56  C   UNL A   1      42.724  29.774  35.672  1.00  0.00     0.029 A 
ATOM     57  N   UNL A   1      42.331  29.198  33.562  1.00  0.00    -0.354 N 
ATOM     58  N   UNL A   1      42.766  27.663  31.090  1.00  0.00    -0.248 NA
ATOM     59  C   UNL A   1      43.976  26.077  29.873  1.00  0.00     0.031 C 
ATOM     60  C   UNL A   1      43.709  28.865  35.270  1.00  0.00     0.029 A 
ATOM     61  C   UNL A   1      43.435  28.465  33.971  1.00  0.00     0.049 A 
ATOM     62  H   UNL A   1      41.913  29.140  32.673  1.00  0.00     0.167 HD
ATOM     63  C   UNL A   1      43.787  27.153  31.892  1.00  0.00     0.074 A 
ATOM     64  C   UNL A   1      44.472  26.153  31.099  1.00  0.00     0.031 C 
ATOM     65  C   UNL A   1      44.120  27.474  33.171  1.00  0.00     0.034 A 
BRANCH  52  66
ATOM     66  C   UNL A   1      40.517  31.883  35.661  1.00  0.00     0.023 A 
ATOM     67  C   UNL A   1      39.409  31.692  36.508  1.00  0.00     0.031 A 
ATOM     68  C   UNL A   1      41.329  33.008  35.891  1.00  0.00     0.131 A 
ATOM     69  C   UNL A   1      39.095  32.656  37.479  1.00  0.00     0.055 A 
ATOM     70  C   UNL A   1      41.067  33.911  36.922  1.00  0.00     0.041 A 
ATOM     71  F   UNL A   1      42.384  33.263  35.100  1.00  0.00    -0.206 F 
ATOM     72  C   UNL A   1      39.933  33.749  37.710  1.00  0.00     0.022 A 
BRANCH  69  73
ATOM     73  S   UNL A   1      37.481  32.562  38.304  1.00  0.00     0.124 S 
ATOM     74  O   UNL A   1      36.623  33.265  37.354  1.00  0.00    -0.237 OA
ATOM     75  O   UNL A   1      37.268  31.123  38.417  1.00  0.00    -0.237 OA
ATOM     76  O   UNL A   1      37.702  33.261  39.568  1.00  0.00    -0.744 OA
ENDBRANCH  69  73
ENDBRANCH  52  66
BRANCH  53  77
ATOM     77  C   UNL A   1      42.246  26.277  27.523  1.00  0.00     0.023 A 
ATOM     78  C   UNL A   1      41.799  24.948  27.449  1.00  0.00     0.031 A 
ATOM     79  C   UNL A   1      43.016  26.771  26.454  1.00  0.00     0.131 A 
ATOM     80  C   UNL A   1      42.162  24.145  26.357  1.00  0.00     0.055 A 
ATOM     81  C   UNL A   1      43.326  25.986  25.343  1.00  0.00     0.041 A 
ATOM     82  F   UNL A   1      43.476  28.033  26.476  1.00  0.00    -0.206 F 
ATOM     83  C   UNL A   1      42.910  24.660  25.295  1.00  0.00     0.022 A 
BRANCH  80  84
ATOM     84  S   UNL A   1      41.718  22.386  26.383  1.00  0.00     0.124 S 
ATOM     85  O   UNL A   1      42.559  21.853  25.318  1.00  0.00    -0.237 OA
ATOM     86  O   UNL A   1      42.083  22.002  27.743  1.00  0.00    -0.237 OA
ATOM     87  O   UNL A   1      40.284  22.393  26.104  1.00  0.00    -0.744 OA
ENDBRANCH  80  84
ENDBRANCH  53  77
BRANCH  65  88
ATOM     88  C   UNL A   1      45.234  26.678  33.816  1.00  0.00     0.023 A 
ATOM     89  C   UNL A   1      44.996  25.467  34.491  1.00  0.00     0.031 A 
ATOM     90  C   UNL A   1      46.554  27.162  33.784  1.00  0.00     0.131 A 
ATOM     91  C   UNL A   1      46.044  24.831  35.176  1.00  0.00     0.055 A 
ATOM     92  C   UNL A   1      47.607  26.481  34.397  1.00  0.00     0.041 A 
ATOM     93  F   UNL A   1      46.847  28.315  33.159  1.00  0.00    -0.206 F 
ATOM     94  C   UNL A   1      47.350  25.318  35.116  1.00  0.00     0.022 A 
BRANCH  91  95
ATOM     95  S   UNL A   1      45.647  23.438  36.271  1.00  0.00     0.124 S 
ATOM     96  O   UNL A   1      45.221  24.121  37.488  1.00  0.00    -0.237 OA
ATOM     97  O   UNL A   1      44.597  22.747  35.528  1.00  0.00    -0.237 OA
ATOM     98  O   UNL A   1      46.912  22.714  36.376  1.00  0.00    -0.744 OA
ENDBRANCH  91  95
ENDBRANCH  65  88
ENDBRANCH  39  40
ENDBRANCH  32  34
ENDBRANCH  31  32
ENDBRANCH  30  31
ENDBRANCH  29  30
ENDBRANCH  28  29
ENDBRANCH  27  28
ENDBRANCH   1  27
TORSDOF 25
ENDMDL
MODEL 2
REMARK VINA RESULT:      -9.8      2.169      2.958
REMARK SMILES COc1c(C(=O)OCCOCCOCCOCCOC(=O)c2ccc(-c3c4nc(c(-c5cc(S(=O)(=O)[O-])ccc5F)c5ccc([nH]5)c(-c5cc(S(=O)(=O)[O-])ccc5F)c5nc(c(-c6cc(S(=O)(=O)[O-])ccc6F)c6ccc3[nH]6)C=C5)C=C4)cc2)cccc1-c1cc(C)ccc1C
REMARK SMILES IDX 14 1 13 2 12 3 11 4 10 5 9 6 8 7 7 8 5 9 6 10 4 11 3 12
REMARK SMILES IDX 88 13 85 14 87 15 86 16 2 17 1 18 89 19 90 20 95 21 91 22
REMARK SMILES IDX 94 23 96 24 92 25 93 26 15 27 16 28 17 29 18 30 19 31 20 32
REMARK SMILES IDX 21 33 22 34 23 35 84 36 24 37 83 38 25 39 26 40 27 41 77 42
REMARK SMILES IDX 28 43 82 44 76 45 78 46 29 47 81 48 75 49 74 50 30 52 62 53
REMARK SMILES IDX 42 54 61 55 43 56 46 57 60 58 79 59 44 60 45 61 59 63 80 64
REMARK SMILES IDX 47 65 31 66 32 67 40 68 33 69 39 70 41 71 38 72 34 73 35 74
REMARK SMILES IDX 36 75 37 76 63 77 64 78 72 79 65 80 71 81 73 82 70 83 66 84
REMARK SMILES IDX 67 85 68 86 69 87 48 88 49 89 57 90 50 91 56 92 58 93 55 94
REMARK SMILES IDX 51 95 52 96 53 97 54 98
REMARK H PARENT 78 51 46 62
REMARK Flexibility Score: inf
ROOT
ATOM      1  C   UNL A   1      29.539  31.687  24.343  1.00  0.00     0.188 C 
ENDROOT
BRANCH   1   2
ATOM      2  O   UNL A   1      29.455  32.888  23.581  1.00  0.00    -0.377 OA
BRANCH   2   3
ATOM      3  C   UNL A   1      28.490  33.006  22.549  1.00  0.00     0.188 C 
BRANCH   3   4
ATOM      4  C   UNL A   1      28.355  31.869  21.514  1.00  0.00     0.188 C 
BRANCH   4   5
ATOM      5  O   UNL A   1      27.729  30.702  22.005  1.00  0.00    -0.376 OA
BRANCH   5   6
ATOM      6  C   UNL A   1      28.375  29.444  21.941  1.00  0.00     0.202 C 
BRANCH   6   7
ATOM      7  C   UNL A   1      28.427  28.464  23.125  1.00  0.00     0.261 C 
BRANCH   7   8
ATOM      8  O   UNL A   1      29.726  28.037  23.532  1.00  0.00    -0.460 OA
BRANCH   8   9
ATOM      9  C   UNL A   1      29.856  26.759  23.941  1.00  0.00     0.342 C 
ATOM     10  O   UNL A   1      29.002  26.075  24.483  1.00  0.00    -0.246 OA
BRANCH   9  11
ATOM     11  C   UNL A   1      31.109  26.202  23.381  1.00  0.00     0.102 A 
ATOM     12  C   UNL A   1      32.068  25.528  24.157  1.00  0.00     0.141 A 
ATOM     13  C   UNL A   1      33.175  24.921  23.520  1.00  0.00     0.025 A 
ATOM     14  C   UNL A   1      31.331  26.428  22.013  1.00  0.00     0.019 A 
ATOM     15  C   UNL A   1      33.396  25.213  22.155  1.00  0.00     0.012 A 
ATOM     16  C   UNL A   1      32.500  25.980  21.413  1.00  0.00     0.002 A 
BRANCH  12  17
ATOM     17  O   UNL A   1      31.820  25.387  25.502  1.00  0.00    -0.495 OA
ATOM     18  C   UNL A   1      31.074  24.205  25.818  1.00  0.00     0.278 C 
ENDBRANCH  12  17
BRANCH  13  19
ATOM     19  C   UNL A   1      34.035  23.903  24.171  1.00  0.00    -0.011 A 
ATOM     20  C   UNL A   1      35.203  24.307  24.855  1.00  0.00     0.012 A 
ATOM     21  C   UNL A   1      33.764  22.514  24.084  1.00  0.00    -0.043 A 
ATOM     22  C   UNL A   1      36.078  23.382  25.442  1.00  0.00    -0.050 A 
ATOM     23  C   UNL A   1      34.610  21.600  24.733  1.00  0.00     0.004 A 
ATOM     24  C   UNL A   1      32.576  21.938  23.352  1.00  0.00     0.045 C 
ATOM     25  C   UNL A   1      37.343  23.848  26.099  1.00  0.00     0.044 C 
ATOM     26  C   UNL A   1      35.757  22.026  25.396  1.00  0.00     0.004 A 
ENDBRANCH  13  19
ENDBRANCH   9  11
ENDBRANCH   8   9
ENDBRANCH   7   8
ENDBRANCH   6   7
ENDBRANCH   5   6
ENDBRANCH   4   5
ENDBRANCH   3   4
ENDBRANCH   2   3
ENDBRANCH   1   2
BRANCH   1  27
ATOM     27  C   UNL A   1      30.650  31.463  25.398  1.00  0.00     0.188 C 
BRANCH  27  28
ATOM     28  O   UNL A   1      31.440  30.301  25.205  1.00  0.00    -0.376 OA
BRANCH  28  29
ATOM     29  C   UNL A   1      32.262  29.879  26.280  1.00  0.00     0.202 C 
BRANCH  29  30
ATOM     30  C   UNL A   1      32.777  30.970  27.232  1.00  0.00     0.261 C 
BRANCH  30  31
ATOM     31  O   UNL A   1      34.164  31.317  27.100  1.00  0.00    -0.460 OA
BRANCH  31  32
ATOM     32  C   UNL A   1      34.805  31.668  28.235  1.00  0.00     0.338 C 
ATOM     33  O   UNL A   1      34.420  32.475  29.068  1.00  0.00    -0.246 OA
BRANCH  32  34
ATOM     34  C   UNL A   1      35.957  30.764  28.412  1.00  0.00     0.060 A 
ATOM     35  C   UNL A   1      35.879  29.760  29.386  1.00  0.00     0.016 A 
ATOM     36  C   UNL A   1      37.110  30.914  27.637  1.00  0.00     0.016 A 
ATOM     37  C   UNL A   1      36.982  28.946  29.634  1.00  0.00     0.010 A 
ATOM     38  C   UNL A   1      38.222  30.108  27.899  1.00  0.00     0.010 A 
ATOM     39  C   UNL A   1      38.178  29.158  28.937  1.00  0.00    -0.014 A 
BRANCH  39  40
ATOM     40  C   UNL A   1      39.428  28.576  29.485  1.00  0.00     0.031 A 
ATOM     41  C   UNL A   1      39.938  29.111  30.798  1.00  0.00     0.074 A 
ATOM     42  C   UNL A   1      40.048  27.544  28.886  1.00  0.00     0.049 A 
ATOM     43  N   UNL A   1      40.970  28.739  31.509  1.00  0.00    -0.248 NA
ATOM     44  C   UNL A   1      39.174  30.223  31.385  1.00  0.00     0.031 C 
ATOM     45  C   UNL A   1      39.615  26.903  27.646  1.00  0.00     0.029 A 
ATOM     46  N   UNL A   1      41.168  26.842  29.256  1.00  0.00    -0.354 N 
ATOM     47  C   UNL A   1      40.984  29.575  32.621  1.00  0.00     0.074 A 
ATOM     48  C   UNL A   1      39.887  30.504  32.463  1.00  0.00     0.031 C 
ATOM     49  C   UNL A   1      40.455  25.891  27.366  1.00  0.00     0.029 A 
ATOM     50  C   UNL A   1      41.501  25.831  28.385  1.00  0.00     0.049 A 
ATOM     51  H   UNL A   1      41.685  27.044  30.070  1.00  0.00     0.167 HD
ATOM     52  C   UNL A   1      41.826  29.562  33.684  1.00  0.00     0.034 A 
ATOM     53  C   UNL A   1      42.534  24.967  28.409  1.00  0.00     0.034 A 
ATOM     54  C   UNL A   1      42.924  28.635  33.820  1.00  0.00     0.049 A 
ATOM     55  C   UNL A   1      43.514  25.028  29.559  1.00  0.00     0.074 A 
ATOM     56  C   UNL A   1      43.833  28.522  34.857  1.00  0.00     0.029 A 
ATOM     57  N   UNL A   1      43.274  27.672  32.881  1.00  0.00    -0.354 N 
ATOM     58  N   UNL A   1      43.514  25.815  30.612  1.00  0.00    -0.248 NA
ATOM     59  C   UNL A   1      44.625  24.070  29.527  1.00  0.00     0.031 C 
ATOM     60  C   UNL A   1      44.784  27.559  34.504  1.00  0.00     0.029 A 
ATOM     61  C   UNL A   1      44.408  26.991  33.296  1.00  0.00     0.049 A 
ATOM     62  H   UNL A   1      42.788  27.499  32.043  1.00  0.00     0.167 HD
ATOM     63  C   UNL A   1      44.596  25.409  31.391  1.00  0.00     0.074 A 
ATOM     64  C   UNL A   1      45.218  24.305  30.689  1.00  0.00     0.031 C 
ATOM     65  C   UNL A   1      45.029  25.895  32.585  1.00  0.00     0.034 A 
BRANCH  52  66
ATOM     66  C   UNL A   1      41.629  30.632  34.736  1.00  0.00     0.023 A 
ATOM     67  C   UNL A   1      40.463  30.704  35.521  1.00  0.00     0.031 A 
ATOM     68  C   UNL A   1      42.599  31.635  34.911  1.00  0.00     0.131 A 
ATOM     69  C   UNL A   1      40.259  31.801  36.372  1.00  0.00     0.055 A 
ATOM     70  C   UNL A   1      42.433  32.671  35.831  1.00  0.00     0.041 A 
ATOM     71  F   UNL A   1      43.720  31.639  34.172  1.00  0.00    -0.206 F 
ATOM     72  C   UNL A   1      41.248  32.770  36.554  1.00  0.00     0.022 A 
BRANCH  69  73
ATOM     73  S   UNL A   1      38.611  32.045  37.093  1.00  0.00     0.124 S 
ATOM     74  O   UNL A   1      38.231  33.337  36.528  1.00  0.00    -0.237 OA
ATOM     75  O   UNL A   1      37.875  30.888  36.596  1.00  0.00    -0.237 OA
ATOM     76  O   UNL A   1      38.864  32.053  38.532  1.00  0.00    -0.744 OA
ENDBRANCH  69  73
ENDBRANCH  52  66
BRANCH  53  77
ATOM     77  C   UNL A   1      42.714  23.968  27.315  1.00  0.00     0.023 A 
ATOM     78  C   UNL A   1      42.007  22.755  27.314  1.00  0.00     0.031 A 
ATOM     79  C   UNL A   1      43.645  24.186  26.284  1.00  0.00     0.131 A 
ATOM     80  C   UNL A   1      42.274  21.788  26.332  1.00  0.00     0.055 A 
ATOM     81  C   UNL A   1      43.865  23.246  25.276  1.00  0.00     0.041 A 
ATOM     82  F   UNL A   1      44.355  25.326  26.240  1.00  0.00    -0.206 F 
ATOM     83  C   UNL A   1      43.187  22.032  25.304  1.00  0.00     0.022 A 
BRANCH  80  84
ATOM     84  S   UNL A   1      41.473  20.166  26.467  1.00  0.00     0.124 S 
ATOM     85  O   UNL A   1      41.865  19.753  27.810  1.00  0.00    -0.237 OA
ATOM     86  O   UNL A   1      40.066  20.507  26.285  1.00  0.00    -0.237 OA
ATOM     87  O   UNL A   1      42.071  19.399  25.377  1.00  0.00    -0.744 OA
ENDBRANCH  80  84
ENDBRANCH  53  77
BRANCH  65  88
ATOM     88  C   UNL A   1      46.192  25.182  33.242  1.00  0.00     0.023 A 
ATOM     89  C   UNL A   1      47.530  25.511  32.959  1.00  0.00     0.031 A 
ATOM     90  C   UNL A   1      45.952  24.127  34.142  1.00  0.00     0.131 A 
ATOM     91  C   UNL A   1      48.569  24.739  33.501  1.00  0.00     0.055 A 
ATOM     92  C   UNL A   1      46.992  23.417  34.742  1.00  0.00     0.041 A 
ATOM     93  F   UNL A   1      44.697  23.761  34.450  1.00  0.00    -0.206 F 
ATOM     94  C   UNL A   1      48.311  23.709  34.407  1.00  0.00     0.022 A 
BRANCH  91  95
ATOM     95  S   UNL A   1      50.258  25.005  32.891  1.00  0.00     0.124 S 
ATOM     96  O   UNL A   1      50.874  23.704  33.129  1.00  0.00    -0.237 OA
ATOM     97  O   UNL A   1      50.032  25.356  31.492  1.00  0.00    -0.237 OA
ATOM     98  O   UNL A   1      50.759  26.091  33.730  1.00  0.00    -0.744 OA
ENDBRANCH  91  95
ENDBRANCH  65  88
ENDBRANCH  39  40
ENDBRANCH  32  34
ENDBRANCH  31  32
ENDBRANCH  30  31
ENDBRANCH  29  30
ENDBRANCH  28  29
ENDBRANCH  27  28
ENDBRANCH   1  27
TORSDOF 25
ENDMDL
MODEL 3
REMARK VINA RESULT:      -9.7      2.362      3.189
REMARK SMILES COc1c(C(=O)OCCOCCOCCOCCOC(=O)c2ccc(-c3c4nc(c(-c5cc(S(=O)(=O)[O-])ccc5F)c5ccc([nH]5)c(-c5cc(S(=O)(=O)[O-])ccc5F)c5nc(c(-c6cc(S(=O)(=O)[O-])ccc6F)c6ccc3[nH]6)C=C5)C=C4)cc2)cccc1-c1cc(C)ccc1C
REMARK SMILES IDX 14 1 13 2 12 3 11 4 10 5 9 6 8 7 7 8 5 9 6 10 4 11 3 12
REMARK SMILES IDX 88 13 85 14 87 15 86 16 2 17 1 18 89 19 90 20 95 21 91 22
REMARK SMILES IDX 94 23 96 24 92 25 93 26 15 27 16 28 17 29 18 30 19 31 20 32
REMARK SMILES IDX 21 33 22 34 23 35 84 36 24 37 83 38 25 39 26 40 27 41 77 42
REMARK SMILES IDX 28 43 82 44 76 45 78 46 29 47 81 48 75 49 74 50 30 52 62 53
REMARK SMILES IDX 42 54 61 55 43 56 46 57 60 58 79 59 44 60 45 61 59 63 80 64
REMARK SMILES IDX 47 65 31 66 32 67 40 68 33 69 39 70 41 71 38 72 34 73 35 74
REMARK SMILES IDX 36 75 37 76 63 77 64 78 72 79 65 80 71 81 73 82 70 83 66 84
REMARK SMILES IDX 67 85 68 86 69 87 48 88 49 89 57 90 50 91 56 92 58 93 55 94
REMARK SMILES IDX 51 95 52 96 53 97 54 98
REMARK H PARENT 78 51 46 62
REMARK Flexibility Score: inf
ROOT
ATOM      1  C   UNL A   1      29.714  31.720  24.253  1.00  0.00     0.188 C 
ENDROOT
BRANCH   1   2
ATOM      2  O   UNL A   1      29.374  32.985  23.690  1.00  0.00    -0.377 OA
BRANCH   2   3
ATOM      3  C   UNL A   1      28.427  33.060  22.638  1.00  0.00     0.188 C 
BRANCH   3   4
ATOM      4  C   UNL A   1      28.290  31.869  21.665  1.00  0.00     0.188 C 
BRANCH   4   5
ATOM      5  O   UNL A   1      27.639  30.740  22.210  1.00  0.00    -0.376 OA
BRANCH   5   6
ATOM      6  C   UNL A   1      28.133  29.433  21.985  1.00  0.00     0.202 C 
BRANCH   6   7
ATOM      7  C   UNL A   1      28.380  28.421  23.117  1.00  0.00     0.261 C 
BRANCH   7   8
ATOM      8  O   UNL A   1      29.737  28.041  23.335  1.00  0.00    -0.460 OA
BRANCH   8   9
ATOM      9  C   UNL A   1      29.958  26.836  23.898  1.00  0.00     0.342 C 
ATOM     10  O   UNL A   1      29.169  26.183  24.562  1.00  0.00    -0.246 OA
BRANCH   9  11
ATOM     11  C   UNL A   1      31.219  26.279  23.356  1.00  0.00     0.102 A 
ATOM     12  C   UNL A   1      32.164  25.600  24.143  1.00  0.00     0.141 A 
ATOM     13  C   UNL A   1      33.280  24.993  23.522  1.00  0.00     0.025 A 
ATOM     14  C   UNL A   1      31.464  26.511  21.992  1.00  0.00     0.019 A 
ATOM     15  C   UNL A   1      33.524  25.291  22.161  1.00  0.00     0.012 A 
ATOM     16  C   UNL A   1      32.641  26.063  21.409  1.00  0.00     0.002 A 
BRANCH  12  17
ATOM     17  O   UNL A   1      31.895  25.452  25.483  1.00  0.00    -0.495 OA
ATOM     18  C   UNL A   1      32.532  26.442  26.300  1.00  0.00     0.278 C 
ENDBRANCH  12  17
BRANCH  13  19
ATOM     19  C   UNL A   1      34.128  23.970  24.181  1.00  0.00    -0.011 A 
ATOM     20  C   UNL A   1      35.296  24.367  24.870  1.00  0.00     0.012 A 
ATOM     21  C   UNL A   1      33.845  22.583  24.097  1.00  0.00    -0.043 A 
ATOM     22  C   UNL A   1      36.159  23.436  25.466  1.00  0.00    -0.050 A 
ATOM     23  C   UNL A   1      34.680  21.664  24.755  1.00  0.00     0.004 A 
ATOM     24  C   UNL A   1      32.656  22.015  23.361  1.00  0.00     0.045 C 
ATOM     25  C   UNL A   1      37.424  23.895  26.128  1.00  0.00     0.044 C 
ATOM     26  C   UNL A   1      35.827  22.083  25.423  1.00  0.00     0.004 A 
ENDBRANCH  13  19
ENDBRANCH   9  11
ENDBRANCH   8   9
ENDBRANCH   7   8
ENDBRANCH   6   7
ENDBRANCH   5   6
ENDBRANCH   4   5
ENDBRANCH   3   4
ENDBRANCH   2   3
ENDBRANCH   1   2
BRANCH   1  27
ATOM     27  C   UNL A   1      30.748  31.585  25.397  1.00  0.00     0.188 C 
BRANCH  27  28
ATOM     28  O   UNL A   1      31.385  30.321  25.489  1.00  0.00    -0.376 OA
BRANCH  28  29
ATOM     29  C   UNL A   1      32.088  30.024  26.683  1.00  0.00     0.202 C 
BRANCH  29  30
ATOM     30  C   UNL A   1      32.750  31.203  27.413  1.00  0.00     0.261 C 
BRANCH  30  31
ATOM     31  O   UNL A   1      34.176  31.304  27.283  1.00  0.00    -0.460 OA
BRANCH  31  32
ATOM     32  C   UNL A   1      34.855  31.658  28.394  1.00  0.00     0.338 C 
ATOM     33  O   UNL A   1      34.484  32.442  29.256  1.00  0.00    -0.246 OA
BRANCH  32  34
ATOM     34  C   UNL A   1      36.041  30.787  28.507  1.00  0.00     0.060 A 
ATOM     35  C   UNL A   1      35.977  29.674  29.355  1.00  0.00     0.016 A 
ATOM     36  C   UNL A   1      37.209  31.074  27.796  1.00  0.00     0.016 A 
ATOM     37  C   UNL A   1      37.106  28.881  29.546  1.00  0.00     0.010 A 
ATOM     38  C   UNL A   1      38.347  30.288  28.004  1.00  0.00     0.010 A 
ATOM     39  C   UNL A   1      38.313  29.222  28.922  1.00  0.00    -0.014 A 
BRANCH  39  40
ATOM     40  C   UNL A   1      39.570  28.630  29.443  1.00  0.00     0.031 A 
ATOM     41  C   UNL A   1      40.157  29.218  30.701  1.00  0.00     0.074 A 
ATOM     42  C   UNL A   1      40.131  27.549  28.874  1.00  0.00     0.049 A 
ATOM     43  N   UNL A   1      41.210  28.852  31.383  1.00  0.00    -0.248 NA
ATOM     44  C   UNL A   1      39.454  30.383  31.261  1.00  0.00     0.031 C 
ATOM     45  C   UNL A   1      39.623  26.858  27.691  1.00  0.00     0.029 A 
ATOM     46  N   UNL A   1      41.247  26.833  29.230  1.00  0.00    -0.354 N 
ATOM     47  C   UNL A   1      41.300  29.744  32.447  1.00  0.00     0.074 A 
ATOM     48  C   UNL A   1      40.224  30.697  32.289  1.00  0.00     0.031 C 
ATOM     49  C   UNL A   1      40.418  25.806  27.428  1.00  0.00     0.029 A 
ATOM     50  C   UNL A   1      41.509  25.768  28.401  1.00  0.00     0.049 A 
ATOM     51  H   UNL A   1      41.807  27.062  30.007  1.00  0.00     0.167 HD
ATOM     52  C   UNL A   1      42.190  29.761  33.470  1.00  0.00     0.034 A 
ATOM     53  C   UNL A   1      42.517  24.874  28.425  1.00  0.00     0.034 A 
ATOM     54  C   UNL A   1      43.266  28.809  33.606  1.00  0.00     0.049 A 
ATOM     55  C   UNL A   1      43.551  24.965  29.524  1.00  0.00     0.074 A 
ATOM     56  C   UNL A   1      44.219  28.722  34.605  1.00  0.00     0.029 A 
ATOM     57  N   UNL A   1      43.544  27.787  32.705  1.00  0.00    -0.354 N 
ATOM     58  N   UNL A   1      43.623  25.806  30.532  1.00  0.00    -0.248 NA
ATOM     59  C   UNL A   1      44.631  23.972  29.494  1.00  0.00     0.031 C 
ATOM     60  C   UNL A   1      45.124  27.712  34.262  1.00  0.00     0.029 A 
ATOM     61  C   UNL A   1      44.676  27.093  33.105  1.00  0.00     0.049 A 
ATOM     62  H   UNL A   1      43.014  27.585  31.901  1.00  0.00     0.167 HD
ATOM     63  C   UNL A   1      44.729  25.407  31.282  1.00  0.00     0.074 A 
ATOM     64  C   UNL A   1      45.284  24.249  30.613  1.00  0.00     0.031 C 
ATOM     65  C   UNL A   1      45.231  25.942  32.427  1.00  0.00     0.034 A 
BRANCH  52  66
ATOM     66  C   UNL A   1      42.074  30.890  34.470  1.00  0.00     0.023 A 
ATOM     67  C   UNL A   1      42.747  32.114  34.298  1.00  0.00     0.031 A 
ATOM     68  C   UNL A   1      41.326  30.715  35.648  1.00  0.00     0.131 A 
ATOM     69  C   UNL A   1      42.733  33.071  35.324  1.00  0.00     0.055 A 
ATOM     70  C   UNL A   1      41.237  31.710  36.622  1.00  0.00     0.041 A 
ATOM     71  F   UNL A   1      40.685  29.559  35.885  1.00  0.00    -0.206 F 
ATOM     72  C   UNL A   1      41.959  32.890  36.473  1.00  0.00     0.022 A 
BRANCH  69  73
ATOM     73  S   UNL A   1      43.886  34.469  35.223  1.00  0.00     0.124 S 
ATOM     74  O   UNL A   1      43.463  35.283  36.360  1.00  0.00    -0.237 OA
ATOM     75  O   UNL A   1      45.184  33.817  35.351  1.00  0.00    -0.237 OA
ATOM     76  O   UNL A   1      43.606  35.051  33.912  1.00  0.00    -0.744 OA
ENDBRANCH  69  73
ENDBRANCH  52  66
BRANCH  53  77
ATOM     77  C   UNL A   1      42.616  23.813  27.380  1.00  0.00     0.023 A 
ATOM     78  C   UNL A   1      41.911  22.605  27.500  1.00  0.00     0.031 A 
ATOM     79  C   UNL A   1      43.469  23.968  26.272  1.00  0.00     0.131 A 
ATOM     80  C   UNL A   1      42.105  21.583  26.558  1.00  0.00     0.055 A 
ATOM     81  C   UNL A   1      43.615  22.972  25.306  1.00  0.00     0.041 A 
ATOM     82  F   UNL A   1      44.174  25.101  26.111  1.00  0.00    -0.206 F 
ATOM     83  C   UNL A   1      42.941  21.764  25.453  1.00  0.00     0.022 A 
BRANCH  80  84
ATOM     84  S   UNL A   1      41.317  19.974  26.843  1.00  0.00     0.124 S 
ATOM     85  O   UNL A   1      40.985  20.055  28.261  1.00  0.00    -0.237 OA
ATOM     86  O   UNL A   1      40.191  20.020  25.916  1.00  0.00    -0.237 OA
ATOM     87  O   UNL A   1      42.365  19.016  26.500  1.00  0.00    -0.744 OA
ENDBRANCH  80  84
ENDBRANCH  53  77
BRANCH  65  88
ATOM     88  C   UNL A   1      46.402  25.229  33.068  1.00  0.00     0.023 A 
ATOM     89  C   UNL A   1      46.229  24.215  34.027  1.00  0.00     0.031 A 
ATOM     90  C   UNL A   1      47.718  25.599  32.736  1.00  0.00     0.131 A 
ATOM     91  C   UNL A   1      47.347  23.671  34.680  1.00  0.00     0.055 A 
ATOM     92  C   UNL A   1      48.828  24.995  33.328  1.00  0.00     0.041 A 
ATOM     93  F   UNL A   1      47.951  26.563  31.830  1.00  0.00    -0.206 F 
ATOM     94  C   UNL A   1      48.645  24.039  34.322  1.00  0.00     0.022 A 
BRANCH  91  95
ATOM     95  S   UNL A   1      47.076  22.584  36.108  1.00  0.00     0.124 S 
ATOM     96  O   UNL A   1      45.656  22.785  36.377  1.00  0.00    -0.237 OA
ATOM     97  O   UNL A   1      47.444  21.275  35.577  1.00  0.00    -0.237 OA
ATOM     98  O   UNL A   1      47.981  23.118  37.123  1.00  0.00    -0.744 OA
ENDBRANCH  91  95
ENDBRANCH  65  88
ENDBRANCH  39  40
ENDBRANCH  32  34
ENDBRANCH  31  32
ENDBRANCH  30  31
ENDBRANCH  29  30
ENDBRANCH  28  29
ENDBRANCH  27  28
ENDBRANCH   1  27
TORSDOF 25
ENDMDL
