MODEL 1
REMARK VINA RESULT:      -9.9      0.000      0.000
REMARK SMILES C[C@H](CC(=O)OCCOCCOCCOCCOC(=O)c1ccc(-c2c3nc(c(-c4cc(S(=O)(=O)[O-])ccc4F)c4ccc([nH]4)c(-c4cc(S(=O)(=O)[O-])ccc4F)c4nc(c(-c5cc(S(=O)(=O)[O-])ccc5F)c5ccc2[nH]5)C=C4)C=C3)cc1)NC(=O)Cn1nc2ccccn2c1=O
REMARK SMILES IDX 11 1 10 2 9 3 8 4 7 5 6 6 4 7 5 8 3 9 2 10 1 11 84 12 85 13
REMARK SMILES IDX 86 15 87 16 88 17 89 18 96 19 90 20 95 21 97 22 91 23 94 24
REMARK SMILES IDX 92 25 93 26 12 27 13 28 14 29 15 30 16 31 17 32 18 33 19 34
REMARK SMILES IDX 20 35 21 36 22 37 83 38 23 39 82 40 24 41 25 42 26 43 76 44
REMARK SMILES IDX 27 45 81 46 75 47 77 48 28 49 80 50 74 51 73 52 29 54 61 55
REMARK SMILES IDX 41 56 60 57 42 58 45 59 59 60 78 61 43 62 44 63 58 65 79 66
REMARK SMILES IDX 46 67 30 68 31 69 39 70 32 71 38 72 40 73 37 74 33 75 34 76
REMARK SMILES IDX 35 77 36 78 62 79 63 80 71 81 64 82 70 83 72 84 69 85 65 86
REMARK SMILES IDX 66 87 67 88 68 89 47 90 48 91 56 92 49 93 55 94 57 95 54 96
REMARK SMILES IDX 50 97 51 98 52 99 53 100
REMARK H PARENT 84 14 77 53 45 64
REMARK Flexibility Score: inf
ROOT
ATOM      1  C   UNL A   1      34.062  25.433  26.294  1.00  0.00     0.188 C 
ENDROOT
BRANCH   1   2
ATOM      2  C   UNL A   1      34.808  24.928  25.057  1.00  0.00     0.188 C 
BRANCH   2   3
ATOM      3  O   UNL A   1      35.913  24.066  25.342  1.00  0.00    -0.376 OA
BRANCH   3   4
ATOM      4  C   UNL A   1      35.863  22.743  24.792  1.00  0.00     0.202 C 
BRANCH   4   5
ATOM      5  C   UNL A   1      35.351  21.659  25.751  1.00  0.00     0.261 C 
BRANCH   5   6
ATOM      6  O   UNL A   1      34.075  21.114  25.341  1.00  0.00    -0.463 OA
BRANCH   6   7
ATOM      7  C   UNL A   1      32.984  21.878  25.595  1.00  0.00     0.307 C 
ATOM      8  O   UNL A   1      32.684  22.314  26.703  1.00  0.00    -0.252 OA
BRANCH   7   9
ATOM      9  C   UNL A   1      32.183  22.248  24.363  1.00  0.00     0.147 C 
BRANCH   9  10
ATOM     10  C   UNL A   1      31.457  23.598  24.333  1.00  0.00     0.090 C 
ATOM     11  C   UNL A   1      30.761  23.829  22.991  1.00  0.00     0.031 C 
BRANCH  10  12
ATOM     12  N   UNL A   1      30.426  23.643  25.398  1.00  0.00    -0.351 N 
ATOM     13  C   UNL A   1      29.896  24.684  26.115  1.00  0.00     0.242 C 
ATOM     14  H   UNL A   1      30.053  22.763  25.633  1.00  0.00     0.163 HD
ATOM     15  O   UNL A   1      29.106  24.428  27.027  1.00  0.00    -0.273 OA
BRANCH  13  16
ATOM     16  C   UNL A   1      30.322  26.115  25.809  1.00  0.00     0.249 C 
BRANCH  16  17
ATOM     17  N   UNL A   1      29.993  26.589  24.476  1.00  0.00    -0.203 N 
ATOM     18  N   UNL A   1      30.884  27.454  23.830  1.00  0.00    -0.149 NA
ATOM     19  C   UNL A   1      28.678  26.880  24.061  1.00  0.00     0.350 A 
ATOM     20  C   UNL A   1      30.120  28.214  23.108  1.00  0.00     0.161 A 
ATOM     21  N   UNL A   1      28.796  27.932  23.191  1.00  0.00    -0.250 N 
ATOM     22  O   UNL A   1      27.637  26.377  24.456  1.00  0.00    -0.246 OA
ATOM     23  C   UNL A   1      30.512  29.389  22.302  1.00  0.00     0.050 A 
ATOM     24  C   UNL A   1      27.799  28.689  22.642  1.00  0.00     0.098 A 
ATOM     25  C   UNL A   1      29.528  30.146  21.784  1.00  0.00     0.005 A 
ATOM     26  C   UNL A   1      28.129  29.796  21.959  1.00  0.00     0.019 A 
ENDBRANCH  16  17
ENDBRANCH  13  16
ENDBRANCH  10  12
ENDBRANCH   9  10
ENDBRANCH   7   9
ENDBRANCH   6   7
ENDBRANCH   5   6
ENDBRANCH   4   5
ENDBRANCH   3   4
ENDBRANCH   2   3
ENDBRANCH   1   2
BRANCH   1  27
ATOM     27  O   UNL A   1      33.299  26.588  25.980  1.00  0.00    -0.377 OA
BRANCH  27  28
ATOM     28  C   UNL A   1      33.884  27.870  26.200  1.00  0.00     0.188 C 
BRANCH  28  29
ATOM     29  C   UNL A   1      32.939  29.008  26.607  1.00  0.00     0.188 C 
BRANCH  29  30
ATOM     30  O   UNL A   1      32.503  29.886  25.562  1.00  0.00    -0.376 OA
BRANCH  30  31
ATOM     31  C   UNL A   1      31.565  30.910  25.887  1.00  0.00     0.202 C 
BRANCH  31  32
ATOM     32  C   UNL A   1      31.847  31.732  27.147  1.00  0.00     0.261 C 
BRANCH  32  33
ATOM     33  O   UNL A   1      32.673  32.876  26.875  1.00  0.00    -0.460 OA
BRANCH  33  34
ATOM     34  C   UNL A   1      33.259  33.422  27.970  1.00  0.00     0.338 C 
ATOM     35  O   UNL A   1      32.754  34.204  28.756  1.00  0.00    -0.246 OA
BRANCH  34  36
ATOM     36  C   UNL A   1      34.563  32.773  28.207  1.00  0.00     0.060 A 
ATOM     37  C   UNL A   1      34.569  31.393  28.445  1.00  0.00     0.016 A 
ATOM     38  C   UNL A   1      35.747  33.513  28.268  1.00  0.00     0.016 A 
ATOM     39  C   UNL A   1      35.752  30.754  28.801  1.00  0.00     0.010 A 
ATOM     40  C   UNL A   1      36.931  32.874  28.646  1.00  0.00     0.010 A 
ATOM     41  C   UNL A   1      36.924  31.503  28.955  1.00  0.00    -0.014 A 
BRANCH  41  42
ATOM     42  C   UNL A   1      38.069  30.889  29.661  1.00  0.00     0.031 A 
ATOM     43  C   UNL A   1      38.310  31.285  31.092  1.00  0.00     0.074 A 
ATOM     44  C   UNL A   1      38.836  29.966  29.058  1.00  0.00     0.049 A 
ATOM     45  N   UNL A   1      39.235  30.884  31.922  1.00  0.00    -0.248 NA
ATOM     46  C   UNL A   1      37.374  32.269  31.660  1.00  0.00     0.031 C 
ATOM     47  C   UNL A   1      38.650  29.479  27.692  1.00  0.00     0.029 A 
ATOM     48  N   UNL A   1      39.925  29.273  29.519  1.00  0.00    -0.354 N 
ATOM     49  C   UNL A   1      38.990  31.561  33.113  1.00  0.00     0.074 A 
ATOM     50  C   UNL A   1      37.854  32.425  32.884  1.00  0.00     0.031 C 
ATOM     51  C   UNL A   1      39.605  28.572  27.419  1.00  0.00     0.029 A 
ATOM     52  C   UNL A   1      40.484  28.438  28.580  1.00  0.00     0.049 A 
ATOM     53  H   UNL A   1      40.274  29.365  30.434  1.00  0.00     0.167 HD
ATOM     54  C   UNL A   1      39.651  31.461  34.293  1.00  0.00     0.034 A 
ATOM     55  C   UNL A   1      41.591  27.673  28.651  1.00  0.00     0.034 A 
ATOM     56  C   UNL A   1      40.801  30.614  34.486  1.00  0.00     0.049 A 
ATOM     57  C   UNL A   1      42.367  27.646  29.946  1.00  0.00     0.074 A 
ATOM     58  C   UNL A   1      41.561  30.432  35.627  1.00  0.00     0.029 A 
ATOM     59  N   UNL A   1      41.370  29.817  33.499  1.00  0.00    -0.354 N 
ATOM     60  N   UNL A   1      42.120  28.280  31.071  1.00  0.00    -0.248 NA
ATOM     61  C   UNL A   1      43.559  26.791  29.986  1.00  0.00     0.031 C 
ATOM     62  C   UNL A   1      42.627  29.582  35.312  1.00  0.00     0.029 A 
ATOM     63  C   UNL A   1      42.490  29.170  33.995  1.00  0.00     0.049 A 
ATOM     64  H   UNL A   1      41.028  29.726  32.580  1.00  0.00     0.167 HD
ATOM     65  C   UNL A   1      43.115  27.879  31.960  1.00  0.00     0.074 A 
ATOM     66  C   UNL A   1      43.953  26.939  31.243  1.00  0.00     0.031 C 
ATOM     67  C   UNL A   1      43.318  28.248  33.252  1.00  0.00     0.034 A 
BRANCH  54  68
ATOM     68  C   UNL A   1      39.175  32.339  35.426  1.00  0.00     0.023 A 
ATOM     69  C   UNL A   1      39.620  33.665  35.574  1.00  0.00     0.031 A 
ATOM     70  C   UNL A   1      38.307  31.822  36.405  1.00  0.00     0.131 A 
ATOM     71  C   UNL A   1      39.256  34.403  36.710  1.00  0.00     0.055 A 
ATOM     72  C   UNL A   1      37.886  32.589  37.493  1.00  0.00     0.041 A 
ATOM     73  F   UNL A   1      37.872  30.555  36.332  1.00  0.00    -0.206 F 
ATOM     74  C   UNL A   1      38.373  33.882  37.659  1.00  0.00     0.022 A 
BRANCH  71  75
ATOM     75  S   UNL A   1      40.067  35.998  37.008  1.00  0.00     0.124 S 
ATOM     76  O   UNL A   1      39.922  36.650  35.709  1.00  0.00    -0.237 OA
ATOM     77  O   UNL A   1      39.272  36.558  38.095  1.00  0.00    -0.237 OA
ATOM     78  O   UNL A   1      41.436  35.627  37.362  1.00  0.00    -0.744 OA
ENDBRANCH  71  75
ENDBRANCH  54  68
BRANCH  55  79
ATOM     79  C   UNL A   1      42.057  26.907  27.460  1.00  0.00     0.023 A 
ATOM     80  C   UNL A   1      41.866  25.521  27.360  1.00  0.00     0.031 A 
ATOM     81  C   UNL A   1      42.741  27.555  26.415  1.00  0.00     0.131 A 
ATOM     82  C   UNL A   1      42.386  24.820  26.259  1.00  0.00     0.055 A 
ATOM     83  C   UNL A   1      43.214  26.862  25.298  1.00  0.00     0.041 A 
ATOM     84  F   UNL A   1      42.949  28.881  26.458  1.00  0.00    -0.206 F 
ATOM     85  C   UNL A   1      43.047  25.483  25.223  1.00  0.00     0.022 A 
BRANCH  82  86
ATOM     86  S   UNL A   1      42.245  23.011  26.233  1.00  0.00     0.124 S 
ATOM     87  O   UNL A   1      43.055  22.633  27.385  1.00  0.00    -0.237 OA
ATOM     88  O   UNL A   1      40.805  22.820  26.370  1.00  0.00    -0.237 OA
ATOM     89  O   UNL A   1      42.799  22.647  24.931  1.00  0.00    -0.744 OA
ENDBRANCH  82  86
ENDBRANCH  55  79
BRANCH  67  90
ATOM     90  C   UNL A   1      44.471  27.597  33.973  1.00  0.00     0.023 A 
ATOM     91  C   UNL A   1      44.311  26.400  34.693  1.00  0.00     0.031 A 
ATOM     92  C   UNL A   1      45.747  28.187  33.942  1.00  0.00     0.131 A 
ATOM     93  C   UNL A   1      45.396  25.862  35.400  1.00  0.00     0.055 A 
ATOM     94  C   UNL A   1      46.837  27.615  34.598  1.00  0.00     0.041 A 
ATOM     95  F   UNL A   1      45.954  29.331  33.270  1.00  0.00    -0.206 F 
ATOM     96  C   UNL A   1      46.662  26.452  35.344  1.00  0.00     0.022 A 
BRANCH  93  97
ATOM     97  S   UNL A   1      45.111  24.426  36.471  1.00  0.00     0.124 S 
ATOM     98  O   UNL A   1      46.457  24.139  36.957  1.00  0.00    -0.237 OA
ATOM     99  O   UNL A   1      44.175  24.955  37.458  1.00  0.00    -0.237 OA
ATOM    100  O   UNL A   1      44.554  23.426  35.562  1.00  0.00    -0.744 OA
ENDBRANCH  93  97
ENDBRANCH  67  90
ENDBRANCH  41  42
ENDBRANCH  34  36
ENDBRANCH  33  34
ENDBRANCH  32  33
ENDBRANCH  31  32
ENDBRANCH  30  31
ENDBRANCH  29  30
ENDBRANCH  28  29
ENDBRANCH  27  28
ENDBRANCH   1  27
TORSDOF 27
ENDMDL
MODEL 2
REMARK VINA RESULT:      -9.5      2.171      2.982
REMARK SMILES C[C@H](CC(=O)OCCOCCOCCOCCOC(=O)c1ccc(-c2c3nc(c(-c4cc(S(=O)(=O)[O-])ccc4F)c4ccc([nH]4)c(-c4cc(S(=O)(=O)[O-])ccc4F)c4nc(c(-c5cc(S(=O)(=O)[O-])ccc5F)c5ccc2[nH]5)C=C4)C=C3)cc1)NC(=O)Cn1nc2ccccn2c1=O
REMARK SMILES IDX 11 1 10 2 9 3 8 4 7 5 6 6 4 7 5 8 3 9 2 10 1 11 84 12 85 13
REMARK SMILES IDX 86 15 87 16 88 17 89 18 96 19 90 20 95 21 97 22 91 23 94 24
REMARK SMILES IDX 92 25 93 26 12 27 13 28 14 29 15 30 16 31 17 32 18 33 19 34
REMARK SMILES IDX 20 35 21 36 22 37 83 38 23 39 82 40 24 41 25 42 26 43 76 44
REMARK SMILES IDX 27 45 81 46 75 47 77 48 28 49 80 50 74 51 73 52 29 54 61 55
REMARK SMILES IDX 41 56 60 57 42 58 45 59 59 60 78 61 43 62 44 63 58 65 79 66
REMARK SMILES IDX 46 67 30 68 31 69 39 70 32 71 38 72 40 73 37 74 33 75 34 76
REMARK SMILES IDX 35 77 36 78 62 79 63 80 71 81 64 82 70 83 72 84 69 85 65 86
REMARK SMILES IDX 66 87 67 88 68 89 47 90 48 91 56 92 49 93 55 94 57 95 54 96
REMARK SMILES IDX 50 97 51 98 52 99 53 100
REMARK H PARENT 84 14 77 53 45 64
REMARK Flexibility Score: inf
ROOT
ATOM      1  C   UNL A   1      34.940  24.837  25.724  1.00  0.00     0.188 C 
ENDROOT
BRANCH   1   2
ATOM      2  C   UNL A   1      35.250  24.240  24.350  1.00  0.00     0.188 C 
BRANCH   2   3
ATOM      3  O   UNL A   1      36.548  23.648  24.240  1.00  0.00    -0.376 OA
BRANCH   3   4
ATOM      4  C   UNL A   1      36.599  22.244  23.954  1.00  0.00     0.202 C 
BRANCH   4   5
ATOM      5  C   UNL A   1      36.550  21.327  25.185  1.00  0.00     0.261 C 
BRANCH   5   6
ATOM      6  O   UNL A   1      35.498  20.338  25.097  1.00  0.00    -0.463 OA
BRANCH   6   7
ATOM      7  C   UNL A   1      34.231  20.788  25.267  1.00  0.00     0.307 C 
ATOM      8  O   UNL A   1      33.816  21.327  26.289  1.00  0.00    -0.252 OA
BRANCH   7   9
ATOM      9  C   UNL A   1      33.355  20.663  24.036  1.00  0.00     0.147 C 
BRANCH   9  10
ATOM     10  C   UNL A   1      32.661  21.918  23.493  1.00  0.00     0.090 C 
ATOM     11  C   UNL A   1      31.744  21.584  22.317  1.00  0.00     0.031 C 
BRANCH  10  12
ATOM     12  N   UNL A   1      31.836  22.540  24.557  1.00  0.00    -0.351 N 
ATOM     13  C   UNL A   1      31.147  23.724  24.605  1.00  0.00     0.242 C 
ATOM     14  H   UNL A   1      31.771  22.004  25.379  1.00  0.00     0.163 HD
ATOM     15  O   UNL A   1      30.612  24.051  25.667  1.00  0.00    -0.273 OA
BRANCH  13  16
ATOM     16  C   UNL A   1      31.094  24.625  23.378  1.00  0.00     0.249 C 
BRANCH  16  17
ATOM     17  N   UNL A   1      30.639  25.983  23.623  1.00  0.00    -0.203 N 
ATOM     18  N   UNL A   1      29.324  26.184  24.058  1.00  0.00    -0.149 NA
ATOM     19  C   UNL A   1      31.048  27.088  22.850  1.00  0.00     0.350 A 
ATOM     20  C   UNL A   1      28.991  27.327  23.540  1.00  0.00     0.161 A 
ATOM     21  N   UNL A   1      29.964  27.925  22.810  1.00  0.00    -0.250 N 
ATOM     22  O   UNL A   1      32.104  27.238  22.254  1.00  0.00    -0.246 OA
ATOM     23  C   UNL A   1      27.668  27.984  23.572  1.00  0.00     0.050 A 
ATOM     24  C   UNL A   1      29.794  29.050  22.053  1.00  0.00     0.098 A 
ATOM     25  C   UNL A   1      27.497  29.076  22.806  1.00  0.00     0.005 A 
ATOM     26  C   UNL A   1      28.584  29.629  22.017  1.00  0.00     0.019 A 
ENDBRANCH  16  17
ENDBRANCH  13  16
ENDBRANCH  10  12
ENDBRANCH   9  10
ENDBRANCH   7   9
ENDBRANCH   6   7
ENDBRANCH   5   6
ENDBRANCH   4   5
ENDBRANCH   3   4
ENDBRANCH   2   3
ENDBRANCH   1   2
BRANCH   1  27
ATOM     27  O   UNL A   1      33.867  25.761  25.636  1.00  0.00    -0.377 OA
BRANCH  27  28
ATOM     28  C   UNL A   1      34.009  26.889  24.776  1.00  0.00     0.188 C 
BRANCH  28  29
ATOM     29  C   UNL A   1      33.925  28.278  25.425  1.00  0.00     0.188 C 
BRANCH  29  30
ATOM     30  O   UNL A   1      32.742  29.040  25.157  1.00  0.00    -0.376 OA
BRANCH  30  31
ATOM     31  C   UNL A   1      32.154  29.774  26.230  1.00  0.00     0.202 C 
BRANCH  31  32
ATOM     32  C   UNL A   1      33.040  30.047  27.449  1.00  0.00     0.261 C 
BRANCH  32  33
ATOM     33  O   UNL A   1      33.874  31.203  27.266  1.00  0.00    -0.460 OA
BRANCH  33  34
ATOM     34  C   UNL A   1      34.578  31.570  28.365  1.00  0.00     0.338 C 
ATOM     35  O   UNL A   1      34.240  32.375  29.215  1.00  0.00    -0.246 OA
BRANCH  34  36
ATOM     36  C   UNL A   1      35.757  30.694  28.510  1.00  0.00     0.060 A 
ATOM     37  C   UNL A   1      35.828  29.881  29.648  1.00  0.00     0.016 A 
ATOM     38  C   UNL A   1      36.807  30.724  27.588  1.00  0.00     0.016 A 
ATOM     39  C   UNL A   1      36.974  29.135  29.899  1.00  0.00     0.010 A 
ATOM     40  C   UNL A   1      37.966  29.990  27.852  1.00  0.00     0.010 A 
ATOM     41  C   UNL A   1      38.066  29.230  29.030  1.00  0.00    -0.014 A 
BRANCH  41  42
ATOM     42  C   UNL A   1      39.379  28.721  29.484  1.00  0.00     0.031 A 
ATOM     43  C   UNL A   1      40.026  29.391  30.664  1.00  0.00     0.074 A 
ATOM     44  C   UNL A   1      39.948  27.658  28.891  1.00  0.00     0.049 A 
ATOM     45  N   UNL A   1      41.161  29.126  31.253  1.00  0.00    -0.248 NA
ATOM     46  C   UNL A   1      39.284  30.514  31.261  1.00  0.00     0.031 C 
ATOM     47  C   UNL A   1      39.374  26.910  27.773  1.00  0.00     0.029 A 
ATOM     48  N   UNL A   1      41.135  27.024  29.148  1.00  0.00    -0.354 N 
ATOM     49  C   UNL A   1      41.269  30.044  32.293  1.00  0.00     0.074 A 
ATOM     50  C   UNL A   1      40.101  30.895  32.230  1.00  0.00     0.031 C 
ATOM     51  C   UNL A   1      40.220  25.922  27.431  1.00  0.00     0.029 A 
ATOM     52  C   UNL A   1      41.405  25.988  28.285  1.00  0.00     0.049 A 
ATOM     53  H   UNL A   1      41.738  27.286  29.881  1.00  0.00     0.167 HD
ATOM     54  C   UNL A   1      42.250  30.158  33.222  1.00  0.00     0.034 A 
ATOM     55  C   UNL A   1      42.495  25.203  28.188  1.00  0.00     0.034 A 
ATOM     56  C   UNL A   1      43.419  29.315  33.244  1.00  0.00     0.049 A 
ATOM     57  C   UNL A   1      43.620  25.406  29.176  1.00  0.00     0.074 A 
ATOM     58  C   UNL A   1      44.485  29.337  34.125  1.00  0.00     0.029 A 
ATOM     59  N   UNL A   1      43.684  28.306  32.324  1.00  0.00    -0.354 N 
ATOM     60  N   UNL A   1      43.706  26.269  30.164  1.00  0.00    -0.248 NA
ATOM     61  C   UNL A   1      44.784  24.522  29.044  1.00  0.00     0.031 C 
ATOM     62  C   UNL A   1      45.424  28.390  33.698  1.00  0.00     0.029 A 
ATOM     63  C   UNL A   1      44.910  27.723  32.596  1.00  0.00     0.049 A 
ATOM     64  H   UNL A   1      43.086  28.045  31.586  1.00  0.00     0.167 HD
ATOM     65  C   UNL A   1      44.926  26.013  30.786  1.00  0.00     0.074 A 
ATOM     66  C   UNL A   1      45.530  24.907  30.071  1.00  0.00     0.031 C 
ATOM     67  C   UNL A   1      45.496  26.629  31.855  1.00  0.00     0.034 A 
BRANCH  54  68
ATOM     68  C   UNL A   1      42.116  31.271  34.233  1.00  0.00     0.023 A 
ATOM     69  C   UNL A   1      41.127  31.251  35.233  1.00  0.00     0.031 A 
ATOM     70  C   UNL A   1      42.954  32.399  34.159  1.00  0.00     0.131 A 
ATOM     71  C   UNL A   1      40.954  32.364  36.069  1.00  0.00     0.055 A 
ATOM     72  C   UNL A   1      42.826  33.470  35.045  1.00  0.00     0.041 A 
ATOM     73  F   UNL A   1      43.897  32.488  33.208  1.00  0.00    -0.206 F 
ATOM     74  C   UNL A   1      41.812  33.464  35.997  1.00  0.00     0.022 A 
BRANCH  71  75
ATOM     75  S   UNL A   1      39.500  32.419  37.153  1.00  0.00     0.124 S 
ATOM     76  O   UNL A   1      40.120  32.494  38.474  1.00  0.00    -0.237 OA
ATOM     77  O   UNL A   1      38.815  33.624  36.700  1.00  0.00    -0.237 OA
ATOM     78  O   UNL A   1      38.810  31.163  36.867  1.00  0.00    -0.744 OA
ENDBRANCH  71  75
ENDBRANCH  54  68
BRANCH  55  79
ATOM     79  C   UNL A   1      42.601  24.187  27.103  1.00  0.00     0.023 A 
ATOM     80  C   UNL A   1      41.984  22.932  27.211  1.00  0.00     0.031 A 
ATOM     81  C   UNL A   1      43.361  24.450  25.948  1.00  0.00     0.131 A 
ATOM     82  C   UNL A   1      42.168  21.972  26.203  1.00  0.00     0.055 A 
ATOM     83  C   UNL A   1      43.502  23.509  24.925  1.00  0.00     0.041 A 
ATOM     84  F   UNL A   1      43.971  25.635  25.791  1.00  0.00    -0.206 F 
ATOM     85  C   UNL A   1      42.912  22.256  25.056  1.00  0.00     0.022 A 
BRANCH  82  86
ATOM     86  S   UNL A   1      41.475  20.312  26.444  1.00  0.00     0.124 S 
ATOM     87  O   UNL A   1      41.884  20.014  27.811  1.00  0.00    -0.237 OA
ATOM     88  O   UNL A   1      40.049  20.549  26.237  1.00  0.00    -0.237 OA
ATOM     89  O   UNL A   1      42.129  19.517  25.406  1.00  0.00    -0.744 OA
ENDBRANCH  82  86
ENDBRANCH  55  79
BRANCH  67  90
ATOM     90  C   UNL A   1      46.821  26.087  32.327  1.00  0.00     0.023 A 
ATOM     91  C   UNL A   1      46.904  25.136  33.360  1.00  0.00     0.031 A 
ATOM     92  C   UNL A   1      48.018  26.533  31.739  1.00  0.00     0.131 A 
ATOM     93  C   UNL A   1      48.160  24.704  33.810  1.00  0.00     0.055 A 
ATOM     94  C   UNL A   1      49.261  26.055  32.150  1.00  0.00     0.041 A 
ATOM     95  F   UNL A   1      47.994  27.442  30.750  1.00  0.00    -0.206 F 
ATOM     96  C   UNL A   1      49.338  25.145  33.201  1.00  0.00     0.022 A 
BRANCH  93  97
ATOM     97  S   UNL A   1      48.239  23.625  35.265  1.00  0.00     0.124 S 
ATOM     98  O   UNL A   1      47.378  24.328  36.211  1.00  0.00    -0.237 OA
ATOM     99  O   UNL A   1      47.720  22.363  34.746  1.00  0.00    -0.237 OA
ATOM    100  O   UNL A   1      49.660  23.616  35.609  1.00  0.00    -0.744 OA
ENDBRANCH  93  97
ENDBRANCH  67  90
ENDBRANCH  41  42
ENDBRANCH  34  36
ENDBRANCH  33  34
ENDBRANCH  32  33
ENDBRANCH  31  32
ENDBRANCH  30  31
ENDBRANCH  29  30
ENDBRANCH  28  29
ENDBRANCH  27  28
ENDBRANCH   1  27
TORSDOF 27
ENDMDL
MODEL 3
REMARK VINA RESULT:      -9.3      2.964      5.314
REMARK SMILES C[C@H](CC(=O)OCCOCCOCCOCCOC(=O)c1ccc(-c2c3nc(c(-c4cc(S(=O)(=O)[O-])ccc4F)c4ccc([nH]4)c(-c4cc(S(=O)(=O)[O-])ccc4F)c4nc(c(-c5cc(S(=O)(=O)[O-])ccc5F)c5ccc2[nH]5)C=C4)C=C3)cc1)NC(=O)Cn1nc2ccccn2c1=O
REMARK SMILES IDX 11 1 10 2 9 3 8 4 7 5 6 6 4 7 5 8 3 9 2 10 1 11 84 12 85 13
REMARK SMILES IDX 86 15 87 16 88 17 89 18 96 19 90 20 95 21 97 22 91 23 94 24
REMARK SMILES IDX 92 25 93 26 12 27 13 28 14 29 15 30 16 31 17 32 18 33 19 34
REMARK SMILES IDX 20 35 21 36 22 37 83 38 23 39 82 40 24 41 25 42 26 43 76 44
REMARK SMILES IDX 27 45 81 46 75 47 77 48 28 49 80 50 74 51 73 52 29 54 61 55
REMARK SMILES IDX 41 56 60 57 42 58 45 59 59 60 78 61 43 62 44 63 58 65 79 66
REMARK SMILES IDX 46 67 30 68 31 69 39 70 32 71 38 72 40 73 37 74 33 75 34 76
REMARK SMILES IDX 35 77 36 78 62 79 63 80 71 81 64 82 70 83 72 84 69 85 65 86
REMARK SMILES IDX 66 87 67 88 68 89 47 90 48 91 56 92 49 93 55 94 57 95 54 96
REMARK SMILES IDX 50 97 51 98 52 99 53 100
REMARK H PARENT 84 14 77 53 45 64
REMARK Flexibility Score: inf
ROOT
ATOM      1  C   UNL A   1      34.596  31.605  27.872  1.00  0.00     0.188 C 
ENDROOT
BRANCH   1   2
ATOM      2  C   UNL A   1      33.888  30.342  27.380  1.00  0.00     0.188 C 
BRANCH   2   3
ATOM      3  O   UNL A   1      32.467  30.464  27.266  1.00  0.00    -0.376 OA
BRANCH   3   4
ATOM      4  C   UNL A   1      31.924  30.519  25.941  1.00  0.00     0.202 C 
BRANCH   4   5
ATOM      5  C   UNL A   1      32.130  29.250  25.100  1.00  0.00     0.261 C 
BRANCH   5   6
ATOM      6  O   UNL A   1      31.010  28.339  25.189  1.00  0.00    -0.463 OA
BRANCH   6   7
ATOM      7  C   UNL A   1      30.657  27.704  24.045  1.00  0.00     0.307 C 
ATOM      8  O   UNL A   1      30.924  28.105  22.916  1.00  0.00    -0.252 OA
BRANCH   7   9
ATOM      9  C   UNL A   1      29.969  26.371  24.260  1.00  0.00     0.147 C 
BRANCH   9  10
ATOM     10  C   UNL A   1      30.822  25.149  24.621  1.00  0.00     0.090 C 
ATOM     11  C   UNL A   1      32.304  25.512  24.721  1.00  0.00     0.031 C 
BRANCH  10  12
ATOM     12  N   UNL A   1      30.394  24.602  25.931  1.00  0.00    -0.351 N 
ATOM     13  C   UNL A   1      30.475  23.343  26.469  1.00  0.00     0.242 C 
ATOM     14  H   UNL A   1      29.975  25.265  26.525  1.00  0.00     0.163 HD
ATOM     15  O   UNL A   1      29.944  23.135  27.562  1.00  0.00    -0.273 OA
BRANCH  13  16
ATOM     16  C   UNL A   1      31.167  22.228  25.695  1.00  0.00     0.249 C 
BRANCH  16  17
ATOM     17  N   UNL A   1      32.518  21.916  26.129  1.00  0.00    -0.203 N 
ATOM     18  N   UNL A   1      33.375  22.968  26.473  1.00  0.00    -0.149 NA
ATOM     19  C   UNL A   1      33.275  20.853  25.599  1.00  0.00     0.350 A 
ATOM     20  C   UNL A   1      34.552  22.540  26.133  1.00  0.00     0.161 A 
ATOM     21  N   UNL A   1      34.573  21.290  25.607  1.00  0.00    -0.250 N 
ATOM     22  O   UNL A   1      32.867  19.798  25.134  1.00  0.00    -0.246 OA
ATOM     23  C   UNL A   1      35.828  23.284  26.159  1.00  0.00     0.050 A 
ATOM     24  C   UNL A   1      35.668  20.698  25.044  1.00  0.00     0.098 A 
ATOM     25  C   UNL A   1      36.898  22.708  25.582  1.00  0.00     0.005 A 
ATOM     26  C   UNL A   1      36.823  21.379  25.000  1.00  0.00     0.019 A 
ENDBRANCH  16  17
ENDBRANCH  13  16
ENDBRANCH  10  12
ENDBRANCH   9  10
ENDBRANCH   7   9
ENDBRANCH   6   7
ENDBRANCH   5   6
ENDBRANCH   4   5
ENDBRANCH   3   4
ENDBRANCH   2   3
ENDBRANCH   1   2
BRANCH   1  27
ATOM     27  O   UNL A   1      33.653  32.622  28.172  1.00  0.00    -0.377 OA
BRANCH  27  28
ATOM     28  C   UNL A   1      34.034  33.983  27.978  1.00  0.00     0.188 C 
BRANCH  28  29
ATOM     29  C   UNL A   1      33.103  35.058  28.554  1.00  0.00     0.188 C 
BRANCH  29  30
ATOM     30  O   UNL A   1      32.728  34.913  29.928  1.00  0.00    -0.376 OA
BRANCH  30  31
ATOM     31  C   UNL A   1      33.293  35.811  30.881  1.00  0.00     0.202 C 
BRANCH  31  32
ATOM     32  C   UNL A   1      34.336  35.234  31.842  1.00  0.00     0.261 C 
BRANCH  32  33
ATOM     33  O   UNL A   1      35.185  34.266  31.204  1.00  0.00    -0.460 OA
BRANCH  33  34
ATOM     34  C   UNL A   1      34.978  32.986  31.600  1.00  0.00     0.338 C 
ATOM     35  O   UNL A   1      33.927  32.499  31.980  1.00  0.00    -0.246 OA
BRANCH  34  36
ATOM     36  C   UNL A   1      36.181  32.180  31.314  1.00  0.00     0.060 A 
ATOM     37  C   UNL A   1      36.295  30.936  31.947  1.00  0.00     0.016 A 
ATOM     38  C   UNL A   1      37.209  32.664  30.501  1.00  0.00     0.016 A 
ATOM     39  C   UNL A   1      37.464  30.194  31.816  1.00  0.00     0.010 A 
ATOM     40  C   UNL A   1      38.391  31.928  30.387  1.00  0.00     0.010 A 
ATOM     41  C   UNL A   1      38.534  30.714  31.080  1.00  0.00    -0.014 A 
BRANCH  41  42
ATOM     42  C   UNL A   1      39.868  30.094  31.236  1.00  0.00     0.031 A 
ATOM     43  C   UNL A   1      40.752  30.590  32.347  1.00  0.00     0.074 A 
ATOM     44  C   UNL A   1      40.255  29.082  30.441  1.00  0.00     0.049 A 
ATOM     45  N   UNL A   1      41.951  30.206  32.693  1.00  0.00    -0.248 NA
ATOM     46  C   UNL A   1      40.199  31.669  33.183  1.00  0.00     0.031 C 
ATOM     47  C   UNL A   1      39.450  28.498  29.370  1.00  0.00     0.029 A 
ATOM     48  N   UNL A   1      41.425  28.368  30.414  1.00  0.00    -0.354 N 
ATOM     49  C   UNL A   1      42.296  30.989  33.790  1.00  0.00     0.074 A 
ATOM     50  C   UNL A   1      41.194  31.896  34.026  1.00  0.00     0.031 C 
ATOM     51  C   UNL A   1      40.157  27.518  28.779  1.00  0.00     0.029 A 
ATOM     52  C   UNL A   1      41.472  27.428  29.411  1.00  0.00     0.049 A 
ATOM     53  H   UNL A   1      42.160  28.513  31.052  1.00  0.00     0.167 HD
ATOM     54  C   UNL A   1      43.427  30.948  34.536  1.00  0.00     0.034 A 
ATOM     55  C   UNL A   1      42.476  26.609  29.039  1.00  0.00     0.034 A 
ATOM     56  C   UNL A   1      44.523  30.054  34.260  1.00  0.00     0.049 A 
ATOM     57  C   UNL A   1      43.764  26.642  29.827  1.00  0.00     0.074 A 
ATOM     58  C   UNL A   1      45.724  29.923  34.935  1.00  0.00     0.029 A 
ATOM     59  N   UNL A   1      44.559  29.149  33.206  1.00  0.00    -0.354 N 
ATOM     60  N   UNL A   1      44.075  27.379  30.870  1.00  0.00    -0.248 NA
ATOM     61  C   UNL A   1      44.827  25.726  29.396  1.00  0.00     0.031 C 
ATOM     62  C   UNL A   1      46.510  28.989  34.249  1.00  0.00     0.029 A 
ATOM     63  C   UNL A   1      45.773  28.481  33.191  1.00  0.00     0.049 A 
ATOM     64  H   UNL A   1      43.828  29.003  32.562  1.00  0.00     0.167 HD
ATOM     65  C   UNL A   1      45.364  26.995  31.235  1.00  0.00     0.074 A 
ATOM     66  C   UNL A   1      45.761  25.953  30.310  1.00  0.00     0.031 C 
ATOM     67  C   UNL A   1      46.148  27.455  32.245  1.00  0.00     0.034 A 
BRANCH  54  68
ATOM     68  C   UNL A   1      43.543  31.940  35.668  1.00  0.00     0.023 A 
ATOM     69  C   UNL A   1      42.869  31.757  36.888  1.00  0.00     0.031 A 
ATOM     70  C   UNL A   1      44.293  33.118  35.502  1.00  0.00     0.131 A 
ATOM     71  C   UNL A   1      42.898  32.764  37.864  1.00  0.00     0.055 A 
ATOM     72  C   UNL A   1      44.382  34.082  36.508  1.00  0.00     0.041 A 
ATOM     73  F   UNL A   1      44.935  33.363  34.349  1.00  0.00    -0.206 F 
ATOM     74  C   UNL A   1      43.670  33.916  37.691  1.00  0.00     0.022 A 
BRANCH  71  75
ATOM     75  S   UNL A   1      41.798  32.619  39.299  1.00  0.00     0.124 S 
ATOM     76  O   UNL A   1      40.532  32.258  38.665  1.00  0.00    -0.237 OA
ATOM     77  O   UNL A   1      42.440  31.570  40.084  1.00  0.00    -0.237 OA
ATOM     78  O   UNL A   1      41.830  33.953  39.894  1.00  0.00    -0.744 OA
ENDBRANCH  71  75
ENDBRANCH  54  68
BRANCH  55  79
ATOM     79  C   UNL A   1      42.325  25.723  27.850  1.00  0.00     0.023 A 
ATOM     80  C   UNL A   1      41.912  24.389  27.977  1.00  0.00     0.031 A 
ATOM     81  C   UNL A   1      42.635  26.196  26.561  1.00  0.00     0.131 A 
ATOM     82  C   UNL A   1      41.855  23.562  26.843  1.00  0.00     0.055 A 
ATOM     83  C   UNL A   1      42.531  25.384  25.430  1.00  0.00     0.041 A 
ATOM     84  F   UNL A   1      43.034  27.466  26.381  1.00  0.00    -0.206 F 
ATOM     85  C   UNL A   1      42.150  24.054  25.570  1.00  0.00     0.022 A 
BRANCH  82  86
ATOM     86  S   UNL A   1      41.454  21.806  27.066  1.00  0.00     0.124 S 
ATOM     87  O   UNL A   1      40.071  21.871  27.520  1.00  0.00    -0.237 OA
ATOM     88  O   UNL A   1      41.665  21.277  25.722  1.00  0.00    -0.237 OA
ATOM     89  O   UNL A   1      42.422  21.362  28.067  1.00  0.00    -0.744 OA
ENDBRANCH  82  86
ENDBRANCH  55  79
BRANCH  67  90
ATOM     90  C   UNL A   1      47.496  26.799  32.414  1.00  0.00     0.023 A 
ATOM     91  C   UNL A   1      48.648  27.307  31.789  1.00  0.00     0.031 A 
ATOM     92  C   UNL A   1      47.625  25.645  33.207  1.00  0.00     0.131 A 
ATOM     93  C   UNL A   1      49.869  26.631  31.923  1.00  0.00     0.055 A 
ATOM     94  C   UNL A   1      48.855  25.011  33.385  1.00  0.00     0.041 A 
ATOM     95  F   UNL A   1      46.556  25.118  33.825  1.00  0.00    -0.206 F 
ATOM     96  C   UNL A   1      49.983  25.496  32.730  1.00  0.00     0.022 A 
BRANCH  93  97
ATOM     97  S   UNL A   1      51.291  27.203  30.953  1.00  0.00     0.124 S 
ATOM     98  O   UNL A   1      50.647  27.746  29.762  1.00  0.00    -0.237 OA
ATOM     99  O   UNL A   1      51.905  28.179  31.847  1.00  0.00    -0.237 OA
ATOM    100  O   UNL A   1      52.070  25.986  30.736  1.00  0.00    -0.744 OA
ENDBRANCH  93  97
ENDBRANCH  67  90
ENDBRANCH  41  42
ENDBRANCH  34  36
ENDBRANCH  33  34
ENDBRANCH  32  33
ENDBRANCH  31  32
ENDBRANCH  30  31
ENDBRANCH  29  30
ENDBRANCH  28  29
ENDBRANCH  27  28
ENDBRANCH   1  27
TORSDOF 27
ENDMDL
