MODEL 1
REMARK VINA RESULT:      -8.0      0.000      0.000
REMARK SMILES O=C(COc1ccccc1C[NH+]1CCC2(CC[NH2+]CC2)CC1)OCCOCCOCCOCCOC(=O)c1ccc(-c2c3nc(c(-c4cc(S(=O)(=O)[O-])ccc4F)c4ccc([nH]4)c(-c4cc(S(=O)(=O)[O-])ccc4F)c4nc(c(-c5cc(S(=O)(=O)[O-])ccc5F)c5ccc2[nH]5)C=C4)C=C3)cc1
REMARK SMILES IDX 28 1 27 2 26 3 25 4 24 5 23 6 2 7 1 8 3 9 4 10 5 11 6 12
REMARK SMILES IDX 10 13 7 14 9 15 8 16 11 17 12 18 13 19 22 20 14 22 21 23
REMARK SMILES IDX 15 24 16 25 20 26 17 27 19 28 18 29 29 32 30 33 31 34 32 35
REMARK SMILES IDX 33 36 34 37 35 38 36 39 37 40 38 41 39 42 100 43 40 44 99 45
REMARK SMILES IDX 41 46 42 47 43 48 93 49 44 50 98 51 92 52 94 53 45 54 97 55
REMARK SMILES IDX 91 56 90 57 46 59 78 60 58 61 77 62 59 63 62 64 76 65 95 66
REMARK SMILES IDX 60 67 61 68 75 70 96 71 63 72 47 73 48 74 56 75 49 76 55 77
REMARK SMILES IDX 57 78 54 79 50 80 51 81 52 82 53 83 79 84 80 85 88 86 81 87
REMARK SMILES IDX 87 88 89 89 86 90 82 91 83 92 84 93 85 94 64 95 65 96 73 97
REMARK SMILES IDX 66 98 72 99 74 100 71 101 67 102 68 103 69 104 70 105
REMARK H PARENT 12 21 18 30 18 31 94 58 62 69
REMARK Flexibility Score: inf
ROOT
ATOM      1  C   UNL A   1      33.032  33.223  27.948  1.00  0.00     0.188 C 
ENDROOT
BRANCH   1   2
ATOM      2  C   UNL A   1      33.558  34.475  28.690  1.00  0.00     0.188 C 
BRANCH   2   3
ATOM      3  O   UNL A   1      33.162  34.588  30.050  1.00  0.00    -0.376 OA
BRANCH   3   4
ATOM      4  C   UNL A   1      34.069  34.484  31.131  1.00  0.00     0.202 C 
BRANCH   4   5
ATOM      5  C   UNL A   1      34.264  33.140  31.820  1.00  0.00     0.261 C 
BRANCH   5   6
ATOM      6  O   UNL A   1      34.993  33.186  33.064  1.00  0.00    -0.461 OA
BRANCH   6   7
ATOM      7  C   UNL A   1      35.526  34.271  33.665  1.00  0.00     0.344 C 
ATOM      8  O   UNL A   1      34.945  34.816  34.603  1.00  0.00    -0.248 OA
BRANCH   7   9
ATOM      9  C   UNL A   1      36.845  34.763  33.161  1.00  0.00     0.351 C 
BRANCH   9  10
ATOM     10  O   UNL A   1      37.669  33.638  32.897  1.00  0.00    -0.481 OA
BRANCH  10  11
ATOM     11  C   UNL A   1      38.599  33.893  31.933  1.00  0.00     0.129 A 
ATOM     12  C   UNL A   1      38.045  34.009  30.651  1.00  0.00     0.047 A 
ATOM     13  C   UNL A   1      39.988  33.944  32.154  1.00  0.00     0.048 A 
ATOM     14  C   UNL A   1      38.863  34.240  29.557  1.00  0.00     0.004 A 
ATOM     15  C   UNL A   1      40.780  34.246  31.033  1.00  0.00     0.013 A 
ATOM     16  C   UNL A   1      40.231  34.375  29.752  1.00  0.00     0.001 A 
BRANCH  13  17
ATOM     17  C   UNL A   1      40.708  33.741  33.483  1.00  0.00     0.302 C 
BRANCH  17  18
ATOM     18  N   UNL A   1      41.027  34.866  34.369  1.00  0.00    -0.331 N 
ATOM     19  C   UNL A   1      39.926  35.616  34.944  1.00  0.00     0.263 C 
ATOM     20  C   UNL A   1      42.100  34.707  35.330  1.00  0.00     0.263 C 
ATOM     21  H   UNL A   1      41.412  35.450  33.626  1.00  0.00     0.348 HD
ATOM     22  C   UNL A   1      39.286  34.898  36.122  1.00  0.00     0.069 C 
ATOM     23  C   UNL A   1      41.666  34.038  36.632  1.00  0.00     0.069 C 
ATOM     24  C   UNL A   1      40.301  34.493  37.224  1.00  0.00    -0.008 C 
ATOM     25  C   UNL A   1      40.511  35.672  38.210  1.00  0.00     0.069 C 
ATOM     26  C   UNL A   1      39.732  33.292  38.024  1.00  0.00     0.069 C 
ATOM     27  C   UNL A   1      39.289  35.938  39.101  1.00  0.00     0.261 C 
ATOM     28  C   UNL A   1      38.519  33.659  38.868  1.00  0.00     0.261 C 
ATOM     29  N   UNL A   1      38.836  34.731  39.802  1.00  0.00    -0.346 N 
ATOM     30  H   UNL A   1      38.003  34.956  40.345  1.00  0.00     0.346 HD
ATOM     31  H   UNL A   1      39.591  34.414  40.411  1.00  0.00     0.346 HD
ENDBRANCH  17  18
ENDBRANCH  13  17
ENDBRANCH  10  11
ENDBRANCH   9  10
ENDBRANCH   7   9
ENDBRANCH   6   7
ENDBRANCH   5   6
ENDBRANCH   4   5
ENDBRANCH   3   4
ENDBRANCH   2   3
ENDBRANCH   1   2
BRANCH   1  32
ATOM     32  O   UNL A   1      31.954  33.449  27.050  1.00  0.00    -0.377 OA
BRANCH  32  33
ATOM     33  C   UNL A   1      31.145  32.310  26.798  1.00  0.00     0.188 C 
BRANCH  33  34
ATOM     34  C   UNL A   1      31.931  31.101  26.260  1.00  0.00     0.188 C 
BRANCH  34  35
ATOM     35  O   UNL A   1      32.192  29.962  27.066  1.00  0.00    -0.376 OA
BRANCH  35  36
ATOM     36  C   UNL A   1      33.356  29.172  26.901  1.00  0.00     0.202 C 
BRANCH  36  37
ATOM     37  C   UNL A   1      34.782  29.666  27.208  1.00  0.00     0.261 C 
BRANCH  37  38
ATOM     38  O   UNL A   1      35.283  29.499  28.533  1.00  0.00    -0.460 OA
BRANCH  38  39
ATOM     39  C   UNL A   1      35.920  30.561  29.071  1.00  0.00     0.338 C 
ATOM     40  O   UNL A   1      35.454  31.659  29.313  1.00  0.00    -0.246 OA
BRANCH  39  41
ATOM     41  C   UNL A   1      37.255  30.084  29.489  1.00  0.00     0.060 A 
ATOM     42  C   UNL A   1      38.396  30.683  28.939  1.00  0.00     0.016 A 
ATOM     43  C   UNL A   1      37.375  29.090  30.464  1.00  0.00     0.016 A 
ATOM     44  C   UNL A   1      39.664  30.299  29.369  1.00  0.00     0.010 A 
ATOM     45  C   UNL A   1      38.644  28.667  30.854  1.00  0.00     0.010 A 
ATOM     46  C   UNL A   1      39.790  29.256  30.292  1.00  0.00    -0.014 A 
BRANCH  46  47
ATOM     47  C   UNL A   1      41.105  28.611  30.493  1.00  0.00     0.031 A 
ATOM     48  C   UNL A   1      41.999  29.190  31.554  1.00  0.00     0.074 A 
ATOM     49  C   UNL A   1      41.500  27.573  29.737  1.00  0.00     0.049 A 
ATOM     50  N   UNL A   1      43.244  28.914  31.828  1.00  0.00    -0.248 NA
ATOM     51  C   UNL A   1      41.404  30.225  32.418  1.00  0.00     0.031 C 
ATOM     52  C   UNL A   1      40.682  26.901  28.728  1.00  0.00     0.029 A 
ATOM     53  N   UNL A   1      42.705  26.918  29.684  1.00  0.00    -0.354 N 
ATOM     54  C   UNL A   1      43.590  29.754  32.880  1.00  0.00     0.074 A 
ATOM     55  C   UNL A   1      42.426  30.550  33.195  1.00  0.00     0.031 C 
ATOM     56  C   UNL A   1      41.425  25.955  28.126  1.00  0.00     0.029 A 
ATOM     57  C   UNL A   1      42.782  25.991  28.670  1.00  0.00     0.049 A 
ATOM     58  H   UNL A   1      43.444  27.095  30.311  1.00  0.00     0.167 HD
ATOM     59  C   UNL A   1      44.781  29.858  33.513  1.00  0.00     0.034 A 
ATOM     60  C   UNL A   1      43.844  25.300  28.206  1.00  0.00     0.034 A 
ATOM     61  C   UNL A   1      45.931  29.066  33.170  1.00  0.00     0.049 A 
ATOM     62  C   UNL A   1      45.191  25.511  28.866  1.00  0.00     0.074 A 
ATOM     63  C   UNL A   1      47.176  29.054  33.770  1.00  0.00     0.029 A 
ATOM     64  N   UNL A   1      45.985  28.163  32.116  1.00  0.00    -0.354 N 
ATOM     65  N   UNL A   1      45.500  26.282  29.886  1.00  0.00    -0.248 NA
ATOM     66  C   UNL A   1      46.330  24.769  28.312  1.00  0.00     0.031 C 
ATOM     67  C   UNL A   1      48.007  28.211  33.029  1.00  0.00     0.029 A 
ATOM     68  C   UNL A   1      47.259  27.630  32.016  1.00  0.00     0.049 A 
ATOM     69  H   UNL A   1      45.230  27.936  31.527  1.00  0.00     0.167 HD
ATOM     70  C   UNL A   1      46.863  26.094  30.105  1.00  0.00     0.074 A 
ATOM     71  C   UNL A   1      47.310  25.123  29.129  1.00  0.00     0.031 C 
ATOM     72  C   UNL A   1      47.679  26.668  31.027  1.00  0.00     0.034 A 
BRANCH  59  73
ATOM     73  C   UNL A   1      44.919  30.908  34.581  1.00  0.00     0.023 A 
ATOM     74  C   UNL A   1      44.512  30.684  35.907  1.00  0.00     0.031 A 
ATOM     75  C   UNL A   1      45.479  32.157  34.261  1.00  0.00     0.131 A 
ATOM     76  C   UNL A   1      44.642  31.708  36.859  1.00  0.00     0.055 A 
ATOM     77  C   UNL A   1      45.663  33.148  35.224  1.00  0.00     0.041 A 
ATOM     78  F   UNL A   1      45.855  32.434  33.002  1.00  0.00    -0.206 F 
ATOM     79  C   UNL A   1      45.238  32.929  36.531  1.00  0.00     0.022 A 
BRANCH  76  80
ATOM     80  S   UNL A   1      43.941  31.456  38.511  1.00  0.00     0.124 S 
ATOM     81  O   UNL A   1      44.720  30.318  38.993  1.00  0.00    -0.237 OA
ATOM     82  O   UNL A   1      44.205  32.733  39.165  1.00  0.00    -0.237 OA
ATOM     83  O   UNL A   1      42.532  31.171  38.246  1.00  0.00    -0.744 OA
ENDBRANCH  76  80
ENDBRANCH  59  73
BRANCH  60  84
ATOM     84  C   UNL A   1      43.725  24.419  27.004  1.00  0.00     0.023 A 
ATOM     85  C   UNL A   1      43.033  23.199  27.062  1.00  0.00     0.031 A 
ATOM     86  C   UNL A   1      44.395  24.736  25.808  1.00  0.00     0.131 A 
ATOM     87  C   UNL A   1      43.082  22.313  25.973  1.00  0.00     0.055 A 
ATOM     88  C   UNL A   1      44.384  23.881  24.704  1.00  0.00     0.041 A 
ATOM     89  F   UNL A   1      45.082  25.884  25.696  1.00  0.00    -0.206 F 
ATOM     90  C   UNL A   1      43.740  22.652  24.790  1.00  0.00     0.022 A 
BRANCH  87  91
ATOM     91  S   UNL A   1      42.383  20.650  26.176  1.00  0.00     0.124 S 
ATOM     92  O   UNL A   1      43.167  19.881  25.215  1.00  0.00    -0.237 OA
ATOM     93  O   UNL A   1      42.650  20.381  27.585  1.00  0.00    -0.237 OA
ATOM     94  O   UNL A   1      40.974  20.829  25.833  1.00  0.00    -0.744 OA
ENDBRANCH  87  91
ENDBRANCH  60  84
BRANCH  72  95
ATOM     95  C   UNL A   1      49.122  26.230  31.040  1.00  0.00     0.023 A 
ATOM     96  C   UNL A   1      49.565  25.174  31.854  1.00  0.00     0.031 A 
ATOM     97  C   UNL A   1      50.062  26.869  30.212  1.00  0.00     0.131 A 
ATOM     98  C   UNL A   1      50.921  24.817  31.856  1.00  0.00     0.055 A 
ATOM     99  C   UNL A   1      51.398  26.469  30.172  1.00  0.00     0.041 A 
ATOM    100  F   UNL A   1      49.692  27.885  29.414  1.00  0.00    -0.206 F 
ATOM    101  C   UNL A   1      51.837  25.445  31.006  1.00  0.00     0.022 A 
BRANCH  98 102
ATOM    102  S   UNL A   1      51.491  23.567  33.040  1.00  0.00     0.124 S 
ATOM    103  O   UNL A   1      52.811  24.073  33.403  1.00  0.00    -0.237 OA
ATOM    104  O   UNL A   1      50.473  23.635  34.083  1.00  0.00    -0.237 OA
ATOM    105  O   UNL A   1      51.495  22.331  32.258  1.00  0.00    -0.744 OA
ENDBRANCH  98 102
ENDBRANCH  72  95
ENDBRANCH  46  47
ENDBRANCH  39  41
ENDBRANCH  38  39
ENDBRANCH  37  38
ENDBRANCH  36  37
ENDBRANCH  35  36
ENDBRANCH  34  35
ENDBRANCH  33  34
ENDBRANCH  32  33
ENDBRANCH   1  32
TORSDOF 27
ENDMDL
MODEL 2
REMARK VINA RESULT:      -7.7      3.735     10.699
REMARK SMILES O=C(COc1ccccc1C[NH+]1CCC2(CC[NH2+]CC2)CC1)OCCOCCOCCOCCOC(=O)c1ccc(-c2c3nc(c(-c4cc(S(=O)(=O)[O-])ccc4F)c4ccc([nH]4)c(-c4cc(S(=O)(=O)[O-])ccc4F)c4nc(c(-c5cc(S(=O)(=O)[O-])ccc5F)c5ccc2[nH]5)C=C4)C=C3)cc1
REMARK SMILES IDX 28 1 27 2 26 3 25 4 24 5 23 6 2 7 1 8 3 9 4 10 5 11 6 12
REMARK SMILES IDX 10 13 7 14 9 15 8 16 11 17 12 18 13 19 22 20 14 22 21 23
REMARK SMILES IDX 15 24 16 25 20 26 17 27 19 28 18 29 29 32 30 33 31 34 32 35
REMARK SMILES IDX 33 36 34 37 35 38 36 39 37 40 38 41 39 42 100 43 40 44 99 45
REMARK SMILES IDX 41 46 42 47 43 48 93 49 44 50 98 51 92 52 94 53 45 54 97 55
REMARK SMILES IDX 91 56 90 57 46 59 78 60 58 61 77 62 59 63 62 64 76 65 95 66
REMARK SMILES IDX 60 67 61 68 75 70 96 71 63 72 47 73 48 74 56 75 49 76 55 77
REMARK SMILES IDX 57 78 54 79 50 80 51 81 52 82 53 83 79 84 80 85 88 86 81 87
REMARK SMILES IDX 87 88 89 89 86 90 82 91 83 92 84 93 85 94 64 95 65 96 73 97
REMARK SMILES IDX 66 98 72 99 74 100 71 101 67 102 68 103 69 104 70 105
REMARK H PARENT 12 21 18 30 18 31 94 58 62 69
REMARK Flexibility Score: inf
ROOT
ATOM      1  C   UNL A   1      41.992  23.697  25.682  1.00  0.00     0.188 C 
ENDROOT
BRANCH   1   2
ATOM      2  C   UNL A   1      42.314  25.077  26.304  1.00  0.00     0.188 C 
BRANCH   2   3
ATOM      3  O   UNL A   1      42.729  26.077  25.383  1.00  0.00    -0.376 OA
BRANCH   3   4
ATOM      4  C   UNL A   1      42.840  27.445  25.725  1.00  0.00     0.202 C 
BRANCH   4   5
ATOM      5  C   UNL A   1      41.643  28.367  25.531  1.00  0.00     0.261 C 
BRANCH   5   6
ATOM      6  O   UNL A   1      41.133  28.976  26.736  1.00  0.00    -0.461 OA
BRANCH   6   7
ATOM      7  C   UNL A   1      40.115  28.542  27.509  1.00  0.00     0.344 C 
ATOM      8  O   UNL A   1      39.958  27.340  27.722  1.00  0.00    -0.248 OA
BRANCH   7   9
ATOM      9  C   UNL A   1      39.209  29.573  28.103  1.00  0.00     0.351 C 
BRANCH   9  10
ATOM     10  O   UNL A   1      37.900  29.361  27.599  1.00  0.00    -0.481 OA
BRANCH  10  11
ATOM     11  C   UNL A   1      37.015  30.297  28.046  1.00  0.00     0.129 A 
ATOM     12  C   UNL A   1      37.626  31.333  28.765  1.00  0.00     0.047 A 
ATOM     13  C   UNL A   1      35.618  30.211  27.900  1.00  0.00     0.048 A 
ATOM     14  C   UNL A   1      36.858  32.348  29.311  1.00  0.00     0.004 A 
ATOM     15  C   UNL A   1      34.878  31.293  28.408  1.00  0.00     0.013 A 
ATOM     16  C   UNL A   1      35.483  32.336  29.117  1.00  0.00     0.001 A 
BRANCH  13  17
ATOM     17  C   UNL A   1      34.838  29.090  27.221  1.00  0.00     0.302 C 
BRANCH  17  18
ATOM     18  N   UNL A   1      33.412  29.222  26.905  1.00  0.00    -0.331 N 
ATOM     19  C   UNL A   1      33.045  29.887  25.668  1.00  0.00     0.263 C 
ATOM     20  C   UNL A   1      32.539  28.094  27.161  1.00  0.00     0.263 C 
ATOM     21  H   UNL A   1      33.222  29.889  27.653  1.00  0.00     0.348 HD
ATOM     22  C   UNL A   1      33.209  28.987  24.453  1.00  0.00     0.069 C 
ATOM     23  C   UNL A   1      32.511  27.068  26.032  1.00  0.00     0.069 C 
ATOM     24  C   UNL A   1      32.463  27.633  24.582  1.00  0.00    -0.008 C 
ATOM     25  C   UNL A   1      30.992  27.792  24.118  1.00  0.00     0.069 C 
ATOM     26  C   UNL A   1      33.146  26.584  23.666  1.00  0.00     0.069 C 
ATOM     27  C   UNL A   1      30.857  27.991  22.601  1.00  0.00     0.261 C 
ATOM     28  C   UNL A   1      32.960  26.877  22.183  1.00  0.00     0.261 C 
ATOM     29  N   UNL A   1      31.546  26.946  21.837  1.00  0.00    -0.346 N 
ATOM     30  H   UNL A   1      31.458  27.150  20.842  1.00  0.00     0.346 HD
ATOM     31  H   UNL A   1      31.117  26.049  22.063  1.00  0.00     0.346 HD
ENDBRANCH  17  18
ENDBRANCH  13  17
ENDBRANCH  10  11
ENDBRANCH   9  10
ENDBRANCH   7   9
ENDBRANCH   6   7
ENDBRANCH   5   6
ENDBRANCH   4   5
ENDBRANCH   3   4
ENDBRANCH   2   3
ENDBRANCH   1   2
BRANCH   1  32
ATOM     32  O   UNL A   1      41.245  22.812  26.506  1.00  0.00    -0.377 OA
BRANCH  32  33
ATOM     33  C   UNL A   1      41.383  21.438  26.176  1.00  0.00     0.188 C 
BRANCH  33  34
ATOM     34  C   UNL A   1      42.846  20.965  26.102  1.00  0.00     0.188 C 
BRANCH  34  35
ATOM     35  O   UNL A   1      43.340  20.238  24.986  1.00  0.00    -0.376 OA
BRANCH  35  36
ATOM     36  C   UNL A   1      44.665  20.397  24.511  1.00  0.00     0.202 C 
BRANCH  36  37
ATOM     37  C   UNL A   1      45.854  20.807  25.398  1.00  0.00     0.261 C 
BRANCH  37  38
ATOM     38  O   UNL A   1      46.603  21.963  25.030  1.00  0.00    -0.460 OA
BRANCH  38  39
ATOM     39  C   UNL A   1      45.887  23.057  24.688  1.00  0.00     0.338 C 
ATOM     40  O   UNL A   1      45.266  23.241  23.658  1.00  0.00    -0.246 OA
BRANCH  39  41
ATOM     41  C   UNL A   1      45.843  23.923  25.885  1.00  0.00     0.060 A 
ATOM     42  C   UNL A   1      46.193  25.274  25.761  1.00  0.00     0.016 A 
ATOM     43  C   UNL A   1      45.401  23.413  27.108  1.00  0.00     0.016 A 
ATOM     44  C   UNL A   1      46.091  26.126  26.858  1.00  0.00     0.010 A 
ATOM     45  C   UNL A   1      45.352  24.252  28.219  1.00  0.00     0.010 A 
ATOM     46  C   UNL A   1      45.717  25.604  28.101  1.00  0.00    -0.014 A 
BRANCH  46  47
ATOM     47  C   UNL A   1      45.937  26.402  29.326  1.00  0.00     0.031 A 
ATOM     48  C   UNL A   1      47.232  26.194  30.059  1.00  0.00     0.074 A 
ATOM     49  C   UNL A   1      45.004  27.254  29.785  1.00  0.00     0.049 A 
ATOM     50  N   UNL A   1      47.608  26.648  31.223  1.00  0.00    -0.248 NA
ATOM     51  C   UNL A   1      48.238  25.353  29.385  1.00  0.00     0.031 C 
ATOM     52  C   UNL A   1      43.745  27.571  29.113  1.00  0.00     0.029 A 
ATOM     53  N   UNL A   1      44.962  27.987  30.944  1.00  0.00    -0.354 N 
ATOM     54  C   UNL A   1      48.881  26.133  31.433  1.00  0.00     0.074 A 
ATOM     55  C   UNL A   1      49.216  25.332  30.277  1.00  0.00     0.031 C 
ATOM     56  C   UNL A   1      43.034  28.406  29.894  1.00  0.00     0.029 A 
ATOM     57  C   UNL A   1      43.765  28.637  31.140  1.00  0.00     0.049 A 
ATOM     58  H   UNL A   1      45.716  28.044  31.575  1.00  0.00     0.167 HD
ATOM     59  C   UNL A   1      49.689  26.305  32.503  1.00  0.00     0.034 A 
ATOM     60  C   UNL A   1      43.300  29.290  32.225  1.00  0.00     0.034 A 
ATOM     61  C   UNL A   1      49.326  27.094  33.650  1.00  0.00     0.049 A 
ATOM     62  C   UNL A   1      44.185  29.380  33.450  1.00  0.00     0.074 A 
ATOM     63  C   UNL A   1      50.082  27.374  34.773  1.00  0.00     0.029 A 
ATOM     64  N   UNL A   1      48.095  27.708  33.831  1.00  0.00    -0.354 N 
ATOM     65  N   UNL A   1      45.404  28.920  33.626  1.00  0.00    -0.248 NA
ATOM     66  C   UNL A   1      43.632  30.068  34.625  1.00  0.00     0.031 C 
ATOM     67  C   UNL A   1      49.278  28.083  35.670  1.00  0.00     0.029 A 
ATOM     68  C   UNL A   1      48.050  28.320  35.071  1.00  0.00     0.049 A 
ATOM     69  H   UNL A   1      47.361  27.708  33.174  1.00  0.00     0.167 HD
ATOM     70  C   UNL A   1      45.767  29.288  34.920  1.00  0.00     0.074 A 
ATOM     71  C   UNL A   1      44.650  30.024  35.471  1.00  0.00     0.031 C 
ATOM     72  C   UNL A   1      46.918  29.042  35.599  1.00  0.00     0.034 A 
BRANCH  59  73
ATOM     73  C   UNL A   1      51.002  25.571  32.517  1.00  0.00     0.023 A 
ATOM     74  C   UNL A   1      51.083  24.185  32.730  1.00  0.00     0.031 A 
ATOM     75  C   UNL A   1      52.197  26.280  32.302  1.00  0.00     0.131 A 
ATOM     76  C   UNL A   1      52.337  23.555  32.756  1.00  0.00     0.055 A 
ATOM     77  C   UNL A   1      53.435  25.639  32.266  1.00  0.00     0.041 A 
ATOM     78  F   UNL A   1      52.179  27.611  32.124  1.00  0.00    -0.206 F 
ATOM     79  C   UNL A   1      53.511  24.270  32.500  1.00  0.00     0.022 A 
BRANCH  76  80
ATOM     80  S   UNL A   1      52.424  21.804  33.216  1.00  0.00     0.124 S 
ATOM     81  O   UNL A   1      52.881  21.883  34.600  1.00  0.00    -0.237 OA
ATOM     82  O   UNL A   1      51.049  21.357  33.022  1.00  0.00    -0.237 OA
ATOM     83  O   UNL A   1      53.397  21.251  32.275  1.00  0.00    -0.744 OA
ENDBRANCH  76  80
ENDBRANCH  59  73
BRANCH  60  84
ATOM     84  C   UNL A   1      41.906  29.830  32.262  1.00  0.00     0.023 A 
ATOM     85  C   UNL A   1      40.803  28.984  32.461  1.00  0.00     0.031 A 
ATOM     86  C   UNL A   1      41.651  31.187  31.990  1.00  0.00     0.131 A 
ATOM     87  C   UNL A   1      39.499  29.487  32.319  1.00  0.00     0.055 A 
ATOM     88  C   UNL A   1      40.352  31.695  31.917  1.00  0.00     0.041 A 
ATOM     89  F   UNL A   1      42.664  32.042  31.780  1.00  0.00    -0.206 F 
ATOM     90  C   UNL A   1      39.266  30.839  32.063  1.00  0.00     0.022 A 
BRANCH  87  91
ATOM     91  S   UNL A   1      38.111  28.318  32.343  1.00  0.00     0.124 S 
ATOM     92  O   UNL A   1      38.770  27.086  32.761  1.00  0.00    -0.237 OA
ATOM     93  O   UNL A   1      37.218  28.932  33.319  1.00  0.00    -0.237 OA
ATOM     94  O   UNL A   1      37.630  28.335  30.963  1.00  0.00    -0.744 OA
ENDBRANCH  87  91
ENDBRANCH  60  84
BRANCH  72  95
ATOM     95  C   UNL A   1      47.031  29.606  36.993  1.00  0.00     0.023 A 
ATOM     96  C   UNL A   1      46.612  28.879  38.119  1.00  0.00     0.031 A 
ATOM     97  C   UNL A   1      47.584  30.883  37.196  1.00  0.00     0.131 A 
ATOM     98  C   UNL A   1      46.711  29.451  39.396  1.00  0.00     0.055 A 
ATOM     99  C   UNL A   1      47.736  31.423  38.473  1.00  0.00     0.041 A 
ATOM    100  F   UNL A   1      48.000  31.622  36.153  1.00  0.00    -0.206 F 
ATOM    101  C   UNL A   1      47.288  30.711  39.581  1.00  0.00     0.022 A 
BRANCH  98 102
ATOM    102  S   UNL A   1      46.007  28.558  40.808  1.00  0.00     0.124 S 
ATOM    103  O   UNL A   1      47.100  27.666  41.179  1.00  0.00    -0.237 OA
ATOM    104  O   UNL A   1      45.716  29.636  41.748  1.00  0.00    -0.237 OA
ATOM    105  O   UNL A   1      44.831  27.897  40.243  1.00  0.00    -0.744 OA
ENDBRANCH  98 102
ENDBRANCH  72  95
ENDBRANCH  46  47
ENDBRANCH  39  41
ENDBRANCH  38  39
ENDBRANCH  37  38
ENDBRANCH  36  37
ENDBRANCH  35  36
ENDBRANCH  34  35
ENDBRANCH  33  34
ENDBRANCH  32  33
ENDBRANCH   1  32
TORSDOF 27
ENDMDL
MODEL 3
REMARK VINA RESULT:      -7.7      6.895     14.422
REMARK SMILES O=C(COc1ccccc1C[NH+]1CCC2(CC[NH2+]CC2)CC1)OCCOCCOCCOCCOC(=O)c1ccc(-c2c3nc(c(-c4cc(S(=O)(=O)[O-])ccc4F)c4ccc([nH]4)c(-c4cc(S(=O)(=O)[O-])ccc4F)c4nc(c(-c5cc(S(=O)(=O)[O-])ccc5F)c5ccc2[nH]5)C=C4)C=C3)cc1
REMARK SMILES IDX 28 1 27 2 26 3 25 4 24 5 23 6 2 7 1 8 3 9 4 10 5 11 6 12
REMARK SMILES IDX 10 13 7 14 9 15 8 16 11 17 12 18 13 19 22 20 14 22 21 23
REMARK SMILES IDX 15 24 16 25 20 26 17 27 19 28 18 29 29 32 30 33 31 34 32 35
REMARK SMILES IDX 33 36 34 37 35 38 36 39 37 40 38 41 39 42 100 43 40 44 99 45
REMARK SMILES IDX 41 46 42 47 43 48 93 49 44 50 98 51 92 52 94 53 45 54 97 55
REMARK SMILES IDX 91 56 90 57 46 59 78 60 58 61 77 62 59 63 62 64 76 65 95 66
REMARK SMILES IDX 60 67 61 68 75 70 96 71 63 72 47 73 48 74 56 75 49 76 55 77
REMARK SMILES IDX 57 78 54 79 50 80 51 81 52 82 53 83 79 84 80 85 88 86 81 87
REMARK SMILES IDX 87 88 89 89 86 90 82 91 83 92 84 93 85 94 64 95 65 96 73 97
REMARK SMILES IDX 66 98 72 99 74 100 71 101 67 102 68 103 69 104 70 105
REMARK H PARENT 12 21 18 30 18 31 94 58 62 69
REMARK Flexibility Score: inf
ROOT
ATOM      1  C   UNL A   1      34.763  34.341  31.385  1.00  0.00     0.188 C 
ENDROOT
BRANCH   1   2
ATOM      2  C   UNL A   1      34.325  34.169  29.910  1.00  0.00     0.188 C 
BRANCH   2   3
ATOM      3  O   UNL A   1      34.359  32.837  29.417  1.00  0.00    -0.376 OA
BRANCH   3   4
ATOM      4  C   UNL A   1      34.618  32.520  28.063  1.00  0.00     0.202 C 
BRANCH   4   5
ATOM      5  C   UNL A   1      34.781  31.063  27.651  1.00  0.00     0.261 C 
BRANCH   5   6
ATOM      6  O   UNL A   1      33.551  30.323  27.504  1.00  0.00    -0.461 OA
BRANCH   6   7
ATOM      7  C   UNL A   1      32.612  30.473  26.546  1.00  0.00     0.344 C 
ATOM      8  O   UNL A   1      31.666  31.243  26.710  1.00  0.00    -0.248 OA
BRANCH   7   9
ATOM      9  C   UNL A   1      32.780  29.688  25.284  1.00  0.00     0.351 C 
BRANCH   9  10
ATOM     10  O   UNL A   1      32.559  28.318  25.578  1.00  0.00    -0.481 OA
BRANCH  10  11
ATOM     11  C   UNL A   1      31.465  27.820  24.936  1.00  0.00     0.129 A 
ATOM     12  C   UNL A   1      30.778  28.785  24.189  1.00  0.00     0.047 A 
ATOM     13  C   UNL A   1      30.992  26.500  25.066  1.00  0.00     0.048 A 
ATOM     14  C   UNL A   1      29.626  28.443  23.500  1.00  0.00     0.004 A 
ATOM     15  C   UNL A   1      29.860  26.172  24.300  1.00  0.00     0.013 A 
ATOM     16  C   UNL A   1      29.177  27.130  23.542  1.00  0.00     0.001 A 
BRANCH  13  17
ATOM     17  C   UNL A   1      31.601  25.392  25.919  1.00  0.00     0.302 C 
BRANCH  17  18
ATOM     18  N   UNL A   1      32.990  24.957  25.745  1.00  0.00    -0.331 N 
ATOM     19  C   UNL A   1      33.477  23.874  26.580  1.00  0.00     0.263 C 
ATOM     20  C   UNL A   1      33.518  24.847  24.400  1.00  0.00     0.263 C 
ATOM     21  H   UNL A   1      33.394  25.813  26.126  1.00  0.00     0.348 HD
ATOM     22  C   UNL A   1      33.013  22.511  26.093  1.00  0.00     0.069 C 
ATOM     23  C   UNL A   1      33.205  23.515  23.723  1.00  0.00     0.069 C 
ATOM     24  C   UNL A   1      33.349  22.240  24.602  1.00  0.00    -0.008 C 
ATOM     25  C   UNL A   1      34.783  21.663  24.480  1.00  0.00     0.069 C 
ATOM     26  C   UNL A   1      32.357  21.188  24.039  1.00  0.00     0.069 C 
ATOM     27  C   UNL A   1      34.904  20.228  25.012  1.00  0.00     0.261 C 
ATOM     28  C   UNL A   1      32.555  19.802  24.638  1.00  0.00     0.261 C 
ATOM     29  N   UNL A   1      33.914  19.325  24.415  1.00  0.00    -0.346 N 
ATOM     30  H   UNL A   1      34.014  18.400  24.833  1.00  0.00     0.346 HD
ATOM     31  H   UNL A   1      34.081  19.288  23.410  1.00  0.00     0.346 HD
ENDBRANCH  17  18
ENDBRANCH  13  17
ENDBRANCH  10  11
ENDBRANCH   9  10
ENDBRANCH   7   9
ENDBRANCH   6   7
ENDBRANCH   5   6
ENDBRANCH   4   5
ENDBRANCH   3   4
ENDBRANCH   2   3
ENDBRANCH   1   2
BRANCH   1  32
ATOM     32  O   UNL A   1      36.157  34.526  31.593  1.00  0.00    -0.377 OA
BRANCH  32  33
ATOM     33  C   UNL A   1      36.886  33.328  31.817  1.00  0.00     0.188 C 
BRANCH  33  34
ATOM     34  C   UNL A   1      37.770  32.912  30.627  1.00  0.00     0.188 C 
BRANCH  34  35
ATOM     35  O   UNL A   1      37.532  31.713  29.904  1.00  0.00    -0.376 OA
BRANCH  35  36
ATOM     36  C   UNL A   1      38.581  30.840  29.528  1.00  0.00     0.202 C 
BRANCH  36  37
ATOM     37  C   UNL A   1      38.793  29.438  30.130  1.00  0.00     0.261 C 
BRANCH  37  38
ATOM     38  O   UNL A   1      38.460  29.237  31.502  1.00  0.00    -0.460 OA
BRANCH  38  39
ATOM     39  C   UNL A   1      39.471  28.862  32.315  1.00  0.00     0.338 C 
ATOM     40  O   UNL A   1      40.348  28.051  32.078  1.00  0.00    -0.246 OA
BRANCH  39  41
ATOM     41  C   UNL A   1      39.426  29.761  33.487  1.00  0.00     0.060 A 
ATOM     42  C   UNL A   1      38.355  30.656  33.617  1.00  0.00     0.016 A 
ATOM     43  C   UNL A   1      40.406  29.676  34.479  1.00  0.00     0.016 A 
ATOM     44  C   UNL A   1      38.253  31.463  34.747  1.00  0.00     0.010 A 
ATOM     45  C   UNL A   1      40.333  30.523  35.583  1.00  0.00     0.010 A 
ATOM     46  C   UNL A   1      39.269  31.433  35.709  1.00  0.00    -0.014 A 
BRANCH  46  47
ATOM     47  C   UNL A   1      39.355  32.509  36.718  1.00  0.00     0.031 A 
ATOM     48  C   UNL A   1      40.414  33.556  36.518  1.00  0.00     0.074 A 
ATOM     49  C   UNL A   1      38.542  32.534  37.788  1.00  0.00     0.049 A 
ATOM     50  N   UNL A   1      40.798  34.510  37.321  1.00  0.00    -0.248 NA
ATOM     51  C   UNL A   1      41.142  33.514  35.237  1.00  0.00     0.031 C 
ATOM     52  C   UNL A   1      37.444  31.601  38.038  1.00  0.00     0.029 A 
ATOM     53  N   UNL A   1      38.536  33.362  38.882  1.00  0.00    -0.354 N 
ATOM     54  C   UNL A   1      41.824  35.170  36.655  1.00  0.00     0.074 A 
ATOM     55  C   UNL A   1      42.006  34.507  35.383  1.00  0.00     0.031 C 
ATOM     56  C   UNL A   1      36.896  31.886  39.234  1.00  0.00     0.029 A 
ATOM     57  C   UNL A   1      37.638  32.984  39.853  1.00  0.00     0.049 A 
ATOM     58  H   UNL A   1      39.118  34.153  38.964  1.00  0.00     0.167 HD
ATOM     59  C   UNL A   1      42.557  36.224  37.079  1.00  0.00     0.034 A 
ATOM     60  C   UNL A   1      37.481  33.438  41.114  1.00  0.00     0.034 A 
ATOM     61  C   UNL A   1      42.369  36.856  38.358  1.00  0.00     0.049 A 
ATOM     62  C   UNL A   1      38.385  34.551  41.601  1.00  0.00     0.074 A 
ATOM     63  C   UNL A   1      43.024  37.957  38.875  1.00  0.00     0.029 A 
ATOM     64  N   UNL A   1      41.477  36.425  39.330  1.00  0.00    -0.354 N 
ATOM     65  N   UNL A   1      39.330  35.193  40.950  1.00  0.00    -0.248 NA
ATOM     66  C   UNL A   1      38.208  34.997  42.989  1.00  0.00     0.031 C 
ATOM     67  C   UNL A   1      42.590  38.140  40.191  1.00  0.00     0.029 A 
ATOM     68  C   UNL A   1      41.602  37.206  40.465  1.00  0.00     0.049 A 
ATOM     69  H   UNL A   1      40.848  35.675  39.227  1.00  0.00     0.167 HD
ATOM     70  C   UNL A   1      39.838  36.132  41.846  1.00  0.00     0.074 A 
ATOM     71  C   UNL A   1      39.083  35.988  43.071  1.00  0.00     0.031 C 
ATOM     72  C   UNL A   1      40.840  37.034  41.678  1.00  0.00     0.034 A 
BRANCH  59  73
ATOM     73  C   UNL A   1      43.671  36.707  36.191  1.00  0.00     0.023 A 
ATOM     74  C   UNL A   1      43.510  37.792  35.313  1.00  0.00     0.031 A 
ATOM     75  C   UNL A   1      44.923  36.069  36.234  1.00  0.00     0.131 A 
ATOM     76  C   UNL A   1      44.576  38.186  34.489  1.00  0.00     0.055 A 
ATOM     77  C   UNL A   1      45.997  36.504  35.459  1.00  0.00     0.041 A 
ATOM     78  F   UNL A   1      45.121  35.008  37.033  1.00  0.00    -0.206 F 
ATOM     79  C   UNL A   1      45.826  37.565  34.576  1.00  0.00     0.022 A 
BRANCH  76  80
ATOM     80  S   UNL A   1      44.284  39.465  33.238  1.00  0.00     0.124 S 
ATOM     81  O   UNL A   1      45.056  40.584  33.772  1.00  0.00    -0.237 OA
ATOM     82  O   UNL A   1      44.809  38.848  32.026  1.00  0.00    -0.237 OA
ATOM     83  O   UNL A   1      42.834  39.647  33.267  1.00  0.00    -0.744 OA
ENDBRANCH  76  80
ENDBRANCH  59  73
BRANCH  60  84
ATOM     84  C   UNL A   1      36.507  32.796  42.049  1.00  0.00     0.023 A 
ATOM     85  C   UNL A   1      35.187  33.262  42.158  1.00  0.00     0.031 A 
ATOM     86  C   UNL A   1      36.915  31.774  42.926  1.00  0.00     0.131 A 
ATOM     87  C   UNL A   1      34.345  32.757  43.163  1.00  0.00     0.055 A 
ATOM     88  C   UNL A   1      36.053  31.228  43.879  1.00  0.00     0.041 A 
ATOM     89  F   UNL A   1      38.168  31.294  42.877  1.00  0.00    -0.206 F 
ATOM     90  C   UNL A   1      34.765  31.733  44.014  1.00  0.00     0.022 A 
BRANCH  87  91
ATOM     91  S   UNL A   1      32.736  33.553  43.428  1.00  0.00     0.124 S 
ATOM     92  O   UNL A   1      33.128  34.935  43.680  1.00  0.00    -0.237 OA
ATOM     93  O   UNL A   1      32.062  33.297  42.160  1.00  0.00    -0.237 OA
ATOM     94  O   UNL A   1      32.189  32.838  44.579  1.00  0.00    -0.744 OA
ENDBRANCH  87  91
ENDBRANCH  60  84
BRANCH  72  95
ATOM     95  C   UNL A   1      41.143  37.952  42.835  1.00  0.00     0.023 A 
ATOM     96  C   UNL A   1      42.108  37.625  43.803  1.00  0.00     0.031 A 
ATOM     97  C   UNL A   1      40.470  39.180  42.959  1.00  0.00     0.131 A 
ATOM     98  C   UNL A   1      42.341  38.495  44.878  1.00  0.00     0.055 A 
ATOM     99  C   UNL A   1      40.748  40.069  43.997  1.00  0.00     0.041 A 
ATOM    100  F   UNL A   1      39.537  39.542  42.062  1.00  0.00    -0.206 F 
ATOM    101  C   UNL A   1      41.681  39.724  44.970  1.00  0.00     0.022 A 
BRANCH  98 102
ATOM    102  S   UNL A   1      43.467  37.967  46.198  1.00  0.00     0.124 S 
ATOM    103  O   UNL A   1      43.119  36.558  46.347  1.00  0.00    -0.237 OA
ATOM    104  O   UNL A   1      44.779  38.243  45.621  1.00  0.00    -0.237 OA
ATOM    105  O   UNL A   1      43.095  38.820  47.326  1.00  0.00    -0.744 OA
ENDBRANCH  98 102
ENDBRANCH  72  95
ENDBRANCH  46  47
ENDBRANCH  39  41
ENDBRANCH  38  39
ENDBRANCH  37  38
ENDBRANCH  36  37
ENDBRANCH  35  36
ENDBRANCH  34  35
ENDBRANCH  33  34
ENDBRANCH  32  33
ENDBRANCH   1  32
TORSDOF 27
ENDMDL
