MODEL 1
REMARK VINA RESULT:     -10.1      0.000      0.000
REMARK SMILES O=C(OCCOCCOCCOCCOC(=O)[C@H]1C[C@H]2CCCC[C@@H]2[N@@H+]1CC[C@@H]1CCCO1)c1ccc(-c2c3nc(c(-c4cc(S(=O)(=O)[O-])ccc4F)c4ccc([nH]4)c(-c4cc(S(=O)(=O)[O-])ccc4F)c4nc(c(-c5cc(S(=O)(=O)[O-])ccc5F)c5ccc2[nH]5)C=C4)C=C3)cc1
REMARK SMILES IDX 9 1 8 2 7 3 6 4 5 5 4 6 3 7 2 8 1 9 34 10 35 11 96 12 36 13
REMARK SMILES IDX 95 14 37 15 38 16 39 17 89 18 40 19 94 20 88 21 90 22 41 23
REMARK SMILES IDX 93 24 87 25 86 26 42 28 74 29 54 30 73 31 55 32 58 33 72 34
REMARK SMILES IDX 91 35 56 36 57 37 71 39 92 40 59 41 43 42 44 43 52 44 45 45
REMARK SMILES IDX 51 46 53 47 50 48 46 49 47 50 48 51 49 52 75 53 76 54 84 55
REMARK SMILES IDX 77 56 83 57 85 58 82 59 78 60 79 61 80 62 81 63 60 64 61 65
REMARK SMILES IDX 69 66 62 67 68 68 70 69 67 70 63 71 64 72 65 73 66 74 10 75
REMARK SMILES IDX 11 76 12 77 13 78 14 79 15 80 16 81 17 82 18 83 19 84 26 85
REMARK SMILES IDX 20 86 25 87 21 89 24 90 22 91 23 92 27 93 28 94 29 95 30 96
REMARK SMILES IDX 33 97 31 98 32 99
REMARK H PARENT 90 27 58 38 26 88
REMARK Flexibility Score: inf
ROOT
ATOM      1  O   UNL A   1      34.680  32.062  27.508  1.00  0.00    -0.377 OA
ENDROOT
BRANCH   1   2
ATOM      2  C   UNL A   1      33.642  32.616  28.305  1.00  0.00     0.188 C 
BRANCH   2   3
ATOM      3  C   UNL A   1      33.603  34.144  28.346  1.00  0.00     0.188 C 
BRANCH   3   4
ATOM      4  O   UNL A   1      32.790  34.634  29.412  1.00  0.00    -0.376 OA
BRANCH   4   5
ATOM      5  C   UNL A   1      33.350  35.668  30.223  1.00  0.00     0.202 C 
BRANCH   5   6
ATOM      6  C   UNL A   1      33.575  35.286  31.684  1.00  0.00     0.261 C 
BRANCH   6   7
ATOM      7  O   UNL A   1      34.822  34.617  31.897  1.00  0.00    -0.460 OA
BRANCH   7   8
ATOM      8  C   UNL A   1      35.120  33.314  31.662  1.00  0.00     0.338 C 
ATOM      9  O   UNL A   1      34.235  32.486  31.882  1.00  0.00    -0.246 OA
BRANCH   8  10
ATOM     10  C   UNL A   1      36.459  32.797  31.208  1.00  0.00     0.060 A 
ATOM     11  C   UNL A   1      37.002  32.906  29.925  1.00  0.00     0.016 A 
ATOM     12  C   UNL A   1      37.269  32.219  32.203  1.00  0.00     0.016 A 
ATOM     13  C   UNL A   1      38.294  32.497  29.632  1.00  0.00     0.010 A 
ATOM     14  C   UNL A   1      38.561  31.768  31.915  1.00  0.00     0.010 A 
ATOM     15  C   UNL A   1      39.067  31.906  30.620  1.00  0.00    -0.014 A 
BRANCH  15  16
ATOM     16  C   UNL A   1      40.312  31.252  30.197  1.00  0.00     0.031 A 
ATOM     17  C   UNL A   1      41.568  32.059  30.302  1.00  0.00     0.074 A 
ATOM     18  C   UNL A   1      40.313  29.949  29.870  1.00  0.00     0.049 A 
ATOM     19  N   UNL A   1      42.772  31.774  29.897  1.00  0.00    -0.248 NA
ATOM     20  C   UNL A   1      41.450  33.366  30.976  1.00  0.00     0.031 C 
ATOM     21  C   UNL A   1      39.148  29.063  29.933  1.00  0.00     0.029 A 
ATOM     22  N   UNL A   1      41.325  29.139  29.433  1.00  0.00    -0.354 N 
ATOM     23  C   UNL A   1      43.544  32.882  30.223  1.00  0.00     0.074 A 
ATOM     24  C   UNL A   1      42.683  33.835  30.881  1.00  0.00     0.031 C 
ATOM     25  C   UNL A   1      39.510  27.835  29.523  1.00  0.00     0.029 A 
ATOM     26  C   UNL A   1      40.903  27.874  29.092  1.00  0.00     0.049 A 
ATOM     27  H   UNL A   1      42.263  29.432  29.368  1.00  0.00     0.167 HD
ATOM     28  C   UNL A   1      44.855  33.078  29.956  1.00  0.00     0.034 A 
ATOM     29  C   UNL A   1      41.564  26.900  28.436  1.00  0.00     0.034 A 
ATOM     30  C   UNL A   1      45.656  32.091  29.284  1.00  0.00     0.049 A 
ATOM     31  C   UNL A   1      42.989  27.198  28.024  1.00  0.00     0.074 A 
ATOM     32  C   UNL A   1      46.981  32.162  28.907  1.00  0.00     0.029 A 
ATOM     33  N   UNL A   1      45.183  30.848  28.873  1.00  0.00    -0.354 N 
ATOM     34  N   UNL A   1      43.714  28.268  28.279  1.00  0.00    -0.248 NA
ATOM     35  C   UNL A   1      43.681  26.181  27.225  1.00  0.00     0.031 C 
ATOM     36  C   UNL A   1      47.285  30.999  28.193  1.00  0.00     0.029 A 
ATOM     37  C   UNL A   1      46.176  30.163  28.199  1.00  0.00     0.049 A 
ATOM     38  H   UNL A   1      44.275  30.507  29.039  1.00  0.00     0.167 HD
ATOM     39  C   UNL A   1      44.949  28.044  27.683  1.00  0.00     0.074 A 
ATOM     40  C   UNL A   1      44.881  26.725  27.082  1.00  0.00     0.031 C 
ATOM     41  C   UNL A   1      46.044  28.846  27.621  1.00  0.00     0.034 A 
BRANCH  28  42
ATOM     42  C   UNL A   1      45.430  34.435  30.264  1.00  0.00     0.023 A 
ATOM     43  C   UNL A   1      46.015  34.746  31.504  1.00  0.00     0.031 A 
ATOM     44  C   UNL A   1      45.327  35.460  29.306  1.00  0.00     0.131 A 
ATOM     45  C   UNL A   1      46.424  36.064  31.770  1.00  0.00     0.055 A 
ATOM     46  C   UNL A   1      45.800  36.749  29.551  1.00  0.00     0.041 A 
ATOM     47  F   UNL A   1      44.739  35.229  28.121  1.00  0.00    -0.206 F 
ATOM     48  C   UNL A   1      46.344  37.059  30.793  1.00  0.00     0.022 A 
BRANCH  45  49
ATOM     49  S   UNL A   1      46.948  36.493  33.453  1.00  0.00     0.124 S 
ATOM     50  O   UNL A   1      47.462  35.214  33.938  1.00  0.00    -0.237 OA
ATOM     51  O   UNL A   1      47.944  37.533  33.221  1.00  0.00    -0.237 OA
ATOM     52  O   UNL A   1      45.715  36.943  34.094  1.00  0.00    -0.744 OA
ENDBRANCH  45  49
ENDBRANCH  28  42
BRANCH  29  53
ATOM     53  C   UNL A   1      40.879  25.639  28.015  1.00  0.00     0.023 A 
ATOM     54  C   UNL A   1      41.470  24.381  28.217  1.00  0.00     0.031 A 
ATOM     55  C   UNL A   1      39.658  25.677  27.313  1.00  0.00     0.131 A 
ATOM     56  C   UNL A   1      40.877  23.230  27.670  1.00  0.00     0.055 A 
ATOM     57  C   UNL A   1      39.035  24.523  26.835  1.00  0.00     0.041 A 
ATOM     58  F   UNL A   1      39.048  26.849  27.068  1.00  0.00    -0.206 F 
ATOM     59  C   UNL A   1      39.656  23.290  26.994  1.00  0.00     0.022 A 
BRANCH  56  60
ATOM     60  S   UNL A   1      41.800  21.668  27.727  1.00  0.00     0.124 S 
ATOM     61  O   UNL A   1      42.804  21.955  28.744  1.00  0.00    -0.237 OA
ATOM     62  O   UNL A   1      40.761  20.715  28.099  1.00  0.00    -0.237 OA
ATOM     63  O   UNL A   1      42.315  21.528  26.364  1.00  0.00    -0.744 OA
ENDBRANCH  56  60
ENDBRANCH  29  53
BRANCH  41  64
ATOM     64  C   UNL A   1      47.245  28.294  26.904  1.00  0.00     0.023 A 
ATOM     65  C   UNL A   1      47.299  28.242  25.503  1.00  0.00     0.031 A 
ATOM     66  C   UNL A   1      48.362  27.854  27.636  1.00  0.00     0.131 A 
ATOM     67  C   UNL A   1      48.435  27.721  24.873  1.00  0.00     0.055 A 
ATOM     68  C   UNL A   1      49.515  27.397  27.002  1.00  0.00     0.041 A 
ATOM     69  F   UNL A   1      48.355  27.885  28.978  1.00  0.00    -0.206 F 
ATOM     70  C   UNL A   1      49.552  27.321  25.612  1.00  0.00     0.022 A 
BRANCH  67  71
ATOM     71  S   UNL A   1      48.408  27.511  23.074  1.00  0.00     0.124 S 
ATOM     72  O   UNL A   1      47.197  28.236  22.703  1.00  0.00    -0.237 OA
ATOM     73  O   UNL A   1      49.668  28.123  22.666  1.00  0.00    -0.237 OA
ATOM     74  O   UNL A   1      48.341  26.061  22.900  1.00  0.00    -0.744 OA
ENDBRANCH  67  71
ENDBRANCH  41  64
ENDBRANCH  15  16
ENDBRANCH   8  10
ENDBRANCH   7   8
ENDBRANCH   6   7
ENDBRANCH   5   6
ENDBRANCH   4   5
ENDBRANCH   3   4
ENDBRANCH   2   3
ENDBRANCH   1   2
BRANCH   1  75
ATOM     75  C   UNL A   1      34.650  30.651  27.342  1.00  0.00     0.188 C 
BRANCH  75  76
ATOM     76  C   UNL A   1      33.315  29.944  26.998  1.00  0.00     0.188 C 
BRANCH  76  77
ATOM     77  O   UNL A   1      33.189  29.593  25.629  1.00  0.00    -0.376 OA
BRANCH  77  78
ATOM     78  C   UNL A   1      32.471  28.389  25.387  1.00  0.00     0.202 C 
BRANCH  78  79
ATOM     79  C   UNL A   1      33.217  27.094  25.753  1.00  0.00     0.261 C 
BRANCH  79  80
ATOM     80  O   UNL A   1      32.657  25.867  25.228  1.00  0.00    -0.459 OA
BRANCH  80  81
ATOM     81  C   UNL A   1      33.066  25.435  24.002  1.00  0.00     0.365 C 
ATOM     82  O   UNL A   1      33.563  26.165  23.160  1.00  0.00    -0.245 OA
BRANCH  81  83
ATOM     83  C   UNL A   1      32.859  23.880  23.860  1.00  0.00     0.295 C 
ATOM     84  C   UNL A   1      33.885  23.389  22.833  1.00  0.00     0.087 C 
ATOM     85  N   UNL A   1      33.190  23.176  25.143  1.00  0.00    -0.320 N 
ATOM     86  C   UNL A   1      34.876  22.576  23.653  1.00  0.00     0.054 C 
ATOM     87  C   UNL A   1      34.636  22.987  25.095  1.00  0.00     0.188 C 
ATOM     88  H   UNL A   1      32.887  23.766  25.917  1.00  0.00     0.349 HD
ATOM     89  C   UNL A   1      36.347  22.719  23.318  1.00  0.00     0.010 C 
ATOM     90  C   UNL A   1      35.338  22.035  26.055  1.00  0.00     0.065 C 
ATOM     91  C   UNL A   1      37.177  21.829  24.253  1.00  0.00     0.001 C 
ATOM     92  C   UNL A   1      36.836  21.974  25.744  1.00  0.00     0.006 C 
BRANCH  85  93
ATOM     93  C   UNL A   1      32.377  22.049  25.627  1.00  0.00     0.265 C 
BRANCH  93  94
ATOM     94  C   UNL A   1      32.142  20.726  24.869  1.00  0.00     0.093 C 
BRANCH  94  95
ATOM     95  C   UNL A   1      32.903  19.459  25.299  1.00  0.00     0.123 C 
ATOM     96  C   UNL A   1      34.165  19.084  24.535  1.00  0.00     0.034 C 
ATOM     97  O   UNL A   1      32.037  18.332  25.325  1.00  0.00    -0.378 OA
ATOM     98  C   UNL A   1      33.986  17.641  24.130  1.00  0.00     0.031 C 
ATOM     99  C   UNL A   1      32.676  17.204  24.736  1.00  0.00     0.160 C 
ENDBRANCH  94  95
ENDBRANCH  93  94
ENDBRANCH  85  93
ENDBRANCH  81  83
ENDBRANCH  80  81
ENDBRANCH  79  80
ENDBRANCH  78  79
ENDBRANCH  77  78
ENDBRANCH  76  77
ENDBRANCH  75  76
ENDBRANCH   1  75
TORSDOF 26
ENDMDL
MODEL 2
REMARK VINA RESULT:      -9.8      2.177      2.624
REMARK SMILES O=C(OCCOCCOCCOCCOC(=O)[C@H]1C[C@H]2CCCC[C@@H]2[N@@H+]1CC[C@@H]1CCCO1)c1ccc(-c2c3nc(c(-c4cc(S(=O)(=O)[O-])ccc4F)c4ccc([nH]4)c(-c4cc(S(=O)(=O)[O-])ccc4F)c4nc(c(-c5cc(S(=O)(=O)[O-])ccc5F)c5ccc2[nH]5)C=C4)C=C3)cc1
REMARK SMILES IDX 9 1 8 2 7 3 6 4 5 5 4 6 3 7 2 8 1 9 34 10 35 11 96 12 36 13
REMARK SMILES IDX 95 14 37 15 38 16 39 17 89 18 40 19 94 20 88 21 90 22 41 23
REMARK SMILES IDX 93 24 87 25 86 26 42 28 74 29 54 30 73 31 55 32 58 33 72 34
REMARK SMILES IDX 91 35 56 36 57 37 71 39 92 40 59 41 43 42 44 43 52 44 45 45
REMARK SMILES IDX 51 46 53 47 50 48 46 49 47 50 48 51 49 52 75 53 76 54 84 55
REMARK SMILES IDX 77 56 83 57 85 58 82 59 78 60 79 61 80 62 81 63 60 64 61 65
REMARK SMILES IDX 69 66 62 67 68 68 70 69 67 70 63 71 64 72 65 73 66 74 10 75
REMARK SMILES IDX 11 76 12 77 13 78 14 79 15 80 16 81 17 82 18 83 19 84 26 85
REMARK SMILES IDX 20 86 25 87 21 89 24 90 22 91 23 92 27 93 28 94 29 95 30 96
REMARK SMILES IDX 33 97 31 98 32 99
REMARK H PARENT 90 27 58 38 26 88
REMARK Flexibility Score: inf
ROOT
ATOM      1  O   UNL A   1      32.455  30.649  26.473  1.00  0.00    -0.377 OA
ENDROOT
BRANCH   1   2
ATOM      2  C   UNL A   1      31.688  31.801  26.792  1.00  0.00     0.188 C 
BRANCH   2   3
ATOM      3  C   UNL A   1      32.463  32.924  27.481  1.00  0.00     0.188 C 
BRANCH   3   4
ATOM      4  O   UNL A   1      33.876  32.741  27.385  1.00  0.00    -0.376 OA
BRANCH   4   5
ATOM      5  C   UNL A   1      34.686  33.535  28.253  1.00  0.00     0.202 C 
BRANCH   5   6
ATOM      6  C   UNL A   1      34.077  33.807  29.627  1.00  0.00     0.261 C 
BRANCH   6   7
ATOM      7  O   UNL A   1      34.163  32.682  30.506  1.00  0.00    -0.460 OA
BRANCH   7   8
ATOM      8  C   UNL A   1      35.207  32.317  31.294  1.00  0.00     0.338 C 
ATOM      9  O   UNL A   1      35.077  32.478  32.508  1.00  0.00    -0.246 OA
BRANCH   8  10
ATOM     10  C   UNL A   1      36.525  31.786  30.798  1.00  0.00     0.060 A 
ATOM     11  C   UNL A   1      36.957  31.738  29.470  1.00  0.00     0.016 A 
ATOM     12  C   UNL A   1      37.437  31.372  31.787  1.00  0.00     0.016 A 
ATOM     13  C   UNL A   1      38.237  31.335  29.123  1.00  0.00     0.010 A 
ATOM     14  C   UNL A   1      38.718  30.926  31.450  1.00  0.00     0.010 A 
ATOM     15  C   UNL A   1      39.112  30.905  30.109  1.00  0.00    -0.014 A 
BRANCH  15  16
ATOM     16  C   UNL A   1      40.345  30.239  29.670  1.00  0.00     0.031 A 
ATOM     17  C   UNL A   1      41.610  31.033  29.760  1.00  0.00     0.074 A 
ATOM     18  C   UNL A   1      40.329  28.936  29.342  1.00  0.00     0.049 A 
ATOM     19  N   UNL A   1      42.806  30.737  29.340  1.00  0.00    -0.248 NA
ATOM     20  C   UNL A   1      41.514  32.341  30.436  1.00  0.00     0.031 C 
ATOM     21  C   UNL A   1      39.156  28.062  29.419  1.00  0.00     0.029 A 
ATOM     22  N   UNL A   1      41.327  28.117  28.892  1.00  0.00    -0.354 N 
ATOM     23  C   UNL A   1      43.593  31.837  29.656  1.00  0.00     0.074 A 
ATOM     24  C   UNL A   1      42.750  32.798  30.327  1.00  0.00     0.031 C 
ATOM     25  C   UNL A   1      39.501  26.831  29.004  1.00  0.00     0.029 A 
ATOM     26  C   UNL A   1      40.888  26.856  28.556  1.00  0.00     0.049 A 
ATOM     27  H   UNL A   1      42.267  28.401  28.815  1.00  0.00     0.167 HD
ATOM     28  C   UNL A   1      44.902  32.021  29.373  1.00  0.00     0.034 A 
ATOM     29  C   UNL A   1      41.531  25.877  27.891  1.00  0.00     0.034 A 
ATOM     30  C   UNL A   1      45.685  31.026  28.691  1.00  0.00     0.049 A 
ATOM     31  C   UNL A   1      42.954  26.161  27.461  1.00  0.00     0.074 A 
ATOM     32  C   UNL A   1      47.006  31.085  28.296  1.00  0.00     0.029 A 
ATOM     33  N   UNL A   1      45.195  29.788  28.285  1.00  0.00    -0.354 N 
ATOM     34  N   UNL A   1      43.693  27.223  27.707  1.00  0.00    -0.248 NA
ATOM     35  C   UNL A   1      43.626  25.138  26.652  1.00  0.00     0.031 C 
ATOM     36  C   UNL A   1      47.289  29.919  27.577  1.00  0.00     0.029 A 
ATOM     37  C   UNL A   1      46.172  29.094  27.597  1.00  0.00     0.049 A 
ATOM     38  H   UNL A   1      44.285  29.456  28.461  1.00  0.00     0.167 HD
ATOM     39  C   UNL A   1      44.918  26.988  27.095  1.00  0.00     0.074 A 
ATOM     40  C   UNL A   1      44.829  25.670  26.494  1.00  0.00     0.031 C 
ATOM     41  C   UNL A   1      46.019  27.779  27.020  1.00  0.00     0.034 A 
BRANCH  28  42
ATOM     42  C   UNL A   1      45.494  33.371  29.674  1.00  0.00     0.023 A 
ATOM     43  C   UNL A   1      45.457  34.436  28.757  1.00  0.00     0.031 A 
ATOM     44  C   UNL A   1      46.173  33.570  30.891  1.00  0.00     0.131 A 
ATOM     45  C   UNL A   1      46.134  35.632  29.050  1.00  0.00     0.055 A 
ATOM     46  C   UNL A   1      46.782  34.785  31.206  1.00  0.00     0.041 A 
ATOM     47  F   UNL A   1      46.275  32.574  31.785  1.00  0.00    -0.206 F 
ATOM     48  C   UNL A   1      46.773  35.822  30.279  1.00  0.00     0.022 A 
BRANCH  45  49
ATOM     49  S   UNL A   1      46.277  36.896  27.756  1.00  0.00     0.124 S 
ATOM     50  O   UNL A   1      45.442  37.967  28.296  1.00  0.00    -0.237 OA
ATOM     51  O   UNL A   1      47.710  37.160  27.726  1.00  0.00    -0.237 OA
ATOM     52  O   UNL A   1      45.739  36.235  26.569  1.00  0.00    -0.744 OA
ENDBRANCH  45  49
ENDBRANCH  28  42
BRANCH  29  53
ATOM     53  C   UNL A   1      40.829  24.623  27.477  1.00  0.00     0.023 A 
ATOM     54  C   UNL A   1      41.463  23.372  27.540  1.00  0.00     0.031 A 
ATOM     55  C   UNL A   1      39.535  24.667  26.919  1.00  0.00     0.131 A 
ATOM     56  C   UNL A   1      40.836  22.237  26.997  1.00  0.00     0.055 A 
ATOM     57  C   UNL A   1      38.886  23.524  26.449  1.00  0.00     0.041 A 
ATOM     58  F   UNL A   1      38.879  25.834  26.811  1.00  0.00    -0.206 F 
ATOM     59  C   UNL A   1      39.546  22.302  26.467  1.00  0.00     0.022 A 
BRANCH  56  60
ATOM     60  S   UNL A   1      41.791  20.699  26.862  1.00  0.00     0.124 S 
ATOM     61  O   UNL A   1      42.583  20.947  25.663  1.00  0.00    -0.237 OA
ATOM     62  O   UNL A   1      42.521  20.684  28.124  1.00  0.00    -0.237 OA
ATOM     63  O   UNL A   1      40.760  19.670  26.726  1.00  0.00    -0.744 OA
ENDBRANCH  56  60
ENDBRANCH  29  53
BRANCH  41  64
ATOM     64  C   UNL A   1      47.206  27.216  26.288  1.00  0.00     0.023 A 
ATOM     65  C   UNL A   1      48.219  26.520  26.965  1.00  0.00     0.031 A 
ATOM     66  C   UNL A   1      47.299  27.347  24.891  1.00  0.00     0.131 A 
ATOM     67  C   UNL A   1      49.308  26.012  26.247  1.00  0.00     0.055 A 
ATOM     68  C   UNL A   1      48.351  26.782  24.174  1.00  0.00     0.041 A 
ATOM     69  F   UNL A   1      46.353  28.005  24.201  1.00  0.00    -0.206 F 
ATOM     70  C   UNL A   1      49.369  26.117  24.854  1.00  0.00     0.022 A 
BRANCH  67  71
ATOM     71  S   UNL A   1      50.680  25.267  27.166  1.00  0.00     0.124 S 
ATOM     72  O   UNL A   1      51.128  26.381  27.996  1.00  0.00    -0.237 OA
ATOM     73  O   UNL A   1      50.027  24.170  27.872  1.00  0.00    -0.237 OA
ATOM     74  O   UNL A   1      51.612  24.860  26.117  1.00  0.00    -0.744 OA
ENDBRANCH  67  71
ENDBRANCH  41  64
ENDBRANCH  15  16
ENDBRANCH   8  10
ENDBRANCH   7   8
ENDBRANCH   6   7
ENDBRANCH   5   6
ENDBRANCH   4   5
ENDBRANCH   3   4
ENDBRANCH   2   3
ENDBRANCH   1   2
BRANCH   1  75
ATOM     75  C   UNL A   1      31.870  29.753  25.536  1.00  0.00     0.188 C 
BRANCH  75  76
ATOM     76  C   UNL A   1      32.770  28.781  24.734  1.00  0.00     0.188 C 
BRANCH  76  77
ATOM     77  O   UNL A   1      32.097  27.614  24.289  1.00  0.00    -0.376 OA
BRANCH  77  78
ATOM     78  C   UNL A   1      31.652  26.750  25.329  1.00  0.00     0.202 C 
BRANCH  78  79
ATOM     79  C   UNL A   1      32.762  26.169  26.221  1.00  0.00     0.261 C 
BRANCH  79  80
ATOM     80  O   UNL A   1      33.139  24.797  25.956  1.00  0.00    -0.459 OA
BRANCH  80  81
ATOM     81  C   UNL A   1      32.316  23.799  26.383  1.00  0.00     0.365 C 
ATOM     82  O   UNL A   1      31.632  23.872  27.392  1.00  0.00    -0.245 OA
BRANCH  81  83
ATOM     83  C   UNL A   1      32.333  22.590  25.375  1.00  0.00     0.295 C 
ATOM     84  C   UNL A   1      32.710  23.161  24.004  1.00  0.00     0.087 C 
ATOM     85  N   UNL A   1      33.417  21.614  25.727  1.00  0.00    -0.320 N 
ATOM     86  C   UNL A   1      34.107  22.619  23.744  1.00  0.00     0.054 C 
ATOM     87  C   UNL A   1      34.617  22.155  25.097  1.00  0.00     0.188 C 
ATOM     88  H   UNL A   1      33.484  21.565  26.744  1.00  0.00     0.349 HD
ATOM     89  C   UNL A   1      35.117  23.557  23.112  1.00  0.00     0.010 C 
ATOM     90  C   UNL A   1      35.875  21.311  24.944  1.00  0.00     0.065 C 
ATOM     91  C   UNL A   1      36.457  22.830  22.937  1.00  0.00     0.001 C 
ATOM     92  C   UNL A   1      36.954  22.095  24.191  1.00  0.00     0.006 C 
BRANCH  85  93
ATOM     93  C   UNL A   1      33.199  20.162  25.629  1.00  0.00     0.265 C 
BRANCH  93  94
ATOM     94  C   UNL A   1      32.273  19.464  24.610  1.00  0.00     0.093 C 
BRANCH  94  95
ATOM     95  C   UNL A   1      32.457  17.964  24.321  1.00  0.00     0.123 C 
ATOM     96  C   UNL A   1      33.140  17.106  25.378  1.00  0.00     0.034 C 
ATOM     97  O   UNL A   1      33.119  17.764  23.079  1.00  0.00    -0.378 OA
ATOM     98  C   UNL A   1      34.243  16.369  24.659  1.00  0.00     0.031 C 
ATOM     99  C   UNL A   1      34.116  16.755  23.206  1.00  0.00     0.160 C 
ENDBRANCH  94  95
ENDBRANCH  93  94
ENDBRANCH  85  93
ENDBRANCH  81  83
ENDBRANCH  80  81
ENDBRANCH  79  80
ENDBRANCH  78  79
ENDBRANCH  77  78
ENDBRANCH  76  77
ENDBRANCH  75  76
ENDBRANCH   1  75
TORSDOF 26
ENDMDL
MODEL 3
REMARK VINA RESULT:      -9.8      2.348      3.098
REMARK SMILES O=C(OCCOCCOCCOCCOC(=O)[C@H]1C[C@H]2CCCC[C@@H]2[N@@H+]1CC[C@@H]1CCCO1)c1ccc(-c2c3nc(c(-c4cc(S(=O)(=O)[O-])ccc4F)c4ccc([nH]4)c(-c4cc(S(=O)(=O)[O-])ccc4F)c4nc(c(-c5cc(S(=O)(=O)[O-])ccc5F)c5ccc2[nH]5)C=C4)C=C3)cc1
REMARK SMILES IDX 9 1 8 2 7 3 6 4 5 5 4 6 3 7 2 8 1 9 34 10 35 11 96 12 36 13
REMARK SMILES IDX 95 14 37 15 38 16 39 17 89 18 40 19 94 20 88 21 90 22 41 23
REMARK SMILES IDX 93 24 87 25 86 26 42 28 74 29 54 30 73 31 55 32 58 33 72 34
REMARK SMILES IDX 91 35 56 36 57 37 71 39 92 40 59 41 43 42 44 43 52 44 45 45
REMARK SMILES IDX 51 46 53 47 50 48 46 49 47 50 48 51 49 52 75 53 76 54 84 55
REMARK SMILES IDX 77 56 83 57 85 58 82 59 78 60 79 61 80 62 81 63 60 64 61 65
REMARK SMILES IDX 69 66 62 67 68 68 70 69 67 70 63 71 64 72 65 73 66 74 10 75
REMARK SMILES IDX 11 76 12 77 13 78 14 79 15 80 16 81 17 82 18 83 19 84 26 85
REMARK SMILES IDX 20 86 25 87 21 89 24 90 22 91 23 92 27 93 28 94 29 95 30 96
REMARK SMILES IDX 33 97 31 98 32 99
REMARK H PARENT 90 27 58 38 26 88
REMARK Flexibility Score: inf
ROOT
ATOM      1  O   UNL A   1      34.724  33.189  27.745  1.00  0.00    -0.377 OA
ENDROOT
BRANCH   1   2
ATOM      2  C   UNL A   1      33.704  33.614  28.637  1.00  0.00     0.188 C 
BRANCH   2   3
ATOM      3  C   UNL A   1      33.696  35.111  28.946  1.00  0.00     0.188 C 
BRANCH   3   4
ATOM      4  O   UNL A   1      33.111  35.396  30.216  1.00  0.00    -0.376 OA
BRANCH   4   5
ATOM      5  C   UNL A   1      34.009  35.734  31.275  1.00  0.00     0.202 C 
BRANCH   5   6
ATOM      6  C   UNL A   1      34.316  34.592  32.242  1.00  0.00     0.261 C 
BRANCH   6   7
ATOM      7  O   UNL A   1      35.478  33.845  31.868  1.00  0.00    -0.460 OA
BRANCH   7   8
ATOM      8  C   UNL A   1      35.650  32.500  31.896  1.00  0.00     0.338 C 
ATOM      9  O   UNL A   1      34.766  31.831  32.434  1.00  0.00    -0.246 OA
BRANCH   8  10
ATOM     10  C   UNL A   1      36.856  31.766  31.374  1.00  0.00     0.060 A 
ATOM     11  C   UNL A   1      37.633  30.838  32.073  1.00  0.00     0.016 A 
ATOM     12  C   UNL A   1      37.178  31.986  30.022  1.00  0.00     0.016 A 
ATOM     13  C   UNL A   1      38.659  30.129  31.469  1.00  0.00     0.010 A 
ATOM     14  C   UNL A   1      38.235  31.307  29.408  1.00  0.00     0.010 A 
ATOM     15  C   UNL A   1      38.978  30.379  30.143  1.00  0.00    -0.014 A 
BRANCH  15  16
ATOM     16  C   UNL A   1      40.232  29.808  29.633  1.00  0.00     0.031 A 
ATOM     17  C   UNL A   1      41.431  30.703  29.634  1.00  0.00     0.074 A 
ATOM     18  C   UNL A   1      40.301  28.503  29.320  1.00  0.00     0.049 A 
ATOM     19  N   UNL A   1      42.618  30.498  29.142  1.00  0.00    -0.248 NA
ATOM     20  C   UNL A   1      41.270  32.009  30.302  1.00  0.00     0.031 C 
ATOM     21  C   UNL A   1      39.211  27.538  29.480  1.00  0.00     0.029 A 
ATOM     22  N   UNL A   1      41.333  27.761  28.815  1.00  0.00    -0.354 N 
ATOM     23  C   UNL A   1      43.331  31.663  29.397  1.00  0.00     0.074 A 
ATOM     24  C   UNL A   1      42.456  32.563  30.110  1.00  0.00     0.031 C 
ATOM     25  C   UNL A   1      39.628  26.333  29.057  1.00  0.00     0.029 A 
ATOM     26  C   UNL A   1      40.978  26.464  28.521  1.00  0.00     0.049 A 
ATOM     27  H   UNL A   1      42.240  28.118  28.676  1.00  0.00     0.167 HD
ATOM     28  C   UNL A   1      44.600  31.947  29.030  1.00  0.00     0.034 A 
ATOM     29  C   UNL A   1      41.657  25.529  27.826  1.00  0.00     0.034 A 
ATOM     30  C   UNL A   1      45.418  31.009  28.309  1.00  0.00     0.049 A 
ATOM     31  C   UNL A   1      43.022  25.921  27.304  1.00  0.00     0.074 A 
ATOM     32  C   UNL A   1      46.702  31.168  27.831  1.00  0.00     0.029 A 
ATOM     33  N   UNL A   1      45.006  29.730  27.948  1.00  0.00    -0.354 N 
ATOM     34  N   UNL A   1      43.685  27.043  27.493  1.00  0.00    -0.248 NA
ATOM     35  C   UNL A   1      43.723  24.943  26.465  1.00  0.00     0.031 C 
ATOM     36  C   UNL A   1      47.034  30.019  27.108  1.00  0.00     0.029 A 
ATOM     37  C   UNL A   1      45.992  29.107  27.206  1.00  0.00     0.049 A 
ATOM     38  H   UNL A   1      44.139  29.328  28.185  1.00  0.00     0.167 HD
ATOM     39  C   UNL A   1      44.885  26.898  26.806  1.00  0.00     0.074 A 
ATOM     40  C   UNL A   1      44.866  25.569  26.226  1.00  0.00     0.031 C 
ATOM     41  C   UNL A   1      45.911  27.775  26.654  1.00  0.00     0.034 A 
BRANCH  28  42
ATOM     42  C   UNL A   1      45.098  33.346  29.279  1.00  0.00     0.023 A 
ATOM     43  C   UNL A   1      44.816  34.416  28.412  1.00  0.00     0.031 A 
ATOM     44  C   UNL A   1      45.934  33.593  30.383  1.00  0.00     0.131 A 
ATOM     45  C   UNL A   1      45.411  35.670  28.636  1.00  0.00     0.055 A 
ATOM     46  C   UNL A   1      46.464  34.857  30.640  1.00  0.00     0.041 A 
ATOM     47  F   UNL A   1      46.271  32.598  31.220  1.00  0.00    -0.206 F 
ATOM     48  C   UNL A   1      46.211  35.903  29.758  1.00  0.00     0.022 A 
BRANCH  45  49
ATOM     49  S   UNL A   1      45.227  36.962  27.375  1.00  0.00     0.124 S 
ATOM     50  O   UNL A   1      46.453  36.792  26.598  1.00  0.00    -0.237 OA
ATOM     51  O   UNL A   1      43.990  36.579  26.705  1.00  0.00    -0.237 OA
ATOM     52  O   UNL A   1      45.158  38.195  28.155  1.00  0.00    -0.744 OA
ENDBRANCH  45  49
ENDBRANCH  28  42
BRANCH  29  53
ATOM     53  C   UNL A   1      41.034  24.217  27.471  1.00  0.00     0.023 A 
ATOM     54  C   UNL A   1      39.906  24.141  26.638  1.00  0.00     0.031 A 
ATOM     55  C   UNL A   1      41.503  23.015  28.039  1.00  0.00     0.131 A 
ATOM     56  C   UNL A   1      39.251  22.911  26.452  1.00  0.00     0.055 A 
ATOM     57  C   UNL A   1      40.892  21.784  27.792  1.00  0.00     0.041 A 
ATOM     58  F   UNL A   1      42.566  23.017  28.861  1.00  0.00    -0.206 F 
ATOM     59  C   UNL A   1      39.745  21.730  27.010  1.00  0.00     0.022 A 
BRANCH  56  60
ATOM     60  S   UNL A   1      37.655  22.902  25.586  1.00  0.00     0.124 S 
ATOM     61  O   UNL A   1      36.726  22.645  26.680  1.00  0.00    -0.237 OA
ATOM     62  O   UNL A   1      37.616  24.240  25.008  1.00  0.00    -0.237 OA
ATOM     63  O   UNL A   1      37.799  21.811  24.622  1.00  0.00    -0.744 OA
ENDBRANCH  56  60
ENDBRANCH  29  53
BRANCH  41  64
ATOM     64  C   UNL A   1      47.092  27.298  25.853  1.00  0.00     0.023 A 
ATOM     65  C   UNL A   1      47.259  27.667  24.510  1.00  0.00     0.031 A 
ATOM     66  C   UNL A   1      48.078  26.499  26.458  1.00  0.00     0.131 A 
ATOM     67  C   UNL A   1      48.372  27.203  23.798  1.00  0.00     0.055 A 
ATOM     68  C   UNL A   1      49.215  26.094  25.764  1.00  0.00     0.041 A 
ATOM     69  F   UNL A   1      47.959  26.122  27.741  1.00  0.00    -0.206 F 
ATOM     70  C   UNL A   1      49.363  26.439  24.423  1.00  0.00     0.022 A 
BRANCH  67  71
ATOM     71  S   UNL A   1      48.475  27.555  22.024  1.00  0.00     0.124 S 
ATOM     72  O   UNL A   1      48.671  26.223  21.462  1.00  0.00    -0.237 OA
ATOM     73  O   UNL A   1      47.183  28.178  21.752  1.00  0.00    -0.237 OA
ATOM     74  O   UNL A   1      49.626  28.450  21.920  1.00  0.00    -0.744 OA
ENDBRANCH  67  71
ENDBRANCH  41  64
ENDBRANCH  15  16
ENDBRANCH   8  10
ENDBRANCH   7   8
ENDBRANCH   6   7
ENDBRANCH   5   6
ENDBRANCH   4   5
ENDBRANCH   3   4
ENDBRANCH   2   3
ENDBRANCH   1   2
BRANCH   1  75
ATOM     75  C   UNL A   1      34.927  31.784  27.658  1.00  0.00     0.188 C 
BRANCH  75  76
ATOM     76  C   UNL A   1      33.728  30.850  27.361  1.00  0.00     0.188 C 
BRANCH  76  77
ATOM     77  O   UNL A   1      34.064  29.719  26.573  1.00  0.00    -0.376 OA
BRANCH  77  78
ATOM     78  C   UNL A   1      33.793  28.464  27.185  1.00  0.00     0.202 C 
BRANCH  78  79
ATOM     79  C   UNL A   1      32.365  28.295  27.732  1.00  0.00     0.261 C 
BRANCH  79  80
ATOM     80  O   UNL A   1      31.558  27.274  27.098  1.00  0.00    -0.459 OA
BRANCH  80  81
ATOM     81  C   UNL A   1      31.032  27.528  25.866  1.00  0.00     0.365 C 
ATOM     82  O   UNL A   1      31.109  28.611  25.310  1.00  0.00    -0.245 OA
BRANCH  81  83
ATOM     83  C   UNL A   1      30.379  26.230  25.259  1.00  0.00     0.295 C 
ATOM     84  C   UNL A   1      29.914  26.589  23.843  1.00  0.00     0.087 C 
ATOM     85  N   UNL A   1      31.400  25.143  25.095  1.00  0.00    -0.320 N 
ATOM     86  C   UNL A   1      30.856  25.815  22.933  1.00  0.00     0.054 C 
ATOM     87  C   UNL A   1      32.032  25.424  23.810  1.00  0.00     0.188 C 
ATOM     88  H   UNL A   1      32.047  25.192  25.881  1.00  0.00     0.349 HD
ATOM     89  C   UNL A   1      31.359  26.515  21.686  1.00  0.00     0.010 C 
ATOM     90  C   UNL A   1      32.905  24.386  23.117  1.00  0.00     0.065 C 
ATOM     91  C   UNL A   1      32.292  25.577  20.909  1.00  0.00     0.001 C 
ATOM     92  C   UNL A   1      33.384  24.911  21.761  1.00  0.00     0.006 C 
BRANCH  85  93
ATOM     93  C   UNL A   1      31.075  23.739  25.395  1.00  0.00     0.265 C 
BRANCH  93  94
ATOM     94  C   UNL A   1      31.590  22.943  26.613  1.00  0.00     0.093 C 
BRANCH  94  95
ATOM     95  C   UNL A   1      32.170  21.532  26.407  1.00  0.00     0.123 C 
ATOM     96  C   UNL A   1      33.673  21.344  26.553  1.00  0.00     0.034 C 
ATOM     97  O   UNL A   1      31.766  20.997  25.153  1.00  0.00    -0.378 OA
ATOM     98  C   UNL A   1      34.123  20.637  25.297  1.00  0.00     0.031 C 
ATOM     99  C   UNL A   1      32.867  20.366  24.507  1.00  0.00     0.160 C 
ENDBRANCH  94  95
ENDBRANCH  93  94
ENDBRANCH  85  93
ENDBRANCH  81  83
ENDBRANCH  80  81
ENDBRANCH  79  80
ENDBRANCH  78  79
ENDBRANCH  77  78
ENDBRANCH  76  77
ENDBRANCH  75  76
ENDBRANCH   1  75
TORSDOF 26
ENDMDL
