MODEL 1
REMARK VINA RESULT:     -10.2      0.000      0.000
REMARK SMILES O=C(OCCOCCOCCOCCOC(=O)c1cc(-c2cc3ccccc3s2)ccn1)c1ccc(-c2c3nc(c(-c4cc(S(=O)(=O)[O-])ccc4F)c4ccc([nH]4)c(-c4cc(S(=O)(=O)[O-])ccc4F)c4nc(c(-c5cc(S(=O)(=O)[O-])ccc5F)c5ccc2[nH]5)C=C4)C=C3)cc1
REMARK SMILES IDX 8 1 7 2 6 3 5 4 4 5 3 6 2 7 1 8 33 9 34 10 95 11 35 12 94 13
REMARK SMILES IDX 36 14 37 15 38 16 88 17 39 18 93 19 87 20 89 21 40 22 92 23
REMARK SMILES IDX 86 24 85 25 41 27 73 28 53 29 72 30 54 31 57 32 71 33 90 34
REMARK SMILES IDX 55 35 56 36 70 38 91 39 58 40 42 41 43 42 51 43 44 44 50 45
REMARK SMILES IDX 52 46 49 47 45 48 46 49 47 50 48 51 74 52 75 53 83 54 76 55
REMARK SMILES IDX 82 56 84 57 81 58 77 59 78 60 79 61 80 62 59 63 60 64 68 65
REMARK SMILES IDX 61 66 67 67 69 68 66 69 62 70 63 71 64 72 65 73 9 74 10 75
REMARK SMILES IDX 11 76 12 77 13 78 14 79 15 80 16 81 17 82 18 83 19 84 32 85
REMARK SMILES IDX 20 86 31 87 30 88 21 89 22 90 29 91 23 92 28 93 24 94 27 95
REMARK SMILES IDX 25 96 26 97
REMARK H PARENT 89 26 57 37
REMARK Flexibility Score: inf
ROOT
ATOM      1  C   UNL A   1      32.105  30.186  25.756  1.00  0.00     0.188 C 
ENDROOT
BRANCH   1   2
ATOM      2  C   UNL A   1      32.906  29.828  27.011  1.00  0.00     0.188 C 
BRANCH   2   3
ATOM      3  O   UNL A   1      33.406  31.014  27.624  1.00  0.00    -0.376 OA
BRANCH   3   4
ATOM      4  C   UNL A   1      32.532  32.136  27.646  1.00  0.00     0.202 C 
BRANCH   4   5
ATOM      5  C   UNL A   1      33.231  33.489  27.506  1.00  0.00     0.261 C 
BRANCH   5   6
ATOM      6  O   UNL A   1      32.673  34.491  28.369  1.00  0.00    -0.460 OA
BRANCH   6   7
ATOM      7  C   UNL A   1      33.140  34.869  29.586  1.00  0.00     0.338 C 
ATOM      8  O   UNL A   1      32.533  35.745  30.200  1.00  0.00    -0.246 OA
BRANCH   7   9
ATOM      9  C   UNL A   1      34.344  34.265  30.236  1.00  0.00     0.060 A 
ATOM     10  C   UNL A   1      34.309  33.299  31.243  1.00  0.00     0.016 A 
ATOM     11  C   UNL A   1      35.597  34.621  29.713  1.00  0.00     0.016 A 
ATOM     12  C   UNL A   1      35.468  32.741  31.764  1.00  0.00     0.010 A 
ATOM     13  C   UNL A   1      36.769  34.033  30.201  1.00  0.00     0.010 A 
ATOM     14  C   UNL A   1      36.703  33.097  31.240  1.00  0.00    -0.014 A 
BRANCH  14  15
ATOM     15  C   UNL A   1      37.916  32.545  31.870  1.00  0.00     0.031 A 
ATOM     16  C   UNL A   1      38.652  31.465  31.140  1.00  0.00     0.074 A 
ATOM     17  C   UNL A   1      38.379  33.075  33.017  1.00  0.00     0.049 A 
ATOM     18  N   UNL A   1      39.646  30.726  31.540  1.00  0.00    -0.248 NA
ATOM     19  C   UNL A   1      38.205  31.187  29.763  1.00  0.00     0.031 C 
ATOM     20  C   UNL A   1      37.795  34.230  33.709  1.00  0.00     0.029 A 
ATOM     21  N   UNL A   1      39.449  32.729  33.800  1.00  0.00    -0.354 N 
ATOM     22  C   UNL A   1      39.913  29.858  30.486  1.00  0.00     0.074 A 
ATOM     23  C   UNL A   1      38.987  30.174  29.423  1.00  0.00     0.031 C 
ATOM     24  C   UNL A   1      38.513  34.490  34.813  1.00  0.00     0.029 A 
ATOM     25  C   UNL A   1      39.543  33.469  34.958  1.00  0.00     0.049 A 
ATOM     26  H   UNL A   1      40.086  32.020  33.559  1.00  0.00     0.167 HD
ATOM     27  C   UNL A   1      40.839  28.874  30.441  1.00  0.00     0.034 A 
ATOM     28  C   UNL A   1      40.330  33.285  36.037  1.00  0.00     0.034 A 
ATOM     29  C   UNL A   1      41.739  28.606  31.532  1.00  0.00     0.049 A 
ATOM     30  C   UNL A   1      41.278  32.107  36.005  1.00  0.00     0.074 A 
ATOM     31  C   UNL A   1      42.706  27.626  31.636  1.00  0.00     0.029 A 
ATOM     32  N   UNL A   1      41.766  29.328  32.721  1.00  0.00    -0.354 N 
ATOM     33  N   UNL A   1      41.496  31.252  35.029  1.00  0.00    -0.248 NA
ATOM     34  C   UNL A   1      42.063  31.850  37.216  1.00  0.00     0.031 C 
ATOM     35  C   UNL A   1      43.266  27.710  32.915  1.00  0.00     0.029 A 
ATOM     36  C   UNL A   1      42.701  28.787  33.584  1.00  0.00     0.049 A 
ATOM     37  H   UNL A   1      41.203  30.110  32.919  1.00  0.00     0.167 HD
ATOM     38  C   UNL A   1      42.449  30.361  35.507  1.00  0.00     0.074 A 
ATOM     39  C   UNL A   1      42.788  30.804  36.847  1.00  0.00     0.031 C 
ATOM     40  C   UNL A   1      42.993  29.268  34.913  1.00  0.00     0.034 A 
BRANCH  27  41
ATOM     41  C   UNL A   1      40.824  27.965  29.240  1.00  0.00     0.023 A 
ATOM     42  C   UNL A   1      41.723  28.113  28.169  1.00  0.00     0.031 A 
ATOM     43  C   UNL A   1      39.840  26.964  29.144  1.00  0.00     0.131 A 
ATOM     44  C   UNL A   1      41.580  27.311  27.023  1.00  0.00     0.055 A 
ATOM     45  C   UNL A   1      39.748  26.125  28.032  1.00  0.00     0.041 A 
ATOM     46  F   UNL A   1      38.935  26.802  30.120  1.00  0.00    -0.206 F 
ATOM     47  C   UNL A   1      40.614  26.304  26.959  1.00  0.00     0.022 A 
BRANCH  44  48
ATOM     48  S   UNL A   1      42.597  27.680  25.567  1.00  0.00     0.124 S 
ATOM     49  O   UNL A   1      42.363  26.500  24.737  1.00  0.00    -0.237 OA
ATOM     50  O   UNL A   1      42.016  28.926  25.080  1.00  0.00    -0.237 OA
ATOM     51  O   UNL A   1      43.948  27.794  26.110  1.00  0.00    -0.744 OA
ENDBRANCH  44  48
ENDBRANCH  27  41
BRANCH  28  52
ATOM     52  C   UNL A   1      40.178  34.128  37.264  1.00  0.00     0.023 A 
ATOM     53  C   UNL A   1      39.485  33.663  38.394  1.00  0.00     0.031 A 
ATOM     54  C   UNL A   1      40.653  35.454  37.296  1.00  0.00     0.131 A 
ATOM     55  C   UNL A   1      39.240  34.527  39.475  1.00  0.00     0.055 A 
ATOM     56  C   UNL A   1      40.468  36.288  38.400  1.00  0.00     0.041 A 
ATOM     57  F   UNL A   1      41.307  35.969  36.242  1.00  0.00    -0.206 F 
ATOM     58  C   UNL A   1      39.741  35.831  39.492  1.00  0.00     0.022 A 
BRANCH  55  59
ATOM     59  S   UNL A   1      38.135  33.971  40.804  1.00  0.00     0.124 S 
ATOM     60  O   UNL A   1      37.550  35.231  41.251  1.00  0.00    -0.237 OA
ATOM     61  O   UNL A   1      37.240  33.065  40.092  1.00  0.00    -0.237 OA
ATOM     62  O   UNL A   1      39.041  33.332  41.755  1.00  0.00    -0.744 OA
ENDBRANCH  55  59
ENDBRANCH  28  52
BRANCH  40  63
ATOM     63  C   UNL A   1      44.016  28.509  35.712  1.00  0.00     0.023 A 
ATOM     64  C   UNL A   1      45.381  28.827  35.634  1.00  0.00     0.031 A 
ATOM     65  C   UNL A   1      43.614  27.477  36.577  1.00  0.00     0.131 A 
ATOM     66  C   UNL A   1      46.307  28.087  36.381  1.00  0.00     0.055 A 
ATOM     67  C   UNL A   1      44.535  26.785  37.362  1.00  0.00     0.041 A 
ATOM     68  F   UNL A   1      42.318  27.140  36.684  1.00  0.00    -0.206 F 
ATOM     69  C   UNL A   1      45.890  27.083  37.260  1.00  0.00     0.022 A 
BRANCH  66  70
ATOM     70  S   UNL A   1      48.073  28.417  36.144  1.00  0.00     0.124 S 
ATOM     71  O   UNL A   1      48.303  29.519  37.072  1.00  0.00    -0.237 OA
ATOM     72  O   UNL A   1      48.682  27.141  36.505  1.00  0.00    -0.237 OA
ATOM     73  O   UNL A   1      48.168  28.768  34.728  1.00  0.00    -0.744 OA
ENDBRANCH  66  70
ENDBRANCH  40  63
ENDBRANCH  14  15
ENDBRANCH   7   9
ENDBRANCH   6   7
ENDBRANCH   5   6
ENDBRANCH   4   5
ENDBRANCH   3   4
ENDBRANCH   2   3
ENDBRANCH   1   2
BRANCH   1  74
ATOM     74  O   UNL A   1      31.527  29.074  25.069  1.00  0.00    -0.377 OA
BRANCH  74  75
ATOM     75  C   UNL A   1      31.809  28.977  23.675  1.00  0.00     0.188 C 
BRANCH  75  76
ATOM     76  C   UNL A   1      30.648  29.099  22.661  1.00  0.00     0.188 C 
BRANCH  76  77
ATOM     77  O   UNL A   1      30.098  27.857  22.239  1.00  0.00    -0.376 OA
BRANCH  77  78
ATOM     78  C   UNL A   1      29.488  27.084  23.270  1.00  0.00     0.202 C 
BRANCH  78  79
ATOM     79  C   UNL A   1      30.169  25.734  23.536  1.00  0.00     0.261 C 
BRANCH  79  80
ATOM     80  O   UNL A   1      29.995  25.230  24.873  1.00  0.00    -0.459 OA
BRANCH  80  81
ATOM     81  C   UNL A   1      30.843  25.685  25.828  1.00  0.00     0.357 C 
ATOM     82  O   UNL A   1      30.568  26.421  26.759  1.00  0.00    -0.244 OA
BRANCH  81  83
ATOM     83  C   UNL A   1      32.145  24.996  25.608  1.00  0.00     0.148 A 
ATOM     84  C   UNL A   1      32.180  23.616  25.534  1.00  0.00     0.045 A 
ATOM     85  N   UNL A   1      33.261  25.775  25.590  1.00  0.00    -0.249 NA
ATOM     86  C   UNL A   1      33.420  22.987  25.379  1.00  0.00    -0.004 A 
ATOM     87  C   UNL A   1      34.449  25.135  25.533  1.00  0.00     0.112 A 
ATOM     88  C   UNL A   1      34.581  23.759  25.434  1.00  0.00     0.030 A 
BRANCH  86  89
ATOM     89  C   UNL A   1      33.468  21.565  25.034  1.00  0.00     0.036 A 
ATOM     90  C   UNL A   1      32.481  20.670  24.674  1.00  0.00     0.029 A 
ATOM     91  S   UNL A   1      34.992  20.791  25.147  1.00  0.00    -0.135 S 
ATOM     92  C   UNL A   1      32.992  19.343  24.422  1.00  0.00    -0.007 A 
ATOM     93  C   UNL A   1      34.370  19.287  24.632  1.00  0.00     0.035 A 
ATOM     94  C   UNL A   1      32.343  18.154  24.010  1.00  0.00     0.009 A 
ATOM     95  C   UNL A   1      35.115  18.111  24.435  1.00  0.00     0.019 A 
ATOM     96  C   UNL A   1      33.080  16.978  23.811  1.00  0.00     0.001 A 
ATOM     97  C   UNL A   1      34.452  16.961  24.019  1.00  0.00     0.001 A 
ENDBRANCH  86  89
ENDBRANCH  81  83
ENDBRANCH  80  81
ENDBRANCH  79  80
ENDBRANCH  78  79
ENDBRANCH  77  78
ENDBRANCH  76  77
ENDBRANCH  75  76
ENDBRANCH  74  75
ENDBRANCH   1  74
TORSDOF 24
ENDMDL
MODEL 2
REMARK VINA RESULT:     -10.1      1.790      2.078
REMARK SMILES O=C(OCCOCCOCCOCCOC(=O)c1cc(-c2cc3ccccc3s2)ccn1)c1ccc(-c2c3nc(c(-c4cc(S(=O)(=O)[O-])ccc4F)c4ccc([nH]4)c(-c4cc(S(=O)(=O)[O-])ccc4F)c4nc(c(-c5cc(S(=O)(=O)[O-])ccc5F)c5ccc2[nH]5)C=C4)C=C3)cc1
REMARK SMILES IDX 8 1 7 2 6 3 5 4 4 5 3 6 2 7 1 8 33 9 34 10 95 11 35 12 94 13
REMARK SMILES IDX 36 14 37 15 38 16 88 17 39 18 93 19 87 20 89 21 40 22 92 23
REMARK SMILES IDX 86 24 85 25 41 27 73 28 53 29 72 30 54 31 57 32 71 33 90 34
REMARK SMILES IDX 55 35 56 36 70 38 91 39 58 40 42 41 43 42 51 43 44 44 50 45
REMARK SMILES IDX 52 46 49 47 45 48 46 49 47 50 48 51 74 52 75 53 83 54 76 55
REMARK SMILES IDX 82 56 84 57 81 58 77 59 78 60 79 61 80 62 59 63 60 64 68 65
REMARK SMILES IDX 61 66 67 67 69 68 66 69 62 70 63 71 64 72 65 73 9 74 10 75
REMARK SMILES IDX 11 76 12 77 13 78 14 79 15 80 16 81 17 82 18 83 19 84 32 85
REMARK SMILES IDX 20 86 31 87 30 88 21 89 22 90 29 91 23 92 28 93 24 94 27 95
REMARK SMILES IDX 25 96 26 97
REMARK H PARENT 89 26 57 37
REMARK Flexibility Score: inf
ROOT
ATOM      1  C   UNL A   1      32.018  30.251  25.845  1.00  0.00     0.188 C 
ENDROOT
BRANCH   1   2
ATOM      2  C   UNL A   1      33.095  29.840  26.852  1.00  0.00     0.188 C 
BRANCH   2   3
ATOM      3  O   UNL A   1      33.618  30.995  27.504  1.00  0.00    -0.376 OA
BRANCH   3   4
ATOM      4  C   UNL A   1      32.750  32.118  27.604  1.00  0.00     0.202 C 
BRANCH   4   5
ATOM      5  C   UNL A   1      33.461  33.472  27.617  1.00  0.00     0.261 C 
BRANCH   5   6
ATOM      6  O   UNL A   1      32.863  34.400  28.534  1.00  0.00    -0.460 OA
BRANCH   6   7
ATOM      7  C   UNL A   1      33.240  34.633  29.817  1.00  0.00     0.338 C 
ATOM      8  O   UNL A   1      32.521  35.343  30.518  1.00  0.00    -0.246 OA
BRANCH   7   9
ATOM      9  C   UNL A   1      34.472  34.057  30.437  1.00  0.00     0.060 A 
ATOM     10  C   UNL A   1      34.489  33.008  31.357  1.00  0.00     0.016 A 
ATOM     11  C   UNL A   1      35.706  34.539  29.971  1.00  0.00     0.016 A 
ATOM     12  C   UNL A   1      35.675  32.484  31.852  1.00  0.00     0.010 A 
ATOM     13  C   UNL A   1      36.908  33.990  30.430  1.00  0.00     0.010 A 
ATOM     14  C   UNL A   1      36.891  32.966  31.384  1.00  0.00    -0.014 A 
BRANCH  14  15
ATOM     15  C   UNL A   1      38.130  32.444  31.990  1.00  0.00     0.031 A 
ATOM     16  C   UNL A   1      38.893  31.405  31.229  1.00  0.00     0.074 A 
ATOM     17  C   UNL A   1      38.588  32.966  33.143  1.00  0.00     0.049 A 
ATOM     18  N   UNL A   1      39.917  30.693  31.602  1.00  0.00    -0.248 NA
ATOM     19  C   UNL A   1      38.440  31.140  29.852  1.00  0.00     0.031 C 
ATOM     20  C   UNL A   1      37.973  34.085  33.865  1.00  0.00     0.029 A 
ATOM     21  N   UNL A   1      39.678  32.640  33.906  1.00  0.00    -0.354 N 
ATOM     22  C   UNL A   1      40.201  29.856  30.528  1.00  0.00     0.074 A 
ATOM     23  C   UNL A   1      39.252  30.162  29.482  1.00  0.00     0.031 C 
ATOM     24  C   UNL A   1      38.694  34.347  34.966  1.00  0.00     0.029 A 
ATOM     25  C   UNL A   1      39.761  33.359  35.078  1.00  0.00     0.049 A 
ATOM     26  H   UNL A   1      40.337  31.959  33.643  1.00  0.00     0.167 HD
ATOM     27  C   UNL A   1      41.160  28.906  30.452  1.00  0.00     0.034 A 
ATOM     28  C   UNL A   1      40.566  33.181  36.145  1.00  0.00     0.034 A 
ATOM     29  C   UNL A   1      42.082  28.647  31.527  1.00  0.00     0.049 A 
ATOM     30  C   UNL A   1      41.553  32.038  36.077  1.00  0.00     0.074 A 
ATOM     31  C   UNL A   1      43.083  27.699  31.600  1.00  0.00     0.029 A 
ATOM     32  N   UNL A   1      42.098  29.345  32.731  1.00  0.00    -0.354 N 
ATOM     33  N   UNL A   1      41.789  31.211  35.081  1.00  0.00    -0.248 NA
ATOM     34  C   UNL A   1      42.361  31.783  37.274  1.00  0.00     0.031 C 
ATOM     35  C   UNL A   1      43.655  27.776  32.874  1.00  0.00     0.029 A 
ATOM     36  C   UNL A   1      43.061  28.819  33.572  1.00  0.00     0.049 A 
ATOM     37  H   UNL A   1      41.510  30.103  32.951  1.00  0.00     0.167 HD
ATOM     38  C   UNL A   1      42.778  30.344  35.530  1.00  0.00     0.074 A 
ATOM     39  C   UNL A   1      43.117  30.770  36.875  1.00  0.00     0.031 C 
ATOM     40  C   UNL A   1      43.352  29.283  34.907  1.00  0.00     0.034 A 
BRANCH  27  41
ATOM     41  C   UNL A   1      41.162  28.022  29.232  1.00  0.00     0.023 A 
ATOM     42  C   UNL A   1      42.120  28.146  28.210  1.00  0.00     0.031 A 
ATOM     43  C   UNL A   1      40.138  27.071  29.066  1.00  0.00     0.131 A 
ATOM     44  C   UNL A   1      41.996  27.374  27.042  1.00  0.00     0.055 A 
ATOM     45  C   UNL A   1      40.062  26.260  27.934  1.00  0.00     0.041 A 
ATOM     46  F   UNL A   1      39.178  26.935  29.994  1.00  0.00    -0.206 F 
ATOM     47  C   UNL A   1      40.988  26.416  26.909  1.00  0.00     0.022 A 
BRANCH  44  48
ATOM     48  S   UNL A   1      43.102  27.721  25.646  1.00  0.00     0.124 S 
ATOM     49  O   UNL A   1      44.048  28.659  26.244  1.00  0.00    -0.237 OA
ATOM     50  O   UNL A   1      43.630  26.400  25.323  1.00  0.00    -0.237 OA
ATOM     51  O   UNL A   1      42.214  28.299  24.639  1.00  0.00    -0.744 OA
ENDBRANCH  44  48
ENDBRANCH  27  41
BRANCH  28  52
ATOM     52  C   UNL A   1      40.400  33.993  37.391  1.00  0.00     0.023 A 
ATOM     53  C   UNL A   1      41.164  35.149  37.622  1.00  0.00     0.031 A 
ATOM     54  C   UNL A   1      39.529  33.574  38.417  1.00  0.00     0.131 A 
ATOM     55  C   UNL A   1      41.084  35.809  38.860  1.00  0.00     0.055 A 
ATOM     56  C   UNL A   1      39.402  34.273  39.619  1.00  0.00     0.041 A 
ATOM     57  F   UNL A   1      38.785  32.467  38.270  1.00  0.00    -0.206 F 
ATOM     58  C   UNL A   1      40.197  35.388  39.854  1.00  0.00     0.022 A 
BRANCH  55  59
ATOM     59  S   UNL A   1      42.260  37.147  39.213  1.00  0.00     0.124 S 
ATOM     60  O   UNL A   1      42.955  37.275  37.937  1.00  0.00    -0.237 OA
ATOM     61  O   UNL A   1      41.369  38.245  39.571  1.00  0.00    -0.237 OA
ATOM     62  O   UNL A   1      43.064  36.614  40.311  1.00  0.00    -0.744 OA
ENDBRANCH  55  59
ENDBRANCH  28  52
BRANCH  40  63
ATOM     63  C   UNL A   1      44.409  28.543  35.679  1.00  0.00     0.023 A 
ATOM     64  C   UNL A   1      44.108  27.365  36.379  1.00  0.00     0.031 A 
ATOM     65  C   UNL A   1      45.735  29.011  35.690  1.00  0.00     0.131 A 
ATOM     66  C   UNL A   1      45.116  26.711  37.101  1.00  0.00     0.055 A 
ATOM     67  C   UNL A   1      46.744  28.324  36.360  1.00  0.00     0.041 A 
ATOM     68  F   UNL A   1      46.068  30.134  35.032  1.00  0.00    -0.206 F 
ATOM     69  C   UNL A   1      46.435  27.172  37.078  1.00  0.00     0.022 A 
BRANCH  66  70
ATOM     70  S   UNL A   1      44.665  25.282  38.119  1.00  0.00     0.124 S 
ATOM     71  O   UNL A   1      45.499  24.229  37.549  1.00  0.00    -0.237 OA
ATOM     72  O   UNL A   1      45.028  25.725  39.461  1.00  0.00    -0.237 OA
ATOM     73  O   UNL A   1      43.230  25.133  37.884  1.00  0.00    -0.744 OA
ENDBRANCH  66  70
ENDBRANCH  40  63
ENDBRANCH  14  15
ENDBRANCH   7   9
ENDBRANCH   6   7
ENDBRANCH   5   6
ENDBRANCH   4   5
ENDBRANCH   3   4
ENDBRANCH   2   3
ENDBRANCH   1   2
BRANCH   1  74
ATOM     74  O   UNL A   1      31.386  29.168  25.159  1.00  0.00    -0.377 OA
BRANCH  74  75
ATOM     75  C   UNL A   1      31.431  29.210  23.734  1.00  0.00     0.188 C 
BRANCH  75  76
ATOM     76  C   UNL A   1      30.105  29.269  22.940  1.00  0.00     0.188 C 
BRANCH  76  77
ATOM     77  O   UNL A   1      29.632  28.007  22.485  1.00  0.00    -0.376 OA
BRANCH  77  78
ATOM     78  C   UNL A   1      29.104  27.157  23.501  1.00  0.00     0.202 C 
BRANCH  78  79
ATOM     79  C   UNL A   1      29.875  25.842  23.689  1.00  0.00     0.261 C 
BRANCH  79  80
ATOM     80  O   UNL A   1      29.839  25.314  25.027  1.00  0.00    -0.459 OA
BRANCH  80  81
ATOM     81  C   UNL A   1      30.750  25.789  25.911  1.00  0.00     0.357 C 
ATOM     82  O   UNL A   1      30.532  26.507  26.870  1.00  0.00    -0.244 OA
BRANCH  81  83
ATOM     83  C   UNL A   1      32.051  25.146  25.573  1.00  0.00     0.148 A 
ATOM     84  C   UNL A   1      32.122  23.769  25.473  1.00  0.00     0.045 A 
ATOM     85  N   UNL A   1      33.137  25.961  25.478  1.00  0.00    -0.249 NA
ATOM     86  C   UNL A   1      33.364  23.183  25.206  1.00  0.00    -0.004 A 
ATOM     87  C   UNL A   1      34.335  25.361  25.313  1.00  0.00     0.112 A 
ATOM     88  C   UNL A   1      34.501  23.991  25.179  1.00  0.00     0.030 A 
BRANCH  86  89
ATOM     89  C   UNL A   1      33.427  21.768  24.834  1.00  0.00     0.036 A 
ATOM     90  C   UNL A   1      32.528  20.944  24.190  1.00  0.00     0.029 A 
ATOM     91  S   UNL A   1      34.823  20.901  25.320  1.00  0.00    -0.135 S 
ATOM     92  C   UNL A   1      33.016  19.594  24.034  1.00  0.00    -0.007 A 
ATOM     93  C   UNL A   1      34.283  19.450  24.601  1.00  0.00     0.035 A 
ATOM     94  C   UNL A   1      32.440  18.455  23.420  1.00  0.00     0.009 A 
ATOM     95  C   UNL A   1      34.990  18.235  24.566  1.00  0.00     0.019 A 
ATOM     96  C   UNL A   1      33.140  17.242  23.381  1.00  0.00     0.001 A 
ATOM     97  C   UNL A   1      34.404  17.136  23.946  1.00  0.00     0.001 A 
ENDBRANCH  86  89
ENDBRANCH  81  83
ENDBRANCH  80  81
ENDBRANCH  79  80
ENDBRANCH  78  79
ENDBRANCH  77  78
ENDBRANCH  76  77
ENDBRANCH  75  76
ENDBRANCH  74  75
ENDBRANCH   1  74
TORSDOF 24
ENDMDL
MODEL 3
REMARK VINA RESULT:     -10.1      1.801      7.658
REMARK SMILES O=C(OCCOCCOCCOCCOC(=O)c1cc(-c2cc3ccccc3s2)ccn1)c1ccc(-c2c3nc(c(-c4cc(S(=O)(=O)[O-])ccc4F)c4ccc([nH]4)c(-c4cc(S(=O)(=O)[O-])ccc4F)c4nc(c(-c5cc(S(=O)(=O)[O-])ccc5F)c5ccc2[nH]5)C=C4)C=C3)cc1
REMARK SMILES IDX 8 1 7 2 6 3 5 4 4 5 3 6 2 7 1 8 33 9 34 10 95 11 35 12 94 13
REMARK SMILES IDX 36 14 37 15 38 16 88 17 39 18 93 19 87 20 89 21 40 22 92 23
REMARK SMILES IDX 86 24 85 25 41 27 73 28 53 29 72 30 54 31 57 32 71 33 90 34
REMARK SMILES IDX 55 35 56 36 70 38 91 39 58 40 42 41 43 42 51 43 44 44 50 45
REMARK SMILES IDX 52 46 49 47 45 48 46 49 47 50 48 51 74 52 75 53 83 54 76 55
REMARK SMILES IDX 82 56 84 57 81 58 77 59 78 60 79 61 80 62 59 63 60 64 68 65
REMARK SMILES IDX 61 66 67 67 69 68 66 69 62 70 63 71 64 72 65 73 9 74 10 75
REMARK SMILES IDX 11 76 12 77 13 78 14 79 15 80 16 81 17 82 18 83 19 84 32 85
REMARK SMILES IDX 20 86 31 87 30 88 21 89 22 90 29 91 23 92 28 93 24 94 27 95
REMARK SMILES IDX 25 96 26 97
REMARK H PARENT 89 26 57 37
REMARK Flexibility Score: inf
ROOT
ATOM      1  C   UNL A   1      32.064  30.302  25.778  1.00  0.00     0.188 C 
ENDROOT
BRANCH   1   2
ATOM      2  C   UNL A   1      32.786  30.045  27.103  1.00  0.00     0.188 C 
BRANCH   2   3
ATOM      3  O   UNL A   1      33.278  31.273  27.635  1.00  0.00    -0.376 OA
BRANCH   3   4
ATOM      4  C   UNL A   1      32.383  32.379  27.617  1.00  0.00     0.202 C 
BRANCH   4   5
ATOM      5  C   UNL A   1      33.042  33.726  27.320  1.00  0.00     0.261 C 
BRANCH   5   6
ATOM      6  O   UNL A   1      32.708  34.731  28.289  1.00  0.00    -0.460 OA
BRANCH   6   7
ATOM      7  C   UNL A   1      33.310  34.937  29.488  1.00  0.00     0.338 C 
ATOM      8  O   UNL A   1      32.925  35.877  30.183  1.00  0.00    -0.246 OA
BRANCH   7   9
ATOM      9  C   UNL A   1      34.405  34.072  30.026  1.00  0.00     0.060 A 
ATOM     10  C   UNL A   1      34.238  33.078  30.990  1.00  0.00     0.016 A 
ATOM     11  C   UNL A   1      35.670  34.203  29.433  1.00  0.00     0.016 A 
ATOM     12  C   UNL A   1      35.290  32.273  31.405  1.00  0.00     0.010 A 
ATOM     13  C   UNL A   1      36.728  33.369  29.811  1.00  0.00     0.010 A 
ATOM     14  C   UNL A   1      36.538  32.407  30.811  1.00  0.00    -0.014 A 
BRANCH  14  15
ATOM     15  C   UNL A   1      37.651  31.593  31.331  1.00  0.00     0.031 A 
ATOM     16  C   UNL A   1      38.110  31.853  32.732  1.00  0.00     0.074 A 
ATOM     17  C   UNL A   1      38.160  30.594  30.587  1.00  0.00     0.049 A 
ATOM     18  N   UNL A   1      39.146  31.382  33.365  1.00  0.00    -0.248 NA
ATOM     19  C   UNL A   1      37.275  32.767  33.533  1.00  0.00     0.031 C 
ATOM     20  C   UNL A   1      37.663  30.187  29.268  1.00  0.00     0.029 A 
ATOM     21  N   UNL A   1      39.195  29.730  30.830  1.00  0.00    -0.354 N 
ATOM     22  C   UNL A   1      39.121  31.981  34.620  1.00  0.00     0.074 A 
ATOM     23  C   UNL A   1      37.957  32.836  34.666  1.00  0.00     0.031 C 
ATOM     24  C   UNL A   1      38.397  29.156  28.821  1.00  0.00     0.029 A 
ATOM     25  C   UNL A   1      39.470  28.893  29.771  1.00  0.00     0.049 A 
ATOM     26  H   UNL A   1      39.693  29.709  31.678  1.00  0.00     0.167 HD
ATOM     27  C   UNL A   1      40.016  31.834  35.623  1.00  0.00     0.034 A 
ATOM     28  C   UNL A   1      40.516  28.065  29.574  1.00  0.00     0.034 A 
ATOM     29  C   UNL A   1      41.157  30.963  35.522  1.00  0.00     0.049 A 
ATOM     30  C   UNL A   1      41.561  28.007  30.666  1.00  0.00     0.074 A 
ATOM     31  C   UNL A   1      42.159  30.737  36.445  1.00  0.00     0.029 A 
ATOM     32  N   UNL A   1      41.449  30.179  34.410  1.00  0.00    -0.354 N 
ATOM     33  N   UNL A   1      41.566  28.613  31.834  1.00  0.00    -0.248 NA
ATOM     34  C   UNL A   1      42.747  27.182  30.411  1.00  0.00     0.031 C 
ATOM     35  C   UNL A   1      43.093  29.874  35.863  1.00  0.00     0.029 A 
ATOM     36  C   UNL A   1      42.640  29.504  34.604  1.00  0.00     0.049 A 
ATOM     37  H   UNL A   1      40.889  30.114  33.603  1.00  0.00     0.167 HD
ATOM     38  C   UNL A   1      42.751  28.235  32.455  1.00  0.00     0.074 A 
ATOM     39  C   UNL A   1      43.418  27.323  31.544  1.00  0.00     0.031 C 
ATOM     40  C   UNL A   1      43.260  28.609  33.657  1.00  0.00     0.034 A 
BRANCH  27  41
ATOM     41  C   UNL A   1      39.850  32.717  36.832  1.00  0.00     0.023 A 
ATOM     42  C   UNL A   1      39.102  32.326  37.956  1.00  0.00     0.031 A 
ATOM     43  C   UNL A   1      40.409  34.008  36.826  1.00  0.00     0.131 A 
ATOM     44  C   UNL A   1      38.884  33.242  39.001  1.00  0.00     0.055 A 
ATOM     45  C   UNL A   1      40.246  34.887  37.897  1.00  0.00     0.041 A 
ATOM     46  F   UNL A   1      41.102  34.446  35.764  1.00  0.00    -0.206 F 
ATOM     47  C   UNL A   1      39.471  34.510  38.988  1.00  0.00     0.022 A 
BRANCH  44  48
ATOM     48  S   UNL A   1      37.724  32.798  40.323  1.00  0.00     0.124 S 
ATOM     49  O   UNL A   1      37.954  33.870  41.290  1.00  0.00    -0.237 OA
ATOM     50  O   UNL A   1      36.436  32.822  39.639  1.00  0.00    -0.237 OA
ATOM     51  O   UNL A   1      38.177  31.476  40.750  1.00  0.00    -0.744 OA
ENDBRANCH  44  48
ENDBRANCH  27  41
BRANCH  28  52
ATOM     52  C   UNL A   1      40.703  27.340  28.279  1.00  0.00     0.023 A 
ATOM     53  C   UNL A   1      40.483  25.956  28.173  1.00  0.00     0.031 A 
ATOM     54  C   UNL A   1      41.193  28.008  27.139  1.00  0.00     0.131 A 
ATOM     55  C   UNL A   1      40.801  25.282  26.981  1.00  0.00     0.055 A 
ATOM     56  C   UNL A   1      41.441  27.346  25.935  1.00  0.00     0.041 A 
ATOM     57  F   UNL A   1      41.444  29.326  27.177  1.00  0.00    -0.206 F 
ATOM     58  C   UNL A   1      41.263  25.970  25.857  1.00  0.00     0.022 A 
BRANCH  55  59
ATOM     59  S   UNL A   1      40.736  23.468  26.961  1.00  0.00     0.124 S 
ATOM     60  O   UNL A   1      41.752  23.145  25.965  1.00  0.00    -0.237 OA
ATOM     61  O   UNL A   1      41.066  23.140  28.344  1.00  0.00    -0.237 OA
ATOM     62  O   UNL A   1      39.360  23.180  26.564  1.00  0.00    -0.744 OA
ENDBRANCH  55  59
ENDBRANCH  28  52
BRANCH  40  63
ATOM     63  C   UNL A   1      44.584  28.007  34.041  1.00  0.00     0.023 A 
ATOM     64  C   UNL A   1      44.658  26.750  34.661  1.00  0.00     0.031 A 
ATOM     65  C   UNL A   1      45.780  28.690  33.760  1.00  0.00     0.131 A 
ATOM     66  C   UNL A   1      45.907  26.228  35.020  1.00  0.00     0.055 A 
ATOM     67  C   UNL A   1      47.022  28.138  34.066  1.00  0.00     0.041 A 
ATOM     68  F   UNL A   1      45.756  29.894  33.167  1.00  0.00    -0.206 F 
ATOM     69  C   UNL A   1      47.090  26.905  34.708  1.00  0.00     0.022 A 
BRANCH  66  70
ATOM     70  S   UNL A   1      45.963  24.677  35.957  1.00  0.00     0.124 S 
ATOM     71  O   UNL A   1      45.922  23.680  34.893  1.00  0.00    -0.237 OA
ATOM     72  O   UNL A   1      47.227  24.790  36.677  1.00  0.00    -0.237 OA
ATOM     73  O   UNL A   1      44.767  24.741  36.794  1.00  0.00    -0.744 OA
ENDBRANCH  66  70
ENDBRANCH  40  63
ENDBRANCH  14  15
ENDBRANCH   7   9
ENDBRANCH   6   7
ENDBRANCH   5   6
ENDBRANCH   4   5
ENDBRANCH   3   4
ENDBRANCH   2   3
ENDBRANCH   1   2
BRANCH   1  74
ATOM     74  O   UNL A   1      31.533  29.137  25.143  1.00  0.00    -0.377 OA
BRANCH  74  75
ATOM     75  C   UNL A   1      31.861  28.964  23.765  1.00  0.00     0.188 C 
BRANCH  75  76
ATOM     76  C   UNL A   1      30.734  29.030  22.709  1.00  0.00     0.188 C 
BRANCH  76  77
ATOM     77  O   UNL A   1      30.122  27.780  22.417  1.00  0.00    -0.376 OA
BRANCH  77  78
ATOM     78  C   UNL A   1      29.517  27.128  23.531  1.00  0.00     0.202 C 
BRANCH  78  79
ATOM     79  C   UNL A   1      29.975  25.678  23.743  1.00  0.00     0.261 C 
BRANCH  79  80
ATOM     80  O   UNL A   1      29.937  25.232  25.110  1.00  0.00    -0.459 OA
BRANCH  80  81
ATOM     81  C   UNL A   1      30.865  25.738  25.959  1.00  0.00     0.357 C 
ATOM     82  O   UNL A   1      30.671  26.520  26.873  1.00  0.00    -0.244 OA
BRANCH  81  83
ATOM     83  C   UNL A   1      32.147  25.043  25.655  1.00  0.00     0.148 A 
ATOM     84  C   UNL A   1      32.181  23.661  25.631  1.00  0.00     0.045 A 
ATOM     85  N   UNL A   1      33.254  25.822  25.514  1.00  0.00    -0.249 NA
ATOM     86  C   UNL A   1      33.406  23.028  25.396  1.00  0.00    -0.004 A 
ATOM     87  C   UNL A   1      34.436  25.182  25.382  1.00  0.00     0.112 A 
ATOM     88  C   UNL A   1      34.565  23.803  25.323  1.00  0.00     0.030 A 
BRANCH  86  89
ATOM     89  C   UNL A   1      33.431  21.594  25.102  1.00  0.00     0.036 A 
ATOM     90  C   UNL A   1      32.420  20.671  24.929  1.00  0.00     0.029 A 
ATOM     91  S   UNL A   1      34.971  20.848  25.011  1.00  0.00    -0.135 S 
ATOM     92  C   UNL A   1      32.915  19.343  24.653  1.00  0.00    -0.007 A 
ATOM     93  C   UNL A   1      34.309  19.316  24.653  1.00  0.00     0.035 A 
ATOM     94  C   UNL A   1      32.236  18.128  24.390  1.00  0.00     0.009 A 
ATOM     95  C   UNL A   1      35.041  18.144  24.390  1.00  0.00     0.019 A 
ATOM     96  C   UNL A   1      32.959  16.957  24.126  1.00  0.00     0.001 A 
ATOM     97  C   UNL A   1      34.347  16.968  24.123  1.00  0.00     0.001 A 
ENDBRANCH  86  89
ENDBRANCH  81  83
ENDBRANCH  80  81
ENDBRANCH  79  80
ENDBRANCH  78  79
ENDBRANCH  77  78
ENDBRANCH  76  77
ENDBRANCH  75  76
ENDBRANCH  74  75
ENDBRANCH   1  74
TORSDOF 24
ENDMDL
