MODEL 1
REMARK VINA RESULT:     -11.2      0.000      0.000
REMARK SMILES Cc1ccc(C)c(-c2cc(C(=O)OCCOCCOCCOCCOC(=O)c3ccc(-c4c5nc(c(-c6cc(S(=O)(=O)[O-])ccc6F)c6ccc([nH]6)c(-c6cc(S(=O)(=O)[O-])ccc6F)c6nc(c(-c7cc(S(=O)(=O)[O-])ccc7F)c7ccc4[nH]7)C=C6)C=C5)cc3)c3cc(C)ccc3n2)c1
REMARK SMILES IDX 20 1 19 2 18 3 17 4 16 5 15 6 14 7 13 8 11 9 12 10 10 11
REMARK SMILES IDX 8 12 9 13 98 14 97 15 91 16 96 17 92 18 95 19 93 20 94 21
REMARK SMILES IDX 7 22 1 23 2 24 3 25 99 26 4 27 5 28 6 29 21 30 22 31 23 32
REMARK SMILES IDX 24 33 25 34 26 35 27 36 28 37 29 38 90 39 30 40 89 41 31 42
REMARK SMILES IDX 32 43 33 44 83 45 34 46 88 47 82 48 84 49 35 50 87 51 81 52
REMARK SMILES IDX 80 53 36 55 68 56 48 57 67 58 49 59 52 60 66 61 85 62 50 63
REMARK SMILES IDX 51 64 65 66 86 67 53 68 37 69 38 70 46 71 39 72 45 73 47 74
REMARK SMILES IDX 44 75 40 76 41 77 42 78 43 79 69 80 70 81 78 82 71 83 77 84
REMARK SMILES IDX 79 85 76 86 72 87 73 88 74 89 75 90 54 91 55 92 63 93 56 94
REMARK SMILES IDX 62 95 64 96 61 97 57 98 58 99 59 100 60 101
REMARK H PARENT 84 54 52 65
REMARK Flexibility Score: inf
ROOT
ATOM      1  C   UNL A   1      33.362  35.228  29.726  1.00  0.00     0.188 C 
ENDROOT
BRANCH   1   2
ATOM      2  O   UNL A   1      32.754  34.591  28.614  1.00  0.00    -0.377 OA
BRANCH   2   3
ATOM      3  C   UNL A   1      33.532  33.540  28.023  1.00  0.00     0.188 C 
BRANCH   3   4
ATOM      4  C   UNL A   1      35.068  33.695  28.008  1.00  0.00     0.188 C 
BRANCH   4   5
ATOM      5  O   UNL A   1      35.665  32.416  28.170  1.00  0.00    -0.376 OA
BRANCH   5   6
ATOM      6  C   UNL A   1      34.746  31.336  28.291  1.00  0.00     0.202 C 
BRANCH   6   7
ATOM      7  C   UNL A   1      34.824  30.245  27.213  1.00  0.00     0.261 C 
BRANCH   7   8
ATOM      8  O   UNL A   1      34.005  29.092  27.474  1.00  0.00    -0.460 OA
BRANCH   8   9
ATOM      9  C   UNL A   1      32.776  29.004  26.925  1.00  0.00     0.338 C 
ATOM     10  O   UNL A   1      31.822  29.759  27.116  1.00  0.00    -0.246 OA
BRANCH   9  11
ATOM     11  C   UNL A   1      32.575  27.900  25.993  1.00  0.00     0.071 A 
ATOM     12  C   UNL A   1      33.161  25.640  25.493  1.00  0.00     0.072 A 
ATOM     13  C   UNL A   1      33.257  26.731  26.318  1.00  0.00     0.045 A 
ATOM     14  N   UNL A   1      32.357  25.668  24.393  1.00  0.00    -0.248 NA
ATOM     15  C   UNL A   1      31.674  26.817  24.086  1.00  0.00     0.072 A 
ATOM     16  C   UNL A   1      31.710  27.952  24.905  1.00  0.00     0.015 A 
ATOM     17  C   UNL A   1      30.888  26.930  22.935  1.00  0.00     0.029 A 
ATOM     18  C   UNL A   1      30.886  29.069  24.635  1.00  0.00     0.014 A 
ATOM     19  C   UNL A   1      30.139  28.089  22.618  1.00  0.00     0.005 A 
ATOM     20  C   UNL A   1      30.113  29.163  23.492  1.00  0.00    -0.050 A 
ATOM     21  C   UNL A   1      29.389  30.454  23.262  1.00  0.00     0.044 C 
BRANCH  12  22
ATOM     22  C   UNL A   1      34.011  24.455  25.779  1.00  0.00     0.003 A 
ATOM     23  C   UNL A   1      37.144  22.808  24.250  1.00  0.00     0.044 C 
ATOM     24  C   UNL A   1      36.008  23.099  25.187  1.00  0.00    -0.050 A 
ATOM     25  C   UNL A   1      35.612  22.131  26.106  1.00  0.00     0.004 A 
ATOM     26  C   UNL A   1      35.232  24.266  25.068  1.00  0.00     0.014 A 
ATOM     27  C   UNL A   1      34.405  22.267  26.788  1.00  0.00     0.004 A 
ATOM     28  C   UNL A   1      33.575  23.389  26.592  1.00  0.00    -0.042 A 
ATOM     29  C   UNL A   1      32.154  23.271  27.085  1.00  0.00     0.045 C 
ENDBRANCH  12  22
ENDBRANCH   9  11
ENDBRANCH   8   9
ENDBRANCH   7   8
ENDBRANCH   6   7
ENDBRANCH   5   6
ENDBRANCH   4   5
ENDBRANCH   3   4
ENDBRANCH   2   3
ENDBRANCH   1   2
BRANCH   1  30
ATOM     30  C   UNL A   1      32.836  36.646  29.946  1.00  0.00     0.188 C 
BRANCH  30  31
ATOM     31  O   UNL A   1      32.613  36.894  31.329  1.00  0.00    -0.376 OA
BRANCH  31  32
ATOM     32  C   UNL A   1      33.695  37.476  32.035  1.00  0.00     0.202 C 
BRANCH  32  33
ATOM     33  C   UNL A   1      34.031  36.585  33.227  1.00  0.00     0.261 C 
BRANCH  33  34
ATOM     34  O   UNL A   1      35.004  35.545  32.945  1.00  0.00    -0.460 OA
BRANCH  34  35
ATOM     35  C   UNL A   1      34.551  34.260  32.868  1.00  0.00     0.338 C 
ATOM     36  O   UNL A   1      33.375  33.942  32.946  1.00  0.00    -0.246 OA
BRANCH  35  37
ATOM     37  C   UNL A   1      35.699  33.320  32.653  1.00  0.00     0.060 A 
ATOM     38  C   UNL A   1      37.019  33.770  32.710  1.00  0.00     0.016 A 
ATOM     39  C   UNL A   1      35.453  31.997  32.263  1.00  0.00     0.016 A 
ATOM     40  C   UNL A   1      38.061  32.914  32.294  1.00  0.00     0.010 A 
ATOM     41  C   UNL A   1      36.476  31.182  31.781  1.00  0.00     0.010 A 
ATOM     42  C   UNL A   1      37.801  31.620  31.771  1.00  0.00    -0.014 A 
BRANCH  42  43
ATOM     43  C   UNL A   1      38.792  30.490  31.692  1.00  0.00     0.031 A 
ATOM     44  C   UNL A   1      39.416  30.509  33.023  1.00  0.00     0.074 A 
ATOM     45  C   UNL A   1      39.681  30.003  30.775  1.00  0.00     0.049 A 
ATOM     46  N   UNL A   1      40.475  31.189  33.324  1.00  0.00    -0.248 NA
ATOM     47  C   UNL A   1      38.655  30.028  34.183  1.00  0.00     0.031 C 
ATOM     48  C   UNL A   1      40.480  30.737  29.822  1.00  0.00     0.029 A 
ATOM     49  N   UNL A   1      39.839  28.667  30.326  1.00  0.00    -0.354 N 
ATOM     50  C   UNL A   1      40.775  30.736  34.583  1.00  0.00     0.074 A 
ATOM     51  C   UNL A   1      39.526  30.294  35.162  1.00  0.00     0.031 C 
ATOM     52  C   UNL A   1      40.850  29.951  28.803  1.00  0.00     0.029 A 
ATOM     53  C   UNL A   1      40.494  28.568  29.076  1.00  0.00     0.049 A 
ATOM     54  H   UNL A   1      39.523  27.886  30.834  1.00  0.00     0.167 HD
ATOM     55  C   UNL A   1      42.017  30.204  34.710  1.00  0.00     0.034 A 
ATOM     56  C   UNL A   1      41.247  27.586  28.488  1.00  0.00     0.034 A 
ATOM     57  C   UNL A   1      42.982  30.800  33.810  1.00  0.00     0.049 A 
ATOM     58  C   UNL A   1      42.635  27.800  29.039  1.00  0.00     0.074 A 
ATOM     59  C   UNL A   1      43.574  32.040  33.682  1.00  0.00     0.029 A 
ATOM     60  N   UNL A   1      43.178  30.150  32.613  1.00  0.00    -0.354 N 
ATOM     61  N   UNL A   1      43.432  28.801  28.770  1.00  0.00    -0.248 NA
ATOM     62  C   UNL A   1      42.953  27.083  30.280  1.00  0.00     0.031 C 
ATOM     63  C   UNL A   1      44.158  32.100  32.384  1.00  0.00     0.029 A 
ATOM     64  C   UNL A   1      43.949  30.886  31.739  1.00  0.00     0.049 A 
ATOM     65  H   UNL A   1      42.808  29.263  32.404  1.00  0.00     0.167 HD
ATOM     66  C   UNL A   1      43.969  29.131  30.006  1.00  0.00     0.074 A 
ATOM     67  C   UNL A   1      43.774  27.964  30.850  1.00  0.00     0.031 C 
ATOM     68  C   UNL A   1      44.190  30.425  30.379  1.00  0.00     0.034 A 
BRANCH  55  69
ATOM     69  C   UNL A   1      42.168  28.813  35.248  1.00  0.00     0.023 A 
ATOM     70  C   UNL A   1      43.034  28.614  36.320  1.00  0.00     0.031 A 
ATOM     71  C   UNL A   1      41.682  27.646  34.600  1.00  0.00     0.131 A 
ATOM     72  C   UNL A   1      43.354  27.308  36.723  1.00  0.00     0.055 A 
ATOM     73  C   UNL A   1      41.916  26.359  35.070  1.00  0.00     0.041 A 
ATOM     74  F   UNL A   1      41.060  27.688  33.416  1.00  0.00    -0.206 F 
ATOM     75  C   UNL A   1      42.770  26.183  36.138  1.00  0.00     0.022 A 
BRANCH  72  76
ATOM     76  S   UNL A   1      44.666  27.099  37.943  1.00  0.00     0.124 S 
ATOM     77  O   UNL A   1      45.556  26.170  37.258  1.00  0.00    -0.237 OA
ATOM     78  O   UNL A   1      45.153  28.466  38.100  1.00  0.00    -0.237 OA
ATOM     79  O   UNL A   1      43.961  26.555  39.101  1.00  0.00    -0.744 OA
ENDBRANCH  72  76
ENDBRANCH  55  69
BRANCH  56  80
ATOM     80  C   UNL A   1      40.811  26.236  28.028  1.00  0.00     0.023 A 
ATOM     81  C   UNL A   1      41.762  25.221  27.727  1.00  0.00     0.031 A 
ATOM     82  C   UNL A   1      39.469  25.942  27.753  1.00  0.00     0.131 A 
ATOM     83  C   UNL A   1      41.346  23.978  27.191  1.00  0.00     0.055 A 
ATOM     84  C   UNL A   1      39.063  24.712  27.224  1.00  0.00     0.041 A 
ATOM     85  F   UNL A   1      38.504  26.844  27.985  1.00  0.00    -0.206 F 
ATOM     86  C   UNL A   1      39.998  23.727  26.938  1.00  0.00     0.022 A 
BRANCH  83  87
ATOM     87  S   UNL A   1      42.550  22.668  26.772  1.00  0.00     0.124 S 
ATOM     88  O   UNL A   1      43.805  23.402  26.665  1.00  0.00    -0.237 OA
ATOM     89  O   UNL A   1      42.420  21.760  27.905  1.00  0.00    -0.237 OA
ATOM     90  O   UNL A   1      42.048  22.138  25.502  1.00  0.00    -0.744 OA
ENDBRANCH  83  87
ENDBRANCH  56  80
BRANCH  68  91
ATOM     91  C   UNL A   1      44.696  31.393  29.344  1.00  0.00     0.023 A 
ATOM     92  C   UNL A   1      43.996  32.496  28.828  1.00  0.00     0.031 A 
ATOM     93  C   UNL A   1      46.007  31.188  28.877  1.00  0.00     0.131 A 
ATOM     94  C   UNL A   1      44.607  33.351  27.891  1.00  0.00     0.055 A 
ATOM     95  C   UNL A   1      46.615  32.037  27.951  1.00  0.00     0.041 A 
ATOM     96  F   UNL A   1      46.737  30.159  29.338  1.00  0.00    -0.206 F 
ATOM     97  C   UNL A   1      45.912  33.122  27.448  1.00  0.00     0.022 A 
BRANCH  94  98
ATOM     98  S   UNL A   1      43.714  34.782  27.215  1.00  0.00     0.124 S 
ATOM     99  O   UNL A   1      43.408  34.376  25.849  1.00  0.00    -0.237 OA
ATOM    100  O   UNL A   1      42.579  34.871  28.129  1.00  0.00    -0.237 OA
ATOM    101  O   UNL A   1      44.688  35.867  27.339  1.00  0.00    -0.744 OA
ENDBRANCH  94  98
ENDBRANCH  68  91
ENDBRANCH  42  43
ENDBRANCH  35  37
ENDBRANCH  34  35
ENDBRANCH  33  34
ENDBRANCH  32  33
ENDBRANCH  31  32
ENDBRANCH  30  31
ENDBRANCH   1  30
TORSDOF 24
ENDMDL
MODEL 2
REMARK VINA RESULT:     -10.4      2.711      5.759
REMARK SMILES Cc1ccc(C)c(-c2cc(C(=O)OCCOCCOCCOCCOC(=O)c3ccc(-c4c5nc(c(-c6cc(S(=O)(=O)[O-])ccc6F)c6ccc([nH]6)c(-c6cc(S(=O)(=O)[O-])ccc6F)c6nc(c(-c7cc(S(=O)(=O)[O-])ccc7F)c7ccc4[nH]7)C=C6)C=C5)cc3)c3cc(C)ccc3n2)c1
REMARK SMILES IDX 20 1 19 2 18 3 17 4 16 5 15 6 14 7 13 8 11 9 12 10 10 11
REMARK SMILES IDX 8 12 9 13 98 14 97 15 91 16 96 17 92 18 95 19 93 20 94 21
REMARK SMILES IDX 7 22 1 23 2 24 3 25 99 26 4 27 5 28 6 29 21 30 22 31 23 32
REMARK SMILES IDX 24 33 25 34 26 35 27 36 28 37 29 38 90 39 30 40 89 41 31 42
REMARK SMILES IDX 32 43 33 44 83 45 34 46 88 47 82 48 84 49 35 50 87 51 81 52
REMARK SMILES IDX 80 53 36 55 68 56 48 57 67 58 49 59 52 60 66 61 85 62 50 63
REMARK SMILES IDX 51 64 65 66 86 67 53 68 37 69 38 70 46 71 39 72 45 73 47 74
REMARK SMILES IDX 44 75 40 76 41 77 42 78 43 79 69 80 70 81 78 82 71 83 77 84
REMARK SMILES IDX 79 85 76 86 72 87 73 88 74 89 75 90 54 91 55 92 63 93 56 94
REMARK SMILES IDX 62 95 64 96 61 97 57 98 58 99 59 100 60 101
REMARK H PARENT 84 54 52 65
REMARK Flexibility Score: inf
ROOT
ATOM      1  C   UNL A   1      33.297  35.362  29.709  1.00  0.00     0.188 C 
ENDROOT
BRANCH   1   2
ATOM      2  O   UNL A   1      32.645  34.826  28.570  1.00  0.00    -0.377 OA
BRANCH   2   3
ATOM      3  C   UNL A   1      33.254  33.645  28.028  1.00  0.00     0.188 C 
BRANCH   3   4
ATOM      4  C   UNL A   1      34.782  33.481  28.183  1.00  0.00     0.188 C 
BRANCH   4   5
ATOM      5  O   UNL A   1      35.177  32.245  27.604  1.00  0.00    -0.376 OA
BRANCH   5   6
ATOM      6  C   UNL A   1      34.389  31.124  27.987  1.00  0.00     0.202 C 
BRANCH   6   7
ATOM      7  C   UNL A   1      33.909  30.203  26.855  1.00  0.00     0.261 C 
BRANCH   7   8
ATOM      8  O   UNL A   1      33.896  28.806  27.192  1.00  0.00    -0.460 OA
BRANCH   8   9
ATOM      9  C   UNL A   1      32.747  28.105  27.104  1.00  0.00     0.338 C 
ATOM     10  O   UNL A   1      31.988  27.808  28.026  1.00  0.00    -0.246 OA
BRANCH   9  11
ATOM     11  C   UNL A   1      32.367  27.675  25.762  1.00  0.00     0.071 A 
ATOM     12  C   UNL A   1      30.899  28.089  23.925  1.00  0.00     0.072 A 
ATOM     13  C   UNL A   1      31.353  28.425  25.174  1.00  0.00     0.045 A 
ATOM     14  N   UNL A   1      31.473  27.067  23.229  1.00  0.00    -0.248 NA
ATOM     15  C   UNL A   1      32.483  26.341  23.807  1.00  0.00     0.072 A 
ATOM     16  C   UNL A   1      33.007  26.655  25.066  1.00  0.00     0.015 A 
ATOM     17  C   UNL A   1      33.064  25.239  23.171  1.00  0.00     0.029 A 
ATOM     18  C   UNL A   1      34.139  25.976  25.572  1.00  0.00     0.014 A 
ATOM     19  C   UNL A   1      34.136  24.500  23.725  1.00  0.00     0.005 A 
ATOM     20  C   UNL A   1      34.702  24.889  24.929  1.00  0.00    -0.050 A 
ATOM     21  C   UNL A   1      35.815  24.179  25.635  1.00  0.00     0.044 C 
BRANCH  12  22
ATOM     22  C   UNL A   1      29.720  28.809  23.379  1.00  0.00     0.003 A 
ATOM     23  C   UNL A   1      28.720  32.475  22.724  1.00  0.00     0.044 C 
ATOM     24  C   UNL A   1      28.679  30.974  22.742  1.00  0.00    -0.050 A 
ATOM     25  C   UNL A   1      27.471  30.319  22.521  1.00  0.00     0.004 A 
ATOM     26  C   UNL A   1      29.797  30.208  23.122  1.00  0.00     0.014 A 
ATOM     27  C   UNL A   1      27.353  28.959  22.801  1.00  0.00     0.004 A 
ATOM     28  C   UNL A   1      28.447  28.211  23.280  1.00  0.00    -0.042 A 
ATOM     29  C   UNL A   1      28.131  26.866  23.886  1.00  0.00     0.045 C 
ENDBRANCH  12  22
ENDBRANCH   9  11
ENDBRANCH   8   9
ENDBRANCH   7   8
ENDBRANCH   6   7
ENDBRANCH   5   6
ENDBRANCH   4   5
ENDBRANCH   3   4
ENDBRANCH   2   3
ENDBRANCH   1   2
BRANCH   1  30
ATOM     30  C   UNL A   1      33.165  36.883  29.795  1.00  0.00     0.188 C 
BRANCH  30  31
ATOM     31  O   UNL A   1      32.896  37.293  31.130  1.00  0.00    -0.376 OA
BRANCH  31  32
ATOM     32  C   UNL A   1      34.018  37.373  31.991  1.00  0.00     0.202 C 
BRANCH  32  33
ATOM     33  C   UNL A   1      33.612  36.854  33.366  1.00  0.00     0.261 C 
BRANCH  33  34
ATOM     34  O   UNL A   1      34.477  35.816  33.898  1.00  0.00    -0.460 OA
BRANCH  34  35
ATOM     35  C   UNL A   1      34.402  34.579  33.328  1.00  0.00     0.338 C 
ATOM     36  O   UNL A   1      33.379  34.096  32.869  1.00  0.00    -0.246 OA
BRANCH  35  37
ATOM     37  C   UNL A   1      35.752  33.927  33.332  1.00  0.00     0.060 A 
ATOM     38  C   UNL A   1      36.376  33.552  32.142  1.00  0.00     0.016 A 
ATOM     39  C   UNL A   1      36.349  33.569  34.548  1.00  0.00     0.016 A 
ATOM     40  C   UNL A   1      37.538  32.753  32.189  1.00  0.00     0.010 A 
ATOM     41  C   UNL A   1      37.452  32.717  34.590  1.00  0.00     0.010 A 
ATOM     42  C   UNL A   1      38.066  32.277  33.418  1.00  0.00    -0.014 A 
BRANCH  42  43
ATOM     43  C   UNL A   1      39.475  31.795  33.639  1.00  0.00     0.031 A 
ATOM     44  C   UNL A   1      40.268  33.025  33.493  1.00  0.00     0.074 A 
ATOM     45  C   UNL A   1      40.231  30.716  33.276  1.00  0.00     0.049 A 
ATOM     46  N   UNL A   1      40.768  33.443  32.375  1.00  0.00    -0.248 NA
ATOM     47  C   UNL A   1      40.232  34.037  34.556  1.00  0.00     0.031 C 
ATOM     48  C   UNL A   1      40.199  29.975  32.036  1.00  0.00     0.029 A 
ATOM     49  N   UNL A   1      41.023  29.878  34.100  1.00  0.00    -0.354 N 
ATOM     50  C   UNL A   1      41.566  34.484  32.774  1.00  0.00     0.074 A 
ATOM     51  C   UNL A   1      40.989  34.988  34.001  1.00  0.00     0.031 C 
ATOM     52  C   UNL A   1      40.700  28.744  32.203  1.00  0.00     0.029 A 
ATOM     53  C   UNL A   1      41.292  28.614  33.524  1.00  0.00     0.049 A 
ATOM     54  H   UNL A   1      41.352  30.148  34.987  1.00  0.00     0.167 HD
ATOM     55  C   UNL A   1      42.871  34.361  32.426  1.00  0.00     0.034 A 
ATOM     56  C   UNL A   1      42.308  27.709  33.684  1.00  0.00     0.034 A 
ATOM     57  C   UNL A   1      43.062  33.617  31.198  1.00  0.00     0.049 A 
ATOM     58  C   UNL A   1      43.395  28.202  32.762  1.00  0.00     0.074 A 
ATOM     59  C   UNL A   1      42.771  33.827  29.865  1.00  0.00     0.029 A 
ATOM     60  N   UNL A   1      43.305  32.271  31.336  1.00  0.00    -0.354 N 
ATOM     61  N   UNL A   1      43.369  28.192  31.454  1.00  0.00    -0.248 NA
ATOM     62  C   UNL A   1      44.355  29.147  33.346  1.00  0.00     0.031 C 
ATOM     63  C   UNL A   1      42.881  32.570  29.204  1.00  0.00     0.029 A 
ATOM     64  C   UNL A   1      43.270  31.607  30.128  1.00  0.00     0.049 A 
ATOM     65  H   UNL A   1      43.483  31.831  32.198  1.00  0.00     0.167 HD
ATOM     66  C   UNL A   1      43.890  29.430  31.108  1.00  0.00     0.074 A 
ATOM     67  C   UNL A   1      44.619  29.897  32.277  1.00  0.00     0.031 C 
ATOM     68  C   UNL A   1      43.400  30.158  30.064  1.00  0.00     0.034 A 
BRANCH  55  69
ATOM     69  C   UNL A   1      43.926  34.446  33.489  1.00  0.00     0.023 A 
ATOM     70  C   UNL A   1      44.141  33.330  34.292  1.00  0.00     0.031 A 
ATOM     71  C   UNL A   1      44.556  35.652  33.897  1.00  0.00     0.131 A 
ATOM     72  C   UNL A   1      44.972  33.432  35.419  1.00  0.00     0.055 A 
ATOM     73  C   UNL A   1      45.462  35.721  34.948  1.00  0.00     0.041 A 
ATOM     74  F   UNL A   1      44.234  36.842  33.376  1.00  0.00    -0.206 F 
ATOM     75  C   UNL A   1      45.667  34.603  35.728  1.00  0.00     0.022 A 
BRANCH  72  76
ATOM     76  S   UNL A   1      45.019  32.038  36.563  1.00  0.00     0.124 S 
ATOM     77  O   UNL A   1      43.770  31.358  36.245  1.00  0.00    -0.237 OA
ATOM     78  O   UNL A   1      46.247  31.359  36.160  1.00  0.00    -0.237 OA
ATOM     79  O   UNL A   1      45.068  32.683  37.872  1.00  0.00    -0.744 OA
ENDBRANCH  72  76
ENDBRANCH  55  69
BRANCH  56  80
ATOM     80  C   UNL A   1      42.643  26.896  34.889  1.00  0.00     0.023 A 
ATOM     81  C   UNL A   1      43.573  25.821  34.813  1.00  0.00     0.031 A 
ATOM     82  C   UNL A   1      41.977  27.066  36.109  1.00  0.00     0.131 A 
ATOM     83  C   UNL A   1      43.806  24.989  35.934  1.00  0.00     0.055 A 
ATOM     84  C   UNL A   1      42.212  26.242  37.214  1.00  0.00     0.041 A 
ATOM     85  F   UNL A   1      41.069  28.041  36.269  1.00  0.00    -0.206 F 
ATOM     86  C   UNL A   1      43.123  25.198  37.132  1.00  0.00     0.022 A 
BRANCH  83  87
ATOM     87  S   UNL A   1      44.975  23.585  35.854  1.00  0.00     0.124 S 
ATOM     88  O   UNL A   1      46.049  24.105  35.016  1.00  0.00    -0.237 OA
ATOM     89  O   UNL A   1      45.292  23.371  37.262  1.00  0.00    -0.237 OA
ATOM     90  O   UNL A   1      44.185  22.518  35.236  1.00  0.00    -0.744 OA
ENDBRANCH  83  87
ENDBRANCH  56  80
BRANCH  68  91
ATOM     91  C   UNL A   1      42.984  29.428  28.815  1.00  0.00     0.023 A 
ATOM     92  C   UNL A   1      43.822  28.668  27.982  1.00  0.00     0.031 A 
ATOM     93  C   UNL A   1      41.621  29.489  28.473  1.00  0.00     0.131 A 
ATOM     94  C   UNL A   1      43.292  27.997  26.863  1.00  0.00     0.055 A 
ATOM     95  C   UNL A   1      41.095  28.822  27.366  1.00  0.00     0.041 A 
ATOM     96  F   UNL A   1      40.763  30.189  29.233  1.00  0.00    -0.206 F 
ATOM     97  C   UNL A   1      41.934  28.076  26.550  1.00  0.00     0.022 A 
BRANCH  94  98
ATOM     98  S   UNL A   1      44.364  27.009  25.777  1.00  0.00     0.124 S 
ATOM     99  O   UNL A   1      43.446  26.046  25.181  1.00  0.00    -0.237 OA
ATOM    100  O   UNL A   1      44.890  28.035  24.881  1.00  0.00    -0.237 OA
ATOM    101  O   UNL A   1      45.343  26.444  26.706  1.00  0.00    -0.744 OA
ENDBRANCH  94  98
ENDBRANCH  68  91
ENDBRANCH  42  43
ENDBRANCH  35  37
ENDBRANCH  34  35
ENDBRANCH  33  34
ENDBRANCH  32  33
ENDBRANCH  31  32
ENDBRANCH  30  31
ENDBRANCH   1  30
TORSDOF 24
ENDMDL
MODEL 3
REMARK VINA RESULT:     -10.2      1.720      3.687
REMARK SMILES Cc1ccc(C)c(-c2cc(C(=O)OCCOCCOCCOCCOC(=O)c3ccc(-c4c5nc(c(-c6cc(S(=O)(=O)[O-])ccc6F)c6ccc([nH]6)c(-c6cc(S(=O)(=O)[O-])ccc6F)c6nc(c(-c7cc(S(=O)(=O)[O-])ccc7F)c7ccc4[nH]7)C=C6)C=C5)cc3)c3cc(C)ccc3n2)c1
REMARK SMILES IDX 20 1 19 2 18 3 17 4 16 5 15 6 14 7 13 8 11 9 12 10 10 11
REMARK SMILES IDX 8 12 9 13 98 14 97 15 91 16 96 17 92 18 95 19 93 20 94 21
REMARK SMILES IDX 7 22 1 23 2 24 3 25 99 26 4 27 5 28 6 29 21 30 22 31 23 32
REMARK SMILES IDX 24 33 25 34 26 35 27 36 28 37 29 38 90 39 30 40 89 41 31 42
REMARK SMILES IDX 32 43 33 44 83 45 34 46 88 47 82 48 84 49 35 50 87 51 81 52
REMARK SMILES IDX 80 53 36 55 68 56 48 57 67 58 49 59 52 60 66 61 85 62 50 63
REMARK SMILES IDX 51 64 65 66 86 67 53 68 37 69 38 70 46 71 39 72 45 73 47 74
REMARK SMILES IDX 44 75 40 76 41 77 42 78 43 79 69 80 70 81 78 82 71 83 77 84
REMARK SMILES IDX 79 85 76 86 72 87 73 88 74 89 75 90 54 91 55 92 63 93 56 94
REMARK SMILES IDX 62 95 64 96 61 97 57 98 58 99 59 100 60 101
REMARK H PARENT 84 54 52 65
REMARK Flexibility Score: inf
ROOT
ATOM      1  C   UNL A   1      33.327  35.067  30.243  1.00  0.00     0.188 C 
ENDROOT
BRANCH   1   2
ATOM      2  O   UNL A   1      32.781  34.984  28.936  1.00  0.00    -0.377 OA
BRANCH   2   3
ATOM      3  C   UNL A   1      33.386  33.993  28.093  1.00  0.00     0.188 C 
BRANCH   3   4
ATOM      4  C   UNL A   1      34.680  33.311  28.589  1.00  0.00     0.188 C 
BRANCH   4   5
ATOM      5  O   UNL A   1      34.940  32.169  27.785  1.00  0.00    -0.376 OA
BRANCH   5   6
ATOM      6  C   UNL A   1      34.051  31.077  27.989  1.00  0.00     0.202 C 
BRANCH   6   7
ATOM      7  C   UNL A   1      34.002  30.016  26.879  1.00  0.00     0.261 C 
BRANCH   7   8
ATOM      8  O   UNL A   1      33.822  28.670  27.351  1.00  0.00    -0.460 OA
BRANCH   8   9
ATOM      9  C   UNL A   1      32.621  28.070  27.226  1.00  0.00     0.338 C 
ATOM     10  O   UNL A   1      31.803  27.853  28.120  1.00  0.00    -0.246 OA
BRANCH   9  11
ATOM     11  C   UNL A   1      32.258  27.653  25.876  1.00  0.00     0.071 A 
ATOM     12  C   UNL A   1      30.798  28.070  24.033  1.00  0.00     0.072 A 
ATOM     13  C   UNL A   1      31.238  28.396  25.290  1.00  0.00     0.045 A 
ATOM     14  N   UNL A   1      31.393  27.068  23.327  1.00  0.00    -0.248 NA
ATOM     15  C   UNL A   1      32.409  26.348  23.902  1.00  0.00     0.072 A 
ATOM     16  C   UNL A   1      32.918  26.652  25.170  1.00  0.00     0.015 A 
ATOM     17  C   UNL A   1      33.011  25.264  23.256  1.00  0.00     0.029 A 
ATOM     18  C   UNL A   1      34.056  25.983  25.676  1.00  0.00     0.014 A 
ATOM     19  C   UNL A   1      34.090  24.534  23.809  1.00  0.00     0.005 A 
ATOM     20  C   UNL A   1      34.641  24.914  25.022  1.00  0.00    -0.050 A 
ATOM     21  C   UNL A   1      35.759  24.210  25.727  1.00  0.00     0.044 C 
BRANCH  12  22
ATOM     22  C   UNL A   1      29.612  28.781  23.487  1.00  0.00     0.003 A 
ATOM     23  C   UNL A   1      28.512  32.442  22.988  1.00  0.00     0.044 C 
ATOM     24  C   UNL A   1      28.521  30.942  22.929  1.00  0.00    -0.050 A 
ATOM     25  C   UNL A   1      27.342  30.261  22.637  1.00  0.00     0.004 A 
ATOM     26  C   UNL A   1      29.651  30.193  23.304  1.00  0.00     0.014 A 
ATOM     27  C   UNL A   1      27.260  28.886  22.844  1.00  0.00     0.004 A 
ATOM     28  C   UNL A   1      28.363  28.149  23.318  1.00  0.00    -0.042 A 
ATOM     29  C   UNL A   1      28.074  26.765  23.846  1.00  0.00     0.045 C 
ENDBRANCH  12  22
ENDBRANCH   9  11
ENDBRANCH   8   9
ENDBRANCH   7   8
ENDBRANCH   6   7
ENDBRANCH   5   6
ENDBRANCH   4   5
ENDBRANCH   3   4
ENDBRANCH   2   3
ENDBRANCH   1   2
BRANCH   1  30
ATOM     30  C   UNL A   1      32.835  36.299  31.004  1.00  0.00     0.188 C 
BRANCH  30  31
ATOM     31  O   UNL A   1      33.231  36.241  32.368  1.00  0.00    -0.376 OA
BRANCH  31  32
ATOM     32  C   UNL A   1      34.624  36.154  32.605  1.00  0.00     0.202 C 
BRANCH  32  33
ATOM     33  C   UNL A   1      34.891  34.942  33.492  1.00  0.00     0.261 C 
BRANCH  33  34
ATOM     34  O   UNL A   1      35.875  34.015  32.964  1.00  0.00    -0.460 OA
BRANCH  34  35
ATOM     35  C   UNL A   1      35.416  32.855  32.411  1.00  0.00     0.338 C 
ATOM     36  O   UNL A   1      34.245  32.638  32.147  1.00  0.00    -0.246 OA
BRANCH  35  37
ATOM     37  C   UNL A   1      36.558  31.916  32.162  1.00  0.00     0.060 A 
ATOM     38  C   UNL A   1      36.364  30.534  32.142  1.00  0.00     0.016 A 
ATOM     39  C   UNL A   1      37.864  32.415  32.073  1.00  0.00     0.016 A 
ATOM     40  C   UNL A   1      37.484  29.677  32.120  1.00  0.00     0.010 A 
ATOM     41  C   UNL A   1      38.969  31.566  32.128  1.00  0.00     0.010 A 
ATOM     42  C   UNL A   1      38.811  30.181  32.167  1.00  0.00    -0.014 A 
BRANCH  42  43
ATOM     43  C   UNL A   1      40.048  29.437  31.738  1.00  0.00     0.031 A 
ATOM     44  C   UNL A   1      40.830  29.361  32.981  1.00  0.00     0.074 A 
ATOM     45  C   UNL A   1      40.892  29.438  30.663  1.00  0.00     0.049 A 
ATOM     46  N   UNL A   1      41.699  30.246  33.353  1.00  0.00    -0.248 NA
ATOM     47  C   UNL A   1      40.404  28.445  34.047  1.00  0.00     0.031 C 
ATOM     48  C   UNL A   1      41.317  30.559  29.857  1.00  0.00     0.029 A 
ATOM     49  N   UNL A   1      41.338  28.334  29.894  1.00  0.00    -0.354 N 
ATOM     50  C   UNL A   1      42.290  29.648  34.437  1.00  0.00     0.074 A 
ATOM     51  C   UNL A   1      41.303  28.746  34.988  1.00  0.00     0.031 C 
ATOM     52  C   UNL A   1      41.733  30.149  28.652  1.00  0.00     0.029 A 
ATOM     53  C   UNL A   1      41.807  28.698  28.609  1.00  0.00     0.049 A 
ATOM     54  H   UNL A   1      41.321  27.406  30.220  1.00  0.00     0.167 HD
ATOM     55  C   UNL A   1      43.633  29.493  34.333  1.00  0.00     0.034 A 
ATOM     56  C   UNL A   1      42.703  28.127  27.744  1.00  0.00     0.034 A 
ATOM     57  C   UNL A   1      44.261  30.523  33.531  1.00  0.00     0.049 A 
ATOM     58  C   UNL A   1      44.046  28.623  28.218  1.00  0.00     0.074 A 
ATOM     59  C   UNL A   1      44.472  31.880  33.661  1.00  0.00     0.029 A 
ATOM     60  N   UNL A   1      44.448  30.226  32.201  1.00  0.00    -0.354 N 
ATOM     61  N   UNL A   1      44.496  29.848  28.138  1.00  0.00    -0.248 NA
ATOM     62  C   UNL A   1      44.722  27.789  29.220  1.00  0.00     0.031 C 
ATOM     63  C   UNL A   1      44.823  32.381  32.374  1.00  0.00     0.029 A 
ATOM     64  C   UNL A   1      44.858  31.322  31.473  1.00  0.00     0.049 A 
ATOM     65  H   UNL A   1      44.305  29.333  31.813  1.00  0.00     0.167 HD
ATOM     66  C   UNL A   1      45.098  30.056  29.370  1.00  0.00     0.074 A 
ATOM     67  C   UNL A   1      45.350  28.733  29.919  1.00  0.00     0.031 C 
ATOM     68  C   UNL A   1      45.013  31.248  30.027  1.00  0.00     0.034 A 
BRANCH  55  69
ATOM     69  C   UNL A   1      44.230  28.129  34.505  1.00  0.00     0.023 A 
ATOM     70  C   UNL A   1      45.211  27.959  35.478  1.00  0.00     0.031 A 
ATOM     71  C   UNL A   1      44.047  27.054  33.595  1.00  0.00     0.131 A 
ATOM     72  C   UNL A   1      45.933  26.756  35.537  1.00  0.00     0.055 A 
ATOM     73  C   UNL A   1      44.686  25.827  33.725  1.00  0.00     0.041 A 
ATOM     74  F   UNL A   1      43.333  27.179  32.469  1.00  0.00    -0.206 F 
ATOM     75  C   UNL A   1      45.649  25.675  34.700  1.00  0.00     0.022 A 
BRANCH  72  76
ATOM     76  S   UNL A   1      47.355  26.678  36.644  1.00  0.00     0.124 S 
ATOM     77  O   UNL A   1      48.179  25.670  35.988  1.00  0.00    -0.237 OA
ATOM     78  O   UNL A   1      47.850  28.050  36.596  1.00  0.00    -0.237 OA
ATOM     79  O   UNL A   1      46.764  26.275  37.918  1.00  0.00    -0.744 OA
ENDBRANCH  72  76
ENDBRANCH  55  69
BRANCH  56  80
ATOM     80  C   UNL A   1      42.585  26.837  27.006  1.00  0.00     0.023 A 
ATOM     81  C   UNL A   1      42.182  25.645  27.672  1.00  0.00     0.031 A 
ATOM     82  C   UNL A   1      42.978  26.707  25.667  1.00  0.00     0.131 A 
ATOM     83  C   UNL A   1      42.173  24.405  26.989  1.00  0.00     0.055 A 
ATOM     84  C   UNL A   1      42.966  25.479  24.997  1.00  0.00     0.041 A 
ATOM     85  F   UNL A   1      43.391  27.772  24.964  1.00  0.00    -0.206 F 
ATOM     86  C   UNL A   1      42.568  24.323  25.654  1.00  0.00     0.022 A 
BRANCH  83  87
ATOM     87  S   UNL A   1      41.686  22.856  27.829  1.00  0.00     0.124 S 
ATOM     88  O   UNL A   1      42.346  21.831  27.030  1.00  0.00    -0.237 OA
ATOM     89  O   UNL A   1      42.202  23.064  29.177  1.00  0.00    -0.237 OA
ATOM     90  O   UNL A   1      40.225  22.858  27.727  1.00  0.00    -0.744 OA
ENDBRANCH  83  87
ENDBRANCH  56  80
BRANCH  68  91
ATOM     91  C   UNL A   1      45.084  32.517  29.220  1.00  0.00     0.023 A 
ATOM     92  C   UNL A   1      44.007  33.364  28.912  1.00  0.00     0.031 A 
ATOM     93  C   UNL A   1      46.357  32.903  28.764  1.00  0.00     0.131 A 
ATOM     94  C   UNL A   1      44.221  34.549  28.182  1.00  0.00     0.055 A 
ATOM     95  C   UNL A   1      46.570  34.080  28.044  1.00  0.00     0.041 A 
ATOM     96  F   UNL A   1      47.433  32.145  29.034  1.00  0.00    -0.206 F 
ATOM     97  C   UNL A   1      45.497  34.907  27.743  1.00  0.00     0.022 A 
BRANCH  94  98
ATOM     98  S   UNL A   1      42.837  35.655  27.776  1.00  0.00     0.124 S 
ATOM     99  O   UNL A   1      41.875  35.401  28.842  1.00  0.00    -0.237 OA
ATOM    100  O   UNL A   1      43.494  36.959  27.799  1.00  0.00    -0.237 OA
ATOM    101  O   UNL A   1      42.429  35.197  26.447  1.00  0.00    -0.744 OA
ENDBRANCH  94  98
ENDBRANCH  68  91
ENDBRANCH  42  43
ENDBRANCH  35  37
ENDBRANCH  34  35
ENDBRANCH  33  34
ENDBRANCH  32  33
ENDBRANCH  31  32
ENDBRANCH  30  31
ENDBRANCH   1  30
TORSDOF 24
ENDMDL
