MODEL 1
REMARK VINA RESULT:     -10.1      0.000      0.000
REMARK SMILES CC(=O)N[C@@H](CCc1nc2ccccc2[nH]1)C(=O)OCCOCCOCCOCCOC(=O)c1ccc(-c2c3nc(c(-c4cc(S(=O)(=O)[O-])ccc4F)c4ccc([nH]4)c(-c4cc(S(=O)(=O)[O-])ccc4F)c4nc(c(-c5cc(S(=O)(=O)[O-])ccc5F)c5ccc2[nH]5)C=C4)C=C3)cc1
REMARK SMILES IDX 25 1 24 2 23 3 22 4 21 5 20 6 19 7 17 8 18 9 5 10 4 11 1 12
REMARK SMILES IDX 2 13 3 14 6 16 7 17 8 18 9 19 16 20 10 21 15 22 11 24 14 25
REMARK SMILES IDX 12 26 13 27 26 28 27 29 28 30 29 31 30 32 31 33 32 34 33 35
REMARK SMILES IDX 34 36 35 37 96 38 36 39 95 40 37 41 38 42 39 43 89 44 40 45
REMARK SMILES IDX 94 46 88 47 90 48 41 49 93 50 87 51 86 52 42 54 74 55 54 56
REMARK SMILES IDX 73 57 55 58 58 59 72 60 91 61 56 62 57 63 71 65 92 66 59 67
REMARK SMILES IDX 43 68 44 69 52 70 45 71 51 72 53 73 50 74 46 75 47 76 48 77
REMARK SMILES IDX 49 78 75 79 76 80 84 81 77 82 83 83 85 84 82 85 78 86 79 87
REMARK SMILES IDX 80 88 81 89 60 90 61 91 69 92 62 93 68 94 70 95 67 96 63 97
REMARK SMILES IDX 64 98 65 99 66 100
REMARK H PARENT 4 15 16 23 90 53 58 64
REMARK Flexibility Score: inf
ROOT
ATOM      1  O   UNL A   1      32.803  29.179  24.421  1.00  0.00    -0.377 OA
ENDROOT
BRANCH   1   2
ATOM      2  C   UNL A   1      33.731  28.490  23.603  1.00  0.00     0.188 C 
BRANCH   2   3
ATOM      3  C   UNL A   1      33.154  27.863  22.311  1.00  0.00     0.188 C 
BRANCH   3   4
ATOM      4  O   UNL A   1      33.587  26.595  21.830  1.00  0.00    -0.376 OA
BRANCH   4   5
ATOM      5  C   UNL A   1      32.618  25.639  21.443  1.00  0.00     0.202 C 
BRANCH   5   6
ATOM      6  C   UNL A   1      31.451  25.358  22.380  1.00  0.00     0.261 C 
BRANCH   6   7
ATOM      7  O   UNL A   1      31.575  24.231  23.263  1.00  0.00    -0.462 OA
BRANCH   7   8
ATOM      8  C   UNL A   1      32.462  24.336  24.273  1.00  0.00     0.328 C 
ATOM      9  O   UNL A   1      32.270  24.961  25.312  1.00  0.00    -0.250 OA
BRANCH   8  10
ATOM     10  C   UNL A   1      33.850  23.806  23.895  1.00  0.00     0.192 C 
BRANCH  10  11
ATOM     11  N   UNL A   1      34.975  24.014  24.816  1.00  0.00    -0.343 N 
ATOM     12  C   UNL A   1      36.738  22.992  23.406  1.00  0.00     0.114 C 
ATOM     13  C   UNL A   1      36.282  23.635  24.686  1.00  0.00     0.217 C 
ATOM     14  O   UNL A   1      37.075  23.864  25.597  1.00  0.00    -0.275 OA
ATOM     15  H   UNL A   1      34.756  24.497  25.646  1.00  0.00     0.164 HD
ENDBRANCH  10  11
BRANCH  10  16
ATOM     16  C   UNL A   1      33.682  22.312  23.532  1.00  0.00     0.045 C 
BRANCH  16  17
ATOM     17  C   UNL A   1      33.067  21.387  24.591  1.00  0.00     0.078 C 
BRANCH  17  18
ATOM     18  C   UNL A   1      33.247  19.899  24.499  1.00  0.00     0.107 A 
ATOM     19  N   UNL A   1      34.434  19.334  24.389  1.00  0.00    -0.233 NA
ATOM     20  N   UNL A   1      32.272  18.924  24.548  1.00  0.00    -0.342 N 
ATOM     21  C   UNL A   1      34.248  17.998  24.633  1.00  0.00     0.089 A 
ATOM     22  C   UNL A   1      32.898  17.713  24.774  1.00  0.00     0.065 A 
ATOM     23  H   UNL A   1      31.303  19.066  24.442  1.00  0.00     0.168 HD
ATOM     24  C   UNL A   1      35.195  16.983  24.829  1.00  0.00     0.030 A 
ATOM     25  C   UNL A   1      32.425  16.455  25.173  1.00  0.00     0.028 A 
ATOM     26  C   UNL A   1      34.752  15.732  25.275  1.00  0.00     0.002 A 
ATOM     27  C   UNL A   1      33.392  15.482  25.465  1.00  0.00     0.002 A 
ENDBRANCH  17  18
ENDBRANCH  16  17
ENDBRANCH  10  16
ENDBRANCH   8  10
ENDBRANCH   7   8
ENDBRANCH   6   7
ENDBRANCH   5   6
ENDBRANCH   4   5
ENDBRANCH   3   4
ENDBRANCH   2   3
ENDBRANCH   1   2
BRANCH   1  28
ATOM     28  C   UNL A   1      33.259  29.474  25.734  1.00  0.00     0.188 C 
BRANCH  28  29
ATOM     29  C   UNL A   1      32.216  30.134  26.658  1.00  0.00     0.188 C 
BRANCH  29  30
ATOM     30  O   UNL A   1      31.189  30.816  25.944  1.00  0.00    -0.376 OA
BRANCH  30  31
ATOM     31  C   UNL A   1      31.061  32.217  26.151  1.00  0.00     0.202 C 
BRANCH  31  32
ATOM     32  C   UNL A   1      31.869  32.830  27.310  1.00  0.00     0.261 C 
BRANCH  32  33
ATOM     33  O   UNL A   1      33.281  32.560  27.324  1.00  0.00    -0.460 OA
BRANCH  33  34
ATOM     34  C   UNL A   1      34.057  33.340  28.106  1.00  0.00     0.338 C 
ATOM     35  O   UNL A   1      33.703  34.341  28.705  1.00  0.00    -0.246 OA
BRANCH  34  36
ATOM     36  C   UNL A   1      35.353  32.655  28.306  1.00  0.00     0.060 A 
ATOM     37  C   UNL A   1      35.389  31.254  28.247  1.00  0.00     0.016 A 
ATOM     38  C   UNL A   1      36.521  33.378  28.561  1.00  0.00     0.016 A 
ATOM     39  C   UNL A   1      36.577  30.570  28.505  1.00  0.00     0.010 A 
ATOM     40  C   UNL A   1      37.705  32.691  28.852  1.00  0.00     0.010 A 
ATOM     41  C   UNL A   1      37.723  31.284  28.876  1.00  0.00    -0.014 A 
BRANCH  41  42
ATOM     42  C   UNL A   1      38.816  30.568  29.584  1.00  0.00     0.031 A 
ATOM     43  C   UNL A   1      39.067  30.943  31.023  1.00  0.00     0.074 A 
ATOM     44  C   UNL A   1      39.531  29.590  29.001  1.00  0.00     0.049 A 
ATOM     45  N   UNL A   1      39.980  30.512  31.853  1.00  0.00    -0.248 NA
ATOM     46  C   UNL A   1      38.157  31.947  31.599  1.00  0.00     0.031 C 
ATOM     47  C   UNL A   1      39.337  29.093  27.641  1.00  0.00     0.029 A 
ATOM     48  N   UNL A   1      40.574  28.841  29.490  1.00  0.00    -0.354 N 
ATOM     49  C   UNL A   1      39.760  31.197  33.043  1.00  0.00     0.074 A 
ATOM     50  C   UNL A   1      38.654  32.100  32.815  1.00  0.00     0.031 C 
ATOM     51  C   UNL A   1      40.241  28.126  27.399  1.00  0.00     0.029 A 
ATOM     52  C   UNL A   1      41.102  27.963  28.571  1.00  0.00     0.049 A 
ATOM     53  H   UNL A   1      40.910  28.923  30.410  1.00  0.00     0.167 HD
ATOM     54  C   UNL A   1      40.413  31.078  34.226  1.00  0.00     0.034 A 
ATOM     55  C   UNL A   1      42.174  27.148  28.663  1.00  0.00     0.034 A 
ATOM     56  C   UNL A   1      41.525  30.187  34.434  1.00  0.00     0.049 A 
ATOM     57  C   UNL A   1      42.958  27.109  29.957  1.00  0.00     0.074 A 
ATOM     58  C   UNL A   1      42.267  29.988  35.585  1.00  0.00     0.029 A 
ATOM     59  N   UNL A   1      42.069  29.355  33.462  1.00  0.00    -0.354 N 
ATOM     60  N   UNL A   1      42.744  27.764  31.076  1.00  0.00    -0.248 NA
ATOM     61  C   UNL A   1      44.122  26.213  30.002  1.00  0.00     0.031 C 
ATOM     62  C   UNL A   1      43.305  29.100  35.287  1.00  0.00     0.029 A 
ATOM     63  C   UNL A   1      43.156  28.668  33.978  1.00  0.00     0.049 A 
ATOM     64  H   UNL A   1      41.730  29.266  32.542  1.00  0.00     0.167 HD
ATOM     65  C   UNL A   1      43.723  27.326  31.968  1.00  0.00     0.074 A 
ATOM     66  C   UNL A   1      44.519  26.346  31.258  1.00  0.00     0.031 C 
ATOM     67  C   UNL A   1      43.941  27.693  33.257  1.00  0.00     0.034 A 
BRANCH  54  68
ATOM     68  C   UNL A   1      39.971  31.982  35.352  1.00  0.00     0.023 A 
ATOM     69  C   UNL A   1      39.170  31.515  36.409  1.00  0.00     0.031 A 
ATOM     70  C   UNL A   1      40.318  33.344  35.343  1.00  0.00     0.131 A 
ATOM     71  C   UNL A   1      38.678  32.415  37.366  1.00  0.00     0.055 A 
ATOM     72  C   UNL A   1      39.899  34.218  36.347  1.00  0.00     0.041 A 
ATOM     73  F   UNL A   1      41.056  33.855  34.344  1.00  0.00    -0.206 F 
ATOM     74  C   UNL A   1      39.060  33.759  37.358  1.00  0.00     0.022 A 
BRANCH  71  75
ATOM     75  S   UNL A   1      37.408  31.841  38.527  1.00  0.00     0.124 S 
ATOM     76  O   UNL A   1      36.344  32.818  38.307  1.00  0.00    -0.237 OA
ATOM     77  O   UNL A   1      37.139  30.487  38.055  1.00  0.00    -0.237 OA
ATOM     78  O   UNL A   1      38.066  31.930  39.829  1.00  0.00    -0.744 OA
ENDBRANCH  71  75
ENDBRANCH  54  68
BRANCH  55  79
ATOM     79  C   UNL A   1      42.609  26.328  27.492  1.00  0.00     0.023 A 
ATOM     80  C   UNL A   1      42.156  25.010  27.316  1.00  0.00     0.031 A 
ATOM     81  C   UNL A   1      43.546  26.827  26.570  1.00  0.00     0.131 A 
ATOM     82  C   UNL A   1      42.677  24.222  26.277  1.00  0.00     0.055 A 
ATOM     83  C   UNL A   1      44.016  26.061  25.502  1.00  0.00     0.041 A 
ATOM     84  F   UNL A   1      44.023  28.077  26.695  1.00  0.00    -0.206 F 
ATOM     85  C   UNL A   1      43.592  24.744  25.358  1.00  0.00     0.022 A 
BRANCH  82  86
ATOM     86  S   UNL A   1      42.216  22.469  26.199  1.00  0.00     0.124 S 
ATOM     87  O   UNL A   1      40.761  22.546  26.166  1.00  0.00    -0.237 OA
ATOM     88  O   UNL A   1      42.864  22.039  24.964  1.00  0.00    -0.237 OA
ATOM     89  O   UNL A   1      42.785  21.912  27.424  1.00  0.00    -0.744 OA
ENDBRANCH  82  86
ENDBRANCH  55  79
BRANCH  67  90
ATOM     90  C   UNL A   1      45.046  26.981  34.006  1.00  0.00     0.023 A 
ATOM     91  C   UNL A   1      44.858  25.718  34.593  1.00  0.00     0.031 A 
ATOM     92  C   UNL A   1      46.311  27.585  34.131  1.00  0.00     0.131 A 
ATOM     93  C   UNL A   1      45.899  25.126  35.327  1.00  0.00     0.055 A 
ATOM     94  C   UNL A   1      47.364  26.961  34.802  1.00  0.00     0.041 A 
ATOM     95  F   UNL A   1      46.548  28.792  33.593  1.00  0.00    -0.206 F 
ATOM     96  C   UNL A   1      47.156  25.730  35.417  1.00  0.00     0.022 A 
BRANCH  93  97
ATOM     97  S   UNL A   1      45.559  23.602  36.249  1.00  0.00     0.124 S 
ATOM     98  O   UNL A   1      45.402  24.101  37.611  1.00  0.00    -0.237 OA
ATOM     99  O   UNL A   1      44.346  23.111  35.604  1.00  0.00    -0.237 OA
ATOM    100  O   UNL A   1      46.753  22.789  36.019  1.00  0.00    -0.744 OA
ENDBRANCH  93  97
ENDBRANCH  67  90
ENDBRANCH  41  42
ENDBRANCH  34  36
ENDBRANCH  33  34
ENDBRANCH  32  33
ENDBRANCH  31  32
ENDBRANCH  30  31
ENDBRANCH  29  30
ENDBRANCH  28  29
ENDBRANCH   1  28
TORSDOF 27
ENDMDL
MODEL 2
REMARK VINA RESULT:      -9.9      1.827      2.114
REMARK SMILES CC(=O)N[C@@H](CCc1nc2ccccc2[nH]1)C(=O)OCCOCCOCCOCCOC(=O)c1ccc(-c2c3nc(c(-c4cc(S(=O)(=O)[O-])ccc4F)c4ccc([nH]4)c(-c4cc(S(=O)(=O)[O-])ccc4F)c4nc(c(-c5cc(S(=O)(=O)[O-])ccc5F)c5ccc2[nH]5)C=C4)C=C3)cc1
REMARK SMILES IDX 25 1 24 2 23 3 22 4 21 5 20 6 19 7 17 8 18 9 5 10 4 11 1 12
REMARK SMILES IDX 2 13 3 14 6 16 7 17 8 18 9 19 16 20 10 21 15 22 11 24 14 25
REMARK SMILES IDX 12 26 13 27 26 28 27 29 28 30 29 31 30 32 31 33 32 34 33 35
REMARK SMILES IDX 34 36 35 37 96 38 36 39 95 40 37 41 38 42 39 43 89 44 40 45
REMARK SMILES IDX 94 46 88 47 90 48 41 49 93 50 87 51 86 52 42 54 74 55 54 56
REMARK SMILES IDX 73 57 55 58 58 59 72 60 91 61 56 62 57 63 71 65 92 66 59 67
REMARK SMILES IDX 43 68 44 69 52 70 45 71 51 72 53 73 50 74 46 75 47 76 48 77
REMARK SMILES IDX 49 78 75 79 76 80 84 81 77 82 83 83 85 84 82 85 78 86 79 87
REMARK SMILES IDX 80 88 81 89 60 90 61 91 69 92 62 93 68 94 70 95 67 96 63 97
REMARK SMILES IDX 64 98 65 99 66 100
REMARK H PARENT 4 15 16 23 90 53 58 64
REMARK Flexibility Score: inf
ROOT
ATOM      1  O   UNL A   1      32.789  29.066  24.472  1.00  0.00    -0.377 OA
ENDROOT
BRANCH   1   2
ATOM      2  C   UNL A   1      33.776  28.358  23.743  1.00  0.00     0.188 C 
BRANCH   2   3
ATOM      3  C   UNL A   1      33.493  28.172  22.233  1.00  0.00     0.188 C 
BRANCH   3   4
ATOM      4  O   UNL A   1      33.755  26.943  21.563  1.00  0.00    -0.376 OA
BRANCH   4   5
ATOM      5  C   UNL A   1      32.674  26.081  21.261  1.00  0.00     0.202 C 
BRANCH   5   6
ATOM      6  C   UNL A   1      31.566  25.907  22.291  1.00  0.00     0.261 C 
BRANCH   6   7
ATOM      7  O   UNL A   1      31.653  24.769  23.163  1.00  0.00    -0.462 OA
BRANCH   7   8
ATOM      8  C   UNL A   1      32.479  24.869  24.224  1.00  0.00     0.328 C 
ATOM      9  O   UNL A   1      32.266  25.563  25.214  1.00  0.00    -0.250 OA
BRANCH   8  10
ATOM     10  C   UNL A   1      33.846  24.225  23.968  1.00  0.00     0.192 C 
BRANCH  10  11
ATOM     11  N   UNL A   1      34.899  24.343  24.987  1.00  0.00    -0.343 N 
ATOM     12  C   UNL A   1      36.668  23.110  23.765  1.00  0.00     0.114 C 
ATOM     13  C   UNL A   1      36.166  23.830  24.986  1.00  0.00     0.217 C 
ATOM     14  O   UNL A   1      36.893  24.003  25.962  1.00  0.00    -0.275 OA
ATOM     15  H   UNL A   1      34.656  24.868  25.784  1.00  0.00     0.164 HD
ENDBRANCH  10  11
BRANCH  10  16
ATOM     16  C   UNL A   1      33.588  22.748  23.587  1.00  0.00     0.045 C 
BRANCH  16  17
ATOM     17  C   UNL A   1      32.434  22.023  24.291  1.00  0.00     0.078 C 
BRANCH  17  18
ATOM     18  C   UNL A   1      32.407  20.522  24.360  1.00  0.00     0.107 A 
ATOM     19  N   UNL A   1      32.532  19.761  23.290  1.00  0.00    -0.233 NA
ATOM     20  N   UNL A   1      32.292  19.730  25.483  1.00  0.00    -0.342 N 
ATOM     21  C   UNL A   1      32.764  18.491  23.747  1.00  0.00     0.089 A 
ATOM     22  C   UNL A   1      32.656  18.444  25.130  1.00  0.00     0.065 A 
ATOM     23  H   UNL A   1      32.004  20.027  26.377  1.00  0.00     0.168 HD
ATOM     24  C   UNL A   1      33.154  17.342  23.044  1.00  0.00     0.030 A 
ATOM     25  C   UNL A   1      32.984  17.306  25.879  1.00  0.00     0.028 A 
ATOM     26  C   UNL A   1      33.535  16.208  23.772  1.00  0.00     0.002 A 
ATOM     27  C   UNL A   1      33.471  16.201  25.167  1.00  0.00     0.002 A 
ENDBRANCH  17  18
ENDBRANCH  16  17
ENDBRANCH  10  16
ENDBRANCH   8  10
ENDBRANCH   7   8
ENDBRANCH   6   7
ENDBRANCH   5   6
ENDBRANCH   4   5
ENDBRANCH   3   4
ENDBRANCH   2   3
ENDBRANCH   1   2
BRANCH   1  28
ATOM     28  C   UNL A   1      33.088  29.275  25.846  1.00  0.00     0.188 C 
BRANCH  28  29
ATOM     29  C   UNL A   1      31.959  29.924  26.671  1.00  0.00     0.188 C 
BRANCH  29  30
ATOM     30  O   UNL A   1      31.011  30.622  25.869  1.00  0.00    -0.376 OA
BRANCH  30  31
ATOM     31  C   UNL A   1      31.008  32.042  25.938  1.00  0.00     0.202 C 
BRANCH  31  32
ATOM     32  C   UNL A   1      31.755  32.687  27.121  1.00  0.00     0.261 C 
BRANCH  32  33
ATOM     33  O   UNL A   1      33.125  32.295  27.307  1.00  0.00    -0.460 OA
BRANCH  33  34
ATOM     34  C   UNL A   1      33.915  33.115  28.033  1.00  0.00     0.338 C 
ATOM     35  O   UNL A   1      33.573  34.149  28.580  1.00  0.00    -0.246 OA
BRANCH  34  36
ATOM     36  C   UNL A   1      35.212  32.436  28.254  1.00  0.00     0.060 A 
ATOM     37  C   UNL A   1      35.241  31.034  28.280  1.00  0.00     0.016 A 
ATOM     38  C   UNL A   1      36.386  33.168  28.444  1.00  0.00     0.016 A 
ATOM     39  C   UNL A   1      36.429  30.362  28.560  1.00  0.00     0.010 A 
ATOM     40  C   UNL A   1      37.572  32.495  28.757  1.00  0.00     0.010 A 
ATOM     41  C   UNL A   1      37.585  31.092  28.867  1.00  0.00    -0.014 A 
BRANCH  41  42
ATOM     42  C   UNL A   1      38.686  30.415  29.600  1.00  0.00     0.031 A 
ATOM     43  C   UNL A   1      38.916  30.825  31.033  1.00  0.00     0.074 A 
ATOM     44  C   UNL A   1      39.428  29.441  29.044  1.00  0.00     0.049 A 
ATOM     45  N   UNL A   1      39.831  30.433  31.879  1.00  0.00    -0.248 NA
ATOM     46  C   UNL A   1      37.980  31.821  31.579  1.00  0.00     0.031 C 
ATOM     47  C   UNL A   1      39.258  28.911  27.693  1.00  0.00     0.029 A 
ATOM     48  N   UNL A   1      40.483  28.726  29.557  1.00  0.00    -0.354 N 
ATOM     49  C   UNL A   1      39.585  31.137  33.053  1.00  0.00     0.074 A 
ATOM     50  C   UNL A   1      38.462  32.011  32.795  1.00  0.00     0.031 C 
ATOM     51  C   UNL A   1      40.185  27.960  27.480  1.00  0.00     0.029 A 
ATOM     52  C   UNL A   1      41.039  27.841  28.662  1.00  0.00     0.049 A 
ATOM     53  H   UNL A   1      40.809  28.835  30.479  1.00  0.00     0.167 HD
ATOM     54  C   UNL A   1      40.230  31.057  34.243  1.00  0.00     0.034 A 
ATOM     55  C   UNL A   1      42.128  27.051  28.780  1.00  0.00     0.034 A 
ATOM     56  C   UNL A   1      41.359  30.196  34.480  1.00  0.00     0.049 A 
ATOM     57  C   UNL A   1      42.900  27.057  30.082  1.00  0.00     0.074 A 
ATOM     58  C   UNL A   1      42.095  30.038  35.641  1.00  0.00     0.029 A 
ATOM     59  N   UNL A   1      41.930  29.356  33.531  1.00  0.00    -0.354 N 
ATOM     60  N   UNL A   1      42.662  27.730  31.185  1.00  0.00    -0.248 NA
ATOM     61  C   UNL A   1      44.083  26.189  30.156  1.00  0.00     0.031 C 
ATOM     62  C   UNL A   1      43.155  29.166  35.371  1.00  0.00     0.029 A 
ATOM     63  C   UNL A   1      43.027  28.704  34.071  1.00  0.00     0.049 A 
ATOM     64  H   UNL A   1      41.602  29.240  32.609  1.00  0.00     0.167 HD
ATOM     65  C   UNL A   1      43.642  27.333  32.094  1.00  0.00     0.074 A 
ATOM     66  C   UNL A   1      44.466  26.356  31.412  1.00  0.00     0.031 C 
ATOM     67  C   UNL A   1      43.840  27.732  33.377  1.00  0.00     0.034 A 
BRANCH  54  68
ATOM     68  C   UNL A   1      39.758  31.975  35.346  1.00  0.00     0.023 A 
ATOM     69  C   UNL A   1      40.290  33.265  35.517  1.00  0.00     0.031 A 
ATOM     70  C   UNL A   1      38.795  31.534  36.270  1.00  0.00     0.131 A 
ATOM     71  C   UNL A   1      39.916  34.036  36.628  1.00  0.00     0.055 A 
ATOM     72  C   UNL A   1      38.361  32.340  37.324  1.00  0.00     0.041 A 
ATOM     73  F   UNL A   1      38.272  30.300  36.177  1.00  0.00    -0.206 F 
ATOM     74  C   UNL A   1      38.934  33.593  37.518  1.00  0.00     0.022 A 
BRANCH  71  75
ATOM     75  S   UNL A   1      40.844  35.554  36.984  1.00  0.00     0.124 S 
ATOM     76  O   UNL A   1      41.084  35.422  38.419  1.00  0.00    -0.237 OA
ATOM     77  O   UNL A   1      42.015  35.417  36.126  1.00  0.00    -0.237 OA
ATOM     78  O   UNL A   1      39.916  36.619  36.611  1.00  0.00    -0.744 OA
ENDBRANCH  71  75
ENDBRANCH  54  68
BRANCH  55  79
ATOM     79  C   UNL A   1      42.591  26.217  27.631  1.00  0.00     0.023 A 
ATOM     80  C   UNL A   1      42.151  24.892  27.467  1.00  0.00     0.031 A 
ATOM     81  C   UNL A   1      43.542  26.709  26.719  1.00  0.00     0.131 A 
ATOM     82  C   UNL A   1      42.698  24.093  26.450  1.00  0.00     0.055 A 
ATOM     83  C   UNL A   1      44.037  25.930  25.673  1.00  0.00     0.041 A 
ATOM     84  F   UNL A   1      44.007  27.964  26.834  1.00  0.00    -0.206 F 
ATOM     85  C   UNL A   1      43.626  24.608  25.542  1.00  0.00     0.022 A 
BRANCH  82  86
ATOM     86  S   UNL A   1      42.253  22.335  26.392  1.00  0.00     0.124 S 
ATOM     87  O   UNL A   1      42.417  21.941  27.786  1.00  0.00    -0.237 OA
ATOM     88  O   UNL A   1      40.881  22.386  25.896  1.00  0.00    -0.237 OA
ATOM     89  O   UNL A   1      43.228  21.767  25.463  1.00  0.00    -0.744 OA
ENDBRANCH  82  86
ENDBRANCH  55  79
BRANCH  67  90
ATOM     90  C   UNL A   1      44.953  27.061  34.151  1.00  0.00     0.023 A 
ATOM     91  C   UNL A   1      46.250  27.600  34.215  1.00  0.00     0.031 A 
ATOM     92  C   UNL A   1      44.704  25.858  34.837  1.00  0.00     0.131 A 
ATOM     93  C   UNL A   1      47.262  26.908  34.900  1.00  0.00     0.055 A 
ATOM     94  C   UNL A   1      45.697  25.210  35.574  1.00  0.00     0.041 A 
ATOM     95  F   UNL A   1      43.486  25.295  34.810  1.00  0.00    -0.206 F 
ATOM     96  C   UNL A   1      46.989  25.728  35.596  1.00  0.00     0.022 A 
BRANCH  93  97
ATOM     97  S   UNL A   1      48.967  27.516  34.784  1.00  0.00     0.124 S 
ATOM     98  O   UNL A   1      48.808  28.927  35.121  1.00  0.00    -0.237 OA
ATOM     99  O   UNL A   1      49.658  26.696  35.774  1.00  0.00    -0.237 OA
ATOM    100  O   UNL A   1      49.333  27.247  33.395  1.00  0.00    -0.744 OA
ENDBRANCH  93  97
ENDBRANCH  67  90
ENDBRANCH  41  42
ENDBRANCH  34  36
ENDBRANCH  33  34
ENDBRANCH  32  33
ENDBRANCH  31  32
ENDBRANCH  30  31
ENDBRANCH  29  30
ENDBRANCH  28  29
ENDBRANCH   1  28
TORSDOF 27
ENDMDL
MODEL 3
REMARK VINA RESULT:      -9.9      1.674      7.538
REMARK SMILES CC(=O)N[C@@H](CCc1nc2ccccc2[nH]1)C(=O)OCCOCCOCCOCCOC(=O)c1ccc(-c2c3nc(c(-c4cc(S(=O)(=O)[O-])ccc4F)c4ccc([nH]4)c(-c4cc(S(=O)(=O)[O-])ccc4F)c4nc(c(-c5cc(S(=O)(=O)[O-])ccc5F)c5ccc2[nH]5)C=C4)C=C3)cc1
REMARK SMILES IDX 25 1 24 2 23 3 22 4 21 5 20 6 19 7 17 8 18 9 5 10 4 11 1 12
REMARK SMILES IDX 2 13 3 14 6 16 7 17 8 18 9 19 16 20 10 21 15 22 11 24 14 25
REMARK SMILES IDX 12 26 13 27 26 28 27 29 28 30 29 31 30 32 31 33 32 34 33 35
REMARK SMILES IDX 34 36 35 37 96 38 36 39 95 40 37 41 38 42 39 43 89 44 40 45
REMARK SMILES IDX 94 46 88 47 90 48 41 49 93 50 87 51 86 52 42 54 74 55 54 56
REMARK SMILES IDX 73 57 55 58 58 59 72 60 91 61 56 62 57 63 71 65 92 66 59 67
REMARK SMILES IDX 43 68 44 69 52 70 45 71 51 72 53 73 50 74 46 75 47 76 48 77
REMARK SMILES IDX 49 78 75 79 76 80 84 81 77 82 83 83 85 84 82 85 78 86 79 87
REMARK SMILES IDX 80 88 81 89 60 90 61 91 69 92 62 93 68 94 70 95 67 96 63 97
REMARK SMILES IDX 64 98 65 99 66 100
REMARK H PARENT 4 15 16 23 90 53 58 64
REMARK Flexibility Score: inf
ROOT
ATOM      1  O   UNL A   1      31.160  27.664  25.469  1.00  0.00    -0.377 OA
ENDROOT
BRANCH   1   2
ATOM      2  C   UNL A   1      32.315  27.469  26.264  1.00  0.00     0.188 C 
BRANCH   2   3
ATOM      3  C   UNL A   1      33.312  26.402  25.751  1.00  0.00     0.188 C 
BRANCH   3   4
ATOM      4  O   UNL A   1      34.173  26.647  24.642  1.00  0.00    -0.376 OA
BRANCH   4   5
ATOM      5  C   UNL A   1      33.601  26.940  23.381  1.00  0.00     0.202 C 
BRANCH   5   6
ATOM      6  C   UNL A   1      33.571  25.849  22.319  1.00  0.00     0.261 C 
BRANCH   6   7
ATOM      7  O   UNL A   1      33.391  24.497  22.771  1.00  0.00    -0.462 OA
BRANCH   7   8
ATOM      8  C   UNL A   1      32.138  24.118  23.094  1.00  0.00     0.328 C 
ATOM      9  O   UNL A   1      31.116  24.587  22.601  1.00  0.00    -0.250 OA
BRANCH   8  10
ATOM     10  C   UNL A   1      32.096  23.215  24.331  1.00  0.00     0.192 C 
BRANCH  10  11
ATOM     11  N   UNL A   1      31.059  23.435  25.348  1.00  0.00    -0.343 N 
ATOM     12  C   UNL A   1      32.390  22.744  27.320  1.00  0.00     0.114 C 
ATOM     13  C   UNL A   1      31.102  23.201  26.693  1.00  0.00     0.217 C 
ATOM     14  O   UNL A   1      30.103  23.410  27.380  1.00  0.00    -0.275 OA
ATOM     15  H   UNL A   1      30.210  23.803  25.010  1.00  0.00     0.164 HD
ENDBRANCH  10  11
BRANCH  10  16
ATOM     16  C   UNL A   1      32.095  21.753  23.825  1.00  0.00     0.045 C 
BRANCH  16  17
ATOM     17  C   UNL A   1      33.422  20.983  23.871  1.00  0.00     0.078 C 
BRANCH  17  18
ATOM     18  C   UNL A   1      33.496  19.633  24.526  1.00  0.00     0.107 A 
ATOM     19  N   UNL A   1      32.429  19.011  24.990  1.00  0.00    -0.233 NA
ATOM     20  N   UNL A   1      34.611  18.843  24.711  1.00  0.00    -0.342 N 
ATOM     21  C   UNL A   1      32.813  17.718  25.231  1.00  0.00     0.089 A 
ATOM     22  C   UNL A   1      34.178  17.570  25.030  1.00  0.00     0.065 A 
ATOM     23  H   UNL A   1      35.549  19.134  24.631  1.00  0.00     0.168 HD
ATOM     24  C   UNL A   1      32.034  16.596  25.547  1.00  0.00     0.030 A 
ATOM     25  C   UNL A   1      34.820  16.324  25.063  1.00  0.00     0.028 A 
ATOM     26  C   UNL A   1      32.642  15.334  25.537  1.00  0.00     0.002 A 
ATOM     27  C   UNL A   1      34.008  15.202  25.277  1.00  0.00     0.002 A 
ENDBRANCH  17  18
ENDBRANCH  16  17
ENDBRANCH  10  16
ENDBRANCH   8  10
ENDBRANCH   7   8
ENDBRANCH   6   7
ENDBRANCH   5   6
ENDBRANCH   4   5
ENDBRANCH   3   4
ENDBRANCH   2   3
ENDBRANCH   1   2
BRANCH   1  28
ATOM     28  C   UNL A   1      31.048  28.949  24.872  1.00  0.00     0.188 C 
BRANCH  28  29
ATOM     29  C   UNL A   1      31.789  30.082  25.610  1.00  0.00     0.188 C 
BRANCH  29  30
ATOM     30  O   UNL A   1      31.033  31.287  25.686  1.00  0.00    -0.376 OA
BRANCH  30  31
ATOM     31  C   UNL A   1      31.535  32.330  26.512  1.00  0.00     0.202 C 
BRANCH  31  32
ATOM     32  C   UNL A   1      32.607  31.946  27.549  1.00  0.00     0.261 C 
BRANCH  32  33
ATOM     33  O   UNL A   1      33.152  33.017  28.337  1.00  0.00    -0.460 OA
BRANCH  33  34
ATOM     34  C   UNL A   1      34.240  33.654  27.854  1.00  0.00     0.338 C 
ATOM     35  O   UNL A   1      34.263  34.763  27.349  1.00  0.00    -0.246 OA
BRANCH  34  36
ATOM     36  C   UNL A   1      35.442  32.885  28.247  1.00  0.00     0.060 A 
ATOM     37  C   UNL A   1      35.277  31.573  28.716  1.00  0.00     0.016 A 
ATOM     38  C   UNL A   1      36.718  33.448  28.167  1.00  0.00     0.016 A 
ATOM     39  C   UNL A   1      36.377  30.845  29.166  1.00  0.00     0.010 A 
ATOM     40  C   UNL A   1      37.818  32.729  28.649  1.00  0.00     0.010 A 
ATOM     41  C   UNL A   1      37.642  31.445  29.198  1.00  0.00    -0.014 A 
BRANCH  41  42
ATOM     42  C   UNL A   1      38.688  30.866  30.080  1.00  0.00     0.031 A 
ATOM     43  C   UNL A   1      39.596  29.822  29.480  1.00  0.00     0.074 A 
ATOM     44  C   UNL A   1      38.868  31.276  31.348  1.00  0.00     0.049 A 
ATOM     45  N   UNL A   1      40.553  29.126  30.035  1.00  0.00    -0.248 NA
ATOM     46  C   UNL A   1      39.386  29.524  28.054  1.00  0.00     0.031 C 
ATOM     47  C   UNL A   1      38.101  32.323  32.018  1.00  0.00     0.029 A 
ATOM     48  N   UNL A   1      39.761  30.849  32.301  1.00  0.00    -0.354 N 
ATOM     49  C   UNL A   1      41.054  28.306  29.029  1.00  0.00     0.074 A 
ATOM     50  C   UNL A   1      40.266  28.560  27.843  1.00  0.00     0.031 C 
ATOM     51  C   UNL A   1      38.549  32.450  33.280  1.00  0.00     0.029 A 
ATOM     52  C   UNL A   1      39.607  31.468  33.520  1.00  0.00     0.049 A 
ATOM     53  H   UNL A   1      40.446  30.165  32.128  1.00  0.00     0.167 HD
ATOM     54  C   UNL A   1      42.083  27.425  29.084  1.00  0.00     0.034 A 
ATOM     55  C   UNL A   1      40.231  31.242  34.696  1.00  0.00     0.034 A 
ATOM     56  C   UNL A   1      42.847  27.168  30.278  1.00  0.00     0.049 A 
ATOM     57  C   UNL A   1      41.304  30.178  34.765  1.00  0.00     0.074 A 
ATOM     58  C   UNL A   1      43.904  26.294  30.453  1.00  0.00     0.029 A 
ATOM     59  N   UNL A   1      42.623  27.773  31.509  1.00  0.00    -0.354 N 
ATOM     60  N   UNL A   1      41.767  29.403  33.810  1.00  0.00    -0.248 NA
ATOM     61  C   UNL A   1      41.945  29.964  36.070  1.00  0.00     0.031 C 
ATOM     62  C   UNL A   1      44.267  26.312  31.804  1.00  0.00     0.029 A 
ATOM     63  C   UNL A   1      43.501  27.266  32.455  1.00  0.00     0.049 A 
ATOM     64  H   UNL A   1      41.942  28.462  31.684  1.00  0.00     0.167 HD
ATOM     65  C   UNL A   1      42.780  28.642  34.391  1.00  0.00     0.074 A 
ATOM     66  C   UNL A   1      42.865  29.058  35.776  1.00  0.00     0.031 C 
ATOM     67  C   UNL A   1      43.574  27.692  33.834  1.00  0.00     0.034 A 
BRANCH  54  68
ATOM     68  C   UNL A   1      42.387  26.640  27.831  1.00  0.00     0.023 A 
ATOM     69  C   UNL A   1      41.883  25.343  27.626  1.00  0.00     0.031 A 
ATOM     70  C   UNL A   1      43.234  27.178  26.847  1.00  0.00     0.131 A 
ATOM     71  C   UNL A   1      42.291  24.601  26.508  1.00  0.00     0.055 A 
ATOM     72  C   UNL A   1      43.567  26.468  25.692  1.00  0.00     0.041 A 
ATOM     73  F   UNL A   1      43.771  28.400  27.000  1.00  0.00    -0.206 F 
ATOM     74  C   UNL A   1      43.109  25.165  25.525  1.00  0.00     0.022 A 
BRANCH  71  75
ATOM     75  S   UNL A   1      41.871  22.837  26.435  1.00  0.00     0.124 S 
ATOM     76  O   UNL A   1      42.465  22.446  25.159  1.00  0.00    -0.237 OA
ATOM     77  O   UNL A   1      42.521  22.309  27.629  1.00  0.00    -0.237 OA
ATOM     78  O   UNL A   1      40.411  22.830  26.463  1.00  0.00    -0.744 OA
ENDBRANCH  71  75
ENDBRANCH  54  68
BRANCH  55  79
ATOM     79  C   UNL A   1      39.839  32.000  35.923  1.00  0.00     0.023 A 
ATOM     80  C   UNL A   1      38.905  31.479  36.835  1.00  0.00     0.031 A 
ATOM     81  C   UNL A   1      40.338  33.293  36.163  1.00  0.00     0.131 A 
ATOM     82  C   UNL A   1      38.463  32.265  37.911  1.00  0.00     0.055 A 
ATOM     83  C   UNL A   1      39.941  34.046  37.268  1.00  0.00     0.041 A 
ATOM     84  F   UNL A   1      41.224  33.846  35.318  1.00  0.00    -0.206 F 
ATOM     85  C   UNL A   1      38.988  33.539  38.144  1.00  0.00     0.022 A 
BRANCH  82  86
ATOM     86  S   UNL A   1      37.116  31.637  38.952  1.00  0.00     0.124 S 
ATOM     87  O   UNL A   1      36.857  30.336  38.347  1.00  0.00    -0.237 OA
ATOM     88  O   UNL A   1      37.737  31.618  40.273  1.00  0.00    -0.237 OA
ATOM     89  O   UNL A   1      36.058  32.629  38.777  1.00  0.00    -0.744 OA
ENDBRANCH  82  86
ENDBRANCH  55  79
BRANCH  67  90
ATOM     90  C   UNL A   1      44.650  27.084  34.705  1.00  0.00     0.023 A 
ATOM     91  C   UNL A   1      45.901  27.698  34.886  1.00  0.00     0.031 A 
ATOM     92  C   UNL A   1      44.412  25.864  35.365  1.00  0.00     0.131 A 
ATOM     93  C   UNL A   1      46.886  27.063  35.660  1.00  0.00     0.055 A 
ATOM     94  C   UNL A   1      45.370  25.272  36.189  1.00  0.00     0.041 A 
ATOM     95  F   UNL A   1      43.237  25.230  35.228  1.00  0.00    -0.206 F 
ATOM     96  C   UNL A   1      46.622  25.865  36.328  1.00  0.00     0.022 A 
BRANCH  93  97
ATOM     97  S   UNL A   1      48.556  27.772  35.699  1.00  0.00     0.124 S 
ATOM     98  O   UNL A   1      48.789  28.075  34.291  1.00  0.00    -0.237 OA
ATOM     99  O   UNL A   1      48.385  28.922  36.581  1.00  0.00    -0.237 OA
ATOM    100  O   UNL A   1      49.374  26.690  36.246  1.00  0.00    -0.744 OA
ENDBRANCH  93  97
ENDBRANCH  67  90
ENDBRANCH  41  42
ENDBRANCH  34  36
ENDBRANCH  33  34
ENDBRANCH  32  33
ENDBRANCH  31  32
ENDBRANCH  30  31
ENDBRANCH  29  30
ENDBRANCH  28  29
ENDBRANCH   1  28
TORSDOF 27
ENDMDL
