MODEL 1
REMARK VINA RESULT:      -8.8      0.000      0.000
REMARK SMILES COc1ccc(S(=O)(=O)N2C[C@H](C)C[C@H](C)C2)cc1C(=O)OCCOCCOCCOCCOC(=O)c1ccc(-c2c3nc(c(-c4cc(S(=O)(=O)[O-])ccc4F)c4ccc([nH]4)c(-c4cc(S(=O)(=O)[O-])ccc4F)c4nc(c(-c5cc(S(=O)(=O)[O-])ccc5F)c5ccc2[nH]5)C=C4)C=C3)cc1
REMARK SMILES IDX 29 1 28 2 27 3 26 4 25 5 24 6 23 7 22 8 20 9 21 10 19 11
REMARK SMILES IDX 3 12 4 13 5 14 18 15 6 16 2 17 1 18 7 19 8 20 9 21 10 22
REMARK SMILES IDX 11 23 17 24 12 25 15 26 13 27 14 28 16 29 30 30 31 31 32 32
REMARK SMILES IDX 33 33 34 34 35 35 36 36 37 37 38 38 99 39 39 40 98 41 40 42
REMARK SMILES IDX 41 43 42 44 92 45 43 46 97 47 91 48 93 49 44 50 96 51 90 52
REMARK SMILES IDX 89 53 45 55 77 56 57 57 76 58 58 59 61 60 75 61 94 62 59 63
REMARK SMILES IDX 60 64 74 66 95 67 62 68 46 69 47 70 55 71 48 72 54 73 56 74
REMARK SMILES IDX 53 75 49 76 50 77 51 78 52 79 78 80 79 81 87 82 80 83 86 84
REMARK SMILES IDX 88 85 85 86 81 87 82 88 83 89 84 90 63 91 64 92 72 93 65 94
REMARK SMILES IDX 71 95 73 96 70 97 66 98 67 99 68 100 69 101
REMARK H PARENT 93 54 61 65
REMARK Flexibility Score: inf
ROOT
ATOM      1  C   UNL A   1      39.438  23.755  27.665  1.00  0.00     0.188 C 
ENDROOT
BRANCH   1   2
ATOM      2  O   UNL A   1      38.671  24.533  26.747  1.00  0.00    -0.377 OA
BRANCH   2   3
ATOM      3  C   UNL A   1      38.144  23.913  25.586  1.00  0.00     0.188 C 
BRANCH   3   4
ATOM      4  C   UNL A   1      36.613  23.817  25.450  1.00  0.00     0.188 C 
BRANCH   4   5
ATOM      5  O   UNL A   1      36.023  22.975  26.417  1.00  0.00    -0.376 OA
BRANCH   5   6
ATOM      6  C   UNL A   1      36.051  21.579  26.207  1.00  0.00     0.202 C 
BRANCH   6   7
ATOM      7  C   UNL A   1      35.708  20.993  24.826  1.00  0.00     0.261 C 
BRANCH   7   8
ATOM      8  O   UNL A   1      34.742  19.931  24.815  1.00  0.00    -0.460 OA
BRANCH   8   9
ATOM      9  C   UNL A   1      33.516  20.213  25.306  1.00  0.00     0.342 C 
ATOM     10  O   UNL A   1      33.046  19.805  26.356  1.00  0.00    -0.246 OA
BRANCH   9  11
ATOM     11  C   UNL A   1      32.865  21.294  24.530  1.00  0.00     0.103 A 
ATOM     12  C   UNL A   1      32.311  21.187  23.257  1.00  0.00     0.133 A 
ATOM     13  C   UNL A   1      31.513  22.254  22.794  1.00  0.00     0.049 A 
ATOM     14  C   UNL A   1      31.244  23.383  23.585  1.00  0.00     0.025 A 
ATOM     15  C   UNL A   1      32.642  22.465  25.283  1.00  0.00     0.041 A 
ATOM     16  C   UNL A   1      31.800  23.480  24.857  1.00  0.00     0.083 A 
BRANCH  12  17
ATOM     17  O   UNL A   1      32.329  20.130  22.395  1.00  0.00    -0.496 OA
ATOM     18  C   UNL A   1      32.129  18.825  22.923  1.00  0.00     0.278 C 
ENDBRANCH  12  17
BRANCH  16  19
ATOM     19  S   UNL A   1      31.288  24.819  25.927  1.00  0.00     0.243 S 
ATOM     20  O   UNL A   1      29.988  25.236  25.441  1.00  0.00    -0.207 OA
ATOM     21  O   UNL A   1      31.457  24.328  27.279  1.00  0.00    -0.207 OA
BRANCH  19  22
ATOM     22  N   UNL A   1      32.349  26.112  25.717  1.00  0.00    -0.197 NA
ATOM     23  C   UNL A   1      33.229  26.267  24.543  1.00  0.00     0.105 C 
ATOM     24  C   UNL A   1      32.419  27.216  26.678  1.00  0.00     0.105 C 
ATOM     25  C   UNL A   1      32.881  27.552  23.774  1.00  0.00     0.001 C 
ATOM     26  C   UNL A   1      31.898  28.477  25.998  1.00  0.00     0.001 C 
ATOM     27  C   UNL A   1      33.871  27.848  22.651  1.00  0.00     0.009 C 
ATOM     28  C   UNL A   1      32.696  28.771  24.706  1.00  0.00     0.009 C 
ATOM     29  C   UNL A   1      31.925  29.664  26.965  1.00  0.00     0.009 C 
ENDBRANCH  19  22
ENDBRANCH  16  19
ENDBRANCH   9  11
ENDBRANCH   8   9
ENDBRANCH   7   8
ENDBRANCH   6   7
ENDBRANCH   5   6
ENDBRANCH   4   5
ENDBRANCH   3   4
ENDBRANCH   2   3
ENDBRANCH   1   2
BRANCH   1  30
ATOM     30  C   UNL A   1      40.528  22.774  27.174  1.00  0.00     0.188 C 
BRANCH  30  31
ATOM     31  O   UNL A   1      40.233  21.394  27.362  1.00  0.00    -0.376 OA
BRANCH  31  32
ATOM     32  C   UNL A   1      40.682  20.520  26.334  1.00  0.00     0.202 C 
BRANCH  32  33
ATOM     33  C   UNL A   1      42.200  20.303  26.316  1.00  0.00     0.261 C 
BRANCH  33  34
ATOM     34  O   UNL A   1      42.900  21.016  25.284  1.00  0.00    -0.460 OA
BRANCH  34  35
ATOM     35  C   UNL A   1      44.146  21.459  25.568  1.00  0.00     0.338 C 
ATOM     36  O   UNL A   1      45.202  20.913  25.301  1.00  0.00    -0.246 OA
BRANCH  35  37
ATOM     37  C   UNL A   1      44.008  22.833  26.085  1.00  0.00     0.060 A 
ATOM     38  C   UNL A   1      43.684  23.867  25.197  1.00  0.00     0.016 A 
ATOM     39  C   UNL A   1      44.144  23.083  27.453  1.00  0.00     0.016 A 
ATOM     40  C   UNL A   1      43.501  25.163  25.679  1.00  0.00     0.010 A 
ATOM     41  C   UNL A   1      43.981  24.382  27.930  1.00  0.00     0.010 A 
ATOM     42  C   UNL A   1      43.677  25.430  27.044  1.00  0.00    -0.014 A 
BRANCH  42  43
ATOM     43  C   UNL A   1      43.711  26.827  27.533  1.00  0.00     0.031 A 
ATOM     44  C   UNL A   1      45.048  27.496  27.677  1.00  0.00     0.074 A 
ATOM     45  C   UNL A   1      42.584  27.470  27.881  1.00  0.00     0.049 A 
ATOM     46  N   UNL A   1      45.343  28.673  28.161  1.00  0.00    -0.248 NA
ATOM     47  C   UNL A   1      46.210  26.717  27.222  1.00  0.00     0.031 C 
ATOM     48  C   UNL A   1      41.233  26.925  27.769  1.00  0.00     0.029 A 
ATOM     49  N   UNL A   1      42.402  28.717  28.425  1.00  0.00    -0.354 N 
ATOM     50  C   UNL A   1      46.727  28.778  28.074  1.00  0.00     0.074 A 
ATOM     51  C   UNL A   1      47.209  27.529  27.525  1.00  0.00     0.031 C 
ATOM     52  C   UNL A   1      40.361  27.821  28.264  1.00  0.00     0.029 A 
ATOM     53  C   UNL A   1      41.096  28.985  28.757  1.00  0.00     0.049 A 
ATOM     54  H   UNL A   1      43.137  29.357  28.564  1.00  0.00     0.167 HD
ATOM     55  C   UNL A   1      47.518  29.824  28.416  1.00  0.00     0.034 A 
ATOM     56  C   UNL A   1      40.563  30.032  29.419  1.00  0.00     0.034 A 
ATOM     57  C   UNL A   1      47.017  31.046  28.994  1.00  0.00     0.049 A 
ATOM     58  C   UNL A   1      41.469  31.149  29.877  1.00  0.00     0.074 A 
ATOM     59  C   UNL A   1      47.717  32.191  29.334  1.00  0.00     0.029 A 
ATOM     60  N   UNL A   1      45.693  31.272  29.350  1.00  0.00    -0.354 N 
ATOM     61  N   UNL A   1      42.770  31.267  29.740  1.00  0.00    -0.248 NA
ATOM     62  C   UNL A   1      40.833  32.273  30.577  1.00  0.00     0.031 C 
ATOM     63  C   UNL A   1      46.833  33.071  29.970  1.00  0.00     0.029 A 
ATOM     64  C   UNL A   1      45.564  32.513  29.957  1.00  0.00     0.049 A 
ATOM     65  H   UNL A   1      44.953  30.641  29.195  1.00  0.00     0.167 HD
ATOM     66  C   UNL A   1      43.107  32.484  30.330  1.00  0.00     0.074 A 
ATOM     67  C   UNL A   1      41.868  33.069  30.803  1.00  0.00     0.031 C 
ATOM     68  C   UNL A   1      44.327  33.067  30.461  1.00  0.00     0.034 A 
BRANCH  55  69
ATOM     69  C   UNL A   1      49.005  29.644  28.233  1.00  0.00     0.023 A 
ATOM     70  C   UNL A   1      49.595  29.600  26.957  1.00  0.00     0.031 A 
ATOM     71  C   UNL A   1      49.837  29.440  29.349  1.00  0.00     0.131 A 
ATOM     72  C   UNL A   1      50.951  29.266  26.823  1.00  0.00     0.055 A 
ATOM     73  C   UNL A   1      51.204  29.193  29.213  1.00  0.00     0.041 A 
ATOM     74  F   UNL A   1      49.327  29.446  30.591  1.00  0.00    -0.206 F 
ATOM     75  C   UNL A   1      51.765  29.085  27.944  1.00  0.00     0.022 A 
BRANCH  72  76
ATOM     76  S   UNL A   1      51.590  28.894  25.166  1.00  0.00     0.124 S 
ATOM     77  O   UNL A   1      50.360  28.612  24.430  1.00  0.00    -0.237 OA
ATOM     78  O   UNL A   1      52.280  30.128  24.811  1.00  0.00    -0.237 OA
ATOM     79  O   UNL A   1      52.454  27.735  25.385  1.00  0.00    -0.744 OA
ENDBRANCH  72  76
ENDBRANCH  55  69
BRANCH  56  80
ATOM     80  C   UNL A   1      39.111  30.039  29.752  1.00  0.00     0.023 A 
ATOM     81  C   UNL A   1      38.184  30.758  28.981  1.00  0.00     0.031 A 
ATOM     82  C   UNL A   1      38.632  29.327  30.867  1.00  0.00     0.131 A 
ATOM     83  C   UNL A   1      36.829  30.766  29.350  1.00  0.00     0.055 A 
ATOM     84  C   UNL A   1      37.279  29.306  31.206  1.00  0.00     0.041 A 
ATOM     85  F   UNL A   1      39.479  28.621  31.634  1.00  0.00    -0.206 F 
ATOM     86  C   UNL A   1      36.369  30.036  30.449  1.00  0.00     0.022 A 
BRANCH  83  87
ATOM     87  S   UNL A   1      35.671  31.781  28.391  1.00  0.00     0.124 S 
ATOM     88  O   UNL A   1      36.524  32.883  27.961  1.00  0.00    -0.237 OA
ATOM     89  O   UNL A   1      35.247  30.853  27.347  1.00  0.00    -0.237 OA
ATOM     90  O   UNL A   1      34.638  32.132  29.363  1.00  0.00    -0.744 OA
ENDBRANCH  83  87
ENDBRANCH  56  80
BRANCH  68  91
ATOM     91  C   UNL A   1      44.375  34.415  31.140  1.00  0.00     0.023 A 
ATOM     92  C   UNL A   1      44.289  35.613  30.408  1.00  0.00     0.031 A 
ATOM     93  C   UNL A   1      44.509  34.504  32.537  1.00  0.00     0.131 A 
ATOM     94  C   UNL A   1      44.384  36.847  31.072  1.00  0.00     0.055 A 
ATOM     95  C   UNL A   1      44.543  35.732  33.198  1.00  0.00     0.041 A 
ATOM     96  F   UNL A   1      44.600  33.392  33.286  1.00  0.00    -0.206 F 
ATOM     97  C   UNL A   1      44.491  36.913  32.464  1.00  0.00     0.022 A 
BRANCH  94  98
ATOM     98  S   UNL A   1      44.446  38.367  30.084  1.00  0.00     0.124 S 
ATOM     99  O   UNL A   1      43.955  37.906  28.788  1.00  0.00    -0.237 OA
ATOM    100  O   UNL A   1      43.557  39.258  30.823  1.00  0.00    -0.237 OA
ATOM    101  O   UNL A   1      45.859  38.738  30.114  1.00  0.00    -0.744 OA
ENDBRANCH  94  98
ENDBRANCH  68  91
ENDBRANCH  42  43
ENDBRANCH  35  37
ENDBRANCH  34  35
ENDBRANCH  33  34
ENDBRANCH  32  33
ENDBRANCH  31  32
ENDBRANCH  30  31
ENDBRANCH   1  30
TORSDOF 26
ENDMDL
MODEL 2
REMARK VINA RESULT:      -8.8      2.949      7.955
REMARK SMILES COc1ccc(S(=O)(=O)N2C[C@H](C)C[C@H](C)C2)cc1C(=O)OCCOCCOCCOCCOC(=O)c1ccc(-c2c3nc(c(-c4cc(S(=O)(=O)[O-])ccc4F)c4ccc([nH]4)c(-c4cc(S(=O)(=O)[O-])ccc4F)c4nc(c(-c5cc(S(=O)(=O)[O-])ccc5F)c5ccc2[nH]5)C=C4)C=C3)cc1
REMARK SMILES IDX 29 1 28 2 27 3 26 4 25 5 24 6 23 7 22 8 20 9 21 10 19 11
REMARK SMILES IDX 3 12 4 13 5 14 18 15 6 16 2 17 1 18 7 19 8 20 9 21 10 22
REMARK SMILES IDX 11 23 17 24 12 25 15 26 13 27 14 28 16 29 30 30 31 31 32 32
REMARK SMILES IDX 33 33 34 34 35 35 36 36 37 37 38 38 99 39 39 40 98 41 40 42
REMARK SMILES IDX 41 43 42 44 92 45 43 46 97 47 91 48 93 49 44 50 96 51 90 52
REMARK SMILES IDX 89 53 45 55 77 56 57 57 76 58 58 59 61 60 75 61 94 62 59 63
REMARK SMILES IDX 60 64 74 66 95 67 62 68 46 69 47 70 55 71 48 72 54 73 56 74
REMARK SMILES IDX 53 75 49 76 50 77 51 78 52 79 78 80 79 81 87 82 80 83 86 84
REMARK SMILES IDX 88 85 85 86 81 87 82 88 83 89 84 90 63 91 64 92 72 93 65 94
REMARK SMILES IDX 71 95 73 96 70 97 66 98 67 99 68 100 69 101
REMARK H PARENT 93 54 61 65
REMARK Flexibility Score: inf
ROOT
ATOM      1  C   UNL A   1      42.221  23.163  25.745  1.00  0.00     0.188 C 
ENDROOT
BRANCH   1   2
ATOM      2  O   UNL A   1      42.475  24.488  26.207  1.00  0.00    -0.377 OA
BRANCH   2   3
ATOM      3  C   UNL A   1      41.407  25.255  26.736  1.00  0.00     0.188 C 
BRANCH   3   4
ATOM      4  C   UNL A   1      40.802  24.820  28.083  1.00  0.00     0.188 C 
BRANCH   4   5
ATOM      5  O   UNL A   1      39.500  24.287  27.959  1.00  0.00    -0.376 OA
BRANCH   5   6
ATOM      6  C   UNL A   1      38.827  24.425  26.726  1.00  0.00     0.202 C 
BRANCH   6   7
ATOM      7  C   UNL A   1      38.065  23.236  26.116  1.00  0.00     0.261 C 
BRANCH   7   8
ATOM      8  O   UNL A   1      36.915  23.566  25.321  1.00  0.00    -0.460 OA
BRANCH   8   9
ATOM      9  C   UNL A   1      36.421  22.594  24.524  1.00  0.00     0.342 C 
ATOM     10  O   UNL A   1      37.072  21.822  23.838  1.00  0.00    -0.246 OA
BRANCH   9  11
ATOM     11  C   UNL A   1      34.972  22.397  24.756  1.00  0.00     0.103 A 
ATOM     12  C   UNL A   1      34.329  21.191  25.025  1.00  0.00     0.133 A 
ATOM     13  C   UNL A   1      32.992  21.242  25.470  1.00  0.00     0.049 A 
ATOM     14  C   UNL A   1      32.319  22.459  25.674  1.00  0.00     0.025 A 
ATOM     15  C   UNL A   1      34.260  23.605  24.901  1.00  0.00     0.041 A 
ATOM     16  C   UNL A   1      32.971  23.658  25.406  1.00  0.00     0.083 A 
BRANCH  12  17
ATOM     17  O   UNL A   1      34.838  19.925  25.030  1.00  0.00    -0.496 OA
ATOM     18  C   UNL A   1      33.991  18.856  24.628  1.00  0.00     0.278 C 
ENDBRANCH  12  17
BRANCH  16  19
ATOM     19  S   UNL A   1      32.178  25.196  25.862  1.00  0.00     0.243 S 
ATOM     20  O   UNL A   1      31.196  24.849  26.869  1.00  0.00    -0.207 OA
ATOM     21  O   UNL A   1      33.253  26.120  26.156  1.00  0.00    -0.207 OA
BRANCH  19  22
ATOM     22  N   UNL A   1      31.345  25.791  24.522  1.00  0.00    -0.197 NA
ATOM     23  C   UNL A   1      30.465  26.975  24.565  1.00  0.00     0.105 C 
ATOM     24  C   UNL A   1      31.494  25.192  23.193  1.00  0.00     0.105 C 
ATOM     25  C   UNL A   1      31.000  28.076  23.636  1.00  0.00     0.001 C 
ATOM     26  C   UNL A   1      32.198  26.199  22.291  1.00  0.00     0.001 C 
ATOM     27  C   UNL A   1      30.037  29.254  23.511  1.00  0.00     0.009 C 
ATOM     28  C   UNL A   1      31.419  27.535  22.251  1.00  0.00     0.009 C 
ATOM     29  C   UNL A   1      32.404  25.620  20.889  1.00  0.00     0.009 C 
ENDBRANCH  19  22
ENDBRANCH  16  19
ENDBRANCH   9  11
ENDBRANCH   8   9
ENDBRANCH   7   8
ENDBRANCH   6   7
ENDBRANCH   5   6
ENDBRANCH   4   5
ENDBRANCH   3   4
ENDBRANCH   2   3
ENDBRANCH   1   2
BRANCH   1  30
ATOM     30  C   UNL A   1      43.121  21.977  26.166  1.00  0.00     0.188 C 
BRANCH  30  31
ATOM     31  O   UNL A   1      44.025  21.517  25.168  1.00  0.00    -0.376 OA
BRANCH  31  32
ATOM     32  C   UNL A   1      44.263  22.412  24.089  1.00  0.00     0.202 C 
BRANCH  32  33
ATOM     33  C   UNL A   1      45.696  22.954  24.030  1.00  0.00     0.261 C 
BRANCH  33  34
ATOM     34  O   UNL A   1      45.882  24.242  24.637  1.00  0.00    -0.460 OA
BRANCH  34  35
ATOM     35  C   UNL A   1      46.235  24.271  25.943  1.00  0.00     0.338 C 
ATOM     36  O   UNL A   1      46.699  23.357  26.601  1.00  0.00    -0.246 OA
BRANCH  35  37
ATOM     37  C   UNL A   1      46.148  25.676  26.382  1.00  0.00     0.060 A 
ATOM     38  C   UNL A   1      46.478  25.998  27.705  1.00  0.00     0.016 A 
ATOM     39  C   UNL A   1      45.796  26.674  25.470  1.00  0.00     0.016 A 
ATOM     40  C   UNL A   1      46.449  27.330  28.122  1.00  0.00     0.010 A 
ATOM     41  C   UNL A   1      45.746  28.001  25.894  1.00  0.00     0.010 A 
ATOM     42  C   UNL A   1      46.055  28.332  27.225  1.00  0.00    -0.014 A 
BRANCH  42  43
ATOM     43  C   UNL A   1      45.800  29.708  27.708  1.00  0.00     0.031 A 
ATOM     44  C   UNL A   1      44.481  29.996  28.364  1.00  0.00     0.074 A 
ATOM     45  C   UNL A   1      46.703  30.687  27.528  1.00  0.00     0.049 A 
ATOM     46  N   UNL A   1      43.992  31.131  28.789  1.00  0.00    -0.248 NA
ATOM     47  C   UNL A   1      43.589  28.842  28.551  1.00  0.00     0.031 C 
ATOM     48  C   UNL A   1      48.020  30.518  26.918  1.00  0.00     0.029 A 
ATOM     49  N   UNL A   1      46.634  32.026  27.821  1.00  0.00    -0.354 N 
ATOM     50  C   UNL A   1      42.731  30.831  29.292  1.00  0.00     0.074 A 
ATOM     51  C   UNL A   1      42.521  29.414  29.083  1.00  0.00     0.031 C 
ATOM     52  C   UNL A   1      48.623  31.718  26.849  1.00  0.00     0.029 A 
ATOM     53  C   UNL A   1      47.722  32.741  27.380  1.00  0.00     0.049 A 
ATOM     54  H   UNL A   1      45.878  32.435  28.301  1.00  0.00     0.167 HD
ATOM     55  C   UNL A   1      41.835  31.662  29.879  1.00  0.00     0.034 A 
ATOM     56  C   UNL A   1      47.943  34.071  27.368  1.00  0.00     0.034 A 
ATOM     57  C   UNL A   1      42.052  33.078  30.045  1.00  0.00     0.049 A 
ATOM     58  C   UNL A   1      46.897  34.995  27.942  1.00  0.00     0.074 A 
ATOM     59  C   UNL A   1      41.239  34.008  30.669  1.00  0.00     0.029 A 
ATOM     60  N   UNL A   1      43.149  33.776  29.555  1.00  0.00    -0.354 N 
ATOM     61  N   UNL A   1      45.731  34.697  28.468  1.00  0.00    -0.248 NA
ATOM     62  C   UNL A   1      47.199  36.432  27.921  1.00  0.00     0.031 C 
ATOM     63  C   UNL A   1      41.803  35.276  30.481  1.00  0.00     0.029 A 
ATOM     64  C   UNL A   1      43.009  35.132  29.812  1.00  0.00     0.049 A 
ATOM     65  H   UNL A   1      43.916  33.367  29.091  1.00  0.00     0.167 HD
ATOM     66  C   UNL A   1      45.163  35.912  28.849  1.00  0.00     0.074 A 
ATOM     67  C   UNL A   1      46.126  36.940  28.511  1.00  0.00     0.031 C 
ATOM     68  C   UNL A   1      43.961  36.153  29.432  1.00  0.00     0.034 A 
BRANCH  55  69
ATOM     69  C   UNL A   1      40.522  31.056  30.311  1.00  0.00     0.023 A 
ATOM     70  C   UNL A   1      39.378  31.106  29.494  1.00  0.00     0.031 A 
ATOM     71  C   UNL A   1      40.392  30.485  31.589  1.00  0.00     0.131 A 
ATOM     72  C   UNL A   1      38.139  30.682  29.996  1.00  0.00     0.055 A 
ATOM     73  C   UNL A   1      39.173  29.985  32.051  1.00  0.00     0.041 A 
ATOM     74  F   UNL A   1      41.442  30.431  32.424  1.00  0.00    -0.206 F 
ATOM     75  C   UNL A   1      38.033  30.100  31.261  1.00  0.00     0.022 A 
BRANCH  72  76
ATOM     76  S   UNL A   1      36.643  31.067  29.045  1.00  0.00     0.124 S 
ATOM     77  O   UNL A   1      36.880  32.459  28.668  1.00  0.00    -0.237 OA
ATOM     78  O   UNL A   1      36.699  30.093  27.962  1.00  0.00    -0.237 OA
ATOM     79  O   UNL A   1      35.563  30.868  30.010  1.00  0.00    -0.744 OA
ENDBRANCH  72  76
ENDBRANCH  55  69
BRANCH  56  80
ATOM     80  C   UNL A   1      49.176  34.613  26.729  1.00  0.00     0.023 A 
ATOM     81  C   UNL A   1      50.379  34.733  27.440  1.00  0.00     0.031 A 
ATOM     82  C   UNL A   1      49.156  35.032  25.386  1.00  0.00     0.131 A 
ATOM     83  C   UNL A   1      51.509  35.281  26.810  1.00  0.00     0.055 A 
ATOM     84  C   UNL A   1      50.291  35.540  24.753  1.00  0.00     0.041 A 
ATOM     85  F   UNL A   1      48.028  34.936  24.663  1.00  0.00    -0.206 F 
ATOM     86  C   UNL A   1      51.476  35.674  25.469  1.00  0.00     0.022 A 
BRANCH  83  87
ATOM     87  S   UNL A   1      53.023  35.512  27.782  1.00  0.00     0.124 S 
ATOM     88  O   UNL A   1      53.481  34.138  27.953  1.00  0.00    -0.237 OA
ATOM     89  O   UNL A   1      53.826  36.351  26.897  1.00  0.00    -0.237 OA
ATOM     90  O   UNL A   1      52.551  36.170  28.998  1.00  0.00    -0.744 OA
ENDBRANCH  83  87
ENDBRANCH  56  80
BRANCH  68  91
ATOM     91  C   UNL A   1      43.625  37.591  29.747  1.00  0.00     0.023 A 
ATOM     92  C   UNL A   1      43.765  38.114  31.044  1.00  0.00     0.031 A 
ATOM     93  C   UNL A   1      43.158  38.451  28.736  1.00  0.00     0.131 A 
ATOM     94  C   UNL A   1      43.400  39.444  31.306  1.00  0.00     0.055 A 
ATOM     95  C   UNL A   1      42.853  39.788  28.989  1.00  0.00     0.041 A 
ATOM     96  F   UNL A   1      43.001  38.004  27.479  1.00  0.00    -0.206 F 
ATOM     97  C   UNL A   1      42.962  40.289  30.283  1.00  0.00     0.022 A 
BRANCH  94  98
ATOM     98  S   UNL A   1      43.426  40.036  33.020  1.00  0.00     0.124 S 
ATOM     99  O   UNL A   1      42.453  41.124  32.980  1.00  0.00    -0.237 OA
ATOM    100  O   UNL A   1      43.025  38.849  33.769  1.00  0.00    -0.237 OA
ATOM    101  O   UNL A   1      44.813  40.453  33.218  1.00  0.00    -0.744 OA
ENDBRANCH  94  98
ENDBRANCH  68  91
ENDBRANCH  42  43
ENDBRANCH  35  37
ENDBRANCH  34  35
ENDBRANCH  33  34
ENDBRANCH  32  33
ENDBRANCH  31  32
ENDBRANCH  30  31
ENDBRANCH   1  30
TORSDOF 26
ENDMDL
MODEL 3
REMARK VINA RESULT:      -8.3      4.156     10.692
REMARK SMILES COc1ccc(S(=O)(=O)N2C[C@H](C)C[C@H](C)C2)cc1C(=O)OCCOCCOCCOCCOC(=O)c1ccc(-c2c3nc(c(-c4cc(S(=O)(=O)[O-])ccc4F)c4ccc([nH]4)c(-c4cc(S(=O)(=O)[O-])ccc4F)c4nc(c(-c5cc(S(=O)(=O)[O-])ccc5F)c5ccc2[nH]5)C=C4)C=C3)cc1
REMARK SMILES IDX 29 1 28 2 27 3 26 4 25 5 24 6 23 7 22 8 20 9 21 10 19 11
REMARK SMILES IDX 3 12 4 13 5 14 18 15 6 16 2 17 1 18 7 19 8 20 9 21 10 22
REMARK SMILES IDX 11 23 17 24 12 25 15 26 13 27 14 28 16 29 30 30 31 31 32 32
REMARK SMILES IDX 33 33 34 34 35 35 36 36 37 37 38 38 99 39 39 40 98 41 40 42
REMARK SMILES IDX 41 43 42 44 92 45 43 46 97 47 91 48 93 49 44 50 96 51 90 52
REMARK SMILES IDX 89 53 45 55 77 56 57 57 76 58 58 59 61 60 75 61 94 62 59 63
REMARK SMILES IDX 60 64 74 66 95 67 62 68 46 69 47 70 55 71 48 72 54 73 56 74
REMARK SMILES IDX 53 75 49 76 50 77 51 78 52 79 78 80 79 81 87 82 80 83 86 84
REMARK SMILES IDX 88 85 85 86 81 87 82 88 83 89 84 90 63 91 64 92 72 93 65 94
REMARK SMILES IDX 71 95 73 96 70 97 66 98 67 99 68 100 69 101
REMARK H PARENT 93 54 61 65
REMARK Flexibility Score: inf
ROOT
ATOM      1  C   UNL A   1      44.535  20.978  24.757  1.00  0.00     0.188 C 
ENDROOT
BRANCH   1   2
ATOM      2  O   UNL A   1      44.392  22.016  25.726  1.00  0.00    -0.377 OA
BRANCH   2   3
ATOM      3  C   UNL A   1      45.549  22.560  26.335  1.00  0.00     0.188 C 
BRANCH   3   4
ATOM      4  C   UNL A   1      45.669  24.093  26.419  1.00  0.00     0.188 C 
BRANCH   4   5
ATOM      5  O   UNL A   1      46.943  24.571  26.042  1.00  0.00    -0.376 OA
BRANCH   5   6
ATOM      6  C   UNL A   1      47.128  25.031  24.720  1.00  0.00     0.202 C 
BRANCH   6   7
ATOM      7  C   UNL A   1      47.505  26.499  24.451  1.00  0.00     0.261 C 
BRANCH   7   8
ATOM      8  O   UNL A   1      48.244  26.748  23.246  1.00  0.00    -0.460 OA
BRANCH   8   9
ATOM      9  C   UNL A   1      49.582  26.888  23.364  1.00  0.00     0.342 C 
ATOM     10  O   UNL A   1      50.269  26.503  24.298  1.00  0.00    -0.246 OA
BRANCH   9  11
ATOM     11  C   UNL A   1      50.185  27.360  22.097  1.00  0.00     0.103 A 
ATOM     12  C   UNL A   1      49.890  26.904  20.814  1.00  0.00     0.133 A 
ATOM     13  C   UNL A   1      50.377  27.652  19.722  1.00  0.00     0.049 A 
ATOM     14  C   UNL A   1      51.108  28.838  19.895  1.00  0.00     0.025 A 
ATOM     15  C   UNL A   1      50.979  28.515  22.253  1.00  0.00     0.041 A 
ATOM     16  C   UNL A   1      51.395  29.288  21.180  1.00  0.00     0.083 A 
BRANCH  12  17
ATOM     17  O   UNL A   1      49.086  25.871  20.430  1.00  0.00    -0.496 OA
ATOM     18  C   UNL A   1      49.671  24.792  19.712  1.00  0.00     0.278 C 
ENDBRANCH  12  17
BRANCH  16  19
ATOM     19  S   UNL A   1      52.147  30.898  21.388  1.00  0.00     0.243 S 
ATOM     20  O   UNL A   1      51.796  31.652  20.201  1.00  0.00    -0.207 OA
ATOM     21  O   UNL A   1      51.748  31.350  22.704  1.00  0.00    -0.207 OA
BRANCH  19  22
ATOM     22  N   UNL A   1      53.823  30.713  21.397  1.00  0.00    -0.197 NA
ATOM     23  C   UNL A   1      54.755  31.730  21.921  1.00  0.00     0.105 C 
ATOM     24  C   UNL A   1      54.465  29.481  20.931  1.00  0.00     0.105 C 
ATOM     25  C   UNL A   1      55.555  31.166  23.107  1.00  0.00     0.001 C 
ATOM     26  C   UNL A   1      55.112  28.796  22.129  1.00  0.00     0.001 C 
ATOM     27  C   UNL A   1      56.653  32.117  23.576  1.00  0.00     0.009 C 
ATOM     28  C   UNL A   1      56.107  29.749  22.833  1.00  0.00     0.009 C 
ATOM     29  C   UNL A   1      55.782  27.486  21.708  1.00  0.00     0.009 C 
ENDBRANCH  19  22
ENDBRANCH  16  19
ENDBRANCH   9  11
ENDBRANCH   8   9
ENDBRANCH   7   8
ENDBRANCH   6   7
ENDBRANCH   5   6
ENDBRANCH   4   5
ENDBRANCH   3   4
ENDBRANCH   2   3
ENDBRANCH   1   2
BRANCH   1  30
ATOM     30  C   UNL A   1      44.076  19.530  25.055  1.00  0.00     0.188 C 
BRANCH  30  31
ATOM     31  O   UNL A   1      42.672  19.359  25.211  1.00  0.00    -0.376 OA
BRANCH  31  32
ATOM     32  C   UNL A   1      42.147  19.690  26.491  1.00  0.00     0.202 C 
BRANCH  32  33
ATOM     33  C   UNL A   1      40.773  20.369  26.447  1.00  0.00     0.261 C 
BRANCH  33  34
ATOM     34  O   UNL A   1      40.803  21.803  26.511  1.00  0.00    -0.460 OA
BRANCH  34  35
ATOM     35  C   UNL A   1      39.623  22.457  26.409  1.00  0.00     0.338 C 
ATOM     36  O   UNL A   1      38.528  21.972  26.184  1.00  0.00    -0.246 OA
BRANCH  35  37
ATOM     37  C   UNL A   1      39.865  23.851  26.824  1.00  0.00     0.060 A 
ATOM     38  C   UNL A   1      40.214  24.800  25.855  1.00  0.00     0.016 A 
ATOM     39  C   UNL A   1      39.691  24.224  28.159  1.00  0.00     0.016 A 
ATOM     40  C   UNL A   1      40.396  26.133  26.225  1.00  0.00     0.010 A 
ATOM     41  C   UNL A   1      39.895  25.552  28.530  1.00  0.00     0.010 A 
ATOM     42  C   UNL A   1      40.266  26.508  27.569  1.00  0.00    -0.014 A 
BRANCH  42  43
ATOM     43  C   UNL A   1      40.677  27.860  28.011  1.00  0.00     0.031 A 
ATOM     44  C   UNL A   1      42.144  28.173  28.062  1.00  0.00     0.074 A 
ATOM     45  C   UNL A   1      39.768  28.771  28.397  1.00  0.00     0.049 A 
ATOM     46  N   UNL A   1      42.751  29.247  28.493  1.00  0.00    -0.248 NA
ATOM     47  C   UNL A   1      43.045  27.120  27.572  1.00  0.00     0.031 C 
ATOM     48  C   UNL A   1      38.319  28.580  28.374  1.00  0.00     0.029 A 
ATOM     49  N   UNL A   1      39.936  30.033  28.911  1.00  0.00    -0.354 N 
ATOM     50  C   UNL A   1      44.110  29.000  28.330  1.00  0.00     0.074 A 
ATOM     51  C   UNL A   1      44.232  27.660  27.796  1.00  0.00     0.031 C 
ATOM     52  C   UNL A   1      37.730  29.675  28.886  1.00  0.00     0.029 A 
ATOM     53  C   UNL A   1      38.760  30.626  29.302  1.00  0.00     0.049 A 
ATOM     54  H   UNL A   1      40.814  30.470  28.990  1.00  0.00     0.167 HD
ATOM     55  C   UNL A   1      45.157  29.820  28.596  1.00  0.00     0.034 A 
ATOM     56  C   UNL A   1      38.545  31.785  29.958  1.00  0.00     0.034 A 
ATOM     57  C   UNL A   1      45.012  31.139  29.161  1.00  0.00     0.049 A 
ATOM     58  C   UNL A   1      39.727  32.647  30.332  1.00  0.00     0.074 A 
ATOM     59  C   UNL A   1      45.994  32.077  29.426  1.00  0.00     0.029 A 
ATOM     60  N   UNL A   1      43.809  31.695  29.579  1.00  0.00    -0.354 N 
ATOM     61  N   UNL A   1      41.006  32.432  30.122  1.00  0.00    -0.248 NA
ATOM     62  C   UNL A   1      39.434  33.906  31.028  1.00  0.00     0.031 C 
ATOM     63  C   UNL A   1      45.396  33.161  30.080  1.00  0.00     0.029 A 
ATOM     64  C   UNL A   1      44.030  32.940  30.152  1.00  0.00     0.049 A 
ATOM     65  H   UNL A   1      42.927  31.269  29.483  1.00  0.00     0.167 HD
ATOM     66  C   UNL A   1      41.670  33.536  30.654  1.00  0.00     0.074 A 
ATOM     67  C   UNL A   1      40.647  34.421  31.174  1.00  0.00     0.031 C 
ATOM     68  C   UNL A   1      43.002  33.795  30.702  1.00  0.00     0.034 A 
BRANCH  55  69
ATOM     69  C   UNL A   1      46.538  29.269  28.341  1.00  0.00     0.023 A 
ATOM     70  C   UNL A   1      47.236  28.535  29.317  1.00  0.00     0.031 A 
ATOM     71  C   UNL A   1      47.197  29.543  27.129  1.00  0.00     0.131 A 
ATOM     72  C   UNL A   1      48.577  28.185  29.104  1.00  0.00     0.055 A 
ATOM     73  C   UNL A   1      48.505  29.116  26.889  1.00  0.00     0.041 A 
ATOM     74  F   UNL A   1      46.592  30.260  26.169  1.00  0.00    -0.206 F 
ATOM     75  C   UNL A   1      49.209  28.450  27.887  1.00  0.00     0.022 A 
BRANCH  72  76
ATOM     76  S   UNL A   1      49.535  27.541  30.504  1.00  0.00     0.124 S 
ATOM     77  O   UNL A   1      50.824  28.202  30.312  1.00  0.00    -0.237 OA
ATOM     78  O   UNL A   1      48.753  27.985  31.651  1.00  0.00    -0.237 OA
ATOM     79  O   UNL A   1      49.546  26.097  30.276  1.00  0.00    -0.744 OA
ENDBRANCH  72  76
ENDBRANCH  55  69
BRANCH  56  80
ATOM     80  C   UNL A   1      37.163  32.162  30.366  1.00  0.00     0.023 A 
ATOM     81  C   UNL A   1      36.297  32.837  29.493  1.00  0.00     0.031 A 
ATOM     82  C   UNL A   1      36.694  31.857  31.657  1.00  0.00     0.131 A 
ATOM     83  C   UNL A   1      35.014  33.205  29.929  1.00  0.00     0.055 A 
ATOM     84  C   UNL A   1      35.405  32.191  32.074  1.00  0.00     0.041 A 
ATOM     85  F   UNL A   1      37.484  31.210  32.530  1.00  0.00    -0.206 F 
ATOM     86  C   UNL A   1      34.558  32.876  31.208  1.00  0.00     0.022 A 
BRANCH  83  87
ATOM     87  S   UNL A   1      33.953  34.161  28.810  1.00  0.00     0.124 S 
ATOM     88  O   UNL A   1      33.651  33.179  27.774  1.00  0.00    -0.237 OA
ATOM     89  O   UNL A   1      32.846  34.532  29.686  1.00  0.00    -0.237 OA
ATOM     90  O   UNL A   1      34.809  35.268  28.391  1.00  0.00    -0.744 OA
ENDBRANCH  83  87
ENDBRANCH  56  80
BRANCH  68  91
ATOM     91  C   UNL A   1      43.426  35.100  31.335  1.00  0.00     0.023 A 
ATOM     92  C   UNL A   1      43.624  35.216  32.722  1.00  0.00     0.031 A 
ATOM     93  C   UNL A   1      43.636  36.241  30.540  1.00  0.00     0.131 A 
ATOM     94  C   UNL A   1      43.974  36.458  33.277  1.00  0.00     0.055 A 
ATOM     95  C   UNL A   1      44.042  37.457  31.090  1.00  0.00     0.041 A 
ATOM     96  F   UNL A   1      43.458  36.188  29.210  1.00  0.00    -0.206 F 
ATOM     97  C   UNL A   1      44.202  37.574  32.468  1.00  0.00     0.022 A 
BRANCH  94  98
ATOM     98  S   UNL A   1      44.049  36.617  35.082  1.00  0.00     0.124 S 
ATOM     99  O   UNL A   1      44.266  35.234  35.499  1.00  0.00    -0.237 OA
ATOM    100  O   UNL A   1      45.176  37.525  35.271  1.00  0.00    -0.237 OA
ATOM    101  O   UNL A   1      42.743  37.171  35.433  1.00  0.00    -0.744 OA
ENDBRANCH  94  98
ENDBRANCH  68  91
ENDBRANCH  42  43
ENDBRANCH  35  37
ENDBRANCH  34  35
ENDBRANCH  33  34
ENDBRANCH  32  33
ENDBRANCH  31  32
ENDBRANCH  30  31
ENDBRANCH   1  30
TORSDOF 26
ENDMDL
