MODEL 1
REMARK VINA RESULT:     -10.0      0.000      0.000
REMARK SMILES O=C(OCCOCCOCCOCCOC(=O)c1ccc(-c2ccc(F)c(C(F)(F)F)c2)cc1[N+](=O)[O-])c1ccc(-c2c3nc(c(-c4cc(S(=O)(=O)[O-])ccc4F)c4ccc([nH]4)c(-c4cc(S(=O)(=O)[O-])ccc4F)c4nc(c(-c5cc(S(=O)(=O)[O-])ccc5F)c5ccc2[nH]5)C=C4)C=C3)cc1
REMARK SMILES IDX 8 1 7 2 6 3 5 4 4 5 3 6 2 7 1 8 38 9 39 10 100 11 40 12
REMARK SMILES IDX 99 13 41 14 42 15 43 16 93 17 44 18 98 19 92 20 94 21 45 22
REMARK SMILES IDX 97 23 91 24 90 25 46 27 78 28 58 29 77 30 59 31 62 32 76 33
REMARK SMILES IDX 95 34 60 35 61 36 75 38 96 39 63 40 47 41 48 42 56 43 49 44
REMARK SMILES IDX 55 45 57 46 54 47 50 48 51 49 52 50 53 51 79 52 80 53 88 54
REMARK SMILES IDX 81 55 87 56 89 57 86 58 82 59 83 60 84 61 85 62 64 63 65 64
REMARK SMILES IDX 73 65 66 66 72 67 74 68 71 69 67 70 68 71 69 72 70 73 9 74
REMARK SMILES IDX 10 75 11 76 12 77 13 78 14 79 15 80 16 81 17 82 18 83 19 84
REMARK SMILES IDX 34 85 20 86 33 87 21 88 35 89 36 90 37 91 22 92 23 93 32 94
REMARK SMILES IDX 24 95 27 96 25 97 26 98 28 99 29 100 30 101 31 102
REMARK H PARENT 94 26 62 37
REMARK Flexibility Score: inf
ROOT
ATOM      1  C   UNL A   1      31.387  31.712  26.507  1.00  0.00     0.188 C 
ENDROOT
BRANCH   1   2
ATOM      2  C   UNL A   1      31.821  33.136  26.874  1.00  0.00     0.188 C 
BRANCH   2   3
ATOM      3  O   UNL A   1      32.806  33.092  27.900  1.00  0.00    -0.376 OA
BRANCH   3   4
ATOM      4  C   UNL A   1      33.718  34.175  28.012  1.00  0.00     0.202 C 
BRANCH   4   5
ATOM      5  C   UNL A   1      33.265  35.364  28.863  1.00  0.00     0.261 C 
BRANCH   5   6
ATOM      6  O   UNL A   1      32.559  34.998  30.063  1.00  0.00    -0.460 OA
BRANCH   6   7
ATOM      7  C   UNL A   1      33.044  34.985  31.334  1.00  0.00     0.338 C 
ATOM      8  O   UNL A   1      32.411  35.542  32.228  1.00  0.00    -0.246 OA
BRANCH   7   9
ATOM      9  C   UNL A   1      34.314  34.298  31.684  1.00  0.00     0.060 A 
ATOM     10  C   UNL A   1      34.369  32.973  32.095  1.00  0.00     0.016 A 
ATOM     11  C   UNL A   1      35.524  34.980  31.509  1.00  0.00     0.016 A 
ATOM     12  C   UNL A   1      35.538  32.396  32.540  1.00  0.00     0.010 A 
ATOM     13  C   UNL A   1      36.738  34.356  31.831  1.00  0.00     0.010 A 
ATOM     14  C   UNL A   1      36.740  33.075  32.402  1.00  0.00    -0.014 A 
BRANCH  14  15
ATOM     15  C   UNL A   1      37.938  32.451  33.001  1.00  0.00     0.031 A 
ATOM     16  C   UNL A   1      38.722  31.489  32.160  1.00  0.00     0.074 A 
ATOM     17  C   UNL A   1      38.402  32.891  34.189  1.00  0.00     0.049 A 
ATOM     18  N   UNL A   1      39.760  30.766  32.477  1.00  0.00    -0.248 NA
ATOM     19  C   UNL A   1      38.280  31.327  30.764  1.00  0.00     0.031 C 
ATOM     20  C   UNL A   1      37.778  33.945  35.002  1.00  0.00     0.029 A 
ATOM     21  N   UNL A   1      39.525  32.558  34.897  1.00  0.00    -0.354 N 
ATOM     22  C   UNL A   1      40.070  30.037  31.334  1.00  0.00     0.074 A 
ATOM     23  C   UNL A   1      39.100  30.388  30.323  1.00  0.00     0.031 C 
ATOM     24  C   UNL A   1      38.556  34.202  36.064  1.00  0.00     0.029 A 
ATOM     25  C   UNL A   1      39.663  33.258  36.076  1.00  0.00     0.049 A 
ATOM     26  H   UNL A   1      40.173  31.883  34.592  1.00  0.00     0.167 HD
ATOM     27  C   UNL A   1      41.081  29.154  31.157  1.00  0.00     0.034 A 
ATOM     28  C   UNL A   1      40.555  33.105  37.074  1.00  0.00     0.034 A 
ATOM     29  C   UNL A   1      42.024  28.840  32.198  1.00  0.00     0.049 A 
ATOM     30  C   UNL A   1      41.594  32.026  36.901  1.00  0.00     0.074 A 
ATOM     31  C   UNL A   1      43.023  27.886  32.210  1.00  0.00     0.029 A 
ATOM     32  N   UNL A   1      42.082  29.496  33.425  1.00  0.00    -0.354 N 
ATOM     33  N   UNL A   1      41.804  31.242  35.865  1.00  0.00    -0.248 NA
ATOM     34  C   UNL A   1      42.505  31.799  38.025  1.00  0.00     0.031 C 
ATOM     35  C   UNL A   1      43.648  27.930  33.462  1.00  0.00     0.029 A 
ATOM     36  C   UNL A   1      43.090  28.960  34.205  1.00  0.00     0.049 A 
ATOM     37  H   UNL A   1      41.491  30.235  33.697  1.00  0.00     0.167 HD
ATOM     38  C   UNL A   1      42.880  30.433  36.213  1.00  0.00     0.074 A 
ATOM     39  C   UNL A   1      43.300  30.861  37.535  1.00  0.00     0.031 C 
ATOM     40  C   UNL A   1      43.464  29.419  35.523  1.00  0.00     0.034 A 
BRANCH  27  41
ATOM     41  C   UNL A   1      41.127  28.425  29.838  1.00  0.00     0.023 A 
ATOM     42  C   UNL A   1      42.043  28.771  28.827  1.00  0.00     0.031 A 
ATOM     43  C   UNL A   1      40.172  27.434  29.550  1.00  0.00     0.131 A 
ATOM     44  C   UNL A   1      41.934  28.189  27.555  1.00  0.00     0.055 A 
ATOM     45  C   UNL A   1      40.120  26.801  28.306  1.00  0.00     0.041 A 
ATOM     46  F   UNL A   1      39.249  27.089  30.462  1.00  0.00    -0.206 F 
ATOM     47  C   UNL A   1      40.994  27.188  27.295  1.00  0.00     0.022 A 
BRANCH  44  48
ATOM     48  S   UNL A   1      42.934  28.863  26.200  1.00  0.00     0.124 S 
ATOM     49  O   UNL A   1      44.058  27.929  26.171  1.00  0.00    -0.237 OA
ATOM     50  O   UNL A   1      42.020  28.795  25.066  1.00  0.00    -0.237 OA
ATOM     51  O   UNL A   1      43.266  30.212  26.655  1.00  0.00    -0.744 OA
ENDBRANCH  44  48
ENDBRANCH  27  41
BRANCH  28  52
ATOM     52  C   UNL A   1      40.443  33.889  38.345  1.00  0.00     0.023 A 
ATOM     53  C   UNL A   1      39.553  33.516  39.365  1.00  0.00     0.031 A 
ATOM     54  C   UNL A   1      41.170  35.083  38.522  1.00  0.00     0.131 A 
ATOM     55  C   UNL A   1      39.368  34.355  40.478  1.00  0.00     0.055 A 
ATOM     56  C   UNL A   1      41.038  35.875  39.665  1.00  0.00     0.041 A 
ATOM     57  F   UNL A   1      42.028  35.507  37.580  1.00  0.00    -0.206 F 
ATOM     58  C   UNL A   1      40.116  35.522  40.643  1.00  0.00     0.022 A 
BRANCH  55  59
ATOM     59  S   UNL A   1      38.035  33.969  41.648  1.00  0.00     0.124 S 
ATOM     60  O   UNL A   1      37.555  35.301  41.999  1.00  0.00    -0.237 OA
ATOM     61  O   UNL A   1      37.140  33.160  40.829  1.00  0.00    -0.237 OA
ATOM     62  O   UNL A   1      38.719  33.251  42.721  1.00  0.00    -0.744 OA
ENDBRANCH  55  59
ENDBRANCH  28  52
BRANCH  40  63
ATOM     63  C   UNL A   1      44.635  28.749  36.192  1.00  0.00     0.023 A 
ATOM     64  C   UNL A   1      44.448  27.763  37.174  1.00  0.00     0.031 A 
ATOM     65  C   UNL A   1      45.948  29.125  35.864  1.00  0.00     0.131 A 
ATOM     66  C   UNL A   1      45.556  27.241  37.852  1.00  0.00     0.055 A 
ATOM     67  C   UNL A   1      47.051  28.547  36.489  1.00  0.00     0.041 A 
ATOM     68  F   UNL A   1      46.178  30.064  34.931  1.00  0.00    -0.206 F 
ATOM     69  C   UNL A   1      46.858  27.611  37.502  1.00  0.00     0.022 A 
BRANCH  66  70
ATOM     70  S   UNL A   1      45.266  26.162  39.279  1.00  0.00     0.124 S 
ATOM     71  O   UNL A   1      46.507  26.317  40.031  1.00  0.00    -0.237 OA
ATOM     72  O   UNL A   1      44.078  26.756  39.882  1.00  0.00    -0.237 OA
ATOM     73  O   UNL A   1      45.064  24.845  38.676  1.00  0.00    -0.744 OA
ENDBRANCH  66  70
ENDBRANCH  40  63
ENDBRANCH  14  15
ENDBRANCH   7   9
ENDBRANCH   6   7
ENDBRANCH   5   6
ENDBRANCH   4   5
ENDBRANCH   3   4
ENDBRANCH   2   3
ENDBRANCH   1   2
BRANCH   1  74
ATOM     74  O   UNL A   1      32.378  30.702  26.723  1.00  0.00    -0.377 OA
BRANCH  74  75
ATOM     75  C   UNL A   1      32.160  29.466  26.046  1.00  0.00     0.188 C 
BRANCH  75  76
ATOM     76  C   UNL A   1      31.992  29.478  24.507  1.00  0.00     0.188 C 
BRANCH  76  77
ATOM     77  O   UNL A   1      30.642  29.399  24.073  1.00  0.00    -0.376 OA
BRANCH  77  78
ATOM     78  C   UNL A   1      30.457  29.058  22.703  1.00  0.00     0.202 C 
BRANCH  78  79
ATOM     79  C   UNL A   1      30.656  27.578  22.333  1.00  0.00     0.261 C 
BRANCH  79  80
ATOM     80  O   UNL A   1      31.548  26.842  23.187  1.00  0.00    -0.459 OA
BRANCH  80  81
ATOM     81  C   UNL A   1      31.128  25.657  23.674  1.00  0.00     0.345 C 
ATOM     82  O   UNL A   1      30.008  25.180  23.617  1.00  0.00    -0.246 OA
BRANCH  81  83
ATOM     83  C   UNL A   1      32.334  24.899  24.074  1.00  0.00     0.137 A 
ATOM     84  C   UNL A   1      33.344  24.759  23.106  1.00  0.00     0.023 A 
ATOM     85  C   UNL A   1      32.566  24.431  25.370  1.00  0.00     0.284 A 
ATOM     86  C   UNL A   1      34.577  24.185  23.440  1.00  0.00     0.010 A 
ATOM     87  C   UNL A   1      33.796  23.832  25.697  1.00  0.00     0.095 A 
ATOM     88  C   UNL A   1      34.805  23.689  24.730  1.00  0.00    -0.011 A 
BRANCH  85  89
ATOM     89  N   UNL A   1      31.520  24.447  26.389  1.00  0.00     0.063 N 
ATOM     90  O   UNL A   1      31.438  25.459  27.103  1.00  0.00    -0.258 OA
ATOM     91  O   UNL A   1      30.840  23.425  26.544  1.00  0.00    -0.258 OA
ENDBRANCH  85  89
BRANCH  88  92
ATOM     92  C   UNL A   1      35.968  22.845  25.009  1.00  0.00    -0.017 A 
ATOM     93  C   UNL A   1      36.033  21.480  24.714  1.00  0.00     0.012 A 
ATOM     94  C   UNL A   1      37.085  23.463  25.599  1.00  0.00     0.025 A 
ATOM     95  C   UNL A   1      37.199  20.758  24.997  1.00  0.00     0.040 A 
ATOM     96  C   UNL A   1      38.255  22.752  25.884  1.00  0.00     0.092 A 
ATOM     97  C   UNL A   1      38.296  21.399  25.574  1.00  0.00     0.135 A 
ATOM     98  F   UNL A   1      39.404  20.690  25.823  1.00  0.00    -0.206 F 
BRANCH  96  99
ATOM     99  C   UNL A   1      39.441  23.432  26.491  1.00  0.00     0.419 C 
ATOM    100  F   UNL A   1      40.619  22.813  26.209  1.00  0.00    -0.166 F 
ATOM    101  F   UNL A   1      39.577  24.723  26.081  1.00  0.00    -0.166 F 
ATOM    102  F   UNL A   1      39.379  23.491  27.854  1.00  0.00    -0.166 F 
ENDBRANCH  96  99
ENDBRANCH  88  92
ENDBRANCH  81  83
ENDBRANCH  80  81
ENDBRANCH  79  80
ENDBRANCH  78  79
ENDBRANCH  77  78
ENDBRANCH  76  77
ENDBRANCH  75  76
ENDBRANCH  74  75
ENDBRANCH   1  74
TORSDOF 26
ENDMDL
MODEL 2
REMARK VINA RESULT:      -9.3      2.424      7.859
REMARK SMILES O=C(OCCOCCOCCOCCOC(=O)c1ccc(-c2ccc(F)c(C(F)(F)F)c2)cc1[N+](=O)[O-])c1ccc(-c2c3nc(c(-c4cc(S(=O)(=O)[O-])ccc4F)c4ccc([nH]4)c(-c4cc(S(=O)(=O)[O-])ccc4F)c4nc(c(-c5cc(S(=O)(=O)[O-])ccc5F)c5ccc2[nH]5)C=C4)C=C3)cc1
REMARK SMILES IDX 8 1 7 2 6 3 5 4 4 5 3 6 2 7 1 8 38 9 39 10 100 11 40 12
REMARK SMILES IDX 99 13 41 14 42 15 43 16 93 17 44 18 98 19 92 20 94 21 45 22
REMARK SMILES IDX 97 23 91 24 90 25 46 27 78 28 58 29 77 30 59 31 62 32 76 33
REMARK SMILES IDX 95 34 60 35 61 36 75 38 96 39 63 40 47 41 48 42 56 43 49 44
REMARK SMILES IDX 55 45 57 46 54 47 50 48 51 49 52 50 53 51 79 52 80 53 88 54
REMARK SMILES IDX 81 55 87 56 89 57 86 58 82 59 83 60 84 61 85 62 64 63 65 64
REMARK SMILES IDX 73 65 66 66 72 67 74 68 71 69 67 70 68 71 69 72 70 73 9 74
REMARK SMILES IDX 10 75 11 76 12 77 13 78 14 79 15 80 16 81 17 82 18 83 19 84
REMARK SMILES IDX 34 85 20 86 33 87 21 88 35 89 36 90 37 91 22 92 23 93 32 94
REMARK SMILES IDX 24 95 27 96 25 97 26 98 28 99 29 100 30 101 31 102
REMARK H PARENT 94 26 62 37
REMARK Flexibility Score: inf
ROOT
ATOM      1  C   UNL A   1      32.151  28.815  25.802  1.00  0.00     0.188 C 
ENDROOT
BRANCH   1   2
ATOM      2  C   UNL A   1      31.702  29.791  26.895  1.00  0.00     0.188 C 
BRANCH   2   3
ATOM      3  O   UNL A   1      32.758  30.696  27.197  1.00  0.00    -0.376 OA
BRANCH   3   4
ATOM      4  C   UNL A   1      34.093  30.209  27.189  1.00  0.00     0.202 C 
BRANCH   4   5
ATOM      5  C   UNL A   1      35.073  30.884  28.152  1.00  0.00     0.261 C 
BRANCH   5   6
ATOM      6  O   UNL A   1      34.502  31.960  28.919  1.00  0.00    -0.460 OA
BRANCH   6   7
ATOM      7  C   UNL A   1      34.858  32.362  30.168  1.00  0.00     0.338 C 
ATOM      8  O   UNL A   1      34.107  33.099  30.803  1.00  0.00    -0.246 OA
BRANCH   7   9
ATOM      9  C   UNL A   1      36.126  31.920  30.805  1.00  0.00     0.060 A 
ATOM     10  C   UNL A   1      36.213  30.800  31.620  1.00  0.00     0.016 A 
ATOM     11  C   UNL A   1      37.309  32.605  30.505  1.00  0.00     0.016 A 
ATOM     12  C   UNL A   1      37.366  30.484  32.304  1.00  0.00     0.010 A 
ATOM     13  C   UNL A   1      38.520  32.210  31.090  1.00  0.00     0.010 A 
ATOM     14  C   UNL A   1      38.538  31.177  32.039  1.00  0.00    -0.014 A 
BRANCH  14  15
ATOM     15  C   UNL A   1      39.709  30.868  32.886  1.00  0.00     0.031 A 
ATOM     16  C   UNL A   1      39.793  31.525  34.231  1.00  0.00     0.074 A 
ATOM     17  C   UNL A   1      40.556  29.881  32.527  1.00  0.00     0.049 A 
ATOM     18  N   UNL A   1      40.746  31.472  35.121  1.00  0.00    -0.248 NA
ATOM     19  C   UNL A   1      38.641  32.350  34.632  1.00  0.00     0.031 C 
ATOM     20  C   UNL A   1      40.449  29.080  31.299  1.00  0.00     0.029 A 
ATOM     21  N   UNL A   1      41.636  29.342  33.173  1.00  0.00    -0.354 N 
ATOM     22  C   UNL A   1      40.324  32.284  36.168  1.00  0.00     0.074 A 
ATOM     23  C   UNL A   1      39.042  32.835  35.795  1.00  0.00     0.031 C 
ATOM     24  C   UNL A   1      41.389  28.124  31.313  1.00  0.00     0.029 A 
ATOM     25  C   UNL A   1      42.239  28.315  32.478  1.00  0.00     0.049 A 
ATOM     26  H   UNL A   1      41.951  29.656  34.050  1.00  0.00     0.167 HD
ATOM     27  C   UNL A   1      40.961  32.538  37.335  1.00  0.00     0.034 A 
ATOM     28  C   UNL A   1      43.382  27.650  32.736  1.00  0.00     0.034 A 
ATOM     29  C   UNL A   1      42.239  31.961  37.660  1.00  0.00     0.049 A 
ATOM     30  C   UNL A   1      44.135  28.045  33.981  1.00  0.00     0.074 A 
ATOM     31  C   UNL A   1      43.060  32.214  38.741  1.00  0.00     0.029 A 
ATOM     32  N   UNL A   1      42.879  30.993  36.889  1.00  0.00    -0.354 N 
ATOM     33  N   UNL A   1      43.796  28.915  34.909  1.00  0.00    -0.248 NA
ATOM     34  C   UNL A   1      45.422  27.386  34.213  1.00  0.00     0.031 C 
ATOM     35  C   UNL A   1      44.217  31.440  38.596  1.00  0.00     0.029 A 
ATOM     36  C   UNL A   1      44.088  30.648  37.464  1.00  0.00     0.049 A 
ATOM     37  H   UNL A   1      42.521  30.610  36.055  1.00  0.00     0.167 HD
ATOM     38  C   UNL A   1      44.829  28.900  35.840  1.00  0.00     0.074 A 
ATOM     39  C   UNL A   1      45.776  27.900  35.380  1.00  0.00     0.031 C 
ATOM     40  C   UNL A   1      45.001  29.647  36.961  1.00  0.00     0.034 A 
BRANCH  27  41
ATOM     41  C   UNL A   1      40.319  33.543  38.257  1.00  0.00     0.023 A 
ATOM     42  C   UNL A   1      39.479  33.151  39.317  1.00  0.00     0.031 A 
ATOM     43  C   UNL A   1      40.470  34.919  38.011  1.00  0.00     0.131 A 
ATOM     44  C   UNL A   1      38.764  34.120  40.037  1.00  0.00     0.055 A 
ATOM     45  C   UNL A   1      39.817  35.882  38.784  1.00  0.00     0.041 A 
ATOM     46  F   UNL A   1      41.228  35.351  36.992  1.00  0.00    -0.206 F 
ATOM     47  C   UNL A   1      38.946  35.485  39.794  1.00  0.00     0.022 A 
BRANCH  44  48
ATOM     48  S   UNL A   1      37.477  33.572  41.193  1.00  0.00     0.124 S 
ATOM     49  O   UNL A   1      38.229  32.670  42.063  1.00  0.00    -0.237 OA
ATOM     50  O   UNL A   1      37.040  34.825  41.799  1.00  0.00    -0.237 OA
ATOM     51  O   UNL A   1      36.494  32.920  40.330  1.00  0.00    -0.744 OA
ENDBRANCH  44  48
ENDBRANCH  27  41
BRANCH  28  52
ATOM     52  C   UNL A   1      43.936  26.651  31.769  1.00  0.00     0.023 A 
ATOM     53  C   UNL A   1      44.288  27.011  30.458  1.00  0.00     0.031 A 
ATOM     54  C   UNL A   1      44.041  25.290  32.118  1.00  0.00     0.131 A 
ATOM     55  C   UNL A   1      44.666  26.021  29.534  1.00  0.00     0.055 A 
ATOM     56  C   UNL A   1      44.489  24.320  31.218  1.00  0.00     0.041 A 
ATOM     57  F   UNL A   1      43.707  24.873  33.351  1.00  0.00    -0.206 F 
ATOM     58  C   UNL A   1      44.785  24.681  29.910  1.00  0.00     0.022 A 
BRANCH  55  59
ATOM     59  S   UNL A   1      44.871  26.487  27.792  1.00  0.00     0.124 S 
ATOM     60  O   UNL A   1      46.323  26.489  27.655  1.00  0.00    -0.237 OA
ATOM     61  O   UNL A   1      44.163  25.410  27.107  1.00  0.00    -0.237 OA
ATOM     62  O   UNL A   1      44.235  27.800  27.713  1.00  0.00    -0.744 OA
ENDBRANCH  55  59
ENDBRANCH  28  52
BRANCH  40  63
ATOM     63  C   UNL A   1      46.242  29.366  37.764  1.00  0.00     0.023 A 
ATOM     64  C   UNL A   1      47.403  30.141  37.608  1.00  0.00     0.031 A 
ATOM     65  C   UNL A   1      46.272  28.291  38.668  1.00  0.00     0.131 A 
ATOM     66  C   UNL A   1      48.572  29.782  38.291  1.00  0.00     0.055 A 
ATOM     67  C   UNL A   1      47.417  27.985  39.401  1.00  0.00     0.041 A 
ATOM     68  F   UNL A   1      45.187  27.520  38.851  1.00  0.00    -0.206 F 
ATOM     69  C   UNL A   1      48.582  28.721  39.201  1.00  0.00     0.022 A 
BRANCH  66  70
ATOM     70  S   UNL A   1      50.112  30.645  37.879  1.00  0.00     0.124 S 
ATOM     71  O   UNL A   1      51.121  29.707  38.357  1.00  0.00    -0.237 OA
ATOM     72  O   UNL A   1      50.011  30.788  36.430  1.00  0.00    -0.237 OA
ATOM     73  O   UNL A   1      50.016  31.894  38.633  1.00  0.00    -0.744 OA
ENDBRANCH  66  70
ENDBRANCH  40  63
ENDBRANCH  14  15
ENDBRANCH   7   9
ENDBRANCH   6   7
ENDBRANCH   5   6
ENDBRANCH   4   5
ENDBRANCH   3   4
ENDBRANCH   2   3
ENDBRANCH   1   2
BRANCH   1  74
ATOM     74  O   UNL A   1      32.169  29.356  24.476  1.00  0.00    -0.377 OA
BRANCH  74  75
ATOM     75  C   UNL A   1      33.370  29.142  23.737  1.00  0.00     0.188 C 
BRANCH  75  76
ATOM     76  C   UNL A   1      33.310  28.289  22.446  1.00  0.00     0.188 C 
BRANCH  76  77
ATOM     77  O   UNL A   1      33.682  26.931  22.634  1.00  0.00    -0.376 OA
BRANCH  77  78
ATOM     78  C   UNL A   1      32.968  25.985  21.846  1.00  0.00     0.202 C 
BRANCH  78  79
ATOM     79  C   UNL A   1      32.554  24.681  22.551  1.00  0.00     0.261 C 
BRANCH  79  80
ATOM     80  O   UNL A   1      33.332  23.521  22.212  1.00  0.00    -0.459 OA
BRANCH  80  81
ATOM     81  C   UNL A   1      33.354  22.493  23.083  1.00  0.00     0.345 C 
ATOM     82  O   UNL A   1      32.668  21.485  23.068  1.00  0.00    -0.246 OA
BRANCH  81  83
ATOM     83  C   UNL A   1      34.549  22.670  23.936  1.00  0.00     0.137 A 
ATOM     84  C   UNL A   1      35.774  22.878  23.275  1.00  0.00     0.023 A 
ATOM     85  C   UNL A   1      34.506  22.762  25.330  1.00  0.00     0.284 A 
ATOM     86  C   UNL A   1      36.929  23.199  23.999  1.00  0.00     0.010 A 
ATOM     87  C   UNL A   1      35.673  23.059  26.057  1.00  0.00     0.095 A 
ATOM     88  C   UNL A   1      36.897  23.264  25.398  1.00  0.00    -0.011 A 
BRANCH  85  89
ATOM     89  N   UNL A   1      33.293  22.449  26.081  1.00  0.00     0.063 N 
ATOM     90  O   UNL A   1      33.114  21.263  26.402  1.00  0.00    -0.258 OA
ATOM     91  O   UNL A   1      32.475  23.356  26.273  1.00  0.00    -0.258 OA
ENDBRANCH  85  89
BRANCH  88  92
ATOM     92  C   UNL A   1      38.140  23.320  26.169  1.00  0.00    -0.017 A 
ATOM     93  C   UNL A   1      39.030  22.248  26.298  1.00  0.00     0.012 A 
ATOM     94  C   UNL A   1      38.450  24.536  26.804  1.00  0.00     0.025 A 
ATOM     95  C   UNL A   1      40.207  22.402  27.039  1.00  0.00     0.040 A 
ATOM     96  C   UNL A   1      39.625  24.700  27.545  1.00  0.00     0.092 A 
ATOM     97  C   UNL A   1      40.495  23.623  27.650  1.00  0.00     0.135 A 
ATOM     98  F   UNL A   1      41.633  23.750  28.343  1.00  0.00    -0.206 F 
BRANCH  96  99
ATOM     99  C   UNL A   1      39.948  26.009  28.193  1.00  0.00     0.419 C 
ATOM    100  F   UNL A   1      41.282  26.275  28.234  1.00  0.00    -0.166 F 
ATOM    101  F   UNL A   1      39.364  27.068  27.568  1.00  0.00    -0.166 F 
ATOM    102  F   UNL A   1      39.525  26.078  29.489  1.00  0.00    -0.166 F 
ENDBRANCH  96  99
ENDBRANCH  88  92
ENDBRANCH  81  83
ENDBRANCH  80  81
ENDBRANCH  79  80
ENDBRANCH  78  79
ENDBRANCH  77  78
ENDBRANCH  76  77
ENDBRANCH  75  76
ENDBRANCH  74  75
ENDBRANCH   1  74
TORSDOF 26
ENDMDL
MODEL 3
REMARK VINA RESULT:      -9.2      5.276      9.087
REMARK SMILES O=C(OCCOCCOCCOCCOC(=O)c1ccc(-c2ccc(F)c(C(F)(F)F)c2)cc1[N+](=O)[O-])c1ccc(-c2c3nc(c(-c4cc(S(=O)(=O)[O-])ccc4F)c4ccc([nH]4)c(-c4cc(S(=O)(=O)[O-])ccc4F)c4nc(c(-c5cc(S(=O)(=O)[O-])ccc5F)c5ccc2[nH]5)C=C4)C=C3)cc1
REMARK SMILES IDX 8 1 7 2 6 3 5 4 4 5 3 6 2 7 1 8 38 9 39 10 100 11 40 12
REMARK SMILES IDX 99 13 41 14 42 15 43 16 93 17 44 18 98 19 92 20 94 21 45 22
REMARK SMILES IDX 97 23 91 24 90 25 46 27 78 28 58 29 77 30 59 31 62 32 76 33
REMARK SMILES IDX 95 34 60 35 61 36 75 38 96 39 63 40 47 41 48 42 56 43 49 44
REMARK SMILES IDX 55 45 57 46 54 47 50 48 51 49 52 50 53 51 79 52 80 53 88 54
REMARK SMILES IDX 81 55 87 56 89 57 86 58 82 59 83 60 84 61 85 62 64 63 65 64
REMARK SMILES IDX 73 65 66 66 72 67 74 68 71 69 67 70 68 71 69 72 70 73 9 74
REMARK SMILES IDX 10 75 11 76 12 77 13 78 14 79 15 80 16 81 17 82 18 83 19 84
REMARK SMILES IDX 34 85 20 86 33 87 21 88 35 89 36 90 37 91 22 92 23 93 32 94
REMARK SMILES IDX 24 95 27 96 25 97 26 98 28 99 29 100 30 101 31 102
REMARK H PARENT 94 26 62 37
REMARK Flexibility Score: inf
ROOT
ATOM      1  C   UNL A   1      32.022  28.572  26.008  1.00  0.00     0.188 C 
ENDROOT
BRANCH   1   2
ATOM      2  C   UNL A   1      31.743  29.490  27.204  1.00  0.00     0.188 C 
BRANCH   2   3
ATOM      3  O   UNL A   1      32.310  30.774  26.969  1.00  0.00    -0.376 OA
BRANCH   3   4
ATOM      4  C   UNL A   1      33.724  30.910  27.013  1.00  0.00     0.202 C 
BRANCH   4   5
ATOM      5  C   UNL A   1      34.380  30.782  28.390  1.00  0.00     0.261 C 
BRANCH   5   6
ATOM      6  O   UNL A   1      34.180  31.919  29.249  1.00  0.00    -0.460 OA
BRANCH   6   7
ATOM      7  C   UNL A   1      34.901  32.258  30.351  1.00  0.00     0.338 C 
ATOM      8  O   UNL A   1      34.315  32.554  31.390  1.00  0.00    -0.246 OA
BRANCH   7   9
ATOM      9  C   UNL A   1      36.387  32.264  30.347  1.00  0.00     0.060 A 
ATOM     10  C   UNL A   1      37.138  33.122  29.555  1.00  0.00     0.016 A 
ATOM     11  C   UNL A   1      37.071  31.433  31.242  1.00  0.00     0.016 A 
ATOM     12  C   UNL A   1      38.509  33.022  29.468  1.00  0.00     0.010 A 
ATOM     13  C   UNL A   1      38.472  31.418  31.260  1.00  0.00     0.010 A 
ATOM     14  C   UNL A   1      39.196  32.177  30.328  1.00  0.00    -0.014 A 
BRANCH  14  15
ATOM     15  C   UNL A   1      40.649  32.029  30.108  1.00  0.00     0.031 A 
ATOM     16  C   UNL A   1      41.558  33.051  30.722  1.00  0.00     0.074 A 
ATOM     17  C   UNL A   1      41.131  30.904  29.542  1.00  0.00     0.049 A 
ATOM     18  N   UNL A   1      42.852  33.179  30.616  1.00  0.00    -0.248 NA
ATOM     19  C   UNL A   1      40.922  34.066  31.580  1.00  0.00     0.031 C 
ATOM     20  C   UNL A   1      40.313  29.783  29.058  1.00  0.00     0.029 A 
ATOM     21  N   UNL A   1      42.416  30.485  29.322  1.00  0.00    -0.354 N 
ATOM     22  C   UNL A   1      43.178  34.307  31.362  1.00  0.00     0.074 A 
ATOM     23  C   UNL A   1      41.946  34.839  31.897  1.00  0.00     0.031 C 
ATOM     24  C   UNL A   1      41.119  28.791  28.652  1.00  0.00     0.029 A 
ATOM     25  C   UNL A   1      42.499  29.244  28.729  1.00  0.00     0.049 A 
ATOM     26  H   UNL A   1      43.206  31.019  29.566  1.00  0.00     0.167 HD
ATOM     27  C   UNL A   1      44.403  34.841  31.575  1.00  0.00     0.034 A 
ATOM     28  C   UNL A   1      43.572  28.582  28.252  1.00  0.00     0.034 A 
ATOM     29  C   UNL A   1      45.602  34.270  31.020  1.00  0.00     0.049 A 
ATOM     30  C   UNL A   1      44.910  29.262  28.393  1.00  0.00     0.074 A 
ATOM     31  C   UNL A   1      46.894  34.759  31.046  1.00  0.00     0.029 A 
ATOM     32  N   UNL A   1      45.647  33.058  30.335  1.00  0.00    -0.354 N 
ATOM     33  N   UNL A   1      45.199  30.401  28.987  1.00  0.00    -0.248 NA
ATOM     34  C   UNL A   1      46.062  28.584  27.794  1.00  0.00     0.031 C 
ATOM     35  C   UNL A   1      47.707  33.870  30.333  1.00  0.00     0.029 A 
ATOM     36  C   UNL A   1      46.940  32.790  29.924  1.00  0.00     0.049 A 
ATOM     37  H   UNL A   1      44.870  32.476  30.168  1.00  0.00     0.167 HD
ATOM     38  C   UNL A   1      46.571  30.569  28.839  1.00  0.00     0.074 A 
ATOM     39  C   UNL A   1      47.053  29.391  28.140  1.00  0.00     0.031 C 
ATOM     40  C   UNL A   1      47.367  31.601  29.222  1.00  0.00     0.034 A 
BRANCH  27  41
ATOM     41  C   UNL A   1      44.459  36.134  32.348  1.00  0.00     0.023 A 
ATOM     42  C   UNL A   1      44.184  37.375  31.743  1.00  0.00     0.031 A 
ATOM     43  C   UNL A   1      44.891  36.135  33.685  1.00  0.00     0.131 A 
ATOM     44  C   UNL A   1      44.420  38.564  32.450  1.00  0.00     0.055 A 
ATOM     45  C   UNL A   1      45.048  37.320  34.408  1.00  0.00     0.041 A 
ATOM     46  F   UNL A   1      45.205  34.985  34.302  1.00  0.00    -0.206 F 
ATOM     47  C   UNL A   1      44.826  38.545  33.787  1.00  0.00     0.022 A 
BRANCH  44  48
ATOM     48  S   UNL A   1      44.335  40.141  31.554  1.00  0.00     0.124 S 
ATOM     49  O   UNL A   1      45.734  40.342  31.181  1.00  0.00    -0.237 OA
ATOM     50  O   UNL A   1      43.421  39.836  30.460  1.00  0.00    -0.237 OA
ATOM     51  O   UNL A   1      43.823  41.077  32.553  1.00  0.00    -0.744 OA
ENDBRANCH  44  48
ENDBRANCH  27  41
BRANCH  28  52
ATOM     52  C   UNL A   1      43.423  27.289  27.513  1.00  0.00     0.023 A 
ATOM     53  C   UNL A   1      44.020  26.104  27.972  1.00  0.00     0.031 A 
ATOM     54  C   UNL A   1      42.746  27.238  26.277  1.00  0.00     0.131 A 
ATOM     55  C   UNL A   1      43.983  24.944  27.179  1.00  0.00     0.055 A 
ATOM     56  C   UNL A   1      42.648  26.064  25.528  1.00  0.00     0.041 A 
ATOM     57  F   UNL A   1      42.165  28.338  25.771  1.00  0.00    -0.206 F 
ATOM     58  C   UNL A   1      43.287  24.911  25.969  1.00  0.00     0.022 A 
BRANCH  55  59
ATOM     59  S   UNL A   1      44.973  23.510  27.685  1.00  0.00     0.124 S 
ATOM     60  O   UNL A   1      46.319  24.072  27.709  1.00  0.00    -0.237 OA
ATOM     61  O   UNL A   1      44.390  23.184  28.983  1.00  0.00    -0.237 OA
ATOM     62  O   UNL A   1      44.724  22.533  26.628  1.00  0.00    -0.744 OA
ENDBRANCH  55  59
ENDBRANCH  28  52
BRANCH  40  63
ATOM     63  C   UNL A   1      48.833  31.459  28.915  1.00  0.00     0.023 A 
ATOM     64  C   UNL A   1      49.398  32.035  27.766  1.00  0.00     0.031 A 
ATOM     65  C   UNL A   1      49.666  30.711  29.766  1.00  0.00     0.131 A 
ATOM     66  C   UNL A   1      50.742  31.790  27.456  1.00  0.00     0.055 A 
ATOM     67  C   UNL A   1      51.020  30.534  29.491  1.00  0.00     0.041 A 
ATOM     68  F   UNL A   1      49.172  30.140  30.877  1.00  0.00    -0.206 F 
ATOM     69  C   UNL A   1      51.561  31.060  28.320  1.00  0.00     0.022 A 
BRANCH  66  70
ATOM     70  S   UNL A   1      51.370  32.336  25.846  1.00  0.00     0.124 S 
ATOM     71  O   UNL A   1      50.283  33.186  25.371  1.00  0.00    -0.237 OA
ATOM     72  O   UNL A   1      52.603  33.026  26.211  1.00  0.00    -0.237 OA
ATOM     73  O   UNL A   1      51.552  31.087  25.109  1.00  0.00    -0.744 OA
ENDBRANCH  66  70
ENDBRANCH  40  63
ENDBRANCH  14  15
ENDBRANCH   7   9
ENDBRANCH   6   7
ENDBRANCH   5   6
ENDBRANCH   4   5
ENDBRANCH   3   4
ENDBRANCH   2   3
ENDBRANCH   1   2
BRANCH   1  74
ATOM     74  O   UNL A   1      32.029  29.222  24.733  1.00  0.00    -0.377 OA
BRANCH  74  75
ATOM     75  C   UNL A   1      33.218  29.062  23.963  1.00  0.00     0.188 C 
BRANCH  75  76
ATOM     76  C   UNL A   1      33.177  28.161  22.705  1.00  0.00     0.188 C 
BRANCH  76  77
ATOM     77  O   UNL A   1      32.383  26.993  22.858  1.00  0.00    -0.376 OA
BRANCH  77  78
ATOM     78  C   UNL A   1      32.047  26.317  21.650  1.00  0.00     0.202 C 
BRANCH  78  79
ATOM     79  C   UNL A   1      32.307  24.800  21.621  1.00  0.00     0.261 C 
BRANCH  79  80
ATOM     80  O   UNL A   1      33.529  24.370  22.243  1.00  0.00    -0.459 OA
BRANCH  80  81
ATOM     81  C   UNL A   1      33.508  23.234  22.969  1.00  0.00     0.345 C 
ATOM     82  O   UNL A   1      32.776  22.271  22.826  1.00  0.00    -0.246 OA
BRANCH  81  83
ATOM     83  C   UNL A   1      34.715  23.241  23.823  1.00  0.00     0.137 A 
ATOM     84  C   UNL A   1      35.876  22.658  23.284  1.00  0.00     0.023 A 
ATOM     85  C   UNL A   1      34.792  23.889  25.059  1.00  0.00     0.284 A 
ATOM     86  C   UNL A   1      37.099  22.747  23.961  1.00  0.00     0.010 A 
ATOM     87  C   UNL A   1      36.016  23.956  25.749  1.00  0.00     0.095 A 
ATOM     88  C   UNL A   1      37.175  23.371  25.213  1.00  0.00    -0.011 A 
BRANCH  85  89
ATOM     89  N   UNL A   1      33.602  24.417  25.722  1.00  0.00     0.063 N 
ATOM     90  O   UNL A   1      33.496  25.651  25.798  1.00  0.00    -0.258 OA
ATOM     91  O   UNL A   1      32.822  23.614  26.247  1.00  0.00    -0.258 OA
ENDBRANCH  85  89
BRANCH  88  92
ATOM     92  C   UNL A   1      38.371  23.226  26.046  1.00  0.00    -0.017 A 
ATOM     93  C   UNL A   1      38.868  24.230  26.883  1.00  0.00     0.012 A 
ATOM     94  C   UNL A   1      39.041  21.991  25.998  1.00  0.00     0.025 A 
ATOM     95  C   UNL A   1      40.007  23.990  27.661  1.00  0.00     0.040 A 
ATOM     96  C   UNL A   1      40.179  21.741  26.773  1.00  0.00     0.092 A 
ATOM     97  C   UNL A   1      40.647  22.751  27.602  1.00  0.00     0.135 A 
ATOM     98  F   UNL A   1      41.727  22.542  28.365  1.00  0.00    -0.206 F 
BRANCH  96  99
ATOM     99  C   UNL A   1      40.865  20.412  26.727  1.00  0.00     0.419 C 
ATOM    100  F   UNL A   1      40.935  19.800  27.939  1.00  0.00    -0.166 F 
ATOM    101  F   UNL A   1      40.256  19.532  25.885  1.00  0.00    -0.166 F 
ATOM    102  F   UNL A   1      42.155  20.497  26.288  1.00  0.00    -0.166 F 
ENDBRANCH  96  99
ENDBRANCH  88  92
ENDBRANCH  81  83
ENDBRANCH  80  81
ENDBRANCH  79  80
ENDBRANCH  78  79
ENDBRANCH  77  78
ENDBRANCH  76  77
ENDBRANCH  75  76
ENDBRANCH  74  75
ENDBRANCH   1  74
TORSDOF 26
ENDMDL
