MODEL 1
REMARK VINA RESULT:      -9.4      0.000      0.000
REMARK SMILES O=C(OCCOCCOCCOCCOC(=O)[C@H]1C=C[C@H](NS(=O)(=O)c2ccc(F)c(F)c2F)C1)c1ccc(-c2c3nc(c(-c4cc(S(=O)(=O)[O-])ccc4F)c4ccc([nH]4)c(-c4cc(S(=O)(=O)[O-])ccc4F)c4nc(c(-c5cc(S(=O)(=O)[O-])ccc5F)c5ccc2[nH]5)C=C4)C=C3)cc1
REMARK SMILES IDX 9 1 8 2 7 3 6 4 5 5 4 6 3 7 2 8 1 9 36 10 37 11 98 12 38 13
REMARK SMILES IDX 97 14 39 15 40 16 41 17 91 18 42 19 96 20 90 21 92 22 43 23
REMARK SMILES IDX 95 24 89 25 88 26 44 28 76 29 56 30 75 31 57 32 60 33 74 34
REMARK SMILES IDX 93 35 58 36 59 37 73 39 94 40 61 41 45 42 46 43 54 44 47 45
REMARK SMILES IDX 53 46 55 47 52 48 48 49 49 50 50 51 51 52 77 53 78 54 86 55
REMARK SMILES IDX 79 56 85 57 87 58 84 59 80 60 81 61 82 62 83 63 62 64 63 65
REMARK SMILES IDX 71 66 64 67 70 68 72 69 69 70 65 71 66 72 67 73 68 74 10 75
REMARK SMILES IDX 11 76 12 77 13 78 14 79 15 80 16 81 17 82 18 83 19 84 35 85
REMARK SMILES IDX 20 86 21 87 22 88 23 90 24 91 25 92 26 93 27 94 33 95 28 96
REMARK SMILES IDX 31 97 34 98 29 99 32 100 30 101
REMARK H PARENT 92 27 60 38 22 89
REMARK Flexibility Score: inf
ROOT
ATOM      1  O   UNL A   1      32.829  28.151  21.915  1.00  0.00    -0.377 OA
ENDROOT
BRANCH   1   2
ATOM      2  C   UNL A   1      32.498  29.127  22.897  1.00  0.00     0.188 C 
BRANCH   2   3
ATOM      3  C   UNL A   1      31.004  29.337  23.071  1.00  0.00     0.188 C 
BRANCH   3   4
ATOM      4  O   UNL A   1      30.749  29.768  24.394  1.00  0.00    -0.376 OA
BRANCH   4   5
ATOM      5  C   UNL A   1      31.535  29.280  25.467  1.00  0.00     0.202 C 
BRANCH   5   6
ATOM      6  C   UNL A   1      31.997  30.286  26.514  1.00  0.00     0.261 C 
BRANCH   6   7
ATOM      7  O   UNL A   1      33.372  30.181  26.938  1.00  0.00    -0.460 OA
BRANCH   7   8
ATOM      8  C   UNL A   1      34.228  31.126  27.395  1.00  0.00     0.338 C 
ATOM      9  O   UNL A   1      33.961  32.312  27.216  1.00  0.00    -0.246 OA
BRANCH   8  10
ATOM     10  C   UNL A   1      35.479  30.792  28.115  1.00  0.00     0.060 A 
ATOM     11  C   UNL A   1      35.678  29.596  28.787  1.00  0.00     0.016 A 
ATOM     12  C   UNL A   1      36.564  31.666  28.008  1.00  0.00     0.016 A 
ATOM     13  C   UNL A   1      36.796  29.357  29.549  1.00  0.00     0.010 A 
ATOM     14  C   UNL A   1      37.767  31.370  28.655  1.00  0.00     0.010 A 
ATOM     15  C   UNL A   1      37.858  30.238  29.479  1.00  0.00    -0.014 A 
BRANCH  15  16
ATOM     16  C   UNL A   1      38.967  30.023  30.418  1.00  0.00     0.031 A 
ATOM     17  C   UNL A   1      40.130  29.225  29.921  1.00  0.00     0.074 A 
ATOM     18  C   UNL A   1      38.993  30.671  31.599  1.00  0.00     0.049 A 
ATOM     19  N   UNL A   1      41.145  28.743  30.574  1.00  0.00    -0.248 NA
ATOM     20  C   UNL A   1      40.140  28.925  28.477  1.00  0.00     0.031 C 
ATOM     21  C   UNL A   1      37.984  31.633  32.062  1.00  0.00     0.029 A 
ATOM     22  N   UNL A   1      39.915  30.656  32.606  1.00  0.00    -0.354 N 
ATOM     23  C   UNL A   1      41.880  28.026  29.638  1.00  0.00     0.074 A 
ATOM     24  C   UNL A   1      41.193  28.132  28.373  1.00  0.00     0.031 C 
ATOM     25  C   UNL A   1      38.365  32.137  33.245  1.00  0.00     0.029 A 
ATOM     26  C   UNL A   1      39.565  31.441  33.681  1.00  0.00     0.049 A 
ATOM     27  H   UNL A   1      40.749  30.134  32.567  1.00  0.00     0.167 HD
ATOM     28  C   UNL A   1      43.022  27.329  29.845  1.00  0.00     0.034 A 
ATOM     29  C   UNL A   1      40.124  31.519  34.903  1.00  0.00     0.034 A 
ATOM     30  C   UNL A   1      43.654  27.280  31.137  1.00  0.00     0.049 A 
ATOM     31  C   UNL A   1      41.317  30.632  35.155  1.00  0.00     0.074 A 
ATOM     32  C   UNL A   1      44.752  26.550  31.544  1.00  0.00     0.029 A 
ATOM     33  N   UNL A   1      43.226  28.012  32.245  1.00  0.00    -0.354 N 
ATOM     34  N   UNL A   1      41.938  29.830  34.317  1.00  0.00    -0.248 NA
ATOM     35  C   UNL A   1      41.874  30.641  36.509  1.00  0.00     0.031 C 
ATOM     36  C   UNL A   1      44.943  26.788  32.911  1.00  0.00     0.029 A 
ATOM     37  C   UNL A   1      44.022  27.733  33.340  1.00  0.00     0.049 A 
ATOM     38  H   UNL A   1      42.466  28.639  32.246  1.00  0.00     0.167 HD
ATOM     39  C   UNL A   1      42.974  29.250  35.039  1.00  0.00     0.074 A 
ATOM     40  C   UNL A   1      42.904  29.818  36.374  1.00  0.00     0.031 C 
ATOM     41  C   UNL A   1      43.899  28.335  34.649  1.00  0.00     0.034 A 
BRANCH  28  42
ATOM     42  C   UNL A   1      43.532  26.500  28.693  1.00  0.00     0.023 A 
ATOM     43  C   UNL A   1      44.598  26.921  27.878  1.00  0.00     0.031 A 
ATOM     44  C   UNL A   1      42.847  25.329  28.324  1.00  0.00     0.131 A 
ATOM     45  C   UNL A   1      44.882  26.234  26.687  1.00  0.00     0.055 A 
ATOM     46  C   UNL A   1      43.194  24.598  27.186  1.00  0.00     0.041 A 
ATOM     47  F   UNL A   1      41.794  24.899  29.037  1.00  0.00    -0.206 F 
ATOM     48  C   UNL A   1      44.205  25.060  26.349  1.00  0.00     0.022 A 
BRANCH  45  49
ATOM     49  S   UNL A   1      46.020  26.994  25.493  1.00  0.00     0.124 S 
ATOM     50  O   UNL A   1      47.167  27.311  26.341  1.00  0.00    -0.237 OA
ATOM     51  O   UNL A   1      46.221  25.927  24.521  1.00  0.00    -0.237 OA
ATOM     52  O   UNL A   1      45.278  28.154  25.002  1.00  0.00    -0.744 OA
ENDBRANCH  45  49
ENDBRANCH  28  42
BRANCH  29  53
ATOM     53  C   UNL A   1      39.513  32.355  35.981  1.00  0.00     0.023 A 
ATOM     54  C   UNL A   1      39.927  33.676  36.204  1.00  0.00     0.031 A 
ATOM     55  C   UNL A   1      38.534  31.824  36.845  1.00  0.00     0.131 A 
ATOM     56  C   UNL A   1      39.400  34.405  37.285  1.00  0.00     0.055 A 
ATOM     57  C   UNL A   1      37.966  32.573  37.877  1.00  0.00     0.041 A 
ATOM     58  F   UNL A   1      38.103  30.561  36.695  1.00  0.00    -0.206 F 
ATOM     59  C   UNL A   1      38.410  33.869  38.111  1.00  0.00     0.022 A 
BRANCH  56  60
ATOM     60  S   UNL A   1      40.103  36.035  37.661  1.00  0.00     0.124 S 
ATOM     61  O   UNL A   1      41.510  35.710  37.864  1.00  0.00    -0.237 OA
ATOM     62  O   UNL A   1      39.784  36.788  36.453  1.00  0.00    -0.237 OA
ATOM     63  O   UNL A   1      39.379  36.449  38.862  1.00  0.00    -0.744 OA
ENDBRANCH  56  60
ENDBRANCH  29  53
BRANCH  41  64
ATOM     64  C   UNL A   1      44.926  27.948  35.678  1.00  0.00     0.023 A 
ATOM     65  C   UNL A   1      44.660  26.978  36.655  1.00  0.00     0.031 A 
ATOM     66  C   UNL A   1      46.189  28.564  35.669  1.00  0.00     0.131 A 
ATOM     67  C   UNL A   1      45.627  26.692  37.626  1.00  0.00     0.055 A 
ATOM     68  C   UNL A   1      47.173  28.223  36.595  1.00  0.00     0.041 A 
ATOM     69  F   UNL A   1      46.487  29.500  34.754  1.00  0.00    -0.206 F 
ATOM     70  C   UNL A   1      46.889  27.291  37.589  1.00  0.00     0.022 A 
BRANCH  67  71
ATOM     71  S   UNL A   1      45.176  25.598  38.999  1.00  0.00     0.124 S 
ATOM     72  O   UNL A   1      44.604  24.453  38.297  1.00  0.00    -0.237 OA
ATOM     73  O   UNL A   1      46.460  25.369  39.652  1.00  0.00    -0.237 OA
ATOM     74  O   UNL A   1      44.222  26.394  39.770  1.00  0.00    -0.744 OA
ENDBRANCH  67  71
ENDBRANCH  41  64
ENDBRANCH  15  16
ENDBRANCH   8  10
ENDBRANCH   7   8
ENDBRANCH   6   7
ENDBRANCH   5   6
ENDBRANCH   4   5
ENDBRANCH   3   4
ENDBRANCH   2   3
ENDBRANCH   1   2
BRANCH   1  75
ATOM     75  C   UNL A   1      33.140  26.829  22.361  1.00  0.00     0.188 C 
BRANCH  75  76
ATOM     76  C   UNL A   1      32.495  25.610  21.668  1.00  0.00     0.188 C 
BRANCH  76  77
ATOM     77  O   UNL A   1      31.312  25.164  22.296  1.00  0.00    -0.376 OA
BRANCH  77  78
ATOM     78  C   UNL A   1      30.857  25.856  23.454  1.00  0.00     0.202 C 
BRANCH  78  79
ATOM     79  C   UNL A   1      30.280  25.110  24.683  1.00  0.00     0.261 C 
BRANCH  79  80
ATOM     80  O   UNL A   1      31.262  24.678  25.636  1.00  0.00    -0.463 OA
BRANCH  80  81
ATOM     81  C   UNL A   1      31.418  23.329  25.776  1.00  0.00     0.312 C 
ATOM     82  O   UNL A   1      30.575  22.581  26.254  1.00  0.00    -0.252 OA
BRANCH  81  83
ATOM     83  C   UNL A   1      32.675  22.851  25.043  1.00  0.00     0.123 C 
ATOM     84  C   UNL A   1      32.573  22.290  23.649  1.00  0.00    -0.015 C 
ATOM     85  C   UNL A   1      33.721  23.935  24.794  1.00  0.00     0.043 C 
ATOM     86  C   UNL A   1      33.713  22.478  22.970  1.00  0.00    -0.011 C 
ATOM     87  C   UNL A   1      34.657  23.336  23.746  1.00  0.00     0.093 C 
BRANCH  87  88
ATOM     88  N   UNL A   1      35.802  22.517  24.146  1.00  0.00    -0.204 NA
ATOM     89  H   UNL A   1      36.479  23.184  24.514  1.00  0.00     0.142 HD
BRANCH  88  90
ATOM     90  S   UNL A   1      35.835  21.239  25.231  1.00  0.00     0.244 S 
ATOM     91  O   UNL A   1      35.312  21.817  26.465  1.00  0.00    -0.207 OA
ATOM     92  O   UNL A   1      35.247  20.087  24.632  1.00  0.00    -0.207 OA
BRANCH  90  93
ATOM     93  C   UNL A   1      37.545  20.949  25.555  1.00  0.00     0.121 A 
ATOM     94  C   UNL A   1      38.119  19.695  25.300  1.00  0.00     0.028 A 
ATOM     95  C   UNL A   1      38.338  22.008  25.990  1.00  0.00     0.181 A 
ATOM     96  C   UNL A   1      39.492  19.513  25.488  1.00  0.00     0.044 A 
ATOM     97  C   UNL A   1      39.704  21.820  26.172  1.00  0.00     0.195 A 
ATOM     98  F   UNL A   1      37.818  23.217  26.233  1.00  0.00    -0.202 F 
ATOM     99  C   UNL A   1      40.277  20.579  25.920  1.00  0.00     0.161 A 
ATOM    100  F   UNL A   1      40.467  22.830  26.611  1.00  0.00    -0.200 F 
ATOM    101  F   UNL A   1      41.588  20.388  26.114  1.00  0.00    -0.204 F 
ENDBRANCH  90  93
ENDBRANCH  88  90
ENDBRANCH  87  88
ENDBRANCH  81  83
ENDBRANCH  80  81
ENDBRANCH  79  80
ENDBRANCH  78  79
ENDBRANCH  77  78
ENDBRANCH  76  77
ENDBRANCH  75  76
ENDBRANCH   1  75
TORSDOF 26
ENDMDL
MODEL 2
REMARK VINA RESULT:      -9.4      2.118      2.738
REMARK SMILES O=C(OCCOCCOCCOCCOC(=O)[C@H]1C=C[C@H](NS(=O)(=O)c2ccc(F)c(F)c2F)C1)c1ccc(-c2c3nc(c(-c4cc(S(=O)(=O)[O-])ccc4F)c4ccc([nH]4)c(-c4cc(S(=O)(=O)[O-])ccc4F)c4nc(c(-c5cc(S(=O)(=O)[O-])ccc5F)c5ccc2[nH]5)C=C4)C=C3)cc1
REMARK SMILES IDX 9 1 8 2 7 3 6 4 5 5 4 6 3 7 2 8 1 9 36 10 37 11 98 12 38 13
REMARK SMILES IDX 97 14 39 15 40 16 41 17 91 18 42 19 96 20 90 21 92 22 43 23
REMARK SMILES IDX 95 24 89 25 88 26 44 28 76 29 56 30 75 31 57 32 60 33 74 34
REMARK SMILES IDX 93 35 58 36 59 37 73 39 94 40 61 41 45 42 46 43 54 44 47 45
REMARK SMILES IDX 53 46 55 47 52 48 48 49 49 50 50 51 51 52 77 53 78 54 86 55
REMARK SMILES IDX 79 56 85 57 87 58 84 59 80 60 81 61 82 62 83 63 62 64 63 65
REMARK SMILES IDX 71 66 64 67 70 68 72 69 69 70 65 71 66 72 67 73 68 74 10 75
REMARK SMILES IDX 11 76 12 77 13 78 14 79 15 80 16 81 17 82 18 83 19 84 35 85
REMARK SMILES IDX 20 86 21 87 22 88 23 90 24 91 25 92 26 93 27 94 33 95 28 96
REMARK SMILES IDX 31 97 34 98 29 99 32 100 30 101
REMARK H PARENT 92 27 60 38 22 89
REMARK Flexibility Score: inf
ROOT
ATOM      1  O   UNL A   1      33.783  27.680  23.002  1.00  0.00    -0.377 OA
ENDROOT
BRANCH   1   2
ATOM      2  C   UNL A   1      33.100  28.589  23.857  1.00  0.00     0.188 C 
BRANCH   2   3
ATOM      3  C   UNL A   1      31.885  29.236  23.215  1.00  0.00     0.188 C 
BRANCH   3   4
ATOM      4  O   UNL A   1      31.054  29.766  24.229  1.00  0.00    -0.376 OA
BRANCH   4   5
ATOM      5  C   UNL A   1      31.340  29.510  25.593  1.00  0.00     0.202 C 
BRANCH   5   6
ATOM      6  C   UNL A   1      31.874  30.669  26.428  1.00  0.00     0.261 C 
BRANCH   6   7
ATOM      7  O   UNL A   1      33.217  30.525  26.934  1.00  0.00    -0.460 OA
BRANCH   7   8
ATOM      8  C   UNL A   1      34.078  31.448  27.425  1.00  0.00     0.338 C 
ATOM      9  O   UNL A   1      33.813  32.641  27.296  1.00  0.00    -0.246 OA
BRANCH   8  10
ATOM     10  C   UNL A   1      35.331  31.082  28.125  1.00  0.00     0.060 A 
ATOM     11  C   UNL A   1      35.588  29.813  28.620  1.00  0.00     0.016 A 
ATOM     12  C   UNL A   1      36.364  32.022  28.179  1.00  0.00     0.016 A 
ATOM     13  C   UNL A   1      36.702  29.527  29.372  1.00  0.00     0.010 A 
ATOM     14  C   UNL A   1      37.569  31.702  28.810  1.00  0.00     0.010 A 
ATOM     15  C   UNL A   1      37.710  30.467  29.463  1.00  0.00    -0.014 A 
BRANCH  15  16
ATOM     16  C   UNL A   1      38.810  30.178  30.393  1.00  0.00     0.031 A 
ATOM     17  C   UNL A   1      39.934  29.340  29.872  1.00  0.00     0.074 A 
ATOM     18  C   UNL A   1      38.869  30.796  31.588  1.00  0.00     0.049 A 
ATOM     19  N   UNL A   1      40.928  28.796  30.510  1.00  0.00    -0.248 NA
ATOM     20  C   UNL A   1      39.927  29.075  28.422  1.00  0.00     0.031 C 
ATOM     21  C   UNL A   1      37.906  31.792  32.079  1.00  0.00     0.029 A 
ATOM     22  N   UNL A   1      39.792  30.713  32.592  1.00  0.00    -0.354 N 
ATOM     23  C   UNL A   1      41.627  28.069  29.555  1.00  0.00     0.074 A 
ATOM     24  C   UNL A   1      40.942  28.237  28.295  1.00  0.00     0.031 C 
ATOM     25  C   UNL A   1      38.313  32.248  33.272  1.00  0.00     0.029 A 
ATOM     26  C   UNL A   1      39.481  31.487  33.687  1.00  0.00     0.049 A 
ATOM     27  H   UNL A   1      40.600  30.155  32.537  1.00  0.00     0.167 HD
ATOM     28  C   UNL A   1      42.735  27.316  29.741  1.00  0.00     0.034 A 
ATOM     29  C   UNL A   1      40.045  31.510  34.909  1.00  0.00     0.034 A 
ATOM     30  C   UNL A   1      43.367  27.205  31.029  1.00  0.00     0.049 A 
ATOM     31  C   UNL A   1      41.197  30.564  35.135  1.00  0.00     0.074 A 
ATOM     32  C   UNL A   1      44.431  26.416  31.415  1.00  0.00     0.029 A 
ATOM     33  N   UNL A   1      42.977  27.930  32.155  1.00  0.00    -0.354 N 
ATOM     34  N   UNL A   1      41.778  29.754  34.275  1.00  0.00    -0.248 NA
ATOM     35  C   UNL A   1      41.756  30.514  36.486  1.00  0.00     0.031 C 
ATOM     36  C   UNL A   1      44.637  26.611  32.786  1.00  0.00     0.029 A 
ATOM     37  C   UNL A   1      43.761  27.588  33.240  1.00  0.00     0.049 A 
ATOM     38  H   UNL A   1      42.246  28.591  32.174  1.00  0.00     0.167 HD
ATOM     39  C   UNL A   1      42.788  29.110  34.979  1.00  0.00     0.074 A 
ATOM     40  C   UNL A   1      42.747  29.648  36.328  1.00  0.00     0.031 C 
ATOM     41  C   UNL A   1      43.669  28.162  34.565  1.00  0.00     0.034 A 
BRANCH  28  42
ATOM     42  C   UNL A   1      43.204  26.492  28.568  1.00  0.00     0.023 A 
ATOM     43  C   UNL A   1      44.309  26.865  27.781  1.00  0.00     0.031 A 
ATOM     44  C   UNL A   1      42.445  25.385  28.149  1.00  0.00     0.131 A 
ATOM     45  C   UNL A   1      44.562  26.200  26.570  1.00  0.00     0.055 A 
ATOM     46  C   UNL A   1      42.757  24.670  26.991  1.00  0.00     0.041 A 
ATOM     47  F   UNL A   1      41.355  25.006  28.834  1.00  0.00    -0.206 F 
ATOM     48  C   UNL A   1      43.811  25.088  26.184  1.00  0.00     0.022 A 
BRANCH  45  49
ATOM     49  S   UNL A   1      45.768  26.919  25.418  1.00  0.00     0.124 S 
ATOM     50  O   UNL A   1      46.192  25.742  24.663  1.00  0.00    -0.237 OA
ATOM     51  O   UNL A   1      44.966  27.891  24.685  1.00  0.00    -0.237 OA
ATOM     52  O   UNL A   1      46.788  27.487  26.297  1.00  0.00    -0.744 OA
ENDBRANCH  45  49
ENDBRANCH  28  42
BRANCH  29  53
ATOM     53  C   UNL A   1      39.477  32.347  36.009  1.00  0.00     0.023 A 
ATOM     54  C   UNL A   1      39.947  33.644  36.258  1.00  0.00     0.031 A 
ATOM     55  C   UNL A   1      38.480  31.838  36.867  1.00  0.00     0.131 A 
ATOM     56  C   UNL A   1      39.457  34.370  37.358  1.00  0.00     0.055 A 
ATOM     57  C   UNL A   1      37.949  32.588  37.918  1.00  0.00     0.041 A 
ATOM     58  F   UNL A   1      37.994  30.599  36.690  1.00  0.00    -0.206 F 
ATOM     59  C   UNL A   1      38.450  33.858  38.178  1.00  0.00     0.022 A 
BRANCH  56  60
ATOM     60  S   UNL A   1      40.231  35.959  37.767  1.00  0.00     0.124 S 
ATOM     61  O   UNL A   1      41.611  35.561  38.019  1.00  0.00    -0.237 OA
ATOM     62  O   UNL A   1      39.997  36.731  36.551  1.00  0.00    -0.237 OA
ATOM     63  O   UNL A   1      39.487  36.408  38.942  1.00  0.00    -0.744 OA
ENDBRANCH  56  60
ENDBRANCH  29  53
BRANCH  41  64
ATOM     64  C   UNL A   1      44.679  27.704  35.580  1.00  0.00     0.023 A 
ATOM     65  C   UNL A   1      45.846  28.438  35.841  1.00  0.00     0.031 A 
ATOM     66  C   UNL A   1      44.461  26.513  36.294  1.00  0.00     0.131 A 
ATOM     67  C   UNL A   1      46.785  27.942  36.754  1.00  0.00     0.055 A 
ATOM     68  C   UNL A   1      45.365  26.062  37.253  1.00  0.00     0.041 A 
ATOM     69  F   UNL A   1      43.360  25.776  36.075  1.00  0.00    -0.206 F 
ATOM     70  C   UNL A   1      46.541  26.771  37.478  1.00  0.00     0.022 A 
BRANCH  67  71
ATOM     71  S   UNL A   1      48.375  28.797  36.909  1.00  0.00     0.124 S 
ATOM     72  O   UNL A   1      49.204  28.064  35.957  1.00  0.00    -0.237 OA
ATOM     73  O   UNL A   1      48.032  30.165  36.535  1.00  0.00    -0.237 OA
ATOM     74  O   UNL A   1      48.729  28.608  38.314  1.00  0.00    -0.744 OA
ENDBRANCH  67  71
ENDBRANCH  41  64
ENDBRANCH  15  16
ENDBRANCH   8  10
ENDBRANCH   7   8
ENDBRANCH   6   7
ENDBRANCH   5   6
ENDBRANCH   4   5
ENDBRANCH   3   4
ENDBRANCH   2   3
ENDBRANCH   1   2
BRANCH   1  75
ATOM     75  C   UNL A   1      33.569  26.281  23.201  1.00  0.00     0.188 C 
BRANCH  75  76
ATOM     76  C   UNL A   1      32.817  25.456  22.135  1.00  0.00     0.188 C 
BRANCH  76  77
ATOM     77  O   UNL A   1      31.489  25.145  22.496  1.00  0.00    -0.376 OA
BRANCH  77  78
ATOM     78  C   UNL A   1      30.528  26.195  22.517  1.00  0.00     0.202 C 
BRANCH  78  79
ATOM     79  C   UNL A   1      29.642  26.474  23.756  1.00  0.00     0.261 C 
BRANCH  79  80
ATOM     80  O   UNL A   1      30.359  26.568  24.996  1.00  0.00    -0.463 OA
BRANCH  80  81
ATOM     81  C   UNL A   1      30.193  25.535  25.872  1.00  0.00     0.312 C 
ATOM     82  O   UNL A   1      29.148  25.288  26.460  1.00  0.00    -0.252 OA
BRANCH  81  83
ATOM     83  C   UNL A   1      31.403  24.595  25.837  1.00  0.00     0.123 C 
ATOM     84  C   UNL A   1      32.177  24.308  27.097  1.00  0.00    -0.015 C 
ATOM     85  C   UNL A   1      31.088  23.164  25.412  1.00  0.00     0.043 C 
ATOM     86  C   UNL A   1      32.762  23.105  27.038  1.00  0.00    -0.011 C 
ATOM     87  C   UNL A   1      32.319  22.358  25.823  1.00  0.00     0.093 C 
BRANCH  87  88
ATOM     88  N   UNL A   1      33.464  22.228  24.919  1.00  0.00    -0.204 NA
ATOM     89  H   UNL A   1      33.849  23.169  24.856  1.00  0.00     0.142 HD
BRANCH  88  90
ATOM     90  S   UNL A   1      34.804  21.233  25.079  1.00  0.00     0.244 S 
ATOM     91  O   UNL A   1      35.622  21.561  23.916  1.00  0.00    -0.207 OA
ATOM     92  O   UNL A   1      35.314  21.326  26.407  1.00  0.00    -0.207 OA
BRANCH  90  93
ATOM     93  C   UNL A   1      34.210  19.601  24.770  1.00  0.00     0.121 A 
ATOM     94  C   UNL A   1      32.861  19.376  24.460  1.00  0.00     0.028 A 
ATOM     95  C   UNL A   1      35.117  18.544  24.757  1.00  0.00     0.181 A 
ATOM     96  C   UNL A   1      32.431  18.086  24.140  1.00  0.00     0.044 A 
ATOM     97  C   UNL A   1      34.682  17.262  24.435  1.00  0.00     0.195 A 
ATOM     98  F   UNL A   1      36.411  18.730  25.043  1.00  0.00    -0.202 F 
ATOM     99  C   UNL A   1      33.347  17.037  24.127  1.00  0.00     0.161 A 
ATOM    100  F   UNL A   1      35.548  16.240  24.443  1.00  0.00    -0.200 F 
ATOM    101  F   UNL A   1      32.920  15.801  23.836  1.00  0.00    -0.204 F 
ENDBRANCH  90  93
ENDBRANCH  88  90
ENDBRANCH  87  88
ENDBRANCH  81  83
ENDBRANCH  80  81
ENDBRANCH  79  80
ENDBRANCH  78  79
ENDBRANCH  77  78
ENDBRANCH  76  77
ENDBRANCH  75  76
ENDBRANCH   1  75
TORSDOF 26
ENDMDL
MODEL 3
REMARK VINA RESULT:      -9.4      2.754      3.401
REMARK SMILES O=C(OCCOCCOCCOCCOC(=O)[C@H]1C=C[C@H](NS(=O)(=O)c2ccc(F)c(F)c2F)C1)c1ccc(-c2c3nc(c(-c4cc(S(=O)(=O)[O-])ccc4F)c4ccc([nH]4)c(-c4cc(S(=O)(=O)[O-])ccc4F)c4nc(c(-c5cc(S(=O)(=O)[O-])ccc5F)c5ccc2[nH]5)C=C4)C=C3)cc1
REMARK SMILES IDX 9 1 8 2 7 3 6 4 5 5 4 6 3 7 2 8 1 9 36 10 37 11 98 12 38 13
REMARK SMILES IDX 97 14 39 15 40 16 41 17 91 18 42 19 96 20 90 21 92 22 43 23
REMARK SMILES IDX 95 24 89 25 88 26 44 28 76 29 56 30 75 31 57 32 60 33 74 34
REMARK SMILES IDX 93 35 58 36 59 37 73 39 94 40 61 41 45 42 46 43 54 44 47 45
REMARK SMILES IDX 53 46 55 47 52 48 48 49 49 50 50 51 51 52 77 53 78 54 86 55
REMARK SMILES IDX 79 56 85 57 87 58 84 59 80 60 81 61 82 62 83 63 62 64 63 65
REMARK SMILES IDX 71 66 64 67 70 68 72 69 69 70 65 71 66 72 67 73 68 74 10 75
REMARK SMILES IDX 11 76 12 77 13 78 14 79 15 80 16 81 17 82 18 83 19 84 35 85
REMARK SMILES IDX 20 86 21 87 22 88 23 90 24 91 25 92 26 93 27 94 33 95 28 96
REMARK SMILES IDX 31 97 34 98 29 99 32 100 30 101
REMARK H PARENT 92 27 60 38 22 89
REMARK Flexibility Score: inf
ROOT
ATOM      1  O   UNL A   1      33.814  27.715  23.005  1.00  0.00    -0.377 OA
ENDROOT
BRANCH   1   2
ATOM      2  C   UNL A   1      33.192  28.754  23.751  1.00  0.00     0.188 C 
BRANCH   2   3
ATOM      3  C   UNL A   1      31.845  29.184  23.194  1.00  0.00     0.188 C 
BRANCH   3   4
ATOM      4  O   UNL A   1      31.045  29.680  24.250  1.00  0.00    -0.376 OA
BRANCH   4   5
ATOM      5  C   UNL A   1      31.419  29.451  25.597  1.00  0.00     0.202 C 
BRANCH   5   6
ATOM      6  C   UNL A   1      31.927  30.644  26.398  1.00  0.00     0.261 C 
BRANCH   6   7
ATOM      7  O   UNL A   1      33.257  30.527  26.945  1.00  0.00    -0.460 OA
BRANCH   7   8
ATOM      8  C   UNL A   1      34.030  31.437  27.584  1.00  0.00     0.338 C 
ATOM      9  O   UNL A   1      33.650  32.604  27.651  1.00  0.00    -0.246 OA
BRANCH   8  10
ATOM     10  C   UNL A   1      35.321  31.085  28.220  1.00  0.00     0.060 A 
ATOM     11  C   UNL A   1      35.712  29.781  28.485  1.00  0.00     0.016 A 
ATOM     12  C   UNL A   1      36.252  32.102  28.447  1.00  0.00     0.016 A 
ATOM     13  C   UNL A   1      36.857  29.485  29.184  1.00  0.00     0.010 A 
ATOM     14  C   UNL A   1      37.490  31.802  29.022  1.00  0.00     0.010 A 
ATOM     15  C   UNL A   1      37.764  30.493  29.448  1.00  0.00    -0.014 A 
BRANCH  15  16
ATOM     16  C   UNL A   1      38.897  30.160  30.322  1.00  0.00     0.031 A 
ATOM     17  C   UNL A   1      39.947  29.260  29.755  1.00  0.00     0.074 A 
ATOM     18  C   UNL A   1      39.051  30.789  31.504  1.00  0.00     0.049 A 
ATOM     19  N   UNL A   1      40.946  28.674  30.347  1.00  0.00    -0.248 NA
ATOM     20  C   UNL A   1      39.849  28.978  28.311  1.00  0.00     0.031 C 
ATOM     21  C   UNL A   1      38.167  31.838  32.030  1.00  0.00     0.029 A 
ATOM     22  N   UNL A   1      40.021  30.671  32.458  1.00  0.00    -0.354 N 
ATOM     23  C   UNL A   1      41.555  27.900  29.367  1.00  0.00     0.074 A 
ATOM     24  C   UNL A   1      40.812  28.088  28.142  1.00  0.00     0.031 C 
ATOM     25  C   UNL A   1      38.660  32.288  33.193  1.00  0.00     0.029 A 
ATOM     26  C   UNL A   1      39.810  31.474  33.556  1.00  0.00     0.049 A 
ATOM     27  H   UNL A   1      40.797  30.072  32.368  1.00  0.00     0.167 HD
ATOM     28  C   UNL A   1      42.632  27.094  29.505  1.00  0.00     0.034 A 
ATOM     29  C   UNL A   1      40.439  31.483  34.745  1.00  0.00     0.034 A 
ATOM     30  C   UNL A   1      43.327  26.968  30.759  1.00  0.00     0.049 A 
ATOM     31  C   UNL A   1      41.553  30.482  34.924  1.00  0.00     0.074 A 
ATOM     32  C   UNL A   1      44.370  26.130  31.099  1.00  0.00     0.029 A 
ATOM     33  N   UNL A   1      43.035  27.725  31.893  1.00  0.00    -0.354 N 
ATOM     34  N   UNL A   1      42.045  29.633  34.047  1.00  0.00    -0.248 NA
ATOM     35  C   UNL A   1      42.181  30.420  36.244  1.00  0.00     0.031 C 
ATOM     36  C   UNL A   1      44.658  26.331  32.454  1.00  0.00     0.029 A 
ATOM     37  C   UNL A   1      43.858  27.356  32.940  1.00  0.00     0.049 A 
ATOM     38  H   UNL A   1      42.340  28.422  31.941  1.00  0.00     0.167 HD
ATOM     39  C   UNL A   1      43.059  28.947  34.705  1.00  0.00     0.074 A 
ATOM     40  C   UNL A   1      43.117  29.503  36.046  1.00  0.00     0.031 C 
ATOM     41  C   UNL A   1      43.867  27.951  34.258  1.00  0.00     0.034 A 
BRANCH  28  42
ATOM     42  C   UNL A   1      42.995  26.234  28.320  1.00  0.00     0.023 A 
ATOM     43  C   UNL A   1      42.348  25.015  28.050  1.00  0.00     0.031 A 
ATOM     44  C   UNL A   1      44.103  26.578  27.526  1.00  0.00     0.131 A 
ATOM     45  C   UNL A   1      42.873  24.144  27.081  1.00  0.00     0.055 A 
ATOM     46  C   UNL A   1      44.565  25.749  26.502  1.00  0.00     0.041 A 
ATOM     47  F   UNL A   1      44.789  27.708  27.762  1.00  0.00    -0.206 F 
ATOM     48  C   UNL A   1      43.960  24.514  26.287  1.00  0.00     0.022 A 
BRANCH  45  49
ATOM     49  S   UNL A   1      42.232  22.446  26.999  1.00  0.00     0.124 S 
ATOM     50  O   UNL A   1      42.902  21.936  25.804  1.00  0.00    -0.237 OA
ATOM     51  O   UNL A   1      42.671  21.879  28.268  1.00  0.00    -0.237 OA
ATOM     52  O   UNL A   1      40.788  22.630  26.863  1.00  0.00    -0.744 OA
ENDBRANCH  45  49
ENDBRANCH  28  42
BRANCH  29  53
ATOM     53  C   UNL A   1      39.973  32.360  35.861  1.00  0.00     0.023 A 
ATOM     54  C   UNL A   1      39.157  31.864  36.889  1.00  0.00     0.031 A 
ATOM     55  C   UNL A   1      40.299  33.732  35.892  1.00  0.00     0.131 A 
ATOM     56  C   UNL A   1      38.659  32.736  37.873  1.00  0.00     0.055 A 
ATOM     57  C   UNL A   1      39.856  34.580  36.909  1.00  0.00     0.041 A 
ATOM     58  F   UNL A   1      41.066  34.273  34.933  1.00  0.00    -0.206 F 
ATOM     59  C   UNL A   1      39.017  34.085  37.900  1.00  0.00     0.022 A 
BRANCH  56  60
ATOM     60  S   UNL A   1      37.449  32.100  39.066  1.00  0.00     0.124 S 
ATOM     61  O   UNL A   1      36.748  31.099  38.272  1.00  0.00    -0.237 OA
ATOM     62  O   UNL A   1      38.309  31.591  40.129  1.00  0.00    -0.237 OA
ATOM     63  O   UNL A   1      36.662  33.282  39.415  1.00  0.00    -0.744 OA
ENDBRANCH  56  60
ENDBRANCH  29  53
BRANCH  41  64
ATOM     64  C   UNL A   1      44.907  27.454  35.225  1.00  0.00     0.023 A 
ATOM     65  C   UNL A   1      46.111  28.144  35.430  1.00  0.00     0.031 A 
ATOM     66  C   UNL A   1      44.678  26.272  35.949  1.00  0.00     0.131 A 
ATOM     67  C   UNL A   1      47.072  27.612  36.298  1.00  0.00     0.055 A 
ATOM     68  C   UNL A   1      45.609  25.786  36.865  1.00  0.00     0.041 A 
ATOM     69  F   UNL A   1      43.541  25.577  35.784  1.00  0.00    -0.206 F 
ATOM     70  C   UNL A   1      46.820  26.451  37.034  1.00  0.00     0.022 A 
BRANCH  67  71
ATOM     71  S   UNL A   1      48.699  28.407  36.376  1.00  0.00     0.124 S 
ATOM     72  O   UNL A   1      49.598  27.271  36.202  1.00  0.00    -0.237 OA
ATOM     73  O   UNL A   1      48.640  29.350  35.264  1.00  0.00    -0.237 OA
ATOM     74  O   UNL A   1      48.718  29.016  37.705  1.00  0.00    -0.744 OA
ENDBRANCH  67  71
ENDBRANCH  41  64
ENDBRANCH  15  16
ENDBRANCH   8  10
ENDBRANCH   7   8
ENDBRANCH   6   7
ENDBRANCH   5   6
ENDBRANCH   4   5
ENDBRANCH   3   4
ENDBRANCH   2   3
ENDBRANCH   1   2
BRANCH   1  75
ATOM     75  C   UNL A   1      33.618  26.367  23.437  1.00  0.00     0.188 C 
BRANCH  75  76
ATOM     76  C   UNL A   1      33.164  25.292  22.427  1.00  0.00     0.188 C 
BRANCH  76  77
ATOM     77  O   UNL A   1      31.804  24.937  22.554  1.00  0.00    -0.376 OA
BRANCH  77  78
ATOM     78  C   UNL A   1      30.829  25.973  22.537  1.00  0.00     0.202 C 
BRANCH  78  79
ATOM     79  C   UNL A   1      29.767  26.121  23.656  1.00  0.00     0.261 C 
BRANCH  79  80
ATOM     80  O   UNL A   1      30.298  26.466  24.943  1.00  0.00    -0.463 OA
BRANCH  80  81
ATOM     81  C   UNL A   1      30.207  25.510  25.913  1.00  0.00     0.312 C 
ATOM     82  O   UNL A   1      29.207  25.303  26.588  1.00  0.00    -0.252 OA
BRANCH  81  83
ATOM     83  C   UNL A   1      31.427  24.584  25.878  1.00  0.00     0.123 C 
ATOM     84  C   UNL A   1      32.182  24.276  27.144  1.00  0.00    -0.015 C 
ATOM     85  C   UNL A   1      31.134  23.160  25.414  1.00  0.00     0.043 C 
ATOM     86  C   UNL A   1      32.781  23.080  27.068  1.00  0.00    -0.011 C 
ATOM     87  C   UNL A   1      32.367  22.357  25.828  1.00  0.00     0.093 C 
BRANCH  87  88
ATOM     88  N   UNL A   1      33.528  22.260  24.942  1.00  0.00    -0.204 NA
ATOM     89  H   UNL A   1      33.917  23.201  24.923  1.00  0.00     0.142 HD
BRANCH  88  90
ATOM     90  S   UNL A   1      34.863  21.255  25.087  1.00  0.00     0.244 S 
ATOM     91  O   UNL A   1      35.671  21.577  23.915  1.00  0.00    -0.207 OA
ATOM     92  O   UNL A   1      35.388  21.344  26.409  1.00  0.00    -0.207 OA
BRANCH  90  93
ATOM     93  C   UNL A   1      34.253  19.627  24.784  1.00  0.00     0.121 A 
ATOM     94  C   UNL A   1      32.901  19.413  24.483  1.00  0.00     0.028 A 
ATOM     95  C   UNL A   1      35.152  18.563  24.767  1.00  0.00     0.181 A 
ATOM     96  C   UNL A   1      32.458  18.125  24.168  1.00  0.00     0.044 A 
ATOM     97  C   UNL A   1      34.705  17.284  24.450  1.00  0.00     0.195 A 
ATOM     98  F   UNL A   1      36.450  18.739  25.044  1.00  0.00    -0.202 F 
ATOM     99  C   UNL A   1      33.366  17.069  24.151  1.00  0.00     0.161 A 
ATOM    100  F   UNL A   1      35.562  16.255  24.454  1.00  0.00    -0.200 F 
ATOM    101  F   UNL A   1      32.927  15.836  23.865  1.00  0.00    -0.204 F 
ENDBRANCH  90  93
ENDBRANCH  88  90
ENDBRANCH  87  88
ENDBRANCH  81  83
ENDBRANCH  80  81
ENDBRANCH  79  80
ENDBRANCH  78  79
ENDBRANCH  77  78
ENDBRANCH  76  77
ENDBRANCH  75  76
ENDBRANCH   1  75
TORSDOF 26
ENDMDL
