MODEL 1
REMARK VINA RESULT:      -8.0      0.000      0.000
REMARK SMILES Cc1ccc(S(=O)(=O)n2cc(C(=O)C(=O)NCC(=O)OCCOCCOCCOCCOC(=O)c3ccc(-c4c5nc(c(-c6cc(S(=O)(=O)[O-])ccc6F)c6ccc([nH]6)c(-c6cc(S(=O)(=O)[O-])ccc6F)c6nc(c(-c7cc(S(=O)(=O)[O-])ccc7F)c7ccc4[nH]7)C=C6)C=C5)cc3)c3ccccc32)cc1
REMARK SMILES IDX 25 1 24 2 23 3 22 4 21 5 20 6 18 7 19 8 17 9 16 10 14 11
REMARK SMILES IDX 15 12 12 14 13 15 11 16 9 17 10 18 103 19 98 20 102 21 99 22
REMARK SMILES IDX 101 23 100 24 6 25 7 26 8 27 5 28 1 29 2 30 3 31 105 32 4 33
REMARK SMILES IDX 104 34 26 35 27 36 28 37 29 38 30 39 31 40 32 41 33 42 34 43
REMARK SMILES IDX 35 44 36 45 97 46 37 47 96 48 38 49 39 50 40 51 90 52 41 53
REMARK SMILES IDX 95 54 89 55 91 56 42 57 94 58 88 59 87 60 43 62 75 63 55 64
REMARK SMILES IDX 74 65 56 66 59 67 73 68 92 69 57 70 58 71 72 73 93 74 60 75
REMARK SMILES IDX 44 76 45 77 53 78 46 79 52 80 54 81 51 82 47 83 48 84 49 85
REMARK SMILES IDX 50 86 76 87 77 88 85 89 78 90 84 91 86 92 83 93 79 94 80 95
REMARK SMILES IDX 81 96 82 97 61 98 62 99 70 100 63 101 69 102 71 103 68 104
REMARK SMILES IDX 64 105 65 106 66 107 67 108
REMARK H PARENT 16 13 91 61 59 72
REMARK Flexibility Score: inf
ROOT
ATOM      1  C   UNL A   1      47.252  37.211  37.516  1.00  0.00     0.188 C 
ENDROOT
BRANCH   1   2
ATOM      2  C   UNL A   1      46.177  36.295  38.118  1.00  0.00     0.188 C 
BRANCH   2   3
ATOM      3  O   UNL A   1      45.004  36.025  37.362  1.00  0.00    -0.376 OA
BRANCH   3   4
ATOM      4  C   UNL A   1      43.801  35.875  38.120  1.00  0.00     0.202 C 
BRANCH   4   5
ATOM      5  C   UNL A   1      42.543  35.522  37.333  1.00  0.00     0.261 C 
BRANCH   5   6
ATOM      6  O   UNL A   1      41.448  35.348  38.244  1.00  0.00    -0.462 OA
BRANCH   6   7
ATOM      7  C   UNL A   1      40.857  34.135  38.252  1.00  0.00     0.325 C 
ATOM      8  O   UNL A   1      41.364  33.096  38.655  1.00  0.00    -0.250 OA
BRANCH   7   9
ATOM      9  C   UNL A   1      39.431  34.206  37.718  1.00  0.00     0.239 C 
BRANCH   9  10
ATOM     10  N   UNL A   1      39.312  34.669  36.337  1.00  0.00    -0.338 N 
ATOM     11  C   UNL A   1      38.458  34.355  35.311  1.00  0.00     0.292 C 
ATOM     12  O   UNL A   1      38.422  35.086  34.327  1.00  0.00    -0.265 OA
ATOM     13  H   UNL A   1      39.984  35.345  36.092  1.00  0.00     0.164 HD
BRANCH  11  14
ATOM     14  C   UNL A   1      37.511  33.163  35.441  1.00  0.00     0.252 C 
ATOM     15  O   UNL A   1      36.687  33.196  36.354  1.00  0.00    -0.283 OA
BRANCH  14  16
ATOM     16  C   UNL A   1      37.509  32.053  34.477  1.00  0.00     0.054 A 
ATOM     17  N   UNL A   1      37.931  30.155  33.374  1.00  0.00    -0.240 N 
ATOM     18  C   UNL A   1      38.266  30.892  34.485  1.00  0.00     0.117 A 
ATOM     19  C   UNL A   1      36.982  30.807  32.612  1.00  0.00     0.065 A 
ATOM     20  C   UNL A   1      36.697  31.997  33.292  1.00  0.00     0.012 A 
ATOM     21  C   UNL A   1      36.367  30.498  31.385  1.00  0.00     0.028 A 
ATOM     22  C   UNL A   1      35.755  32.887  32.734  1.00  0.00     0.011 A 
ATOM     23  C   UNL A   1      35.463  31.419  30.843  1.00  0.00     0.002 A 
ATOM     24  C   UNL A   1      35.155  32.597  31.511  1.00  0.00     0.001 A 
BRANCH  17  25
ATOM     25  S   UNL A   1      38.744  28.734  32.899  1.00  0.00     0.268 S 
ATOM     26  O   UNL A   1      37.757  27.662  33.008  1.00  0.00    -0.201 OA
ATOM     27  O   UNL A   1      40.004  28.704  33.597  1.00  0.00    -0.201 OA
BRANCH  25  28
ATOM     28  C   UNL A   1      39.132  28.877  31.167  1.00  0.00     0.088 A 
ATOM     29  C   UNL A   1      40.440  29.204  27.082  1.00  0.00     0.044 C 
ATOM     30  C   UNL A   1      39.963  29.106  28.500  1.00  0.00    -0.051 A 
ATOM     31  C   UNL A   1      40.538  29.913  29.489  1.00  0.00     0.005 A 
ATOM     32  C   UNL A   1      38.944  28.212  28.855  1.00  0.00     0.005 A 
ATOM     33  C   UNL A   1      40.131  29.796  30.819  1.00  0.00     0.022 A 
ATOM     34  C   UNL A   1      38.516  28.105  30.183  1.00  0.00     0.022 A 
ENDBRANCH  25  28
ENDBRANCH  17  25
ENDBRANCH  14  16
ENDBRANCH  11  14
ENDBRANCH   9  10
ENDBRANCH   7   9
ENDBRANCH   6   7
ENDBRANCH   5   6
ENDBRANCH   4   5
ENDBRANCH   3   4
ENDBRANCH   2   3
ENDBRANCH   1   2
BRANCH   1  35
ATOM     35  O   UNL A   1      46.925  38.583  37.485  1.00  0.00    -0.377 OA
BRANCH  35  36
ATOM     36  C   UNL A   1      46.277  39.108  36.318  1.00  0.00     0.188 C 
BRANCH  36  37
ATOM     37  C   UNL A   1      44.990  39.918  36.455  1.00  0.00     0.188 C 
BRANCH  37  38
ATOM     38  O   UNL A   1      44.589  40.345  35.148  1.00  0.00    -0.376 OA
BRANCH  38  39
ATOM     39  C   UNL A   1      44.822  41.712  34.835  1.00  0.00     0.202 C 
BRANCH  39  40
ATOM     40  C   UNL A   1      43.699  42.637  35.301  1.00  0.00     0.261 C 
BRANCH  40  41
ATOM     41  O   UNL A   1      43.753  43.877  34.566  1.00  0.00    -0.460 OA
BRANCH  41  42
ATOM     42  C   UNL A   1      42.605  44.206  33.910  1.00  0.00     0.338 C 
ATOM     43  O   UNL A   1      41.738  44.931  34.368  1.00  0.00    -0.246 OA
BRANCH  42  44
ATOM     44  C   UNL A   1      42.506  43.472  32.612  1.00  0.00     0.060 A 
ATOM     45  C   UNL A   1      41.711  42.319  32.497  1.00  0.00     0.016 A 
ATOM     46  C   UNL A   1      43.420  43.765  31.614  1.00  0.00     0.016 A 
ATOM     47  C   UNL A   1      41.977  41.367  31.492  1.00  0.00     0.010 A 
ATOM     48  C   UNL A   1      43.761  42.766  30.725  1.00  0.00     0.010 A 
ATOM     49  C   UNL A   1      43.080  41.539  30.659  1.00  0.00    -0.014 A 
BRANCH  49  50
ATOM     50  C   UNL A   1      43.726  40.519  29.795  1.00  0.00     0.031 A 
ATOM     51  C   UNL A   1      44.232  39.260  30.454  1.00  0.00     0.074 A 
ATOM     52  C   UNL A   1      43.509  40.542  28.451  1.00  0.00     0.049 A 
ATOM     53  N   UNL A   1      44.551  38.170  29.849  1.00  0.00    -0.248 NA
ATOM     54  C   UNL A   1      44.380  39.118  31.905  1.00  0.00     0.031 C 
ATOM     55  C   UNL A   1      43.354  39.384  27.561  1.00  0.00     0.029 A 
ATOM     56  N   UNL A   1      43.302  41.603  27.579  1.00  0.00    -0.354 N 
ATOM     57  C   UNL A   1      44.707  37.146  30.769  1.00  0.00     0.074 A 
ATOM     58  C   UNL A   1      44.601  37.803  32.045  1.00  0.00     0.031 C 
ATOM     59  C   UNL A   1      43.160  39.763  26.292  1.00  0.00     0.029 A 
ATOM     60  C   UNL A   1      43.479  41.159  26.249  1.00  0.00     0.049 A 
ATOM     61  H   UNL A   1      43.067  42.521  27.845  1.00  0.00     0.167 HD
ATOM     62  C   UNL A   1      44.829  35.862  30.309  1.00  0.00     0.034 A 
ATOM     63  C   UNL A   1      44.519  41.642  25.503  1.00  0.00     0.034 A 
ATOM     64  C   UNL A   1      45.048  35.864  28.853  1.00  0.00     0.049 A 
ATOM     65  C   UNL A   1      45.632  40.592  25.368  1.00  0.00     0.074 A 
ATOM     66  C   UNL A   1      44.421  35.300  27.754  1.00  0.00     0.029 A 
ATOM     67  N   UNL A   1      46.017  36.721  28.341  1.00  0.00    -0.354 N 
ATOM     68  N   UNL A   1      45.764  39.556  26.169  1.00  0.00    -0.248 NA
ATOM     69  C   UNL A   1      46.573  40.525  24.251  1.00  0.00     0.031 C 
ATOM     70  C   UNL A   1      44.953  35.919  26.584  1.00  0.00     0.029 A 
ATOM     71  C   UNL A   1      45.959  36.789  26.972  1.00  0.00     0.049 A 
ATOM     72  H   UNL A   1      46.665  37.216  28.892  1.00  0.00     0.167 HD
ATOM     73  C   UNL A   1      46.710  38.690  25.682  1.00  0.00     0.074 A 
ATOM     74  C   UNL A   1      47.198  39.356  24.487  1.00  0.00     0.031 C 
ATOM     75  C   UNL A   1      47.013  37.479  26.251  1.00  0.00     0.034 A 
BRANCH  62  76
ATOM     76  C   UNL A   1      44.654  34.551  31.083  1.00  0.00     0.023 A 
ATOM     77  C   UNL A   1      45.761  34.036  31.807  1.00  0.00     0.031 A 
ATOM     78  C   UNL A   1      43.519  33.716  31.098  1.00  0.00     0.131 A 
ATOM     79  C   UNL A   1      45.741  32.771  32.432  1.00  0.00     0.055 A 
ATOM     80  C   UNL A   1      43.481  32.472  31.760  1.00  0.00     0.041 A 
ATOM     81  F   UNL A   1      42.387  34.031  30.463  1.00  0.00    -0.206 F 
ATOM     82  C   UNL A   1      44.597  31.986  32.421  1.00  0.00     0.022 A 
BRANCH  79  83
ATOM     83  S   UNL A   1      47.249  32.149  33.235  1.00  0.00     0.124 S 
ATOM     84  O   UNL A   1      46.710  31.392  34.359  1.00  0.00    -0.237 OA
ATOM     85  O   UNL A   1      47.877  31.372  32.172  1.00  0.00    -0.237 OA
ATOM     86  O   UNL A   1      47.965  33.370  33.604  1.00  0.00    -0.744 OA
ENDBRANCH  79  83
ENDBRANCH  62  76
BRANCH  63  87
ATOM     87  C   UNL A   1      44.524  43.146  25.613  1.00  0.00     0.023 A 
ATOM     88  C   UNL A   1      45.697  43.638  26.257  1.00  0.00     0.031 A 
ATOM     89  C   UNL A   1      44.007  43.910  24.554  1.00  0.00     0.131 A 
ATOM     90  C   UNL A   1      46.493  44.607  25.617  1.00  0.00     0.055 A 
ATOM     91  C   UNL A   1      44.770  44.939  23.972  1.00  0.00     0.041 A 
ATOM     92  F   UNL A   1      42.893  43.521  23.915  1.00  0.00    -0.206 F 
ATOM     93  C   UNL A   1      46.050  45.231  24.450  1.00  0.00     0.022 A 
BRANCH  90  94
ATOM     94  S   UNL A   1      48.252  44.754  26.099  1.00  0.00     0.124 S 
ATOM     95  O   UNL A   1      48.485  43.489  26.783  1.00  0.00    -0.237 OA
ATOM     96  O   UNL A   1      48.919  44.921  24.813  1.00  0.00    -0.237 OA
ATOM     97  O   UNL A   1      48.269  45.948  26.944  1.00  0.00    -0.744 OA
ENDBRANCH  90  94
ENDBRANCH  63  87
BRANCH  75  98
ATOM     98  C   UNL A   1      48.358  36.776  26.168  1.00  0.00     0.023 A 
ATOM     99  C   UNL A   1      49.491  37.259  26.822  1.00  0.00     0.031 A 
ATOM    100  C   UNL A   1      48.519  35.505  25.545  1.00  0.00     0.131 A 
ATOM    101  C   UNL A   1      50.710  36.565  26.786  1.00  0.00     0.055 A 
ATOM    102  C   UNL A   1      49.709  34.773  25.585  1.00  0.00     0.041 A 
ATOM    103  F   UNL A   1      47.523  34.886  24.897  1.00  0.00    -0.206 F 
ATOM    104  C   UNL A   1      50.825  35.311  26.197  1.00  0.00     0.022 A 
BRANCH 101 105
ATOM    105  S   UNL A   1      52.148  37.403  27.482  1.00  0.00     0.124 S 
ATOM    106  O   UNL A   1      51.700  37.677  28.845  1.00  0.00    -0.237 OA
ATOM    107  O   UNL A   1      53.191  36.391  27.352  1.00  0.00    -0.237 OA
ATOM    108  O   UNL A   1      52.309  38.578  26.630  1.00  0.00    -0.744 OA
ENDBRANCH 101 105
ENDBRANCH  75  98
ENDBRANCH  49  50
ENDBRANCH  42  44
ENDBRANCH  41  42
ENDBRANCH  40  41
ENDBRANCH  39  40
ENDBRANCH  38  39
ENDBRANCH  37  38
ENDBRANCH  36  37
ENDBRANCH  35  36
ENDBRANCH   1  35
TORSDOF 28
ENDMDL
MODEL 2
REMARK VINA RESULT:      -7.7      5.981     12.592
REMARK SMILES Cc1ccc(S(=O)(=O)n2cc(C(=O)C(=O)NCC(=O)OCCOCCOCCOCCOC(=O)c3ccc(-c4c5nc(c(-c6cc(S(=O)(=O)[O-])ccc6F)c6ccc([nH]6)c(-c6cc(S(=O)(=O)[O-])ccc6F)c6nc(c(-c7cc(S(=O)(=O)[O-])ccc7F)c7ccc4[nH]7)C=C6)C=C5)cc3)c3ccccc32)cc1
REMARK SMILES IDX 25 1 24 2 23 3 22 4 21 5 20 6 18 7 19 8 17 9 16 10 14 11
REMARK SMILES IDX 15 12 12 14 13 15 11 16 9 17 10 18 103 19 98 20 102 21 99 22
REMARK SMILES IDX 101 23 100 24 6 25 7 26 8 27 5 28 1 29 2 30 3 31 105 32 4 33
REMARK SMILES IDX 104 34 26 35 27 36 28 37 29 38 30 39 31 40 32 41 33 42 34 43
REMARK SMILES IDX 35 44 36 45 97 46 37 47 96 48 38 49 39 50 40 51 90 52 41 53
REMARK SMILES IDX 95 54 89 55 91 56 42 57 94 58 88 59 87 60 43 62 75 63 55 64
REMARK SMILES IDX 74 65 56 66 59 67 73 68 92 69 57 70 58 71 72 73 93 74 60 75
REMARK SMILES IDX 44 76 45 77 53 78 46 79 52 80 54 81 51 82 47 83 48 84 49 85
REMARK SMILES IDX 50 86 76 87 77 88 85 89 78 90 84 91 86 92 83 93 79 94 80 95
REMARK SMILES IDX 81 96 82 97 61 98 62 99 70 100 63 101 69 102 71 103 68 104
REMARK SMILES IDX 64 105 65 106 66 107 67 108
REMARK H PARENT 16 13 91 61 59 72
REMARK Flexibility Score: inf
ROOT
ATOM      1  C   UNL A   1      43.036  22.453  25.164  1.00  0.00     0.188 C 
ENDROOT
BRANCH   1   2
ATOM      2  C   UNL A   1      43.522  21.023  25.437  1.00  0.00     0.188 C 
BRANCH   2   3
ATOM      3  O   UNL A   1      43.016  20.330  26.570  1.00  0.00    -0.376 OA
BRANCH   3   4
ATOM      4  C   UNL A   1      41.949  20.979  27.265  1.00  0.00     0.202 C 
BRANCH   4   5
ATOM      5  C   UNL A   1      40.613  21.062  26.533  1.00  0.00     0.261 C 
BRANCH   5   6
ATOM      6  O   UNL A   1      39.726  21.922  27.262  1.00  0.00    -0.462 OA
BRANCH   6   7
ATOM      7  C   UNL A   1      39.522  23.154  26.747  1.00  0.00     0.325 C 
ATOM      8  O   UNL A   1      40.337  24.067  26.736  1.00  0.00    -0.250 OA
BRANCH   7   9
ATOM      9  C   UNL A   1      38.133  23.278  26.132  1.00  0.00     0.239 C 
BRANCH   9  10
ATOM     10  N   UNL A   1      37.413  22.015  25.973  1.00  0.00    -0.338 N 
ATOM     11  C   UNL A   1      36.586  21.522  24.999  1.00  0.00     0.292 C 
ATOM     12  O   UNL A   1      36.322  20.324  24.997  1.00  0.00    -0.265 OA
ATOM     13  H   UNL A   1      37.550  21.391  26.722  1.00  0.00     0.164 HD
BRANCH  11  14
ATOM     14  C   UNL A   1      36.079  22.440  23.887  1.00  0.00     0.252 C 
ATOM     15  O   UNL A   1      36.804  22.587  22.904  1.00  0.00    -0.283 OA
BRANCH  14  16
ATOM     16  C   UNL A   1      34.749  23.065  23.930  1.00  0.00     0.054 A 
ATOM     17  N   UNL A   1      32.887  24.206  23.455  1.00  0.00    -0.240 N 
ATOM     18  C   UNL A   1      34.113  23.825  22.963  1.00  0.00     0.117 A 
ATOM     19  C   UNL A   1      32.698  23.734  24.739  1.00  0.00     0.065 A 
ATOM     20  C   UNL A   1      33.852  23.008  25.052  1.00  0.00     0.012 A 
ATOM     21  C   UNL A   1      31.654  23.893  25.669  1.00  0.00     0.028 A 
ATOM     22  C   UNL A   1      33.950  22.408  26.326  1.00  0.00     0.011 A 
ATOM     23  C   UNL A   1      31.800  23.314  26.935  1.00  0.00     0.002 A 
ATOM     24  C   UNL A   1      32.930  22.575  27.260  1.00  0.00     0.001 A 
BRANCH  17  25
ATOM     25  S   UNL A   1      31.844  25.296  22.661  1.00  0.00     0.268 S 
ATOM     26  O   UNL A   1      30.494  24.783  22.886  1.00  0.00    -0.201 OA
ATOM     27  O   UNL A   1      32.379  25.523  21.343  1.00  0.00    -0.201 OA
BRANCH  25  28
ATOM     28  C   UNL A   1      31.930  26.857  23.514  1.00  0.00     0.088 A 
ATOM     29  C   UNL A   1      31.893  30.480  25.832  1.00  0.00     0.044 C 
ATOM     30  C   UNL A   1      31.909  29.232  25.002  1.00  0.00    -0.051 A 
ATOM     31  C   UNL A   1      30.705  28.612  24.647  1.00  0.00     0.005 A 
ATOM     32  C   UNL A   1      33.118  28.670  24.572  1.00  0.00     0.005 A 
ATOM     33  C   UNL A   1      30.713  27.425  23.912  1.00  0.00     0.022 A 
ATOM     34  C   UNL A   1      33.133  27.493  23.818  1.00  0.00     0.022 A 
ENDBRANCH  25  28
ENDBRANCH  17  25
ENDBRANCH  14  16
ENDBRANCH  11  14
ENDBRANCH   9  10
ENDBRANCH   7   9
ENDBRANCH   6   7
ENDBRANCH   5   6
ENDBRANCH   4   5
ENDBRANCH   3   4
ENDBRANCH   2   3
ENDBRANCH   1   2
BRANCH   1  35
ATOM     35  O   UNL A   1      43.735  23.468  25.850  1.00  0.00    -0.377 OA
BRANCH  35  36
ATOM     36  C   UNL A   1      44.173  24.619  25.116  1.00  0.00     0.188 C 
BRANCH  36  37
ATOM     37  C   UNL A   1      43.479  25.964  25.315  1.00  0.00     0.188 C 
BRANCH  37  38
ATOM     38  O   UNL A   1      44.053  26.599  26.464  1.00  0.00    -0.376 OA
BRANCH  38  39
ATOM     39  C   UNL A   1      45.433  26.353  26.694  1.00  0.00     0.202 C 
BRANCH  39  40
ATOM     40  C   UNL A   1      46.247  27.629  26.900  1.00  0.00     0.261 C 
BRANCH  40  41
ATOM     41  O   UNL A   1      45.368  28.774  26.889  1.00  0.00    -0.460 OA
BRANCH  41  42
ATOM     42  C   UNL A   1      45.236  29.407  28.089  1.00  0.00     0.338 C 
ATOM     43  O   UNL A   1      44.949  28.845  29.132  1.00  0.00    -0.246 OA
BRANCH  42  44
ATOM     44  C   UNL A   1      45.383  30.885  27.928  1.00  0.00     0.060 A 
ATOM     45  C   UNL A   1      46.583  31.530  28.274  1.00  0.00     0.016 A 
ATOM     46  C   UNL A   1      44.245  31.645  27.713  1.00  0.00     0.016 A 
ATOM     47  C   UNL A   1      46.587  32.902  28.597  1.00  0.00     0.010 A 
ATOM     48  C   UNL A   1      44.233  32.949  28.165  1.00  0.00     0.010 A 
ATOM     49  C   UNL A   1      45.383  33.599  28.646  1.00  0.00    -0.014 A 
BRANCH  49  50
ATOM     50  C   UNL A   1      45.126  34.916  29.283  1.00  0.00     0.031 A 
ATOM     51  C   UNL A   1      45.171  36.140  28.404  1.00  0.00     0.074 A 
ATOM     52  C   UNL A   1      44.496  34.967  30.489  1.00  0.00     0.049 A 
ATOM     53  N   UNL A   1      44.706  37.301  28.707  1.00  0.00    -0.248 NA
ATOM     54  C   UNL A   1      45.726  36.135  27.048  1.00  0.00     0.031 C 
ATOM     55  C   UNL A   1      43.517  35.968  30.931  1.00  0.00     0.029 A 
ATOM     56  N   UNL A   1      44.527  34.098  31.572  1.00  0.00    -0.354 N 
ATOM     57  C   UNL A   1      44.668  38.105  27.580  1.00  0.00     0.074 A 
ATOM     58  C   UNL A   1      45.333  37.324  26.571  1.00  0.00     0.031 C 
ATOM     59  C   UNL A   1      43.099  35.727  32.180  1.00  0.00     0.029 A 
ATOM     60  C   UNL A   1      44.002  34.748  32.712  1.00  0.00     0.049 A 
ATOM     61  H   UNL A   1      44.862  33.173  31.550  1.00  0.00     0.167 HD
ATOM     62  C   UNL A   1      44.002  39.300  27.646  1.00  0.00     0.034 A 
ATOM     63  C   UNL A   1      44.815  35.016  33.778  1.00  0.00     0.034 A 
ATOM     64  C   UNL A   1      43.676  39.621  29.046  1.00  0.00     0.049 A 
ATOM     65  C   UNL A   1      45.175  36.508  33.833  1.00  0.00     0.074 A 
ATOM     66  C   UNL A   1      42.522  39.903  29.758  1.00  0.00     0.029 A 
ATOM     67  N   UNL A   1      44.689  39.508  29.994  1.00  0.00    -0.354 N 
ATOM     68  N   UNL A   1      45.070  37.327  32.806  1.00  0.00    -0.248 NA
ATOM     69  C   UNL A   1      45.520  37.230  35.056  1.00  0.00     0.031 C 
ATOM     70  C   UNL A   1      42.840  39.842  31.147  1.00  0.00     0.029 A 
ATOM     71  C   UNL A   1      44.201  39.612  31.271  1.00  0.00     0.049 A 
ATOM     72  H   UNL A   1      45.639  39.372  29.774  1.00  0.00     0.167 HD
ATOM     73  C   UNL A   1      45.261  38.625  33.206  1.00  0.00     0.074 A 
ATOM     74  C   UNL A   1      45.557  38.505  34.623  1.00  0.00     0.031 C 
ATOM     75  C   UNL A   1      45.131  39.713  32.380  1.00  0.00     0.034 A 
BRANCH  62  76
ATOM     76  C   UNL A   1      43.508  40.183  26.495  1.00  0.00     0.023 A 
ATOM     77  C   UNL A   1      44.462  40.930  25.756  1.00  0.00     0.031 A 
ATOM     78  C   UNL A   1      42.172  40.423  26.118  1.00  0.00     0.131 A 
ATOM     79  C   UNL A   1      44.095  41.875  24.774  1.00  0.00     0.055 A 
ATOM     80  C   UNL A   1      41.805  41.333  25.106  1.00  0.00     0.041 A 
ATOM     81  F   UNL A   1      41.140  39.818  26.710  1.00  0.00    -0.206 F 
ATOM     82  C   UNL A   1      42.764  42.074  24.436  1.00  0.00     0.022 A 
BRANCH  79  83
ATOM     83  S   UNL A   1      45.385  42.868  23.965  1.00  0.00     0.124 S 
ATOM     84  O   UNL A   1      45.677  42.080  22.773  1.00  0.00    -0.237 OA
ATOM     85  O   UNL A   1      44.715  44.145  23.749  1.00  0.00    -0.237 OA
ATOM     86  O   UNL A   1      46.460  42.901  24.957  1.00  0.00    -0.744 OA
ENDBRANCH  79  83
ENDBRANCH  62  76
BRANCH  63  87
ATOM     87  C   UNL A   1      45.566  33.758  34.130  1.00  0.00     0.023 A 
ATOM     88  C   UNL A   1      46.980  33.946  34.105  1.00  0.00     0.031 A 
ATOM     89  C   UNL A   1      45.051  32.910  35.124  1.00  0.00     0.131 A 
ATOM     90  C   UNL A   1      47.749  33.617  35.237  1.00  0.00     0.055 A 
ATOM     91  C   UNL A   1      45.850  32.509  36.211  1.00  0.00     0.041 A 
ATOM     92  F   UNL A   1      43.733  32.667  35.195  1.00  0.00    -0.206 F 
ATOM     93  C   UNL A   1      47.177  32.934  36.311  1.00  0.00     0.022 A 
BRANCH  90  94
ATOM     94  S   UNL A   1      49.377  34.425  35.455  1.00  0.00     0.124 S 
ATOM     95  O   UNL A   1      49.861  33.802  36.680  1.00  0.00    -0.237 OA
ATOM     96  O   UNL A   1      50.077  34.060  34.229  1.00  0.00    -0.237 OA
ATOM     97  O   UNL A   1      49.036  35.843  35.553  1.00  0.00    -0.744 OA
ENDBRANCH  90  94
ENDBRANCH  63  87
BRANCH  75  98
ATOM     98  C   UNL A   1      45.862  41.036  32.542  1.00  0.00     0.023 A 
ATOM     99  C   UNL A   1      45.491  41.977  33.501  1.00  0.00     0.031 A 
ATOM    100  C   UNL A   1      47.059  41.339  31.832  1.00  0.00     0.131 A 
ATOM    101  C   UNL A   1      46.214  43.167  33.679  1.00  0.00     0.055 A 
ATOM    102  C   UNL A   1      47.828  42.482  32.071  1.00  0.00     0.041 A 
ATOM    103  F   UNL A   1      47.570  40.528  30.896  1.00  0.00    -0.206 F 
ATOM    104  C   UNL A   1      47.397  43.418  32.993  1.00  0.00     0.022 A 
BRANCH 101 105
ATOM    105  S   UNL A   1      45.505  44.396  34.793  1.00  0.00     0.124 S 
ATOM    106  O   UNL A   1      44.115  44.435  34.344  1.00  0.00    -0.237 OA
ATOM    107  O   UNL A   1      45.727  43.793  36.104  1.00  0.00    -0.237 OA
ATOM    108  O   UNL A   1      46.283  45.600  34.520  1.00  0.00    -0.744 OA
ENDBRANCH 101 105
ENDBRANCH  75  98
ENDBRANCH  49  50
ENDBRANCH  42  44
ENDBRANCH  41  42
ENDBRANCH  40  41
ENDBRANCH  39  40
ENDBRANCH  38  39
ENDBRANCH  37  38
ENDBRANCH  36  37
ENDBRANCH  35  36
ENDBRANCH   1  35
TORSDOF 28
ENDMDL
MODEL 3
REMARK VINA RESULT:      -7.6      5.929     11.868
REMARK SMILES Cc1ccc(S(=O)(=O)n2cc(C(=O)C(=O)NCC(=O)OCCOCCOCCOCCOC(=O)c3ccc(-c4c5nc(c(-c6cc(S(=O)(=O)[O-])ccc6F)c6ccc([nH]6)c(-c6cc(S(=O)(=O)[O-])ccc6F)c6nc(c(-c7cc(S(=O)(=O)[O-])ccc7F)c7ccc4[nH]7)C=C6)C=C5)cc3)c3ccccc32)cc1
REMARK SMILES IDX 25 1 24 2 23 3 22 4 21 5 20 6 18 7 19 8 17 9 16 10 14 11
REMARK SMILES IDX 15 12 12 14 13 15 11 16 9 17 10 18 103 19 98 20 102 21 99 22
REMARK SMILES IDX 101 23 100 24 6 25 7 26 8 27 5 28 1 29 2 30 3 31 105 32 4 33
REMARK SMILES IDX 104 34 26 35 27 36 28 37 29 38 30 39 31 40 32 41 33 42 34 43
REMARK SMILES IDX 35 44 36 45 97 46 37 47 96 48 38 49 39 50 40 51 90 52 41 53
REMARK SMILES IDX 95 54 89 55 91 56 42 57 94 58 88 59 87 60 43 62 75 63 55 64
REMARK SMILES IDX 74 65 56 66 59 67 73 68 92 69 57 70 58 71 72 73 93 74 60 75
REMARK SMILES IDX 44 76 45 77 53 78 46 79 52 80 54 81 51 82 47 83 48 84 49 85
REMARK SMILES IDX 50 86 76 87 77 88 85 89 78 90 84 91 86 92 83 93 79 94 80 95
REMARK SMILES IDX 81 96 82 97 61 98 62 99 70 100 63 101 69 102 71 103 68 104
REMARK SMILES IDX 64 105 65 106 66 107 67 108
REMARK H PARENT 16 13 91 61 59 72
REMARK Flexibility Score: inf
ROOT
ATOM      1  C   UNL A   1      46.409  30.417  26.408  1.00  0.00     0.188 C 
ENDROOT
BRANCH   1   2
ATOM      2  C   UNL A   1      46.394  30.708  27.915  1.00  0.00     0.188 C 
BRANCH   2   3
ATOM      3  O   UNL A   1      45.727  29.800  28.782  1.00  0.00    -0.376 OA
BRANCH   3   4
ATOM      4  C   UNL A   1      45.021  30.394  29.874  1.00  0.00     0.202 C 
BRANCH   4   5
ATOM      5  C   UNL A   1      43.981  29.519  30.566  1.00  0.00     0.261 C 
BRANCH   5   6
ATOM      6  O   UNL A   1      43.469  28.561  29.629  1.00  0.00    -0.462 OA
BRANCH   6   7
ATOM      7  C   UNL A   1      42.200  28.748  29.206  1.00  0.00     0.325 C 
ATOM      8  O   UNL A   1      41.713  29.818  28.864  1.00  0.00    -0.250 OA
BRANCH   7   9
ATOM      9  C   UNL A   1      41.426  27.437  29.167  1.00  0.00     0.239 C 
BRANCH   9  10
ATOM     10  N   UNL A   1      40.988  27.017  27.837  1.00  0.00    -0.338 N 
ATOM     11  C   UNL A   1      41.141  25.860  27.119  1.00  0.00     0.292 C 
ATOM     12  O   UNL A   1      40.449  25.685  26.122  1.00  0.00    -0.265 OA
ATOM     13  H   UNL A   1      40.479  27.710  27.357  1.00  0.00     0.164 HD
BRANCH  11  14
ATOM     14  C   UNL A   1      42.098  24.774  27.611  1.00  0.00     0.252 C 
ATOM     15  O   UNL A   1      41.635  23.912  28.357  1.00  0.00    -0.283 OA
BRANCH  14  16
ATOM     16  C   UNL A   1      43.495  24.695  27.160  1.00  0.00     0.054 A 
ATOM     17  N   UNL A   1      45.701  24.960  26.918  1.00  0.00    -0.240 N 
ATOM     18  C   UNL A   1      44.614  25.327  27.676  1.00  0.00     0.117 A 
ATOM     19  C   UNL A   1      45.330  24.113  25.893  1.00  0.00     0.065 A 
ATOM     20  C   UNL A   1      43.949  23.927  26.033  1.00  0.00     0.012 A 
ATOM     21  C   UNL A   1      46.049  23.516  24.841  1.00  0.00     0.028 A 
ATOM     22  C   UNL A   1      43.280  23.103  25.102  1.00  0.00     0.011 A 
ATOM     23  C   UNL A   1      45.347  22.734  23.917  1.00  0.00     0.002 A 
ATOM     24  C   UNL A   1      43.981  22.523  24.048  1.00  0.00     0.001 A 
BRANCH  17  25
ATOM     25  S   UNL A   1      47.254  25.639  27.098  1.00  0.00     0.268 S 
ATOM     26  O   UNL A   1      48.161  24.507  27.272  1.00  0.00    -0.201 OA
ATOM     27  O   UNL A   1      47.150  26.707  28.059  1.00  0.00    -0.201 OA
BRANCH  25  28
ATOM     28  C   UNL A   1      47.702  26.399  25.551  1.00  0.00     0.088 A 
ATOM     29  C   UNL A   1      48.903  27.888  21.698  1.00  0.00     0.044 C 
ATOM     30  C   UNL A   1      48.492  27.393  23.052  1.00  0.00    -0.051 A 
ATOM     31  C   UNL A   1      49.364  26.594  23.800  1.00  0.00     0.005 A 
ATOM     32  C   UNL A   1      47.237  27.718  23.584  1.00  0.00     0.005 A 
ATOM     33  C   UNL A   1      48.971  26.093  25.042  1.00  0.00     0.022 A 
ATOM     34  C   UNL A   1      46.844  27.235  24.837  1.00  0.00     0.022 A 
ENDBRANCH  25  28
ENDBRANCH  17  25
ENDBRANCH  14  16
ENDBRANCH  11  14
ENDBRANCH   9  10
ENDBRANCH   7   9
ENDBRANCH   6   7
ENDBRANCH   5   6
ENDBRANCH   4   5
ENDBRANCH   3   4
ENDBRANCH   2   3
ENDBRANCH   1   2
BRANCH   1  35
ATOM     35  O   UNL A   1      45.698  31.338  25.610  1.00  0.00    -0.377 OA
BRANCH  35  36
ATOM     36  C   UNL A   1      44.697  32.155  26.230  1.00  0.00     0.188 C 
BRANCH  36  37
ATOM     37  C   UNL A   1      44.218  33.433  25.546  1.00  0.00     0.188 C 
BRANCH  37  38
ATOM     38  O   UNL A   1      45.364  34.124  25.035  1.00  0.00    -0.376 OA
BRANCH  38  39
ATOM     39  C   UNL A   1      45.768  35.286  25.746  1.00  0.00     0.202 C 
BRANCH  39  40
ATOM     40  C   UNL A   1      44.880  35.594  26.950  1.00  0.00     0.261 C 
BRANCH  40  41
ATOM     41  O   UNL A   1      44.461  36.975  26.905  1.00  0.00    -0.460 OA
BRANCH  41  42
ATOM     42  C   UNL A   1      43.157  37.190  27.235  1.00  0.00     0.338 C 
ATOM     43  O   UNL A   1      42.352  37.755  26.514  1.00  0.00    -0.246 OA
BRANCH  42  44
ATOM     44  C   UNL A   1      42.881  36.739  28.632  1.00  0.00     0.060 A 
ATOM     45  C   UNL A   1      43.610  37.264  29.714  1.00  0.00     0.016 A 
ATOM     46  C   UNL A   1      42.112  35.603  28.823  1.00  0.00     0.016 A 
ATOM     47  C   UNL A   1      43.723  36.537  30.916  1.00  0.00     0.010 A 
ATOM     48  C   UNL A   1      42.343  34.837  29.948  1.00  0.00     0.010 A 
ATOM     49  C   UNL A   1      43.172  35.261  31.001  1.00  0.00    -0.014 A 
BRANCH  49  50
ATOM     50  C   UNL A   1      43.465  34.215  32.015  1.00  0.00     0.031 A 
ATOM     51  C   UNL A   1      44.837  33.589  31.999  1.00  0.00     0.074 A 
ATOM     52  C   UNL A   1      42.690  34.125  33.130  1.00  0.00     0.049 A 
ATOM     53  N   UNL A   1      45.358  32.896  32.949  1.00  0.00    -0.248 NA
ATOM     54  C   UNL A   1      45.776  33.742  30.884  1.00  0.00     0.031 C 
ATOM     55  C   UNL A   1      43.135  33.799  34.491  1.00  0.00     0.029 A 
ATOM     56  N   UNL A   1      41.337  34.375  33.323  1.00  0.00    -0.354 N 
ATOM     57  C   UNL A   1      46.711  32.714  32.714  1.00  0.00     0.074 A 
ATOM     58  C   UNL A   1      46.914  33.255  31.397  1.00  0.00     0.031 C 
ATOM     59  C   UNL A   1      42.111  33.788  35.352  1.00  0.00     0.029 A 
ATOM     60  C   UNL A   1      40.924  33.804  34.549  1.00  0.00     0.049 A 
ATOM     61  H   UNL A   1      40.756  34.873  32.704  1.00  0.00     0.167 HD
ATOM     62  C   UNL A   1      47.488  32.193  33.716  1.00  0.00     0.034 A 
ATOM     63  C   UNL A   1      40.033  32.767  34.551  1.00  0.00     0.034 A 
ATOM     64  C   UNL A   1      46.636  31.660  34.792  1.00  0.00     0.049 A 
ATOM     65  C   UNL A   1      40.737  31.437  34.857  1.00  0.00     0.074 A 
ATOM     66  C   UNL A   1      46.508  31.873  36.155  1.00  0.00     0.029 A 
ATOM     67  N   UNL A   1      45.578  30.830  34.435  1.00  0.00    -0.354 N 
ATOM     68  N   UNL A   1      42.035  31.249  34.731  1.00  0.00    -0.248 NA
ATOM     69  C   UNL A   1      40.089  30.282  35.473  1.00  0.00     0.031 C 
ATOM     70  C   UNL A   1      45.296  31.254  36.580  1.00  0.00     0.029 A 
ATOM     71  C   UNL A   1      44.741  30.594  35.495  1.00  0.00     0.049 A 
ATOM     72  H   UNL A   1      45.447  30.458  33.534  1.00  0.00     0.167 HD
ATOM     73  C   UNL A   1      42.399  30.041  35.270  1.00  0.00     0.074 A 
ATOM     74  C   UNL A   1      41.136  29.468  35.705  1.00  0.00     0.031 C 
ATOM     75  C   UNL A   1      43.693  29.598  35.365  1.00  0.00     0.034 A 
BRANCH  62  76
ATOM     76  C   UNL A   1      49.014  32.224  33.854  1.00  0.00     0.023 A 
ATOM     77  C   UNL A   1      49.709  30.994  33.992  1.00  0.00     0.031 A 
ATOM     78  C   UNL A   1      49.837  33.364  33.951  1.00  0.00     0.131 A 
ATOM     79  C   UNL A   1      51.091  30.927  34.266  1.00  0.00     0.055 A 
ATOM     80  C   UNL A   1      51.227  33.298  34.178  1.00  0.00     0.041 A 
ATOM     81  F   UNL A   1      49.357  34.606  33.855  1.00  0.00    -0.206 F 
ATOM     82  C   UNL A   1      51.861  32.078  34.349  1.00  0.00     0.022 A 
BRANCH  79  83
ATOM     83  S   UNL A   1      51.867  29.306  34.543  1.00  0.00     0.124 S 
ATOM     84  O   UNL A   1      53.287  29.625  34.448  1.00  0.00    -0.237 OA
ATOM     85  O   UNL A   1      51.373  28.941  35.866  1.00  0.00    -0.237 OA
ATOM     86  O   UNL A   1      51.347  28.489  33.448  1.00  0.00    -0.744 OA
ENDBRANCH  79  83
ENDBRANCH  62  76
BRANCH  63  87
ATOM     87  C   UNL A   1      38.868  33.141  33.669  1.00  0.00     0.023 A 
ATOM     88  C   UNL A   1      38.719  32.252  32.564  1.00  0.00     0.031 A 
ATOM     89  C   UNL A   1      37.692  33.629  34.262  1.00  0.00     0.131 A 
ATOM     90  C   UNL A   1      37.485  31.610  32.344  1.00  0.00     0.055 A 
ATOM     91  C   UNL A   1      36.445  33.043  33.972  1.00  0.00     0.041 A 
ATOM     92  F   UNL A   1      37.754  34.487  35.292  1.00  0.00    -0.206 F 
ATOM     93  C   UNL A   1      36.355  31.975  33.076  1.00  0.00     0.022 A 
BRANCH  90  94
ATOM     94  S   UNL A   1      37.467  30.052  31.386  1.00  0.00     0.124 S 
ATOM     95  O   UNL A   1      38.867  29.914  31.006  1.00  0.00    -0.237 OA
ATOM     96  O   UNL A   1      36.969  29.087  32.360  1.00  0.00    -0.237 OA
ATOM     97  O   UNL A   1      36.536  30.339  30.296  1.00  0.00    -0.744 OA
ENDBRANCH  90  94
ENDBRANCH  63  87
BRANCH  75  98
ATOM     98  C   UNL A   1      44.130  28.142  35.373  1.00  0.00     0.023 A 
ATOM     99  C   UNL A   1      44.340  27.422  34.198  1.00  0.00     0.031 A 
ATOM    100  C   UNL A   1      44.496  27.461  36.570  1.00  0.00     0.131 A 
ATOM    101  C   UNL A   1      44.801  26.097  34.222  1.00  0.00     0.055 A 
ATOM    102  C   UNL A   1      45.040  26.173  36.587  1.00  0.00     0.041 A 
ATOM    103  F   UNL A   1      44.384  28.019  37.783  1.00  0.00    -0.206 F 
ATOM    104  C   UNL A   1      45.182  25.472  35.404  1.00  0.00     0.022 A 
BRANCH 101 105
ATOM    105  S   UNL A   1      44.819  25.209  32.652  1.00  0.00     0.124 S 
ATOM    106  O   UNL A   1      44.054  26.110  31.794  1.00  0.00    -0.237 OA
ATOM    107  O   UNL A   1      46.246  25.121  32.360  1.00  0.00    -0.237 OA
ATOM    108  O   UNL A   1      44.166  23.941  32.964  1.00  0.00    -0.744 OA
ENDBRANCH 101 105
ENDBRANCH  75  98
ENDBRANCH  49  50
ENDBRANCH  42  44
ENDBRANCH  41  42
ENDBRANCH  40  41
ENDBRANCH  39  40
ENDBRANCH  38  39
ENDBRANCH  37  38
ENDBRANCH  36  37
ENDBRANCH  35  36
ENDBRANCH   1  35
TORSDOF 28
ENDMDL
