MODEL 1
REMARK VINA RESULT:      -9.6      0.000      0.000
REMARK SMILES C[C@@H](C(=O)OCCOCCOCCOCCOC(=O)c1ccc(-c2c3nc(c(-c4cc(S(=O)(=O)[O-])ccc4F)c4ccc([nH]4)c(-c4cc(S(=O)(=O)[O-])ccc4F)c4nc(c(-c5cc(S(=O)(=O)[O-])ccc5F)c5ccc2[nH]5)C=C4)C=C3)cc1)c1cccn(C(F)F)c1=O
REMARK SMILES IDX 12 1 11 2 10 3 9 4 8 5 7 6 6 7 5 8 3 9 4 10 2 11 1 12 83 13
REMARK SMILES IDX 84 14 91 15 85 16 87 17 92 18 86 19 88 20 89 21 90 22 13 23
REMARK SMILES IDX 14 24 15 25 16 26 17 27 18 28 19 29 20 30 21 31 82 32 22 33
REMARK SMILES IDX 81 34 23 35 24 36 25 37 75 38 26 39 80 40 74 41 76 42 27 43
REMARK SMILES IDX 79 44 73 45 72 46 28 48 60 49 40 50 59 51 41 52 44 53 58 54
REMARK SMILES IDX 77 55 42 56 43 57 57 59 78 60 45 61 29 62 30 63 38 64 31 65
REMARK SMILES IDX 37 66 39 67 36 68 32 69 33 70 34 71 35 72 61 73 62 74 70 75
REMARK SMILES IDX 63 76 69 77 71 78 68 79 64 80 65 81 66 82 67 83 46 84 47 85
REMARK SMILES IDX 55 86 48 87 54 88 56 89 53 90 49 91 50 92 51 93 52 94
REMARK H PARENT 76 47 44 58
REMARK Flexibility Score: inf
ROOT
ATOM      1  C   UNL A   1      29.210  31.792  23.740  1.00  0.00     0.188 C 
ENDROOT
BRANCH   1   2
ATOM      2  O   UNL A   1      27.894  31.261  23.863  1.00  0.00    -0.377 OA
BRANCH   2   3
ATOM      3  C   UNL A   1      27.522  30.277  22.923  1.00  0.00     0.188 C 
BRANCH   3   4
ATOM      4  C   UNL A   1      28.574  30.050  21.830  1.00  0.00     0.188 C 
BRANCH   4   5
ATOM      5  O   UNL A   1      29.487  28.977  21.932  1.00  0.00    -0.376 OA
BRANCH   5   6
ATOM      6  C   UNL A   1      30.889  29.213  21.989  1.00  0.00     0.202 C 
BRANCH   6   7
ATOM      7  C   UNL A   1      31.854  28.647  23.057  1.00  0.00     0.261 C 
BRANCH   7   8
ATOM      8  O   UNL A   1      31.276  28.071  24.237  1.00  0.00    -0.463 OA
BRANCH   8   9
ATOM      9  C   UNL A   1      31.071  26.732  24.266  1.00  0.00     0.313 C 
ATOM     10  O   UNL A   1      30.803  26.056  23.276  1.00  0.00    -0.252 OA
BRANCH   9  11
ATOM     11  C   UNL A   1      31.331  26.109  25.652  1.00  0.00     0.132 C 
ATOM     12  C   UNL A   1      31.493  27.141  26.791  1.00  0.00     0.025 C 
BRANCH  11  13
ATOM     13  C   UNL A   1      32.448  25.062  25.614  1.00  0.00     0.032 A 
ATOM     14  C   UNL A   1      33.772  25.295  25.526  1.00  0.00     0.012 A 
ATOM     15  C   UNL A   1      32.015  23.617  25.566  1.00  0.00     0.259 A 
ATOM     16  C   UNL A   1      34.757  24.249  25.579  1.00  0.00     0.019 A 
ATOM     17  N   UNL A   1      33.020  22.664  25.501  1.00  0.00    -0.258 N 
ATOM     18  O   UNL A   1      30.820  23.329  25.553  1.00  0.00    -0.269 OA
ATOM     19  C   UNL A   1      34.362  22.976  25.544  1.00  0.00     0.095 A 
BRANCH  17  20
ATOM     20  C   UNL A   1      32.628  21.296  25.291  1.00  0.00     0.451 C 
ATOM     21  F   UNL A   1      33.038  20.905  24.053  1.00  0.00    -0.185 F 
ATOM     22  F   UNL A   1      33.276  20.485  26.171  1.00  0.00    -0.185 F 
ENDBRANCH  17  20
ENDBRANCH  11  13
ENDBRANCH   9  11
ENDBRANCH   8   9
ENDBRANCH   7   8
ENDBRANCH   6   7
ENDBRANCH   5   6
ENDBRANCH   4   5
ENDBRANCH   3   4
ENDBRANCH   2   3
ENDBRANCH   1   2
BRANCH   1  23
ATOM     23  C   UNL A   1      30.026  32.127  25.011  1.00  0.00     0.188 C 
BRANCH  23  24
ATOM     24  O   UNL A   1      30.936  31.113  25.423  1.00  0.00    -0.376 OA
BRANCH  24  25
ATOM     25  C   UNL A   1      31.890  31.421  26.430  1.00  0.00     0.202 C 
BRANCH  25  26
ATOM     26  C   UNL A   1      31.790  32.800  27.103  1.00  0.00     0.261 C 
BRANCH  26  27
ATOM     27  O   UNL A   1      32.993  33.580  27.139  1.00  0.00    -0.460 OA
BRANCH  27  28
ATOM     28  C   UNL A   1      33.447  33.976  28.348  1.00  0.00     0.338 C 
ATOM     29  O   UNL A   1      32.882  34.725  29.129  1.00  0.00    -0.246 OA
BRANCH  28  30
ATOM     30  C   UNL A   1      34.648  33.174  28.664  1.00  0.00     0.060 A 
ATOM     31  C   UNL A   1      34.489  31.828  29.022  1.00  0.00     0.016 A 
ATOM     32  C   UNL A   1      35.923  33.740  28.588  1.00  0.00     0.016 A 
ATOM     33  C   UNL A   1      35.604  31.054  29.343  1.00  0.00     0.010 A 
ATOM     34  C   UNL A   1      37.036  32.970  28.935  1.00  0.00     0.010 A 
ATOM     35  C   UNL A   1      36.878  31.635  29.350  1.00  0.00    -0.014 A 
BRANCH  35  36
ATOM     36  C   UNL A   1      38.004  30.922  30.003  1.00  0.00     0.031 A 
ATOM     37  C   UNL A   1      38.278  31.218  31.454  1.00  0.00     0.074 A 
ATOM     38  C   UNL A   1      38.743  30.014  29.344  1.00  0.00     0.049 A 
ATOM     39  N   UNL A   1      39.232  30.774  32.230  1.00  0.00    -0.248 NA
ATOM     40  C   UNL A   1      37.347  32.148  32.113  1.00  0.00     0.031 C 
ATOM     41  C   UNL A   1      38.534  29.598  27.958  1.00  0.00     0.029 A 
ATOM     42  N   UNL A   1      39.829  29.279  29.755  1.00  0.00    -0.354 N 
ATOM     43  C   UNL A   1      39.024  31.378  33.465  1.00  0.00     0.074 A 
ATOM     44  C   UNL A   1      37.875  32.248  33.322  1.00  0.00     0.031 C 
ATOM     45  C   UNL A   1      39.467  28.686  27.632  1.00  0.00     0.029 A 
ATOM     46  C   UNL A   1      40.367  28.488  28.768  1.00  0.00     0.049 A 
ATOM     47  H   UNL A   1      40.187  29.317  30.670  1.00  0.00     0.167 HD
ATOM     48  C   UNL A   1      39.723  31.218  34.616  1.00  0.00     0.034 A 
ATOM     49  C   UNL A   1      41.476  27.718  28.774  1.00  0.00     0.034 A 
ATOM     50  C   UNL A   1      40.873  30.357  34.735  1.00  0.00     0.049 A 
ATOM     51  C   UNL A   1      42.304  27.637  30.037  1.00  0.00     0.074 A 
ATOM     52  C   UNL A   1      41.649  30.109  35.855  1.00  0.00     0.029 A 
ATOM     53  N   UNL A   1      41.427  29.618  33.697  1.00  0.00    -0.354 N 
ATOM     54  N   UNL A   1      42.097  28.208  31.202  1.00  0.00    -0.248 NA
ATOM     55  C   UNL A   1      43.511  26.801  29.987  1.00  0.00     0.031 C 
ATOM     56  C   UNL A   1      42.719  29.294  35.472  1.00  0.00     0.029 A 
ATOM     57  C   UNL A   1      42.558  28.949  34.140  1.00  0.00     0.049 A 
ATOM     58  H   UNL A   1      41.068  29.575  32.782  1.00  0.00     0.167 HD
ATOM     59  C   UNL A   1      43.128  27.769  32.031  1.00  0.00     0.074 A 
ATOM     60  C   UNL A   1      43.946  26.877  31.236  1.00  0.00     0.031 C 
ATOM     61  C   UNL A   1      43.373  28.068  33.335  1.00  0.00     0.034 A 
BRANCH  48  62
ATOM     62  C   UNL A   1      39.297  32.041  35.807  1.00  0.00     0.023 A 
ATOM     63  C   UNL A   1      38.596  31.480  36.890  1.00  0.00     0.031 A 
ATOM     64  C   UNL A   1      39.566  33.421  35.845  1.00  0.00     0.131 A 
ATOM     65  C   UNL A   1      38.124  32.304  37.921  1.00  0.00     0.055 A 
ATOM     66  C   UNL A   1      39.171  34.221  36.918  1.00  0.00     0.041 A 
ATOM     67  F   UNL A   1      40.206  34.020  34.829  1.00  0.00    -0.206 F 
ATOM     68  C   UNL A   1      38.432  33.666  37.959  1.00  0.00     0.022 A 
BRANCH  65  69
ATOM     69  S   UNL A   1      36.968  31.603  39.132  1.00  0.00     0.124 S 
ATOM     70  O   UNL A   1      35.812  32.482  38.978  1.00  0.00    -0.237 OA
ATOM     71  O   UNL A   1      36.801  30.236  38.652  1.00  0.00    -0.237 OA
ATOM     72  O   UNL A   1      37.679  31.737  40.402  1.00  0.00    -0.744 OA
ENDBRANCH  65  69
ENDBRANCH  48  62
BRANCH  49  73
ATOM     73  C   UNL A   1      41.904  26.992  27.542  1.00  0.00     0.023 A 
ATOM     74  C   UNL A   1      41.838  25.592  27.461  1.00  0.00     0.031 A 
ATOM     75  C   UNL A   1      42.450  27.688  26.447  1.00  0.00     0.131 A 
ATOM     76  C   UNL A   1      42.352  24.930  26.336  1.00  0.00     0.055 A 
ATOM     77  C   UNL A   1      42.904  27.027  25.304  1.00  0.00     0.041 A 
ATOM     78  F   UNL A   1      42.548  29.027  26.472  1.00  0.00    -0.206 F 
ATOM     79  C   UNL A   1      42.869  25.639  25.248  1.00  0.00     0.022 A 
BRANCH  76  80
ATOM     80  S   UNL A   1      42.424  23.117  26.352  1.00  0.00     0.124 S 
ATOM     81  O   UNL A   1      42.541  22.813  24.930  1.00  0.00    -0.237 OA
ATOM     82  O   UNL A   1      43.613  22.869  27.161  1.00  0.00    -0.237 OA
ATOM     83  O   UNL A   1      41.158  22.732  26.972  1.00  0.00    -0.744 OA
ENDBRANCH  76  80
ENDBRANCH  49  73
BRANCH  61  84
ATOM     84  C   UNL A   1      44.543  27.378  33.998  1.00  0.00     0.023 A 
ATOM     85  C   UNL A   1      44.455  26.062  34.484  1.00  0.00     0.031 A 
ATOM     86  C   UNL A   1      45.767  28.054  34.146  1.00  0.00     0.131 A 
ATOM     87  C   UNL A   1      45.551  25.486  35.146  1.00  0.00     0.055 A 
ATOM     88  C   UNL A   1      46.877  27.451  34.741  1.00  0.00     0.041 A 
ATOM     89  F   UNL A   1      45.910  29.314  33.706  1.00  0.00    -0.206 F 
ATOM     90  C   UNL A   1      46.767  26.164  35.258  1.00  0.00     0.022 A 
BRANCH  87  91
ATOM     91  S   UNL A   1      45.336  23.876  35.954  1.00  0.00     0.124 S 
ATOM     92  O   UNL A   1      44.189  23.328  35.235  1.00  0.00    -0.237 OA
ATOM     93  O   UNL A   1      46.617  23.226  35.701  1.00  0.00    -0.237 OA
ATOM     94  O   UNL A   1      45.083  24.224  37.351  1.00  0.00    -0.744 OA
ENDBRANCH  87  91
ENDBRANCH  61  84
ENDBRANCH  35  36
ENDBRANCH  28  30
ENDBRANCH  27  28
ENDBRANCH  26  27
ENDBRANCH  25  26
ENDBRANCH  24  25
ENDBRANCH  23  24
ENDBRANCH   1  23
TORSDOF 25
ENDMDL
MODEL 2
REMARK VINA RESULT:      -9.5      2.912      3.853
REMARK SMILES C[C@@H](C(=O)OCCOCCOCCOCCOC(=O)c1ccc(-c2c3nc(c(-c4cc(S(=O)(=O)[O-])ccc4F)c4ccc([nH]4)c(-c4cc(S(=O)(=O)[O-])ccc4F)c4nc(c(-c5cc(S(=O)(=O)[O-])ccc5F)c5ccc2[nH]5)C=C4)C=C3)cc1)c1cccn(C(F)F)c1=O
REMARK SMILES IDX 12 1 11 2 10 3 9 4 8 5 7 6 6 7 5 8 3 9 4 10 2 11 1 12 83 13
REMARK SMILES IDX 84 14 91 15 85 16 87 17 92 18 86 19 88 20 89 21 90 22 13 23
REMARK SMILES IDX 14 24 15 25 16 26 17 27 18 28 19 29 20 30 21 31 82 32 22 33
REMARK SMILES IDX 81 34 23 35 24 36 25 37 75 38 26 39 80 40 74 41 76 42 27 43
REMARK SMILES IDX 79 44 73 45 72 46 28 48 60 49 40 50 59 51 41 52 44 53 58 54
REMARK SMILES IDX 77 55 42 56 43 57 57 59 78 60 45 61 29 62 30 63 38 64 31 65
REMARK SMILES IDX 37 66 39 67 36 68 32 69 33 70 34 71 35 72 61 73 62 74 70 75
REMARK SMILES IDX 63 76 69 77 71 78 68 79 64 80 65 81 66 82 67 83 46 84 47 85
REMARK SMILES IDX 55 86 48 87 54 88 56 89 53 90 49 91 50 92 51 93 52 94
REMARK H PARENT 76 47 44 58
REMARK Flexibility Score: inf
ROOT
ATOM      1  C   UNL A   1      31.874  28.899  23.671  1.00  0.00     0.188 C 
ENDROOT
BRANCH   1   2
ATOM      2  O   UNL A   1      31.146  27.849  23.042  1.00  0.00    -0.377 OA
BRANCH   2   3
ATOM      3  C   UNL A   1      29.744  27.872  23.201  1.00  0.00     0.188 C 
BRANCH   3   4
ATOM      4  C   UNL A   1      29.188  26.619  23.889  1.00  0.00     0.188 C 
BRANCH   4   5
ATOM      5  O   UNL A   1      29.799  26.121  25.062  1.00  0.00    -0.376 OA
BRANCH   5   6
ATOM      6  C   UNL A   1      31.035  25.419  25.001  1.00  0.00     0.202 C 
BRANCH   6   7
ATOM      7  C   UNL A   1      31.931  25.069  26.212  1.00  0.00     0.261 C 
BRANCH   7   8
ATOM      8  O   UNL A   1      31.400  24.172  27.196  1.00  0.00    -0.463 OA
BRANCH   8   9
ATOM      9  C   UNL A   1      31.063  22.917  26.809  1.00  0.00     0.313 C 
ATOM     10  O   UNL A   1      29.907  22.537  26.643  1.00  0.00    -0.252 OA
BRANCH   9  11
ATOM     11  C   UNL A   1      32.284  22.039  26.472  1.00  0.00     0.132 C 
ATOM     12  C   UNL A   1      33.640  22.646  26.897  1.00  0.00     0.025 C 
BRANCH  11  13
ATOM     13  C   UNL A   1      32.261  21.552  25.020  1.00  0.00     0.032 A 
ATOM     14  C   UNL A   1      32.004  22.292  23.923  1.00  0.00     0.012 A 
ATOM     15  C   UNL A   1      32.446  20.070  24.803  1.00  0.00     0.259 A 
ATOM     16  C   UNL A   1      32.086  21.767  22.588  1.00  0.00     0.019 A 
ATOM     17  N   UNL A   1      32.398  19.618  23.494  1.00  0.00    -0.258 N 
ATOM     18  O   UNL A   1      32.598  19.319  25.765  1.00  0.00    -0.269 OA
ATOM     19  C   UNL A   1      32.257  20.457  22.408  1.00  0.00     0.095 A 
BRANCH  17  20
ATOM     20  C   UNL A   1      32.407  18.196  23.279  1.00  0.00     0.451 C 
ATOM     21  F   UNL A   1      31.970  17.937  22.016  1.00  0.00    -0.185 F 
ATOM     22  F   UNL A   1      33.683  17.724  23.336  1.00  0.00    -0.185 F 
ENDBRANCH  17  20
ENDBRANCH  11  13
ENDBRANCH   9  11
ENDBRANCH   8   9
ENDBRANCH   7   8
ENDBRANCH   6   7
ENDBRANCH   5   6
ENDBRANCH   4   5
ENDBRANCH   3   4
ENDBRANCH   2   3
ENDBRANCH   1   2
BRANCH   1  23
ATOM     23  C   UNL A   1      31.360  29.504  24.998  1.00  0.00     0.188 C 
BRANCH  23  24
ATOM     24  O   UNL A   1      31.481  28.651  26.132  1.00  0.00    -0.376 OA
BRANCH  24  25
ATOM     25  C   UNL A   1      32.224  29.108  27.253  1.00  0.00     0.202 C 
BRANCH  25  26
ATOM     26  C   UNL A   1      32.845  30.512  27.168  1.00  0.00     0.261 C 
BRANCH  26  27
ATOM     27  O   UNL A   1      34.277  30.576  27.161  1.00  0.00    -0.460 OA
BRANCH  27  28
ATOM     28  C   UNL A   1      34.863  31.597  27.824  1.00  0.00     0.338 C 
ATOM     29  O   UNL A   1      34.420  32.726  27.960  1.00  0.00    -0.246 OA
BRANCH  28  30
ATOM     30  C   UNL A   1      36.032  31.054  28.547  1.00  0.00     0.060 A 
ATOM     31  C   UNL A   1      37.252  31.740  28.475  1.00  0.00     0.016 A 
ATOM     32  C   UNL A   1      35.920  29.887  29.306  1.00  0.00     0.016 A 
ATOM     33  C   UNL A   1      38.375  31.239  29.133  1.00  0.00     0.010 A 
ATOM     34  C   UNL A   1      37.053  29.372  29.943  1.00  0.00     0.010 A 
ATOM     35  C   UNL A   1      38.294  30.027  29.828  1.00  0.00    -0.014 A 
BRANCH  35  36
ATOM     36  C   UNL A   1      39.540  29.332  30.237  1.00  0.00     0.031 A 
ATOM     37  C   UNL A   1      40.254  29.831  31.465  1.00  0.00     0.074 A 
ATOM     38  C   UNL A   1      40.011  28.269  29.561  1.00  0.00     0.049 A 
ATOM     39  N   UNL A   1      41.384  29.435  31.991  1.00  0.00    -0.248 NA
ATOM     40  C   UNL A   1      39.602  30.931  32.192  1.00  0.00     0.031 C 
ATOM     41  C   UNL A   1      39.373  27.657  28.397  1.00  0.00     0.029 A 
ATOM     42  N   UNL A   1      41.144  27.518  29.758  1.00  0.00    -0.354 N 
ATOM     43  C   UNL A   1      41.585  30.244  33.104  1.00  0.00     0.074 A 
ATOM     44  C   UNL A   1      40.478  31.176  33.153  1.00  0.00     0.031 C 
ATOM     45  C   UNL A   1      40.131  26.627  27.978  1.00  0.00     0.029 A 
ATOM     46  C   UNL A   1      41.327  26.536  28.814  1.00  0.00     0.049 A 
ATOM     47  H   UNL A   1      41.766  27.670  30.505  1.00  0.00     0.167 HD
ATOM     48  C   UNL A   1      42.596  30.209  34.006  1.00  0.00     0.034 A 
ATOM     49  C   UNL A   1      42.358  25.683  28.631  1.00  0.00     0.034 A 
ATOM     50  C   UNL A   1      43.697  29.282  33.933  1.00  0.00     0.049 A 
ATOM     51  C   UNL A   1      43.528  25.732  29.587  1.00  0.00     0.074 A 
ATOM     52  C   UNL A   1      44.769  29.149  34.799  1.00  0.00     0.029 A 
ATOM     53  N   UNL A   1      43.881  28.341  32.927  1.00  0.00    -0.354 N 
ATOM     54  N   UNL A   1      43.708  26.499  30.639  1.00  0.00    -0.248 NA
ATOM     55  C   UNL A   1      44.633  24.798  29.333  1.00  0.00     0.031 C 
ATOM     56  C   UNL A   1      45.642  28.194  34.270  1.00  0.00     0.029 A 
ATOM     57  C   UNL A   1      45.070  27.655  33.128  1.00  0.00     0.049 A 
ATOM     58  H   UNL A   1      43.259  28.184  32.182  1.00  0.00     0.167 HD
ATOM     59  C   UNL A   1      44.927  26.109  31.192  1.00  0.00     0.074 A 
ATOM     60  C   UNL A   1      45.431  25.034  30.363  1.00  0.00     0.031 C 
ATOM     61  C   UNL A   1      45.568  26.590  32.289  1.00  0.00     0.034 A 
BRANCH  48  62
ATOM     62  C   UNL A   1      42.583  31.246  35.104  1.00  0.00     0.023 A 
ATOM     63  C   UNL A   1      43.117  32.534  34.920  1.00  0.00     0.031 A 
ATOM     64  C   UNL A   1      42.058  30.928  36.369  1.00  0.00     0.131 A 
ATOM     65  C   UNL A   1      43.183  33.425  36.001  1.00  0.00     0.055 A 
ATOM     66  C   UNL A   1      42.045  31.851  37.416  1.00  0.00     0.041 A 
ATOM     67  F   UNL A   1      41.560  29.706  36.615  1.00  0.00    -0.206 F 
ATOM     68  C   UNL A   1      42.624  33.104  37.240  1.00  0.00     0.022 A 
BRANCH  65  69
ATOM     69  S   UNL A   1      44.150  34.949  35.810  1.00  0.00     0.124 S 
ATOM     70  O   UNL A   1      44.574  34.855  34.415  1.00  0.00    -0.237 OA
ATOM     71  O   UNL A   1      43.170  35.985  36.112  1.00  0.00    -0.237 OA
ATOM     72  O   UNL A   1      45.223  34.798  36.791  1.00  0.00    -0.744 OA
ENDBRANCH  65  69
ENDBRANCH  48  62
BRANCH  49  73
ATOM     73  C   UNL A   1      42.363  24.736  27.477  1.00  0.00     0.023 A 
ATOM     74  C   UNL A   1      41.615  23.548  27.506  1.00  0.00     0.031 A 
ATOM     75  C   UNL A   1      43.173  24.973  26.351  1.00  0.00     0.131 A 
ATOM     76  C   UNL A   1      41.727  22.623  26.457  1.00  0.00     0.055 A 
ATOM     77  C   UNL A   1      43.234  24.077  25.282  1.00  0.00     0.041 A 
ATOM     78  F   UNL A   1      43.919  26.088  26.272  1.00  0.00    -0.206 F 
ATOM     79  C   UNL A   1      42.519  22.887  25.337  1.00  0.00     0.022 A 
BRANCH  76  80
ATOM     80  S   UNL A   1      40.896  21.018  26.621  1.00  0.00     0.124 S 
ATOM     81  O   UNL A   1      41.831  20.130  25.938  1.00  0.00    -0.237 OA
ATOM     82  O   UNL A   1      40.811  20.868  28.070  1.00  0.00    -0.237 OA
ATOM     83  O   UNL A   1      39.619  21.225  25.941  1.00  0.00    -0.744 OA
ENDBRANCH  76  80
ENDBRANCH  49  73
BRANCH  61  84
ATOM     84  C   UNL A   1      46.861  25.915  32.690  1.00  0.00     0.023 A 
ATOM     85  C   UNL A   1      46.897  24.869  33.628  1.00  0.00     0.031 A 
ATOM     86  C   UNL A   1      48.077  26.331  32.120  1.00  0.00     0.131 A 
ATOM     87  C   UNL A   1      48.128  24.315  34.012  1.00  0.00     0.055 A 
ATOM     88  C   UNL A   1      49.292  25.728  32.452  1.00  0.00     0.041 A 
ATOM     89  F   UNL A   1      48.107  27.328  31.223  1.00  0.00    -0.206 F 
ATOM     90  C   UNL A   1      49.323  24.723  33.414  1.00  0.00     0.022 A 
BRANCH  87  91
ATOM     91  S   UNL A   1      48.162  23.126  35.381  1.00  0.00     0.124 S 
ATOM     92  O   UNL A   1      47.476  23.863  36.439  1.00  0.00    -0.237 OA
ATOM     93  O   UNL A   1      47.438  21.988  34.824  1.00  0.00    -0.237 OA
ATOM     94  O   UNL A   1      49.589  22.902  35.607  1.00  0.00    -0.744 OA
ENDBRANCH  87  91
ENDBRANCH  61  84
ENDBRANCH  35  36
ENDBRANCH  28  30
ENDBRANCH  27  28
ENDBRANCH  26  27
ENDBRANCH  25  26
ENDBRANCH  24  25
ENDBRANCH  23  24
ENDBRANCH   1  23
TORSDOF 25
ENDMDL
MODEL 3
REMARK VINA RESULT:      -9.4      1.536      7.838
REMARK SMILES C[C@@H](C(=O)OCCOCCOCCOCCOC(=O)c1ccc(-c2c3nc(c(-c4cc(S(=O)(=O)[O-])ccc4F)c4ccc([nH]4)c(-c4cc(S(=O)(=O)[O-])ccc4F)c4nc(c(-c5cc(S(=O)(=O)[O-])ccc5F)c5ccc2[nH]5)C=C4)C=C3)cc1)c1cccn(C(F)F)c1=O
REMARK SMILES IDX 12 1 11 2 10 3 9 4 8 5 7 6 6 7 5 8 3 9 4 10 2 11 1 12 83 13
REMARK SMILES IDX 84 14 91 15 85 16 87 17 92 18 86 19 88 20 89 21 90 22 13 23
REMARK SMILES IDX 14 24 15 25 16 26 17 27 18 28 19 29 20 30 21 31 82 32 22 33
REMARK SMILES IDX 81 34 23 35 24 36 25 37 75 38 26 39 80 40 74 41 76 42 27 43
REMARK SMILES IDX 79 44 73 45 72 46 28 48 60 49 40 50 59 51 41 52 44 53 58 54
REMARK SMILES IDX 77 55 42 56 43 57 57 59 78 60 45 61 29 62 30 63 38 64 31 65
REMARK SMILES IDX 37 66 39 67 36 68 32 69 33 70 34 71 35 72 61 73 62 74 70 75
REMARK SMILES IDX 63 76 69 77 71 78 68 79 64 80 65 81 66 82 67 83 46 84 47 85
REMARK SMILES IDX 55 86 48 87 54 88 56 89 53 90 49 91 50 92 51 93 52 94
REMARK H PARENT 76 47 44 58
REMARK Flexibility Score: inf
ROOT
ATOM      1  C   UNL A   1      32.462  27.611  23.765  1.00  0.00     0.188 C 
ENDROOT
BRANCH   1   2
ATOM      2  O   UNL A   1      31.498  26.574  23.619  1.00  0.00    -0.377 OA
BRANCH   2   3
ATOM      3  C   UNL A   1      30.485  26.513  24.600  1.00  0.00     0.188 C 
BRANCH   3   4
ATOM      4  C   UNL A   1      31.028  26.494  26.035  1.00  0.00     0.188 C 
BRANCH   4   5
ATOM      5  O   UNL A   1      30.800  25.375  26.867  1.00  0.00    -0.376 OA
BRANCH   5   6
ATOM      6  C   UNL A   1      30.652  24.072  26.315  1.00  0.00     0.202 C 
BRANCH   6   7
ATOM      7  C   UNL A   1      31.715  22.949  26.363  1.00  0.00     0.261 C 
BRANCH   7   8
ATOM      8  O   UNL A   1      33.049  23.312  26.744  1.00  0.00    -0.463 OA
BRANCH   8   9
ATOM      9  C   UNL A   1      33.876  23.811  25.793  1.00  0.00     0.313 C 
ATOM     10  O   UNL A   1      34.057  25.010  25.601  1.00  0.00    -0.252 OA
BRANCH   9  11
ATOM     11  C   UNL A   1      34.673  22.721  25.050  1.00  0.00     0.132 C 
ATOM     12  C   UNL A   1      35.905  23.249  24.280  1.00  0.00     0.025 C 
BRANCH  11  13
ATOM     13  C   UNL A   1      33.767  21.819  24.206  1.00  0.00     0.032 A 
ATOM     14  C   UNL A   1      33.001  22.192  23.162  1.00  0.00     0.012 A 
ATOM     15  C   UNL A   1      33.641  20.383  24.654  1.00  0.00     0.259 A 
ATOM     16  C   UNL A   1      32.242  21.259  22.375  1.00  0.00     0.019 A 
ATOM     17  N   UNL A   1      32.799  19.568  23.913  1.00  0.00    -0.258 N 
ATOM     18  O   UNL A   1      34.242  19.992  25.653  1.00  0.00    -0.269 OA
ATOM     19  C   UNL A   1      32.144  19.992  22.776  1.00  0.00     0.095 A 
BRANCH  17  20
ATOM     20  C   UNL A   1      32.539  18.247  24.417  1.00  0.00     0.451 C 
ATOM     21  F   UNL A   1      33.475  17.392  23.921  1.00  0.00    -0.185 F 
ATOM     22  F   UNL A   1      32.692  18.224  25.769  1.00  0.00    -0.185 F 
ENDBRANCH  17  20
ENDBRANCH  11  13
ENDBRANCH   9  11
ENDBRANCH   8   9
ENDBRANCH   7   8
ENDBRANCH   6   7
ENDBRANCH   5   6
ENDBRANCH   4   5
ENDBRANCH   3   4
ENDBRANCH   2   3
ENDBRANCH   1   2
BRANCH   1  23
ATOM     23  C   UNL A   1      32.040  29.087  23.574  1.00  0.00     0.188 C 
BRANCH  23  24
ATOM     24  O   UNL A   1      31.023  29.539  24.462  1.00  0.00    -0.376 OA
BRANCH  24  25
ATOM     25  C   UNL A   1      31.350  30.531  25.425  1.00  0.00     0.202 C 
BRANCH  25  26
ATOM     26  C   UNL A   1      32.746  30.462  26.067  1.00  0.00     0.261 C 
BRANCH  26  27
ATOM     27  O   UNL A   1      32.855  30.951  27.410  1.00  0.00    -0.460 OA
BRANCH  27  28
ATOM     28  C   UNL A   1      33.643  32.027  27.625  1.00  0.00     0.338 C 
ATOM     29  O   UNL A   1      33.298  33.197  27.612  1.00  0.00    -0.246 OA
BRANCH  28  30
ATOM     30  C   UNL A   1      34.956  31.537  28.096  1.00  0.00     0.060 A 
ATOM     31  C   UNL A   1      35.094  30.183  28.431  1.00  0.00     0.016 A 
ATOM     32  C   UNL A   1      36.048  32.404  28.188  1.00  0.00     0.016 A 
ATOM     33  C   UNL A   1      36.316  29.699  28.896  1.00  0.00     0.010 A 
ATOM     34  C   UNL A   1      37.265  31.922  28.680  1.00  0.00     0.010 A 
ATOM     35  C   UNL A   1      37.393  30.577  29.070  1.00  0.00    -0.014 A 
BRANCH  35  36
ATOM     36  C   UNL A   1      38.569  30.144  29.866  1.00  0.00     0.031 A 
ATOM     37  C   UNL A   1      39.481  29.106  29.269  1.00  0.00     0.074 A 
ATOM     38  C   UNL A   1      38.841  30.676  31.071  1.00  0.00     0.049 A 
ATOM     39  N   UNL A   1      40.532  28.524  29.784  1.00  0.00    -0.248 NA
ATOM     40  C   UNL A   1      39.155  28.664  27.904  1.00  0.00     0.031 C 
ATOM     41  C   UNL A   1      38.068  31.731  31.723  1.00  0.00     0.029 A 
ATOM     42  N   UNL A   1      39.847  30.395  31.963  1.00  0.00    -0.354 N 
ATOM     43  C   UNL A   1      40.987  27.639  28.812  1.00  0.00     0.074 A 
ATOM     44  C   UNL A   1      40.074  27.736  27.693  1.00  0.00     0.031 C 
ATOM     45  C   UNL A   1      38.625  32.002  32.918  1.00  0.00     0.029 A 
ATOM     46  C   UNL A   1      39.764  31.111  33.134  1.00  0.00     0.049 A 
ATOM     47  H   UNL A   1      40.559  29.741  31.781  1.00  0.00     0.167 HD
ATOM     48  C   UNL A   1      42.071  26.825  28.847  1.00  0.00     0.034 A 
ATOM     49  C   UNL A   1      40.504  31.031  34.259  1.00  0.00     0.034 A 
ATOM     50  C   UNL A   1      42.962  26.733  29.977  1.00  0.00     0.049 A 
ATOM     51  C   UNL A   1      41.644  30.039  34.318  1.00  0.00     0.074 A 
ATOM     52  C   UNL A   1      44.096  25.952  30.116  1.00  0.00     0.029 A 
ATOM     53  N   UNL A   1      42.811  27.429  31.170  1.00  0.00    -0.354 N 
ATOM     54  N   UNL A   1      42.069  29.209  33.392  1.00  0.00    -0.248 NA
ATOM     55  C   UNL A   1      42.408  29.978  35.572  1.00  0.00     0.031 C 
ATOM     56  C   UNL A   1      44.576  26.107  31.419  1.00  0.00     0.029 A 
ATOM     57  C   UNL A   1      43.805  27.062  32.064  1.00  0.00     0.049 A 
ATOM     58  H   UNL A   1      42.102  28.086  31.353  1.00  0.00     0.167 HD
ATOM     59  C   UNL A   1      43.172  28.557  33.942  1.00  0.00     0.074 A 
ATOM     60  C   UNL A   1      43.352  29.098  35.272  1.00  0.00     0.031 C 
ATOM     61  C   UNL A   1      43.970  27.603  33.394  1.00  0.00     0.034 A 
BRANCH  48  62
ATOM     62  C   UNL A   1      42.304  25.929  27.654  1.00  0.00     0.023 A 
ATOM     63  C   UNL A   1      41.757  24.636  27.574  1.00  0.00     0.031 A 
ATOM     64  C   UNL A   1      43.118  26.364  26.594  1.00  0.00     0.131 A 
ATOM     65  C   UNL A   1      42.091  23.800  26.499  1.00  0.00     0.055 A 
ATOM     66  C   UNL A   1      43.375  25.560  25.482  1.00  0.00     0.041 A 
ATOM     67  F   UNL A   1      43.692  27.577  26.625  1.00  0.00    -0.206 F 
ATOM     68  C   UNL A   1      42.873  24.262  25.438  1.00  0.00     0.022 A 
BRANCH  65  69
ATOM     69  S   UNL A   1      41.622  22.049  26.584  1.00  0.00     0.124 S 
ATOM     70  O   UNL A   1      42.222  21.646  27.853  1.00  0.00    -0.237 OA
ATOM     71  O   UNL A   1      40.166  22.111  26.555  1.00  0.00    -0.237 OA
ATOM     72  O   UNL A   1      42.247  21.469  25.397  1.00  0.00    -0.744 OA
ENDBRANCH  65  69
ENDBRANCH  48  62
BRANCH  49  73
ATOM     73  C   UNL A   1      40.178  31.878  35.445  1.00  0.00     0.023 A 
ATOM     74  C   UNL A   1      39.193  31.491  36.368  1.00  0.00     0.031 A 
ATOM     75  C   UNL A   1      40.804  33.124  35.637  1.00  0.00     0.131 A 
ATOM     76  C   UNL A   1      38.829  32.359  37.409  1.00  0.00     0.055 A 
ATOM     77  C   UNL A   1      40.479  33.957  36.709  1.00  0.00     0.041 A 
ATOM     78  F   UNL A   1      41.746  33.551  34.780  1.00  0.00    -0.206 F 
ATOM     79  C   UNL A   1      39.477  33.582  37.596  1.00  0.00     0.022 A 
BRANCH  76  80
ATOM     80  S   UNL A   1      37.422  31.908  38.463  1.00  0.00     0.124 S 
ATOM     81  O   UNL A   1      36.470  32.970  38.154  1.00  0.00    -0.237 OA
ATOM     82  O   UNL A   1      37.085  30.579  37.966  1.00  0.00    -0.237 OA
ATOM     83  O   UNL A   1      37.983  31.944  39.812  1.00  0.00    -0.744 OA
ENDBRANCH  76  80
ENDBRANCH  49  73
BRANCH  61  84
ATOM     84  C   UNL A   1      45.147  27.125  34.214  1.00  0.00     0.023 A 
ATOM     85  C   UNL A   1      45.061  26.008  35.063  1.00  0.00     0.031 A 
ATOM     86  C   UNL A   1      46.376  27.805  34.143  1.00  0.00     0.131 A 
ATOM     87  C   UNL A   1      46.163  25.640  35.849  1.00  0.00     0.055 A 
ATOM     88  C   UNL A   1      47.492  27.392  34.874  1.00  0.00     0.041 A 
ATOM     89  F   UNL A   1      46.518  28.881  33.354  1.00  0.00    -0.206 F 
ATOM     90  C   UNL A   1      47.384  26.312  35.744  1.00  0.00     0.022 A 
BRANCH  87  91
ATOM     91  S   UNL A   1      45.953  24.337  37.093  1.00  0.00     0.124 S 
ATOM     92  O   UNL A   1      47.061  24.608  38.006  1.00  0.00    -0.237 OA
ATOM     93  O   UNL A   1      44.618  24.614  37.612  1.00  0.00    -0.237 OA
ATOM     94  O   UNL A   1      46.074  23.102  36.322  1.00  0.00    -0.744 OA
ENDBRANCH  87  91
ENDBRANCH  61  84
ENDBRANCH  35  36
ENDBRANCH  28  30
ENDBRANCH  27  28
ENDBRANCH  26  27
ENDBRANCH  25  26
ENDBRANCH  24  25
ENDBRANCH  23  24
ENDBRANCH   1  23
TORSDOF 25
ENDMDL
