MODEL 1
REMARK VINA RESULT:      -7.1      0.000      0.000
REMARK SMILES NS(=O)(=O)c1ccc(-n2nc(C(=O)OCCOCCOCCOCCOC(=O)c3ccc(-c4c5nc(c(-c6cc(S(=O)(=O)[O-])ccc6F)c6ccc([nH]6)c(-c6cc(S(=O)(=O)[O-])ccc6F)c6nc(c(-c7cc(S(=O)(=O)[O-])ccc7F)c7ccc4[nH]7)C=C6)C=C5)cc3)c(Cl)c2-c2ccc(Cl)cc2)cc1
REMARK SMILES IDX 20 1 19 2 18 3 17 4 16 5 15 6 14 7 12 8 13 9 11 10 9 11
REMARK SMILES IDX 10 12 94 13 92 14 93 15 8 16 5 17 6 18 103 19 7 20 102 21
REMARK SMILES IDX 2 22 3 23 4 24 1 25 95 28 96 29 101 30 97 31 100 32 98 33
REMARK SMILES IDX 99 34 21 35 22 36 23 37 24 38 25 39 26 40 27 41 28 42 29 43
REMARK SMILES IDX 30 44 91 45 31 46 90 47 32 48 33 49 34 50 84 51 35 52 89 53
REMARK SMILES IDX 83 54 85 55 36 56 88 57 82 58 81 59 37 61 69 62 49 63 68 64
REMARK SMILES IDX 50 65 53 66 67 67 86 68 51 69 52 70 66 72 87 73 54 74 38 75
REMARK SMILES IDX 39 76 47 77 40 78 46 79 48 80 45 81 41 82 42 83 43 84 44 85
REMARK SMILES IDX 70 86 71 87 79 88 72 89 78 90 80 91 77 92 73 93 74 94 75 95
REMARK SMILES IDX 76 96 55 97 56 98 64 99 57 100 63 101 65 102 62 103 58 104
REMARK SMILES IDX 59 105 60 106 61 107
REMARK H PARENT 1 26 1 27 85 60 53 71
REMARK Flexibility Score: inf
ROOT
ATOM      1  O   UNL A   1      38.654  34.086  36.631  1.00  0.00    -0.377 OA
ENDROOT
BRANCH   1   2
ATOM      2  C   UNL A   1      38.859  33.204  37.722  1.00  0.00     0.188 C 
BRANCH   2   3
ATOM      3  C   UNL A   1      40.315  33.093  38.235  1.00  0.00     0.188 C 
BRANCH   3   4
ATOM      4  O   UNL A   1      40.668  32.365  39.411  1.00  0.00    -0.376 OA
BRANCH   4   5
ATOM      5  C   UNL A   1      41.742  32.772  40.241  1.00  0.00     0.202 C 
BRANCH   5   6
ATOM      6  C   UNL A   1      42.822  33.653  39.618  1.00  0.00     0.261 C 
BRANCH   6   7
ATOM      7  O   UNL A   1      42.560  35.053  39.744  1.00  0.00    -0.458 OA
BRANCH   7   8
ATOM      8  C   UNL A   1      43.570  35.893  39.377  1.00  0.00     0.360 C 
ATOM      9  O   UNL A   1      44.025  36.779  40.093  1.00  0.00    -0.244 OA
BRANCH   8  10
ATOM     10  C   UNL A   1      44.092  35.587  38.037  1.00  0.00     0.190 A 
ATOM     11  N   UNL A   1      44.083  35.298  35.917  1.00  0.00    -0.231 N 
ATOM     12  N   UNL A   1      43.364  35.831  36.927  1.00  0.00    -0.159 NA
ATOM     13  C   UNL A   1      45.288  34.766  36.337  1.00  0.00     0.094 A 
ATOM     14  C   UNL A   1      45.346  35.025  37.692  1.00  0.00     0.102 A 
ATOM     15  Cl  UNL A   1      46.626  34.628  38.746  1.00  0.00    -0.079 Cl
BRANCH  11  16
ATOM     16  C   UNL A   1      43.460  35.090  34.668  1.00  0.00     0.065 A 
ATOM     17  C   UNL A   1      42.385  34.557  32.173  1.00  0.00     0.082 A 
ATOM     18  C   UNL A   1      43.021  35.784  32.403  1.00  0.00     0.024 A 
ATOM     19  C   UNL A   1      42.246  33.615  33.198  1.00  0.00     0.024 A 
ATOM     20  C   UNL A   1      43.547  36.065  33.668  1.00  0.00     0.030 A 
ATOM     21  C   UNL A   1      42.801  33.875  34.447  1.00  0.00     0.030 A 
BRANCH  17  22
ATOM     22  S   UNL A   1      41.763  34.153  30.568  1.00  0.00     0.238 S 
ATOM     23  O   UNL A   1      40.389  34.597  30.471  1.00  0.00    -0.207 OA
ATOM     24  O   UNL A   1      42.169  32.809  30.243  1.00  0.00    -0.207 OA
BRANCH  22  25
ATOM     25  N   UNL A   1      42.616  35.166  29.534  1.00  0.00    -0.225 NA
ATOM     26  H   UNL A   1      42.459  34.877  28.569  1.00  0.00     0.137 HD
ATOM     27  H   UNL A   1      43.611  35.110  29.750  1.00  0.00     0.137 HD
ENDBRANCH  22  25
ENDBRANCH  17  22
ENDBRANCH  11  16
BRANCH  13  28
ATOM     28  C   UNL A   1      46.222  34.020  35.497  1.00  0.00     0.002 A 
ATOM     29  C   UNL A   1      47.130  34.736  34.704  1.00  0.00     0.012 A 
ATOM     30  C   UNL A   1      46.226  32.620  35.446  1.00  0.00     0.012 A 
ATOM     31  C   UNL A   1      48.020  34.073  33.863  1.00  0.00     0.021 A 
ATOM     32  C   UNL A   1      47.123  31.953  34.605  1.00  0.00     0.021 A 
ATOM     33  C   UNL A   1      48.012  32.682  33.815  1.00  0.00     0.041 A 
ATOM     34  Cl  UNL A   1      49.107  31.866  32.770  1.00  0.00    -0.084 Cl
ENDBRANCH  13  28
ENDBRANCH   8  10
ENDBRANCH   7   8
ENDBRANCH   6   7
ENDBRANCH   5   6
ENDBRANCH   4   5
ENDBRANCH   3   4
ENDBRANCH   2   3
ENDBRANCH   1   2
BRANCH   1  35
ATOM     35  C   UNL A   1      39.160  33.605  35.386  1.00  0.00     0.188 C 
BRANCH  35  36
ATOM     36  C   UNL A   1      38.672  34.356  34.131  1.00  0.00     0.188 C 
BRANCH  36  37
ATOM     37  O   UNL A   1      37.419  33.873  33.644  1.00  0.00    -0.376 OA
BRANCH  37  38
ATOM     38  C   UNL A   1      37.300  32.480  33.381  1.00  0.00     0.202 C 
BRANCH  38  39
ATOM     39  C   UNL A   1      35.897  32.090  32.923  1.00  0.00     0.261 C 
BRANCH  39  40
ATOM     40  O   UNL A   1      35.889  31.134  31.870  1.00  0.00    -0.460 OA
BRANCH  40  41
ATOM     41  C   UNL A   1      35.761  31.630  30.622  1.00  0.00     0.338 C 
ATOM     42  O   UNL A   1      34.851  32.313  30.191  1.00  0.00    -0.246 OA
BRANCH  41  43
ATOM     43  C   UNL A   1      36.902  31.174  29.820  1.00  0.00     0.060 A 
ATOM     44  C   UNL A   1      36.839  29.854  29.373  1.00  0.00     0.016 A 
ATOM     45  C   UNL A   1      38.085  31.929  29.770  1.00  0.00     0.016 A 
ATOM     46  C   UNL A   1      38.023  29.194  29.164  1.00  0.00     0.010 A 
ATOM     47  C   UNL A   1      39.270  31.270  29.558  1.00  0.00     0.010 A 
ATOM     48  C   UNL A   1      39.213  29.891  29.392  1.00  0.00    -0.014 A 
BRANCH  48  49
ATOM     49  C   UNL A   1      40.383  29.090  29.661  1.00  0.00     0.031 A 
ATOM     50  C   UNL A   1      40.688  28.853  31.076  1.00  0.00     0.074 A 
ATOM     51  C   UNL A   1      41.105  28.568  28.654  1.00  0.00     0.049 A 
ATOM     52  N   UNL A   1      41.722  29.251  31.733  1.00  0.00    -0.248 NA
ATOM     53  C   UNL A   1      39.666  28.181  31.885  1.00  0.00     0.031 C 
ATOM     54  C   UNL A   1      40.748  28.491  27.233  1.00  0.00     0.029 A 
ATOM     55  N   UNL A   1      42.268  27.872  28.725  1.00  0.00    -0.354 N 
ATOM     56  C   UNL A   1      41.588  28.702  32.999  1.00  0.00     0.074 A 
ATOM     57  C   UNL A   1      40.241  28.199  33.085  1.00  0.00     0.031 C 
ATOM     58  C   UNL A   1      41.548  27.583  26.633  1.00  0.00     0.029 A 
ATOM     59  C   UNL A   1      42.535  27.118  27.594  1.00  0.00     0.049 A 
ATOM     60  H   UNL A   1      42.866  27.900  29.507  1.00  0.00     0.167 HD
ATOM     61  C   UNL A   1      42.663  28.513  33.807  1.00  0.00     0.034 A 
ATOM     62  C   UNL A   1      43.419  26.094  27.507  1.00  0.00     0.034 A 
ATOM     63  C   UNL A   1      43.792  29.312  33.397  1.00  0.00     0.049 A 
ATOM     64  C   UNL A   1      44.421  26.282  28.589  1.00  0.00     0.074 A 
ATOM     65  C   UNL A   1      43.989  30.668  33.204  1.00  0.00     0.029 A 
ATOM     66  N   UNL A   1      44.847  28.697  32.762  1.00  0.00    -0.354 N 
ATOM     67  N   UNL A   1      45.249  27.292  28.638  1.00  0.00    -0.248 NA
ATOM     68  C   UNL A   1      44.207  25.607  29.862  1.00  0.00     0.031 C 
ATOM     69  C   UNL A   1      44.840  30.761  32.065  1.00  0.00     0.029 A 
ATOM     70  C   UNL A   1      45.147  29.462  31.658  1.00  0.00     0.049 A 
ATOM     71  H   UNL A   1      45.300  27.870  33.043  1.00  0.00     0.167 HD
ATOM     72  C   UNL A   1      45.321  27.641  29.979  1.00  0.00     0.074 A 
ATOM     73  C   UNL A   1      44.754  26.500  30.693  1.00  0.00     0.031 C 
ATOM     74  C   UNL A   1      45.564  28.927  30.374  1.00  0.00     0.034 A 
BRANCH  61  75
ATOM     75  C   UNL A   1      42.768  27.388  34.800  1.00  0.00     0.023 A 
ATOM     76  C   UNL A   1      43.490  26.244  34.423  1.00  0.00     0.031 A 
ATOM     77  C   UNL A   1      41.995  27.276  35.979  1.00  0.00     0.131 A 
ATOM     78  C   UNL A   1      43.393  25.058  35.168  1.00  0.00     0.055 A 
ATOM     79  C   UNL A   1      41.967  26.122  36.763  1.00  0.00     0.041 A 
ATOM     80  F   UNL A   1      41.148  28.235  36.378  1.00  0.00    -0.206 F 
ATOM     81  C   UNL A   1      42.650  24.994  36.346  1.00  0.00     0.022 A 
BRANCH  78  82
ATOM     82  S   UNL A   1      44.096  23.544  34.467  1.00  0.00     0.124 S 
ATOM     83  O   UNL A   1      44.628  22.883  35.654  1.00  0.00    -0.237 OA
ATOM     84  O   UNL A   1      42.924  22.927  33.856  1.00  0.00    -0.237 OA
ATOM     85  O   UNL A   1      45.101  24.043  33.531  1.00  0.00    -0.744 OA
ENDBRANCH  78  82
ENDBRANCH  61  75
BRANCH  62  86
ATOM     86  C   UNL A   1      43.172  24.822  26.780  1.00  0.00     0.023 A 
ATOM     87  C   UNL A   1      44.002  24.376  25.737  1.00  0.00     0.031 A 
ATOM     88  C   UNL A   1      42.192  23.909  27.245  1.00  0.00     0.131 A 
ATOM     89  C   UNL A   1      43.818  23.086  25.188  1.00  0.00     0.055 A 
ATOM     90  C   UNL A   1      41.994  22.651  26.679  1.00  0.00     0.041 A 
ATOM     91  F   UNL A   1      41.439  24.178  28.324  1.00  0.00    -0.206 F 
ATOM     92  C   UNL A   1      42.812  22.230  25.646  1.00  0.00     0.022 A 
BRANCH  89  93
ATOM     93  S   UNL A   1      44.972  22.462  23.929  1.00  0.00     0.124 S 
ATOM     94  O   UNL A   1      45.965  23.527  23.866  1.00  0.00    -0.237 OA
ATOM     95  O   UNL A   1      45.410  21.197  24.509  1.00  0.00    -0.237 OA
ATOM     96  O   UNL A   1      44.134  22.328  22.736  1.00  0.00    -0.744 OA
ENDBRANCH  89  93
ENDBRANCH  62  86
BRANCH  74  97
ATOM     97  C   UNL A   1      46.032  29.933  29.340  1.00  0.00     0.023 A 
ATOM     98  C   UNL A   1      45.164  30.632  28.470  1.00  0.00     0.031 A 
ATOM     99  C   UNL A   1      47.387  30.310  29.345  1.00  0.00     0.131 A 
ATOM    100  C   UNL A   1      45.665  31.656  27.642  1.00  0.00     0.055 A 
ATOM    101  C   UNL A   1      47.877  31.337  28.538  1.00  0.00     0.041 A 
ATOM    102  F   UNL A   1      48.257  29.712  30.178  1.00  0.00    -0.206 F 
ATOM    103  C   UNL A   1      47.016  32.011  27.677  1.00  0.00     0.022 A 
BRANCH 100 104
ATOM    104  S   UNL A   1      44.553  32.548  26.509  1.00  0.00     0.124 S 
ATOM    105  O   UNL A   1      45.467  33.255  25.621  1.00  0.00    -0.237 OA
ATOM    106  O   UNL A   1      43.782  31.463  25.906  1.00  0.00    -0.237 OA
ATOM    107  O   UNL A   1      43.781  33.414  27.404  1.00  0.00    -0.744 OA
ENDBRANCH 100 104
ENDBRANCH  74  97
ENDBRANCH  48  49
ENDBRANCH  41  43
ENDBRANCH  40  41
ENDBRANCH  39  40
ENDBRANCH  38  39
ENDBRANCH  37  38
ENDBRANCH  36  37
ENDBRANCH  35  36
ENDBRANCH   1  35
TORSDOF 27
ENDMDL
MODEL 2
REMARK VINA RESULT:      -6.8      6.453     11.573
REMARK SMILES NS(=O)(=O)c1ccc(-n2nc(C(=O)OCCOCCOCCOCCOC(=O)c3ccc(-c4c5nc(c(-c6cc(S(=O)(=O)[O-])ccc6F)c6ccc([nH]6)c(-c6cc(S(=O)(=O)[O-])ccc6F)c6nc(c(-c7cc(S(=O)(=O)[O-])ccc7F)c7ccc4[nH]7)C=C6)C=C5)cc3)c(Cl)c2-c2ccc(Cl)cc2)cc1
REMARK SMILES IDX 20 1 19 2 18 3 17 4 16 5 15 6 14 7 12 8 13 9 11 10 9 11
REMARK SMILES IDX 10 12 94 13 92 14 93 15 8 16 5 17 6 18 103 19 7 20 102 21
REMARK SMILES IDX 2 22 3 23 4 24 1 25 95 28 96 29 101 30 97 31 100 32 98 33
REMARK SMILES IDX 99 34 21 35 22 36 23 37 24 38 25 39 26 40 27 41 28 42 29 43
REMARK SMILES IDX 30 44 91 45 31 46 90 47 32 48 33 49 34 50 84 51 35 52 89 53
REMARK SMILES IDX 83 54 85 55 36 56 88 57 82 58 81 59 37 61 69 62 49 63 68 64
REMARK SMILES IDX 50 65 53 66 67 67 86 68 51 69 52 70 66 72 87 73 54 74 38 75
REMARK SMILES IDX 39 76 47 77 40 78 46 79 48 80 45 81 41 82 42 83 43 84 44 85
REMARK SMILES IDX 70 86 71 87 79 88 72 89 78 90 80 91 77 92 73 93 74 94 75 95
REMARK SMILES IDX 76 96 55 97 56 98 64 99 57 100 63 101 65 102 62 103 58 104
REMARK SMILES IDX 59 105 60 106 61 107
REMARK H PARENT 1 26 1 27 85 60 53 71
REMARK Flexibility Score: inf
ROOT
ATOM      1  O   UNL A   1      45.156  32.387  25.628  1.00  0.00    -0.377 OA
ENDROOT
BRANCH   1   2
ATOM      2  C   UNL A   1      44.111  33.267  25.246  1.00  0.00     0.188 C 
BRANCH   2   3
ATOM      3  C   UNL A   1      43.598  34.223  26.351  1.00  0.00     0.188 C 
BRANCH   3   4
ATOM      4  O   UNL A   1      43.638  35.644  26.222  1.00  0.00    -0.376 OA
BRANCH   4   5
ATOM      5  C   UNL A   1      42.665  36.471  26.835  1.00  0.00     0.202 C 
BRANCH   5   6
ATOM      6  C   UNL A   1      42.940  37.973  26.880  1.00  0.00     0.261 C 
BRANCH   6   7
ATOM      7  O   UNL A   1      41.863  38.766  26.374  1.00  0.00    -0.458 OA
BRANCH   7   8
ATOM      8  C   UNL A   1      41.705  39.999  26.935  1.00  0.00     0.360 C 
ATOM      9  O   UNL A   1      41.050  40.216  27.949  1.00  0.00    -0.244 OA
BRANCH   8  10
ATOM     10  C   UNL A   1      42.450  41.041  26.214  1.00  0.00     0.190 A 
ATOM     11  N   UNL A   1      42.987  42.357  24.614  1.00  0.00    -0.231 N 
ATOM     12  N   UNL A   1      41.994  41.556  25.053  1.00  0.00    -0.159 NA
ATOM     13  C   UNL A   1      44.054  42.421  25.492  1.00  0.00     0.094 A 
ATOM     14  C   UNL A   1      43.682  41.644  26.572  1.00  0.00     0.102 A 
ATOM     15  Cl  UNL A   1      44.590  41.377  27.989  1.00  0.00    -0.079 Cl
BRANCH  11  16
ATOM     16  C   UNL A   1      42.974  42.793  23.273  1.00  0.00     0.065 A 
ATOM     17  C   UNL A   1      43.112  43.544  20.611  1.00  0.00     0.082 A 
ATOM     18  C   UNL A   1      43.469  44.463  21.607  1.00  0.00     0.024 A 
ATOM     19  C   UNL A   1      42.645  42.268  20.944  1.00  0.00     0.024 A 
ATOM     20  C   UNL A   1      43.380  44.094  22.953  1.00  0.00     0.030 A 
ATOM     21  C   UNL A   1      42.591  41.884  22.279  1.00  0.00     0.030 A 
BRANCH  17  22
ATOM     22  S   UNL A   1      43.269  43.964  18.901  1.00  0.00     0.238 S 
ATOM     23  O   UNL A   1      44.651  43.805  18.503  1.00  0.00    -0.207 OA
ATOM     24  O   UNL A   1      42.524  45.174  18.655  1.00  0.00    -0.207 OA
BRANCH  22  25
ATOM     25  N   UNL A   1      42.448  42.735  18.103  1.00  0.00    -0.225 NA
ATOM     26  H   UNL A   1      42.055  43.097  17.235  1.00  0.00     0.137 HD
ATOM     27  H   UNL A   1      41.697  42.387  18.699  1.00  0.00     0.137 HD
ENDBRANCH  22  25
ENDBRANCH  17  22
ENDBRANCH  11  16
BRANCH  13  28
ATOM     28  C   UNL A   1      45.318  43.108  25.240  1.00  0.00     0.002 A 
ATOM     29  C   UNL A   1      45.526  44.366  25.824  1.00  0.00     0.012 A 
ATOM     30  C   UNL A   1      46.314  42.562  24.421  1.00  0.00     0.012 A 
ATOM     31  C   UNL A   1      46.701  45.076  25.590  1.00  0.00     0.021 A 
ATOM     32  C   UNL A   1      47.497  43.273  24.189  1.00  0.00     0.021 A 
ATOM     33  C   UNL A   1      47.683  44.527  24.770  1.00  0.00     0.041 A 
ATOM     34  Cl  UNL A   1      49.129  45.409  24.476  1.00  0.00    -0.084 Cl
ENDBRANCH  13  28
ENDBRANCH   8  10
ENDBRANCH   7   8
ENDBRANCH   6   7
ENDBRANCH   5   6
ENDBRANCH   4   5
ENDBRANCH   3   4
ENDBRANCH   2   3
ENDBRANCH   1   2
BRANCH   1  35
ATOM     35  C   UNL A   1      45.556  32.510  26.993  1.00  0.00     0.188 C 
BRANCH  35  36
ATOM     36  C   UNL A   1      46.952  33.122  27.228  1.00  0.00     0.188 C 
BRANCH  36  37
ATOM     37  O   UNL A   1      46.906  34.360  27.940  1.00  0.00    -0.376 OA
BRANCH  37  38
ATOM     38  C   UNL A   1      47.030  35.562  27.191  1.00  0.00     0.202 C 
BRANCH  38  39
ATOM     39  C   UNL A   1      46.424  36.764  27.912  1.00  0.00     0.261 C 
BRANCH  39  40
ATOM     40  O   UNL A   1      45.801  36.431  29.146  1.00  0.00    -0.460 OA
BRANCH  40  41
ATOM     41  C   UNL A   1      46.371  36.946  30.254  1.00  0.00     0.338 C 
ATOM     42  O   UNL A   1      47.385  37.618  30.316  1.00  0.00    -0.246 OA
BRANCH  41  43
ATOM     43  C   UNL A   1      45.586  36.529  31.421  1.00  0.00     0.060 A 
ATOM     44  C   UNL A   1      46.155  35.527  32.207  1.00  0.00     0.016 A 
ATOM     45  C   UNL A   1      44.240  36.910  31.546  1.00  0.00     0.016 A 
ATOM     46  C   UNL A   1      45.307  34.701  32.900  1.00  0.00     0.010 A 
ATOM     47  C   UNL A   1      43.391  36.086  32.242  1.00  0.00     0.010 A 
ATOM     48  C   UNL A   1      43.932  34.927  32.790  1.00  0.00    -0.014 A 
BRANCH  48  49
ATOM     49  C   UNL A   1      43.073  33.806  33.081  1.00  0.00     0.031 A 
ATOM     50  C   UNL A   1      41.992  33.559  32.122  1.00  0.00     0.074 A 
ATOM     51  C   UNL A   1      43.302  33.024  34.152  1.00  0.00     0.049 A 
ATOM     52  N   UNL A   1      40.723  33.633  32.333  1.00  0.00    -0.248 NA
ATOM     53  C   UNL A   1      42.369  33.299  30.729  1.00  0.00     0.031 C 
ATOM     54  C   UNL A   1      44.493  32.991  35.006  1.00  0.00     0.029 A 
ATOM     55  N   UNL A   1      42.552  31.993  34.616  1.00  0.00    -0.354 N 
ATOM     56  C   UNL A   1      40.127  33.226  31.149  1.00  0.00     0.074 A 
ATOM     57  C   UNL A   1      41.172  33.194  30.157  1.00  0.00     0.031 C 
ATOM     58  C   UNL A   1      44.488  31.841  35.716  1.00  0.00     0.029 A 
ATOM     59  C   UNL A   1      43.246  31.134  35.453  1.00  0.00     0.049 A 
ATOM     60  H   UNL A   1      41.604  31.867  34.380  1.00  0.00     0.167 HD
ATOM     61  C   UNL A   1      38.859  32.742  31.123  1.00  0.00     0.034 A 
ATOM     62  C   UNL A   1      42.874  29.875  35.790  1.00  0.00     0.034 A 
ATOM     63  C   UNL A   1      38.119  33.107  32.307  1.00  0.00     0.049 A 
ATOM     64  C   UNL A   1      41.401  29.785  35.605  1.00  0.00     0.074 A 
ATOM     65  C   UNL A   1      37.804  34.313  32.908  1.00  0.00     0.029 A 
ATOM     66  N   UNL A   1      37.884  32.149  33.268  1.00  0.00    -0.354 N 
ATOM     67  N   UNL A   1      40.542  30.472  36.311  1.00  0.00    -0.248 NA
ATOM     68  C   UNL A   1      40.887  29.285  34.338  1.00  0.00     0.031 C 
ATOM     69  C   UNL A   1      37.890  34.063  34.308  1.00  0.00     0.029 A 
ATOM     70  C   UNL A   1      38.207  32.715  34.480  1.00  0.00     0.049 A 
ATOM     71  H   UNL A   1      37.550  31.236  33.117  1.00  0.00     0.167 HD
ATOM     72  C   UNL A   1      39.552  30.850  35.415  1.00  0.00     0.074 A 
ATOM     73  C   UNL A   1      39.757  29.995  34.249  1.00  0.00     0.031 C 
ATOM     74  C   UNL A   1      38.841  32.005  35.577  1.00  0.00     0.034 A 
BRANCH  61  75
ATOM     75  C   UNL A   1      38.388  31.698  30.148  1.00  0.00     0.023 A 
ATOM     76  C   UNL A   1      39.086  30.481  30.100  1.00  0.00     0.031 A 
ATOM     77  C   UNL A   1      37.465  31.929  29.102  1.00  0.00     0.131 A 
ATOM     78  C   UNL A   1      38.891  29.586  29.036  1.00  0.00     0.055 A 
ATOM     79  C   UNL A   1      37.213  30.999  28.092  1.00  0.00     0.041 A 
ATOM     80  F   UNL A   1      36.836  33.102  28.941  1.00  0.00    -0.206 F 
ATOM     81  C   UNL A   1      37.946  29.828  28.041  1.00  0.00     0.022 A 
BRANCH  78  82
ATOM     82  S   UNL A   1      40.033  28.190  28.870  1.00  0.00     0.124 S 
ATOM     83  O   UNL A   1      40.342  27.888  30.264  1.00  0.00    -0.237 OA
ATOM     84  O   UNL A   1      39.209  27.214  28.167  1.00  0.00    -0.237 OA
ATOM     85  O   UNL A   1      41.138  28.750  28.095  1.00  0.00    -0.744 OA
ENDBRANCH  78  82
ENDBRANCH  61  75
BRANCH  62  86
ATOM     86  C   UNL A   1      43.798  28.715  35.884  1.00  0.00     0.023 A 
ATOM     87  C   UNL A   1      44.046  28.044  37.094  1.00  0.00     0.031 A 
ATOM     88  C   UNL A   1      44.319  28.117  34.709  1.00  0.00     0.131 A 
ATOM     89  C   UNL A   1      44.806  26.852  37.099  1.00  0.00     0.055 A 
ATOM     90  C   UNL A   1      45.094  26.958  34.723  1.00  0.00     0.041 A 
ATOM     91  F   UNL A   1      44.026  28.597  33.490  1.00  0.00    -0.206 F 
ATOM     92  C   UNL A   1      45.338  26.316  35.923  1.00  0.00     0.022 A 
BRANCH  89  93
ATOM     93  S   UNL A   1      45.017  25.917  38.644  1.00  0.00     0.124 S 
ATOM     94  O   UNL A   1      44.601  24.575  38.253  1.00  0.00    -0.237 OA
ATOM     95  O   UNL A   1      46.436  26.101  38.928  1.00  0.00    -0.237 OA
ATOM     96  O   UNL A   1      44.115  26.595  39.578  1.00  0.00    -0.744 OA
ENDBRANCH  89  93
ENDBRANCH  62  86
BRANCH  74  97
ATOM     97  C   UNL A   1      38.943  32.748  36.896  1.00  0.00     0.023 A 
ATOM     98  C   UNL A   1      39.762  33.881  37.102  1.00  0.00     0.031 A 
ATOM     99  C   UNL A   1      38.061  32.388  37.930  1.00  0.00     0.131 A 
ATOM    100  C   UNL A   1      39.687  34.598  38.312  1.00  0.00     0.055 A 
ATOM    101  C   UNL A   1      37.976  33.112  39.120  1.00  0.00     0.041 A 
ATOM    102  F   UNL A   1      37.226  31.345  37.782  1.00  0.00    -0.206 F 
ATOM    103  C   UNL A   1      38.795  34.219  39.318  1.00  0.00     0.022 A 
BRANCH 100 104
ATOM    104  S   UNL A   1      40.753  36.050  38.587  1.00  0.00     0.124 S 
ATOM    105  O   UNL A   1      41.922  35.775  37.761  1.00  0.00    -0.237 OA
ATOM    106  O   UNL A   1      39.901  37.153  38.147  1.00  0.00    -0.237 OA
ATOM    107  O   UNL A   1      41.005  36.017  40.029  1.00  0.00    -0.744 OA
ENDBRANCH 100 104
ENDBRANCH  74  97
ENDBRANCH  48  49
ENDBRANCH  41  43
ENDBRANCH  40  41
ENDBRANCH  39  40
ENDBRANCH  38  39
ENDBRANCH  37  38
ENDBRANCH  36  37
ENDBRANCH  35  36
ENDBRANCH   1  35
TORSDOF 27
ENDMDL
MODEL 3
REMARK VINA RESULT:      -6.6      4.204      9.077
REMARK SMILES NS(=O)(=O)c1ccc(-n2nc(C(=O)OCCOCCOCCOCCOC(=O)c3ccc(-c4c5nc(c(-c6cc(S(=O)(=O)[O-])ccc6F)c6ccc([nH]6)c(-c6cc(S(=O)(=O)[O-])ccc6F)c6nc(c(-c7cc(S(=O)(=O)[O-])ccc7F)c7ccc4[nH]7)C=C6)C=C5)cc3)c(Cl)c2-c2ccc(Cl)cc2)cc1
REMARK SMILES IDX 20 1 19 2 18 3 17 4 16 5 15 6 14 7 12 8 13 9 11 10 9 11
REMARK SMILES IDX 10 12 94 13 92 14 93 15 8 16 5 17 6 18 103 19 7 20 102 21
REMARK SMILES IDX 2 22 3 23 4 24 1 25 95 28 96 29 101 30 97 31 100 32 98 33
REMARK SMILES IDX 99 34 21 35 22 36 23 37 24 38 25 39 26 40 27 41 28 42 29 43
REMARK SMILES IDX 30 44 91 45 31 46 90 47 32 48 33 49 34 50 84 51 35 52 89 53
REMARK SMILES IDX 83 54 85 55 36 56 88 57 82 58 81 59 37 61 69 62 49 63 68 64
REMARK SMILES IDX 50 65 53 66 67 67 86 68 51 69 52 70 66 72 87 73 54 74 38 75
REMARK SMILES IDX 39 76 47 77 40 78 46 79 48 80 45 81 41 82 42 83 43 84 44 85
REMARK SMILES IDX 70 86 71 87 79 88 72 89 78 90 80 91 77 92 73 93 74 94 75 95
REMARK SMILES IDX 76 96 55 97 56 98 64 99 57 100 63 101 65 102 62 103 58 104
REMARK SMILES IDX 59 105 60 106 61 107
REMARK H PARENT 1 26 1 27 85 60 53 71
REMARK Flexibility Score: inf
ROOT
ATOM      1  O   UNL A   1      37.296  31.551  33.647  1.00  0.00    -0.377 OA
ENDROOT
BRANCH   1   2
ATOM      2  C   UNL A   1      36.186  31.567  32.764  1.00  0.00     0.188 C 
BRANCH   2   3
ATOM      3  C   UNL A   1      35.457  32.926  32.623  1.00  0.00     0.188 C 
BRANCH   3   4
ATOM      4  O   UNL A   1      34.348  33.121  31.746  1.00  0.00    -0.376 OA
BRANCH   4   5
ATOM      5  C   UNL A   1      34.065  34.387  31.178  1.00  0.00     0.202 C 
BRANCH   5   6
ATOM      6  C   UNL A   1      34.152  34.515  29.658  1.00  0.00     0.261 C 
BRANCH   6   7
ATOM      7  O   UNL A   1      35.483  34.394  29.151  1.00  0.00    -0.458 OA
BRANCH   7   8
ATOM      8  C   UNL A   1      35.787  33.219  28.527  1.00  0.00     0.360 C 
ATOM      9  O   UNL A   1      35.208  32.797  27.532  1.00  0.00    -0.244 OA
BRANCH   8  10
ATOM     10  C   UNL A   1      36.927  32.534  29.153  1.00  0.00     0.190 A 
ATOM     11  N   UNL A   1      38.752  32.300  30.244  1.00  0.00    -0.231 N 
ATOM     12  N   UNL A   1      37.765  33.183  29.989  1.00  0.00    -0.159 NA
ATOM     13  C   UNL A   1      38.546  31.072  29.643  1.00  0.00     0.094 A 
ATOM     14  C   UNL A   1      37.325  31.181  29.006  1.00  0.00     0.102 A 
ATOM     15  Cl  UNL A   1      36.530  29.960  28.121  1.00  0.00    -0.079 Cl
BRANCH  11  16
ATOM     16  C   UNL A   1      39.955  32.763  30.819  1.00  0.00     0.065 A 
ATOM     17  C   UNL A   1      42.227  33.844  31.975  1.00  0.00     0.082 A 
ATOM     18  C   UNL A   1      42.179  33.662  30.587  1.00  0.00     0.024 A 
ATOM     19  C   UNL A   1      41.161  33.448  32.790  1.00  0.00     0.024 A 
ATOM     20  C   UNL A   1      41.042  33.095  30.001  1.00  0.00     0.030 A 
ATOM     21  C   UNL A   1      40.013  32.920  32.209  1.00  0.00     0.030 A 
BRANCH  17  22
ATOM     22  S   UNL A   1      43.629  34.609  32.735  1.00  0.00     0.238 S 
ATOM     23  O   UNL A   1      43.197  35.297  33.932  1.00  0.00    -0.207 OA
ATOM     24  O   UNL A   1      44.412  35.252  31.709  1.00  0.00    -0.207 OA
BRANCH  22  25
ATOM     25  N   UNL A   1      44.546  33.316  33.289  1.00  0.00    -0.225 NA
ATOM     26  H   UNL A   1      45.011  32.867  32.500  1.00  0.00     0.137 HD
ATOM     27  H   UNL A   1      43.938  32.643  33.754  1.00  0.00     0.137 HD
ENDBRANCH  22  25
ENDBRANCH  17  22
ENDBRANCH  11  16
BRANCH  13  28
ATOM     28  C   UNL A   1      39.493  29.960  29.640  1.00  0.00     0.002 A 
ATOM     29  C   UNL A   1      39.496  29.078  30.730  1.00  0.00     0.012 A 
ATOM     30  C   UNL A   1      40.406  29.760  28.597  1.00  0.00     0.012 A 
ATOM     31  C   UNL A   1      40.400  28.021  30.790  1.00  0.00     0.021 A 
ATOM     32  C   UNL A   1      41.312  28.695  28.655  1.00  0.00     0.021 A 
ATOM     33  C   UNL A   1      41.308  27.834  29.752  1.00  0.00     0.041 A 
ATOM     34  Cl  UNL A   1      42.428  26.532  29.833  1.00  0.00    -0.084 Cl
ENDBRANCH  13  28
ENDBRANCH   8  10
ENDBRANCH   7   8
ENDBRANCH   6   7
ENDBRANCH   5   6
ENDBRANCH   4   5
ENDBRANCH   3   4
ENDBRANCH   2   3
ENDBRANCH   1   2
BRANCH   1  35
ATOM     35  C   UNL A   1      37.215  32.503  34.708  1.00  0.00     0.188 C 
BRANCH  35  36
ATOM     36  C   UNL A   1      37.904  32.097  36.025  1.00  0.00     0.188 C 
BRANCH  36  37
ATOM     37  O   UNL A   1      39.182  32.713  36.199  1.00  0.00    -0.376 OA
BRANCH  37  38
ATOM     38  C   UNL A   1      40.337  31.894  36.074  1.00  0.00     0.202 C 
BRANCH  38  39
ATOM     39  C   UNL A   1      40.000  30.472  35.634  1.00  0.00     0.261 C 
BRANCH  39  40
ATOM     40  O   UNL A   1      40.443  30.164  34.318  1.00  0.00    -0.460 OA
BRANCH  40  41
ATOM     41  C   UNL A   1      41.363  29.183  34.218  1.00  0.00     0.338 C 
ATOM     42  O   UNL A   1      41.235  28.017  34.546  1.00  0.00    -0.246 OA
BRANCH  41  43
ATOM     43  C   UNL A   1      42.600  29.756  33.676  1.00  0.00     0.060 A 
ATOM     44  C   UNL A   1      42.564  30.105  32.326  1.00  0.00     0.016 A 
ATOM     45  C   UNL A   1      43.800  29.674  34.400  1.00  0.00     0.016 A 
ATOM     46  C   UNL A   1      43.745  30.072  31.628  1.00  0.00     0.010 A 
ATOM     47  C   UNL A   1      44.982  29.643  33.703  1.00  0.00     0.010 A 
ATOM     48  C   UNL A   1      44.907  29.711  32.315  1.00  0.00    -0.014 A 
BRANCH  48  49
ATOM     49  C   UNL A   1      45.992  29.198  31.515  1.00  0.00     0.031 A 
ATOM     50  C   UNL A   1      46.551  30.122  30.524  1.00  0.00     0.074 A 
ATOM     51  C   UNL A   1      46.471  27.958  31.721  1.00  0.00     0.049 A 
ATOM     52  N   UNL A   1      46.533  30.002  29.241  1.00  0.00    -0.248 NA
ATOM     53  C   UNL A   1      47.107  31.387  31.015  1.00  0.00     0.031 C 
ATOM     54  C   UNL A   1      46.198  27.061  32.848  1.00  0.00     0.029 A 
ATOM     55  N   UNL A   1      47.418  27.294  31.010  1.00  0.00    -0.354 N 
ATOM     56  C   UNL A   1      47.261  31.079  28.759  1.00  0.00     0.074 A 
ATOM     57  C   UNL A   1      47.445  31.977  29.871  1.00  0.00     0.031 C 
ATOM     58  C   UNL A   1      47.139  26.092  32.869  1.00  0.00     0.029 A 
ATOM     59  C   UNL A   1      47.990  26.237  31.700  1.00  0.00     0.049 A 
ATOM     60  H   UNL A   1      47.675  27.541  30.092  1.00  0.00     0.167 HD
ATOM     61  C   UNL A   1      47.841  31.051  27.531  1.00  0.00     0.034 A 
ATOM     62  C   UNL A   1      49.156  25.620  31.391  1.00  0.00     0.034 A 
ATOM     63  C   UNL A   1      47.263  30.034  26.686  1.00  0.00     0.049 A 
ATOM     64  C   UNL A   1      49.410  25.854  29.944  1.00  0.00     0.074 A 
ATOM     65  C   UNL A   1      45.978  29.765  26.250  1.00  0.00     0.029 A 
ATOM     66  N   UNL A   1      47.977  28.881  26.450  1.00  0.00    -0.354 N 
ATOM     67  N   UNL A   1      48.646  25.384  28.993  1.00  0.00    -0.248 NA
ATOM     68  C   UNL A   1      50.241  26.984  29.556  1.00  0.00     0.031 C 
ATOM     69  C   UNL A   1      45.875  28.344  26.253  1.00  0.00     0.029 A 
ATOM     70  C   UNL A   1      47.111  27.830  26.648  1.00  0.00     0.049 A 
ATOM     71  H   UNL A   1      48.924  28.820  26.190  1.00  0.00     0.167 HD
ATOM     72  C   UNL A   1      48.578  26.396  28.046  1.00  0.00     0.074 A 
ATOM     73  C   UNL A   1      49.669  27.304  28.390  1.00  0.00     0.031 C 
ATOM     74  C   UNL A   1      47.481  26.561  27.248  1.00  0.00     0.034 A 
BRANCH  61  75
ATOM     75  C   UNL A   1      49.124  31.763  27.202  1.00  0.00     0.023 A 
ATOM     76  C   UNL A   1      50.329  31.067  27.388  1.00  0.00     0.031 A 
ATOM     77  C   UNL A   1      49.238  33.152  26.963  1.00  0.00     0.131 A 
ATOM     78  C   UNL A   1      51.557  31.746  27.378  1.00  0.00     0.055 A 
ATOM     79  C   UNL A   1      50.466  33.809  26.870  1.00  0.00     0.041 A 
ATOM     80  F   UNL A   1      48.172  33.964  26.910  1.00  0.00    -0.206 F 
ATOM     81  C   UNL A   1      51.636  33.110  27.102  1.00  0.00     0.022 A 
BRANCH  78  82
ATOM     82  S   UNL A   1      53.035  30.854  27.924  1.00  0.00     0.124 S 
ATOM     83  O   UNL A   1      54.095  31.569  27.218  1.00  0.00    -0.237 OA
ATOM     84  O   UNL A   1      52.981  31.045  29.369  1.00  0.00    -0.237 OA
ATOM     85  O   UNL A   1      52.794  29.489  27.462  1.00  0.00    -0.744 OA
ENDBRANCH  78  82
ENDBRANCH  61  75
BRANCH  62  86
ATOM     86  C   UNL A   1      50.179  25.196  32.382  1.00  0.00     0.023 A 
ATOM     87  C   UNL A   1      50.621  23.867  32.487  1.00  0.00     0.031 A 
ATOM     88  C   UNL A   1      50.892  26.164  33.134  1.00  0.00     0.131 A 
ATOM     89  C   UNL A   1      51.708  23.547  33.334  1.00  0.00     0.055 A 
ATOM     90  C   UNL A   1      51.942  25.839  33.991  1.00  0.00     0.041 A 
ATOM     91  F   UNL A   1      50.643  27.476  33.003  1.00  0.00    -0.206 F 
ATOM     92  C   UNL A   1      52.359  24.524  34.092  1.00  0.00     0.022 A 
BRANCH  89  93
ATOM     93  S   UNL A   1      52.361  21.851  33.371  1.00  0.00     0.124 S 
ATOM     94  O   UNL A   1      51.407  21.134  32.535  1.00  0.00    -0.237 OA
ATOM     95  O   UNL A   1      53.704  22.022  32.827  1.00  0.00    -0.237 OA
ATOM     96  O   UNL A   1      52.320  21.502  34.793  1.00  0.00    -0.744 OA
ENDBRANCH  89  93
ENDBRANCH  62  86
BRANCH  74  97
ATOM     97  C   UNL A   1      46.436  25.461  27.207  1.00  0.00     0.023 A 
ATOM     98  C   UNL A   1      46.385  24.457  26.214  1.00  0.00     0.031 A 
ATOM     99  C   UNL A   1      45.558  25.339  28.300  1.00  0.00     0.131 A 
ATOM    100  C   UNL A   1      45.473  23.390  26.332  1.00  0.00     0.055 A 
ATOM    101  C   UNL A   1      44.669  24.270  28.424  1.00  0.00     0.041 A 
ATOM    102  F   UNL A   1      45.584  26.238  29.298  1.00  0.00    -0.206 F 
ATOM    103  C   UNL A   1      44.620  23.293  27.435  1.00  0.00     0.022 A 
BRANCH 100 104
ATOM    104  S   UNL A   1      45.394  22.103  25.047  1.00  0.00     0.124 S 
ATOM    105  O   UNL A   1      46.283  21.063  25.551  1.00  0.00    -0.237 OA
ATOM    106  O   UNL A   1      43.971  21.773  25.018  1.00  0.00    -0.237 OA
ATOM    107  O   UNL A   1      45.880  22.790  23.848  1.00  0.00    -0.744 OA
ENDBRANCH 100 104
ENDBRANCH  74  97
ENDBRANCH  48  49
ENDBRANCH  41  43
ENDBRANCH  40  41
ENDBRANCH  39  40
ENDBRANCH  38  39
ENDBRANCH  37  38
ENDBRANCH  36  37
ENDBRANCH  35  36
ENDBRANCH   1  35
TORSDOF 27
ENDMDL
