MODEL 1
REMARK VINA RESULT:      -8.3      0.000      0.000
REMARK SMILES CC(C)[C@H](C)CNC(=O)N[C@H]1C=C[C@@H](C(=O)OCCOCCOCCOCCOC(=O)c2ccc(-c3c4nc(c(-c5cc(S(=O)(=O)[O-])ccc5F)c5ccc([nH]5)c(-c5cc(S(=O)(=O)[O-])ccc5F)c5nc(c(-c6cc(S(=O)(=O)[O-])ccc6F)c6ccc3[nH]6)C=C5)C=C4)cc2)C1
REMARK SMILES IDX 22 1 21 2 20 3 19 4 18 5 17 6 15 7 16 8 14 9 11 10 12 11
REMARK SMILES IDX 95 12 13 13 10 14 7 15 8 16 9 18 6 20 4 21 5 22 2 23 1 24
REMARK SMILES IDX 3 25 23 26 24 27 25 28 26 29 27 30 28 31 29 32 30 33 31 34
REMARK SMILES IDX 32 35 33 36 94 37 34 38 93 39 35 40 36 41 37 42 87 43 38 44
REMARK SMILES IDX 92 45 86 46 88 47 39 48 91 49 85 50 84 51 40 53 72 54 52 55
REMARK SMILES IDX 71 56 53 57 56 58 70 59 89 60 54 61 55 62 69 64 90 65 57 66
REMARK SMILES IDX 41 67 42 68 50 69 43 70 49 71 51 72 48 73 44 74 45 75 46 76
REMARK SMILES IDX 47 77 73 78 74 79 82 80 75 81 81 82 83 83 80 84 76 85 77 86
REMARK SMILES IDX 78 87 79 88 58 89 59 90 67 91 60 92 66 93 68 94 65 95 61 96
REMARK SMILES IDX 62 97 63 98 64 99
REMARK H PARENT 7 17 10 19 88 52 56 63
REMARK Flexibility Score: inf
ROOT
ATOM      1  C   UNL A   1      45.708  24.478  26.969  1.00  0.00     0.188 C 
ENDROOT
BRANCH   1   2
ATOM      2  C   UNL A   1      45.345  23.429  25.913  1.00  0.00     0.188 C 
BRANCH   2   3
ATOM      3  O   UNL A   1      46.302  22.398  25.764  1.00  0.00    -0.376 OA
BRANCH   3   4
ATOM      4  C   UNL A   1      46.137  21.486  24.682  1.00  0.00     0.202 C 
BRANCH   4   5
ATOM      5  C   UNL A   1      45.710  20.035  24.923  1.00  0.00     0.261 C 
BRANCH   5   6
ATOM      6  O   UNL A   1      44.409  19.663  24.420  1.00  0.00    -0.463 OA
BRANCH   6   7
ATOM      7  C   UNL A   1      43.459  19.351  25.344  1.00  0.00     0.312 C 
ATOM      8  O   UNL A   1      42.979  18.226  25.472  1.00  0.00    -0.252 OA
BRANCH   7   9
ATOM      9  C   UNL A   1      42.986  20.518  26.223  1.00  0.00     0.124 C 
ATOM     10  C   UNL A   1      40.988  21.901  26.547  1.00  0.00     0.107 C 
ATOM     11  C   UNL A   1      40.960  20.724  27.446  1.00  0.00    -0.006 C 
ATOM     12  C   UNL A   1      42.166  21.656  25.592  1.00  0.00     0.048 C 
ATOM     13  C   UNL A   1      42.071  19.992  27.306  1.00  0.00    -0.014 C 
BRANCH  10  14
ATOM     14  N   UNL A   1      39.713  22.219  25.948  1.00  0.00    -0.332 N 
ATOM     15  N   UNL A   1      38.546  23.874  27.182  1.00  0.00    -0.338 N 
ATOM     16  C   UNL A   1      38.624  22.932  26.239  1.00  0.00     0.315 C 
ATOM     17  H   UNL A   1      37.627  24.164  27.384  1.00  0.00     0.165 HD
ATOM     18  O   UNL A   1      37.614  22.697  25.570  1.00  0.00    -0.249 OA
ATOM     19  H   UNL A   1      39.622  21.783  25.070  1.00  0.00     0.165 HD
BRANCH  15  20
ATOM     20  C   UNL A   1      39.559  24.549  27.960  1.00  0.00     0.121 C 
BRANCH  20  21
ATOM     21  C   UNL A   1      39.523  26.091  27.886  1.00  0.00     0.008 C 
ATOM     22  C   UNL A   1      39.452  26.691  29.303  1.00  0.00     0.010 C 
BRANCH  21  23
ATOM     23  C   UNL A   1      40.735  26.702  27.107  1.00  0.00    -0.013 C 
ATOM     24  C   UNL A   1      41.192  25.924  25.874  1.00  0.00     0.008 C 
ATOM     25  C   UNL A   1      40.490  28.160  26.715  1.00  0.00     0.008 C 
ENDBRANCH  21  23
ENDBRANCH  20  21
ENDBRANCH  15  20
ENDBRANCH  10  14
ENDBRANCH   7   9
ENDBRANCH   6   7
ENDBRANCH   5   6
ENDBRANCH   4   5
ENDBRANCH   3   4
ENDBRANCH   2   3
ENDBRANCH   1   2
BRANCH   1  26
ATOM     26  O   UNL A   1      45.527  25.846  26.622  1.00  0.00    -0.377 OA
BRANCH  26  27
ATOM     27  C   UNL A   1      46.684  26.596  26.229  1.00  0.00     0.188 C 
BRANCH  27  28
ATOM     28  C   UNL A   1      47.677  25.902  25.292  1.00  0.00     0.188 C 
BRANCH  28  29
ATOM     29  O   UNL A   1      49.011  25.747  25.781  1.00  0.00    -0.376 OA
BRANCH  29  30
ATOM     30  C   UNL A   1      50.063  26.398  25.073  1.00  0.00     0.202 C 
BRANCH  30  31
ATOM     31  C   UNL A   1      51.374  26.528  25.842  1.00  0.00     0.261 C 
BRANCH  31  32
ATOM     32  O   UNL A   1      51.203  27.199  27.100  1.00  0.00    -0.460 OA
BRANCH  32  33
ATOM     33  C   UNL A   1      51.586  28.494  27.112  1.00  0.00     0.338 C 
ATOM     34  O   UNL A   1      52.684  28.940  26.797  1.00  0.00    -0.246 OA
BRANCH  33  35
ATOM     35  C   UNL A   1      50.451  29.358  27.476  1.00  0.00     0.060 A 
ATOM     36  C   UNL A   1      50.495  30.039  28.701  1.00  0.00     0.016 A 
ATOM     37  C   UNL A   1      49.296  29.374  26.691  1.00  0.00     0.016 A 
ATOM     38  C   UNL A   1      49.350  30.666  29.189  1.00  0.00     0.010 A 
ATOM     39  C   UNL A   1      48.149  29.992  27.184  1.00  0.00     0.010 A 
ATOM     40  C   UNL A   1      48.157  30.584  28.460  1.00  0.00    -0.014 A 
BRANCH  40  41
ATOM     41  C   UNL A   1      46.858  30.860  29.115  1.00  0.00     0.031 A 
ATOM     42  C   UNL A   1      46.172  29.717  29.812  1.00  0.00     0.074 A 
ATOM     43  C   UNL A   1      46.281  32.069  29.036  1.00  0.00     0.049 A 
ATOM     44  N   UNL A   1      44.960  29.637  30.289  1.00  0.00    -0.248 NA
ATOM     45  C   UNL A   1      46.966  28.487  29.970  1.00  0.00     0.031 C 
ATOM     46  C   UNL A   1      46.879  33.251  28.420  1.00  0.00     0.029 A 
ATOM     47  N   UNL A   1      45.042  32.487  29.447  1.00  0.00    -0.354 N 
ATOM     48  C   UNL A   1      44.834  28.341  30.781  1.00  0.00     0.074 A 
ATOM     49  C   UNL A   1      46.088  27.667  30.524  1.00  0.00     0.031 C 
ATOM     50  C   UNL A   1      45.986  34.255  28.456  1.00  0.00     0.029 A 
ATOM     51  C   UNL A   1      44.743  33.769  29.052  1.00  0.00     0.049 A 
ATOM     52  H   UNL A   1      44.427  31.925  29.972  1.00  0.00     0.167 HD
ATOM     53  C   UNL A   1      43.765  27.767  31.387  1.00  0.00     0.034 A 
ATOM     54  C   UNL A   1      43.580  34.448  29.120  1.00  0.00     0.034 A 
ATOM     55  C   UNL A   1      42.521  28.459  31.611  1.00  0.00     0.049 A 
ATOM     56  C   UNL A   1      42.375  33.774  29.730  1.00  0.00     0.074 A 
ATOM     57  C   UNL A   1      41.375  27.998  32.234  1.00  0.00     0.029 A 
ATOM     58  N   UNL A   1      42.255  29.761  31.201  1.00  0.00    -0.354 N 
ATOM     59  N   UNL A   1      42.263  32.553  30.202  1.00  0.00    -0.248 NA
ATOM     60  C   UNL A   1      41.144  34.567  29.820  1.00  0.00     0.031 C 
ATOM     61  C   UNL A   1      40.396  28.994  32.139  1.00  0.00     0.029 A 
ATOM     62  C   UNL A   1      40.955  30.106  31.526  1.00  0.00     0.049 A 
ATOM     63  H   UNL A   1      42.898  30.350  30.745  1.00  0.00     0.167 HD
ATOM     64  C   UNL A   1      40.957  32.444  30.672  1.00  0.00     0.074 A 
ATOM     65  C   UNL A   1      40.321  33.722  30.425  1.00  0.00     0.031 C 
ATOM     66  C   UNL A   1      40.342  31.388  31.265  1.00  0.00     0.034 A 
BRANCH  53  67
ATOM     67  C   UNL A   1      43.887  26.312  31.771  1.00  0.00     0.023 A 
ATOM     68  C   UNL A   1      44.110  25.911  33.101  1.00  0.00     0.031 A 
ATOM     69  C   UNL A   1      43.843  25.314  30.782  1.00  0.00     0.131 A 
ATOM     70  C   UNL A   1      44.363  24.561  33.392  1.00  0.00     0.055 A 
ATOM     71  C   UNL A   1      44.014  23.961  31.091  1.00  0.00     0.041 A 
ATOM     72  F   UNL A   1      43.659  25.636  29.492  1.00  0.00    -0.206 F 
ATOM     73  C   UNL A   1      44.294  23.581  32.399  1.00  0.00     0.022 A 
BRANCH  70  74
ATOM     74  S   UNL A   1      44.943  24.127  35.056  1.00  0.00     0.124 S 
ATOM     75  O   UNL A   1      45.360  25.429  35.572  1.00  0.00    -0.237 OA
ATOM     76  O   UNL A   1      43.752  23.550  35.665  1.00  0.00    -0.237 OA
ATOM     77  O   UNL A   1      46.034  23.187  34.804  1.00  0.00    -0.744 OA
ENDBRANCH  70  74
ENDBRANCH  53  67
BRANCH  54  78
ATOM     78  C   UNL A   1      43.484  35.817  28.540  1.00  0.00     0.023 A 
ATOM     79  C   UNL A   1      43.824  36.952  29.291  1.00  0.00     0.031 A 
ATOM     80  C   UNL A   1      43.040  36.006  27.219  1.00  0.00     0.131 A 
ATOM     81  C   UNL A   1      43.691  38.229  28.722  1.00  0.00     0.055 A 
ATOM     82  C   UNL A   1      42.950  37.275  26.644  1.00  0.00     0.041 A 
ATOM     83  F   UNL A   1      42.706  34.951  26.457  1.00  0.00    -0.206 F 
ATOM     84  C   UNL A   1      43.270  38.397  27.401  1.00  0.00     0.022 A 
BRANCH  81  85
ATOM     85  S   UNL A   1      44.039  39.680  29.755  1.00  0.00     0.124 S 
ATOM     86  O   UNL A   1      44.869  40.485  28.867  1.00  0.00    -0.237 OA
ATOM     87  O   UNL A   1      42.699  40.192  30.021  1.00  0.00    -0.237 OA
ATOM     88  O   UNL A   1      44.728  39.115  30.914  1.00  0.00    -0.744 OA
ENDBRANCH  81  85
ENDBRANCH  54  78
BRANCH  66  89
ATOM     89  C   UNL A   1      38.927  31.594  31.743  1.00  0.00     0.023 A 
ATOM     90  C   UNL A   1      38.630  32.360  32.883  1.00  0.00     0.031 A 
ATOM     91  C   UNL A   1      37.858  31.035  31.020  1.00  0.00     0.131 A 
ATOM     92  C   UNL A   1      37.296  32.519  33.286  1.00  0.00     0.055 A 
ATOM     93  C   UNL A   1      36.531  31.237  31.397  1.00  0.00     0.041 A 
ATOM     94  F   UNL A   1      38.090  30.296  29.923  1.00  0.00    -0.206 F 
ATOM     95  C   UNL A   1      36.244  31.977  32.540  1.00  0.00     0.022 A 
BRANCH  92  96
ATOM     96  S   UNL A   1      36.947  33.403  34.831  1.00  0.00     0.124 S 
ATOM     97  O   UNL A   1      37.644  34.667  34.620  1.00  0.00    -0.237 OA
ATOM     98  O   UNL A   1      35.489  33.471  34.832  1.00  0.00    -0.237 OA
ATOM     99  O   UNL A   1      37.526  32.539  35.858  1.00  0.00    -0.744 OA
ENDBRANCH  92  96
ENDBRANCH  66  89
ENDBRANCH  40  41
ENDBRANCH  33  35
ENDBRANCH  32  33
ENDBRANCH  31  32
ENDBRANCH  30  31
ENDBRANCH  29  30
ENDBRANCH  28  29
ENDBRANCH  27  28
ENDBRANCH  26  27
ENDBRANCH   1  26
TORSDOF 27
ENDMDL
MODEL 2
REMARK VINA RESULT:      -7.8      4.168     12.347
REMARK SMILES CC(C)[C@H](C)CNC(=O)N[C@H]1C=C[C@@H](C(=O)OCCOCCOCCOCCOC(=O)c2ccc(-c3c4nc(c(-c5cc(S(=O)(=O)[O-])ccc5F)c5ccc([nH]5)c(-c5cc(S(=O)(=O)[O-])ccc5F)c5nc(c(-c6cc(S(=O)(=O)[O-])ccc6F)c6ccc3[nH]6)C=C5)C=C4)cc2)C1
REMARK SMILES IDX 22 1 21 2 20 3 19 4 18 5 17 6 15 7 16 8 14 9 11 10 12 11
REMARK SMILES IDX 95 12 13 13 10 14 7 15 8 16 9 18 6 20 4 21 5 22 2 23 1 24
REMARK SMILES IDX 3 25 23 26 24 27 25 28 26 29 27 30 28 31 29 32 30 33 31 34
REMARK SMILES IDX 32 35 33 36 94 37 34 38 93 39 35 40 36 41 37 42 87 43 38 44
REMARK SMILES IDX 92 45 86 46 88 47 39 48 91 49 85 50 84 51 40 53 72 54 52 55
REMARK SMILES IDX 71 56 53 57 56 58 70 59 89 60 54 61 55 62 69 64 90 65 57 66
REMARK SMILES IDX 41 67 42 68 50 69 43 70 49 71 51 72 48 73 44 74 45 75 46 76
REMARK SMILES IDX 47 77 73 78 74 79 82 80 75 81 81 82 83 83 80 84 76 85 77 86
REMARK SMILES IDX 78 87 79 88 58 89 59 90 67 91 60 92 66 93 68 94 65 95 61 96
REMARK SMILES IDX 62 97 63 98 64 99
REMARK H PARENT 7 17 10 19 88 52 56 63
REMARK Flexibility Score: inf
ROOT
ATOM      1  C   UNL A   1      36.683  30.606  38.713  1.00  0.00     0.188 C 
ENDROOT
BRANCH   1   2
ATOM      2  C   UNL A   1      37.546  31.435  37.755  1.00  0.00     0.188 C 
BRANCH   2   3
ATOM      3  O   UNL A   1      38.192  30.677  36.751  1.00  0.00    -0.376 OA
BRANCH   3   4
ATOM      4  C   UNL A   1      38.366  31.276  35.471  1.00  0.00     0.202 C 
BRANCH   4   5
ATOM      5  C   UNL A   1      38.917  30.477  34.286  1.00  0.00     0.261 C 
BRANCH   5   6
ATOM      6  O   UNL A   1      39.823  31.180  33.410  1.00  0.00    -0.463 OA
BRANCH   6   7
ATOM      7  C   UNL A   1      39.791  30.840  32.092  1.00  0.00     0.312 C 
ATOM      8  O   UNL A   1      40.721  31.046  31.314  1.00  0.00    -0.252 OA
BRANCH   7   9
ATOM      9  C   UNL A   1      38.483  30.195  31.609  1.00  0.00     0.124 C 
ATOM     10  C   UNL A   1      36.673  30.646  30.020  1.00  0.00     0.107 C 
ATOM     11  C   UNL A   1      37.741  29.843  29.380  1.00  0.00    -0.006 C 
ATOM     12  C   UNL A   1      37.245  31.077  31.377  1.00  0.00     0.048 C 
ATOM     13  C   UNL A   1      38.709  29.555  30.258  1.00  0.00    -0.014 C 
BRANCH  10  14
ATOM     14  N   UNL A   1      36.128  31.684  29.177  1.00  0.00    -0.332 N 
ATOM     15  N   UNL A   1      35.068  30.795  27.252  1.00  0.00    -0.338 N 
ATOM     16  C   UNL A   1      35.570  31.801  27.971  1.00  0.00     0.315 C 
ATOM     17  H   UNL A   1      34.867  31.032  26.317  1.00  0.00     0.165 HD
ATOM     18  O   UNL A   1      35.511  32.938  27.497  1.00  0.00    -0.249 OA
ATOM     19  H   UNL A   1      36.186  32.561  29.622  1.00  0.00     0.165 HD
BRANCH  15  20
ATOM     20  C   UNL A   1      34.764  29.423  27.588  1.00  0.00     0.121 C 
BRANCH  20  21
ATOM     21  C   UNL A   1      33.500  28.848  26.914  1.00  0.00     0.008 C 
ATOM     22  C   UNL A   1      32.717  29.969  26.203  1.00  0.00     0.010 C 
BRANCH  21  23
ATOM     23  C   UNL A   1      33.808  27.691  25.906  1.00  0.00    -0.013 C 
ATOM     24  C   UNL A   1      32.962  26.429  26.066  1.00  0.00     0.008 C 
ATOM     25  C   UNL A   1      33.735  28.160  24.452  1.00  0.00     0.008 C 
ENDBRANCH  21  23
ENDBRANCH  20  21
ENDBRANCH  15  20
ENDBRANCH  10  14
ENDBRANCH   7   9
ENDBRANCH   6   7
ENDBRANCH   5   6
ENDBRANCH   4   5
ENDBRANCH   3   4
ENDBRANCH   2   3
ENDBRANCH   1   2
BRANCH   1  26
ATOM     26  O   UNL A   1      35.738  31.306  39.515  1.00  0.00    -0.377 OA
BRANCH  26  27
ATOM     27  C   UNL A   1      36.070  31.542  40.889  1.00  0.00     0.188 C 
BRANCH  27  28
ATOM     28  C   UNL A   1      36.940  32.765  41.194  1.00  0.00     0.188 C 
BRANCH  28  29
ATOM     29  O   UNL A   1      38.354  32.586  41.077  1.00  0.00    -0.376 OA
BRANCH  29  30
ATOM     30  C   UNL A   1      39.172  33.751  41.004  1.00  0.00     0.202 C 
BRANCH  30  31
ATOM     31  C   UNL A   1      39.591  34.158  39.595  1.00  0.00     0.261 C 
BRANCH  31  32
ATOM     32  O   UNL A   1      40.267  35.425  39.573  1.00  0.00    -0.460 OA
BRANCH  32  33
ATOM     33  C   UNL A   1      39.896  36.250  38.569  1.00  0.00     0.338 C 
ATOM     34  O   UNL A   1      39.190  37.248  38.660  1.00  0.00    -0.246 OA
BRANCH  33  35
ATOM     35  C   UNL A   1      40.543  35.844  37.311  1.00  0.00     0.060 A 
ATOM     36  C   UNL A   1      39.734  35.397  36.257  1.00  0.00     0.016 A 
ATOM     37  C   UNL A   1      41.934  35.762  37.228  1.00  0.00     0.016 A 
ATOM     38  C   UNL A   1      40.314  34.781  35.149  1.00  0.00     0.010 A 
ATOM     39  C   UNL A   1      42.513  35.137  36.125  1.00  0.00     0.010 A 
ATOM     40  C   UNL A   1      41.700  34.591  35.115  1.00  0.00    -0.014 A 
BRANCH  40  41
ATOM     41  C   UNL A   1      42.298  33.599  34.192  1.00  0.00     0.031 A 
ATOM     42  C   UNL A   1      42.612  34.051  32.792  1.00  0.00     0.074 A 
ATOM     43  C   UNL A   1      42.495  32.326  34.569  1.00  0.00     0.049 A 
ATOM     44  N   UNL A   1      42.953  33.350  31.745  1.00  0.00    -0.248 NA
ATOM     45  C   UNL A   1      42.504  35.498  32.541  1.00  0.00     0.031 C 
ATOM     46  C   UNL A   1      42.262  31.798  35.911  1.00  0.00     0.029 A 
ATOM     47  N   UNL A   1      42.901  31.239  33.839  1.00  0.00    -0.354 N 
ATOM     48  C   UNL A   1      43.075  34.264  30.703  1.00  0.00     0.074 A 
ATOM     49  C   UNL A   1      42.751  35.567  31.242  1.00  0.00     0.031 C 
ATOM     50  C   UNL A   1      42.490  30.473  35.899  1.00  0.00     0.029 A 
ATOM     51  C   UNL A   1      42.835  30.059  34.540  1.00  0.00     0.049 A 
ATOM     52  H   UNL A   1      43.208  31.298  32.905  1.00  0.00     0.167 HD
ATOM     53  C   UNL A   1      43.420  34.034  29.412  1.00  0.00     0.034 A 
ATOM     54  C   UNL A   1      42.986  28.788  34.115  1.00  0.00     0.034 A 
ATOM     55  C   UNL A   1      43.718  32.720  28.898  1.00  0.00     0.049 A 
ATOM     56  C   UNL A   1      43.298  28.538  32.660  1.00  0.00     0.074 A 
ATOM     57  C   UNL A   1      44.103  32.358  27.620  1.00  0.00     0.029 A 
ATOM     58  N   UNL A   1      43.646  31.546  29.640  1.00  0.00    -0.354 N 
ATOM     59  N   UNL A   1      43.421  29.405  31.680  1.00  0.00    -0.248 NA
ATOM     60  C   UNL A   1      43.494  27.141  32.252  1.00  0.00     0.031 C 
ATOM     61  C   UNL A   1      44.196  30.962  27.571  1.00  0.00     0.029 A 
ATOM     62  C   UNL A   1      43.945  30.457  28.839  1.00  0.00     0.049 A 
ATOM     63  H   UNL A   1      43.414  31.497  30.595  1.00  0.00     0.167 HD
ATOM     64  C   UNL A   1      43.739  28.660  30.548  1.00  0.00     0.074 A 
ATOM     65  C   UNL A   1      43.787  27.273  30.966  1.00  0.00     0.031 C 
ATOM     66  C   UNL A   1      43.982  29.082  29.281  1.00  0.00     0.034 A 
BRANCH  53  67
ATOM     67  C   UNL A   1      43.416  35.216  28.473  1.00  0.00     0.023 A 
ATOM     68  C   UNL A   1      44.607  35.834  28.051  1.00  0.00     0.031 A 
ATOM     69  C   UNL A   1      42.199  35.774  28.044  1.00  0.00     0.131 A 
ATOM     70  C   UNL A   1      44.553  37.017  27.298  1.00  0.00     0.055 A 
ATOM     71  C   UNL A   1      42.154  36.905  27.225  1.00  0.00     0.041 A 
ATOM     72  F   UNL A   1      41.028  35.244  28.434  1.00  0.00    -0.206 F 
ATOM     73  C   UNL A   1      43.335  37.544  26.863  1.00  0.00     0.022 A 
BRANCH  70  74
ATOM     74  S   UNL A   1      46.089  37.946  27.032  1.00  0.00     0.124 S 
ATOM     75  O   UNL A   1      45.579  39.244  26.596  1.00  0.00    -0.237 OA
ATOM     76  O   UNL A   1      46.709  37.914  28.351  1.00  0.00    -0.237 OA
ATOM     77  O   UNL A   1      46.780  37.178  25.999  1.00  0.00    -0.744 OA
ENDBRANCH  70  74
ENDBRANCH  53  67
BRANCH  54  78
ATOM     78  C   UNL A   1      42.781  27.659  35.063  1.00  0.00     0.023 A 
ATOM     79  C   UNL A   1      43.714  27.375  36.071  1.00  0.00     0.031 A 
ATOM     80  C   UNL A   1      41.643  26.838  34.965  1.00  0.00     0.131 A 
ATOM     81  C   UNL A   1      43.505  26.282  36.928  1.00  0.00     0.055 A 
ATOM     82  C   UNL A   1      41.418  25.779  35.847  1.00  0.00     0.041 A 
ATOM     83  F   UNL A   1      40.717  27.070  34.020  1.00  0.00    -0.206 F 
ATOM     84  C   UNL A   1      42.358  25.491  36.830  1.00  0.00     0.022 A 
BRANCH  81  85
ATOM     85  S   UNL A   1      44.783  25.880  38.152  1.00  0.00     0.124 S 
ATOM     86  O   UNL A   1      44.269  26.540  39.346  1.00  0.00    -0.237 OA
ATOM     87  O   UNL A   1      44.749  24.422  38.158  1.00  0.00    -0.237 OA
ATOM     88  O   UNL A   1      45.994  26.469  37.584  1.00  0.00    -0.744 OA
ENDBRANCH  81  85
ENDBRANCH  54  78
BRANCH  66  89
ATOM     89  C   UNL A   1      44.383  28.038  28.270  1.00  0.00     0.023 A 
ATOM     90  C   UNL A   1      43.436  27.360  27.483  1.00  0.00     0.031 A 
ATOM     91  C   UNL A   1      45.744  27.743  28.074  1.00  0.00     0.131 A 
ATOM     92  C   UNL A   1      43.864  26.396  26.558  1.00  0.00     0.055 A 
ATOM     93  C   UNL A   1      46.166  26.820  27.119  1.00  0.00     0.041 A 
ATOM     94  F   UNL A   1      46.688  28.365  28.801  1.00  0.00    -0.206 F 
ATOM     95  C   UNL A   1      45.223  26.135  26.358  1.00  0.00     0.022 A 
BRANCH  92  96
ATOM     96  S   UNL A   1      42.617  25.445  25.646  1.00  0.00     0.124 S 
ATOM     97  O   UNL A   1      41.979  26.478  24.837  1.00  0.00    -0.237 OA
ATOM     98  O   UNL A   1      43.430  24.477  24.918  1.00  0.00    -0.237 OA
ATOM     99  O   UNL A   1      41.779  24.879  26.702  1.00  0.00    -0.744 OA
ENDBRANCH  92  96
ENDBRANCH  66  89
ENDBRANCH  40  41
ENDBRANCH  33  35
ENDBRANCH  32  33
ENDBRANCH  31  32
ENDBRANCH  30  31
ENDBRANCH  29  30
ENDBRANCH  28  29
ENDBRANCH  27  28
ENDBRANCH  26  27
ENDBRANCH   1  26
TORSDOF 27
ENDMDL
MODEL 3
REMARK VINA RESULT:      -7.5      5.234     11.201
REMARK SMILES CC(C)[C@H](C)CNC(=O)N[C@H]1C=C[C@@H](C(=O)OCCOCCOCCOCCOC(=O)c2ccc(-c3c4nc(c(-c5cc(S(=O)(=O)[O-])ccc5F)c5ccc([nH]5)c(-c5cc(S(=O)(=O)[O-])ccc5F)c5nc(c(-c6cc(S(=O)(=O)[O-])ccc6F)c6ccc3[nH]6)C=C5)C=C4)cc2)C1
REMARK SMILES IDX 22 1 21 2 20 3 19 4 18 5 17 6 15 7 16 8 14 9 11 10 12 11
REMARK SMILES IDX 95 12 13 13 10 14 7 15 8 16 9 18 6 20 4 21 5 22 2 23 1 24
REMARK SMILES IDX 3 25 23 26 24 27 25 28 26 29 27 30 28 31 29 32 30 33 31 34
REMARK SMILES IDX 32 35 33 36 94 37 34 38 93 39 35 40 36 41 37 42 87 43 38 44
REMARK SMILES IDX 92 45 86 46 88 47 39 48 91 49 85 50 84 51 40 53 72 54 52 55
REMARK SMILES IDX 71 56 53 57 56 58 70 59 89 60 54 61 55 62 69 64 90 65 57 66
REMARK SMILES IDX 41 67 42 68 50 69 43 70 49 71 51 72 48 73 44 74 45 75 46 76
REMARK SMILES IDX 47 77 73 78 74 79 82 80 75 81 81 82 83 83 80 84 76 85 77 86
REMARK SMILES IDX 78 87 79 88 58 89 59 90 67 91 60 92 66 93 68 94 65 95 61 96
REMARK SMILES IDX 62 97 63 98 64 99
REMARK H PARENT 7 17 10 19 88 52 56 63
REMARK Flexibility Score: inf
ROOT
ATOM      1  C   UNL A   1      35.961  31.617  29.063  1.00  0.00     0.188 C 
ENDROOT
BRANCH   1   2
ATOM      2  C   UNL A   1      34.504  31.957  28.736  1.00  0.00     0.188 C 
BRANCH   2   3
ATOM      3  O   UNL A   1      34.097  31.582  27.434  1.00  0.00    -0.376 OA
BRANCH   3   4
ATOM      4  C   UNL A   1      33.275  30.427  27.300  1.00  0.00     0.202 C 
BRANCH   4   5
ATOM      5  C   UNL A   1      33.878  29.019  27.274  1.00  0.00     0.261 C 
BRANCH   5   6
ATOM      6  O   UNL A   1      33.412  28.146  26.224  1.00  0.00    -0.463 OA
BRANCH   6   7
ATOM      7  C   UNL A   1      32.079  27.869  26.202  1.00  0.00     0.312 C 
ATOM      8  O   UNL A   1      31.483  27.316  27.125  1.00  0.00    -0.252 OA
BRANCH   7   9
ATOM      9  C   UNL A   1      31.345  28.267  24.912  1.00  0.00     0.124 C 
ATOM     10  C   UNL A   1      31.204  27.564  22.569  1.00  0.00     0.107 C 
ATOM     11  C   UNL A   1      30.176  26.874  23.384  1.00  0.00    -0.006 C 
ATOM     12  C   UNL A   1      32.110  28.281  23.579  1.00  0.00     0.048 C 
ATOM     13  C   UNL A   1      30.219  27.290  24.654  1.00  0.00    -0.014 C 
BRANCH  10  14
ATOM     14  N   UNL A   1      31.849  26.720  21.592  1.00  0.00    -0.332 N 
ATOM     15  N   UNL A   1      33.380  25.214  22.598  1.00  0.00    -0.338 N 
ATOM     16  C   UNL A   1      32.839  25.826  21.542  1.00  0.00     0.315 C 
ATOM     17  H   UNL A   1      34.214  24.731  22.396  1.00  0.00     0.165 HD
ATOM     18  O   UNL A   1      33.274  25.544  20.423  1.00  0.00    -0.249 OA
ATOM     19  H   UNL A   1      31.441  26.838  20.704  1.00  0.00     0.165 HD
BRANCH  15  20
ATOM     20  C   UNL A   1      32.970  25.128  23.980  1.00  0.00     0.121 C 
BRANCH  20  21
ATOM     21  C   UNL A   1      32.574  23.714  24.459  1.00  0.00     0.008 C 
ATOM     22  C   UNL A   1      31.046  23.533  24.381  1.00  0.00     0.010 C 
BRANCH  21  23
ATOM     23  C   UNL A   1      33.289  22.569  23.667  1.00  0.00    -0.013 C 
ATOM     24  C   UNL A   1      33.920  21.468  24.518  1.00  0.00     0.008 C 
ATOM     25  C   UNL A   1      32.368  21.929  22.626  1.00  0.00     0.008 C 
ENDBRANCH  21  23
ENDBRANCH  20  21
ENDBRANCH  15  20
ENDBRANCH  10  14
ENDBRANCH   7   9
ENDBRANCH   6   7
ENDBRANCH   5   6
ENDBRANCH   4   5
ENDBRANCH   3   4
ENDBRANCH   2   3
ENDBRANCH   1   2
BRANCH   1  26
ATOM     26  O   UNL A   1      36.206  30.830  30.224  1.00  0.00    -0.377 OA
BRANCH  26  27
ATOM     27  C   UNL A   1      36.160  31.485  31.498  1.00  0.00     0.188 C 
BRANCH  27  28
ATOM     28  C   UNL A   1      37.003  30.877  32.624  1.00  0.00     0.188 C 
BRANCH  28  29
ATOM     29  O   UNL A   1      37.206  31.693  33.779  1.00  0.00    -0.376 OA
BRANCH  29  30
ATOM     30  C   UNL A   1      36.426  32.878  33.906  1.00  0.00     0.202 C 
BRANCH  30  31
ATOM     31  C   UNL A   1      37.229  34.172  34.011  1.00  0.00     0.261 C 
BRANCH  31  32
ATOM     32  O   UNL A   1      38.377  34.171  33.149  1.00  0.00    -0.460 OA
BRANCH  32  33
ATOM     33  C   UNL A   1      38.122  34.485  31.860  1.00  0.00     0.338 C 
ATOM     34  O   UNL A   1      37.092  34.976  31.412  1.00  0.00    -0.246 OA
BRANCH  33  35
ATOM     35  C   UNL A   1      39.312  34.239  31.031  1.00  0.00     0.060 A 
ATOM     36  C   UNL A   1      40.528  33.959  31.671  1.00  0.00     0.016 A 
ATOM     37  C   UNL A   1      39.262  34.433  29.649  1.00  0.00     0.016 A 
ATOM     38  C   UNL A   1      41.715  33.961  30.940  1.00  0.00     0.010 A 
ATOM     39  C   UNL A   1      40.449  34.446  28.920  1.00  0.00     0.010 A 
ATOM     40  C   UNL A   1      41.682  34.272  29.576  1.00  0.00    -0.014 A 
BRANCH  40  41
ATOM     41  C   UNL A   1      42.916  34.689  28.872  1.00  0.00     0.031 A 
ATOM     42  C   UNL A   1      43.883  33.611  28.462  1.00  0.00     0.074 A 
ATOM     43  C   UNL A   1      43.195  35.985  28.664  1.00  0.00     0.049 A 
ATOM     44  N   UNL A   1      45.105  33.713  28.015  1.00  0.00    -0.248 NA
ATOM     45  C   UNL A   1      43.403  32.227  28.599  1.00  0.00     0.031 C 
ATOM     46  C   UNL A   1      42.309  37.101  28.985  1.00  0.00     0.029 A 
ATOM     47  N   UNL A   1      44.325  36.578  28.163  1.00  0.00    -0.354 N 
ATOM     48  C   UNL A   1      45.552  32.406  27.841  1.00  0.00     0.074 A 
ATOM     49  C   UNL A   1      44.475  31.532  28.251  1.00  0.00     0.031 C 
ATOM     50  C   UNL A   1      42.948  38.252  28.712  1.00  0.00     0.029 A 
ATOM     51  C   UNL A   1      44.299  37.950  28.245  1.00  0.00     0.049 A 
ATOM     52  H   UNL A   1      45.080  36.073  27.784  1.00  0.00     0.167 HD
ATOM     53  C   UNL A   1      46.755  31.978  27.385  1.00  0.00     0.034 A 
ATOM     54  C   UNL A   1      45.277  38.850  28.017  1.00  0.00     0.034 A 
ATOM     55  C   UNL A   1      47.818  32.874  27.003  1.00  0.00     0.049 A 
ATOM     56  C   UNL A   1      46.635  38.359  27.581  1.00  0.00     0.074 A 
ATOM     57  C   UNL A   1      49.071  32.567  26.504  1.00  0.00     0.029 A 
ATOM     58  N   UNL A   1      47.754  34.260  27.094  1.00  0.00    -0.354 N 
ATOM     59  N   UNL A   1      47.050  37.124  27.409  1.00  0.00    -0.248 NA
ATOM     60  C   UNL A   1      47.655  39.378  27.305  1.00  0.00     0.031 C 
ATOM     61  C   UNL A   1      49.788  33.760  26.360  1.00  0.00     0.029 A 
ATOM     62  C   UNL A   1      48.956  34.819  26.695  1.00  0.00     0.049 A 
ATOM     63  H   UNL A   1      46.970  34.769  27.401  1.00  0.00     0.167 HD
ATOM     64  C   UNL A   1      48.370  37.222  26.976  1.00  0.00     0.074 A 
ATOM     65  C   UNL A   1      48.681  38.635  26.914  1.00  0.00     0.031 C 
ATOM     66  C   UNL A   1      49.242  36.235  26.647  1.00  0.00     0.034 A 
BRANCH  53  67
ATOM     67  C   UNL A   1      46.992  30.487  27.354  1.00  0.00     0.023 A 
ATOM     68  C   UNL A   1      46.653  29.704  26.236  1.00  0.00     0.031 A 
ATOM     69  C   UNL A   1      47.506  29.829  28.485  1.00  0.00     0.131 A 
ATOM     70  C   UNL A   1      46.753  28.305  26.304  1.00  0.00     0.055 A 
ATOM     71  C   UNL A   1      47.682  28.443  28.516  1.00  0.00     0.041 A 
ATOM     72  F   UNL A   1      47.825  30.519  29.592  1.00  0.00    -0.206 F 
ATOM     73  C   UNL A   1      47.287  27.672  27.428  1.00  0.00     0.022 A 
BRANCH  70  74
ATOM     74  S   UNL A   1      46.026  27.319  24.966  1.00  0.00     0.124 S 
ATOM     75  O   UNL A   1      46.709  27.861  23.793  1.00  0.00    -0.237 OA
ATOM     76  O   UNL A   1      46.388  25.959  25.344  1.00  0.00    -0.237 OA
ATOM     77  O   UNL A   1      44.600  27.630  25.046  1.00  0.00    -0.744 OA
ENDBRANCH  70  74
ENDBRANCH  53  67
BRANCH  54  78
ATOM     78  C   UNL A   1      45.024  40.298  28.259  1.00  0.00     0.023 A 
ATOM     79  C   UNL A   1      44.920  40.812  29.560  1.00  0.00     0.031 A 
ATOM     80  C   UNL A   1      44.875  41.190  27.182  1.00  0.00     0.131 A 
ATOM     81  C   UNL A   1      44.650  42.177  29.752  1.00  0.00     0.055 A 
ATOM     82  C   UNL A   1      44.649  42.553  27.377  1.00  0.00     0.041 A 
ATOM     83  F   UNL A   1      44.970  40.748  25.917  1.00  0.00    -0.206 F 
ATOM     84  C   UNL A   1      44.527  43.052  28.670  1.00  0.00     0.022 A 
BRANCH  81  85
ATOM     85  S   UNL A   1      44.418  42.788  31.444  1.00  0.00     0.124 S 
ATOM     86  O   UNL A   1      43.185  43.555  31.317  1.00  0.00    -0.237 OA
ATOM     87  O   UNL A   1      44.327  41.547  32.205  1.00  0.00    -0.237 OA
ATOM     88  O   UNL A   1      45.624  43.577  31.688  1.00  0.00    -0.744 OA
ENDBRANCH  81  85
ENDBRANCH  54  78
BRANCH  66  89
ATOM     89  C   UNL A   1      50.596  36.653  26.130  1.00  0.00     0.023 A 
ATOM     90  C   UNL A   1      51.663  36.952  26.994  1.00  0.00     0.031 A 
ATOM     91  C   UNL A   1      50.822  36.722  24.744  1.00  0.00     0.131 A 
ATOM     92  C   UNL A   1      52.902  37.338  26.461  1.00  0.00     0.055 A 
ATOM     93  C   UNL A   1      52.070  37.058  24.220  1.00  0.00     0.041 A 
ATOM     94  F   UNL A   1      49.835  36.444  23.877  1.00  0.00    -0.206 F 
ATOM     95  C   UNL A   1      53.117  37.376  25.080  1.00  0.00     0.022 A 
BRANCH  92  96
ATOM     96  S   UNL A   1      54.225  37.842  27.596  1.00  0.00     0.124 S 
ATOM     97  O   UNL A   1      54.094  39.295  27.586  1.00  0.00    -0.237 OA
ATOM     98  O   UNL A   1      53.844  37.176  28.837  1.00  0.00    -0.237 OA
ATOM     99  O   UNL A   1      55.436  37.323  26.961  1.00  0.00    -0.744 OA
ENDBRANCH  92  96
ENDBRANCH  66  89
ENDBRANCH  40  41
ENDBRANCH  33  35
ENDBRANCH  32  33
ENDBRANCH  31  32
ENDBRANCH  30  31
ENDBRANCH  29  30
ENDBRANCH  28  29
ENDBRANCH  27  28
ENDBRANCH  26  27
ENDBRANCH   1  26
TORSDOF 27
ENDMDL
