MODEL 1
REMARK VINA RESULT:      -8.7      0.000      0.000
REMARK SMILES Cc1ccc(N2C(=O)C[C@H](Sc3ccccc3C(=O)OCCOCCOCCOCCOC(=O)c3ccc(-c4c5nc(c(-c6cc(S(=O)(=O)[O-])ccc6F)c6ccc([nH]6)c(-c6cc(S(=O)(=O)[O-])ccc6F)c6nc(c(-c7cc(S(=O)(=O)[O-])ccc7F)c7ccc4[nH]7)C=C6)C=C5)cc3)C2=O)cc1
REMARK SMILES IDX 26 1 25 2 24 3 23 4 22 5 21 6 20 7 18 8 19 9 17 10 12 11
REMARK SMILES IDX 13 12 14 13 16 14 15 15 11 16 10 17 6 18 7 19 98 20 8 21
REMARK SMILES IDX 9 22 99 23 5 24 1 25 2 26 3 27 101 28 4 29 100 30 27 31
REMARK SMILES IDX 28 32 29 33 30 34 31 35 32 36 33 37 34 38 35 39 36 40 97 41
REMARK SMILES IDX 37 42 96 43 38 44 39 45 40 46 90 47 41 48 95 49 89 50 91 51
REMARK SMILES IDX 42 52 94 53 88 54 87 55 43 57 75 58 55 59 74 60 56 61 59 62
REMARK SMILES IDX 73 63 92 64 57 65 58 66 72 68 93 69 60 70 44 71 45 72 53 73
REMARK SMILES IDX 46 74 52 75 54 76 51 77 47 78 48 79 49 80 50 81 76 82 77 83
REMARK SMILES IDX 85 84 78 85 84 86 86 87 83 88 79 89 80 90 81 91 82 92 61 93
REMARK SMILES IDX 62 94 70 95 63 96 69 97 71 98 68 99 64 100 65 101 66 102
REMARK SMILES IDX 67 103
REMARK H PARENT 91 56 59 67
REMARK Flexibility Score: inf
ROOT
ATOM      1  O   UNL A   1      40.229  27.073  28.518  1.00  0.00    -0.377 OA
ENDROOT
BRANCH   1   2
ATOM      2  C   UNL A   1      39.798  25.724  28.559  1.00  0.00     0.188 C 
BRANCH   2   3
ATOM      3  C   UNL A   1      39.665  25.019  27.210  1.00  0.00     0.188 C 
BRANCH   3   4
ATOM      4  O   UNL A   1      38.326  24.791  26.807  1.00  0.00    -0.376 OA
BRANCH   4   5
ATOM      5  C   UNL A   1      37.992  23.626  26.070  1.00  0.00     0.202 C 
BRANCH   5   6
ATOM      6  C   UNL A   1      37.027  23.654  24.897  1.00  0.00     0.261 C 
BRANCH   6   7
ATOM      7  O   UNL A   1      35.815  22.973  25.145  1.00  0.00    -0.460 OA
BRANCH   7   8
ATOM      8  C   UNL A   1      34.929  23.013  24.145  1.00  0.00     0.339 C 
ATOM      9  O   UNL A   1      34.905  23.818  23.221  1.00  0.00    -0.246 OA
BRANCH   8  10
ATOM     10  C   UNL A   1      34.255  21.704  24.181  1.00  0.00     0.073 A 
ATOM     11  C   UNL A   1      33.008  21.521  23.547  1.00  0.00     0.023 A 
ATOM     12  C   UNL A   1      32.428  20.250  23.638  1.00  0.00     0.016 A 
ATOM     13  C   UNL A   1      33.099  19.176  24.237  1.00  0.00     0.001 A 
ATOM     14  C   UNL A   1      34.944  20.607  24.757  1.00  0.00     0.017 A 
ATOM     15  C   UNL A   1      34.374  19.341  24.763  1.00  0.00     0.001 A 
BRANCH  11  16
ATOM     16  S   UNL A   1      31.980  22.791  22.788  1.00  0.00    -0.111 SA
BRANCH  16  17
ATOM     17  C   UNL A   1      31.006  23.611  24.124  1.00  0.00     0.151 C 
ATOM     18  N   UNL A   1      31.990  25.200  25.526  1.00  0.00    -0.250 N 
ATOM     19  C   UNL A   1      31.684  24.139  26.326  1.00  0.00     0.235 C 
ATOM     20  C   UNL A   1      31.369  25.066  24.314  1.00  0.00     0.247 C 
ATOM     21  O   UNL A   1      31.720  24.118  27.537  1.00  0.00    -0.274 OA
ATOM     22  C   UNL A   1      31.085  23.047  25.507  1.00  0.00     0.126 C 
ATOM     23  O   UNL A   1      31.059  25.960  23.535  1.00  0.00    -0.273 OA
BRANCH  18  24
ATOM     24  C   UNL A   1      32.364  26.410  26.143  1.00  0.00     0.052 A 
ATOM     25  C   UNL A   1      33.391  30.386  27.456  1.00  0.00     0.044 C 
ATOM     26  C   UNL A   1      33.024  29.012  26.980  1.00  0.00    -0.051 A 
ATOM     27  C   UNL A   1      34.016  28.141  26.509  1.00  0.00     0.005 A 
ATOM     28  C   UNL A   1      31.696  28.576  27.015  1.00  0.00     0.005 A 
ATOM     29  C   UNL A   1      33.691  26.844  26.099  1.00  0.00     0.027 A 
ATOM     30  C   UNL A   1      31.370  27.285  26.593  1.00  0.00     0.027 A 
ENDBRANCH  18  24
ENDBRANCH  16  17
ENDBRANCH  11  16
ENDBRANCH   8  10
ENDBRANCH   7   8
ENDBRANCH   6   7
ENDBRANCH   5   6
ENDBRANCH   4   5
ENDBRANCH   3   4
ENDBRANCH   2   3
ENDBRANCH   1   2
BRANCH   1  31
ATOM     31  C   UNL A   1      39.995  27.749  27.292  1.00  0.00     0.188 C 
BRANCH  31  32
ATOM     32  C   UNL A   1      39.297  29.088  27.333  1.00  0.00     0.188 C 
BRANCH  32  33
ATOM     33  O   UNL A   1      38.880  29.257  28.688  1.00  0.00    -0.376 OA
BRANCH  33  34
ATOM     34  C   UNL A   1      37.849  30.190  28.923  1.00  0.00     0.202 C 
BRANCH  34  35
ATOM     35  C   UNL A   1      38.321  31.347  29.804  1.00  0.00     0.261 C 
BRANCH  35  36
ATOM     36  O   UNL A   1      39.043  30.848  30.964  1.00  0.00    -0.460 OA
BRANCH  36  37
ATOM     37  C   UNL A   1      40.182  31.501  31.347  1.00  0.00     0.338 C 
ATOM     38  O   UNL A   1      40.300  32.091  32.410  1.00  0.00    -0.246 OA
BRANCH  37  39
ATOM     39  C   UNL A   1      41.302  31.324  30.367  1.00  0.00     0.060 A 
ATOM     40  C   UNL A   1      41.609  30.074  29.799  1.00  0.00     0.016 A 
ATOM     41  C   UNL A   1      42.169  32.380  30.142  1.00  0.00     0.016 A 
ATOM     42  C   UNL A   1      42.855  29.852  29.165  1.00  0.00     0.010 A 
ATOM     43  C   UNL A   1      43.434  32.118  29.644  1.00  0.00     0.010 A 
ATOM     44  C   UNL A   1      43.824  30.852  29.168  1.00  0.00    -0.014 A 
BRANCH  44  45
ATOM     45  C   UNL A   1      45.276  30.674  28.856  1.00  0.00     0.031 A 
ATOM     46  C   UNL A   1      45.836  31.457  27.678  1.00  0.00     0.074 A 
ATOM     47  C   UNL A   1      46.095  30.168  29.828  1.00  0.00     0.049 A 
ATOM     48  N   UNL A   1      47.079  31.552  27.348  1.00  0.00    -0.248 NA
ATOM     49  C   UNL A   1      45.017  32.309  26.806  1.00  0.00     0.031 C 
ATOM     50  C   UNL A   1      47.528  30.391  30.021  1.00  0.00     0.029 A 
ATOM     51  N   UNL A   1      45.808  29.358  30.932  1.00  0.00    -0.354 N 
ATOM     52  C   UNL A   1      47.270  32.686  26.558  1.00  0.00     0.074 A 
ATOM     53  C   UNL A   1      45.932  33.060  26.179  1.00  0.00     0.031 C 
ATOM     54  C   UNL A   1      48.010  29.761  31.106  1.00  0.00     0.029 A 
ATOM     55  C   UNL A   1      47.014  28.783  31.409  1.00  0.00     0.049 A 
ATOM     56  H   UNL A   1      44.913  29.211  31.316  1.00  0.00     0.167 HD
ATOM     57  C   UNL A   1      48.530  33.234  26.448  1.00  0.00     0.034 A 
ATOM     58  C   UNL A   1      47.228  27.452  31.205  1.00  0.00     0.034 A 
ATOM     59  C   UNL A   1      49.553  32.357  27.087  1.00  0.00     0.049 A 
ATOM     60  C   UNL A   1      48.228  27.271  30.009  1.00  0.00     0.074 A 
ATOM     61  C   UNL A   1      50.630  32.532  27.945  1.00  0.00     0.029 A 
ATOM     62  N   UNL A   1      49.406  30.970  26.993  1.00  0.00    -0.354 N 
ATOM     63  N   UNL A   1      48.665  28.263  29.251  1.00  0.00    -0.248 NA
ATOM     64  C   UNL A   1      48.917  26.047  29.634  1.00  0.00     0.031 C 
ATOM     65  C   UNL A   1      51.038  31.241  28.427  1.00  0.00     0.029 A 
ATOM     66  C   UNL A   1      50.260  30.268  27.813  1.00  0.00     0.049 A 
ATOM     67  H   UNL A   1      48.753  30.538  26.395  1.00  0.00     0.167 HD
ATOM     68  C   UNL A   1      49.675  27.912  28.405  1.00  0.00     0.074 A 
ATOM     69  C   UNL A   1      49.729  26.467  28.635  1.00  0.00     0.031 C 
ATOM     70  C   UNL A   1      50.379  28.819  27.622  1.00  0.00     0.034 A 
BRANCH  57  71
ATOM     71  C   UNL A   1      48.895  34.655  25.930  1.00  0.00     0.023 A 
ATOM     72  C   UNL A   1      48.063  35.759  26.262  1.00  0.00     0.031 A 
ATOM     73  C   UNL A   1      49.954  34.995  25.053  1.00  0.00     0.131 A 
ATOM     74  C   UNL A   1      48.259  37.059  25.729  1.00  0.00     0.055 A 
ATOM     75  C   UNL A   1      50.188  36.302  24.571  1.00  0.00     0.041 A 
ATOM     76  F   UNL A   1      50.806  34.086  24.571  1.00  0.00    -0.206 F 
ATOM     77  C   UNL A   1      49.334  37.341  24.897  1.00  0.00     0.022 A 
BRANCH  74  78
ATOM     78  S   UNL A   1      47.078  38.391  26.118  1.00  0.00     0.124 S 
ATOM     79  O   UNL A   1      46.957  39.080  24.839  1.00  0.00    -0.237 OA
ATOM     80  O   UNL A   1      45.904  37.650  26.567  1.00  0.00    -0.237 OA
ATOM     81  O   UNL A   1      47.756  39.154  27.166  1.00  0.00    -0.744 OA
ENDBRANCH  74  78
ENDBRANCH  57  71
BRANCH  58  82
ATOM     82  C   UNL A   1      45.978  26.759  31.732  1.00  0.00     0.023 A 
ATOM     83  C   UNL A   1      45.135  26.181  30.714  1.00  0.00     0.031 A 
ATOM     84  C   UNL A   1      46.016  26.080  32.962  1.00  0.00     0.131 A 
ATOM     85  C   UNL A   1      44.599  24.880  30.857  1.00  0.00     0.055 A 
ATOM     86  C   UNL A   1      45.427  24.806  33.113  1.00  0.00     0.041 A 
ATOM     87  F   UNL A   1      46.800  26.523  33.955  1.00  0.00    -0.206 F 
ATOM     88  C   UNL A   1      44.778  24.177  32.047  1.00  0.00     0.022 A 
BRANCH  85  89
ATOM     89  S   UNL A   1      43.920  23.971  29.407  1.00  0.00     0.124 S 
ATOM     90  O   UNL A   1      42.982  23.050  30.043  1.00  0.00    -0.237 OA
ATOM     91  O   UNL A   1      43.304  25.014  28.592  1.00  0.00    -0.237 OA
ATOM     92  O   UNL A   1      45.096  23.331  28.816  1.00  0.00    -0.744 OA
ENDBRANCH  85  89
ENDBRANCH  58  82
BRANCH  70  93
ATOM     93  C   UNL A   1      51.270  28.442  26.452  1.00  0.00     0.023 A 
ATOM     94  C   UNL A   1      50.739  28.035  25.243  1.00  0.00     0.031 A 
ATOM     95  C   UNL A   1      52.694  28.542  26.493  1.00  0.00     0.131 A 
ATOM     96  C   UNL A   1      51.538  27.999  24.095  1.00  0.00     0.055 A 
ATOM     97  C   UNL A   1      53.505  28.398  25.370  1.00  0.00     0.041 A 
ATOM     98  F   UNL A   1      53.383  28.818  27.608  1.00  0.00    -0.206 F 
ATOM     99  C   UNL A   1      52.918  28.178  24.142  1.00  0.00     0.022 A 
BRANCH  96 100
ATOM    100  S   UNL A   1      50.673  27.855  22.524  1.00  0.00     0.124 S 
ATOM    101  O   UNL A   1      49.346  27.411  22.940  1.00  0.00    -0.237 OA
ATOM    102  O   UNL A   1      50.750  29.226  22.024  1.00  0.00    -0.237 OA
ATOM    103  O   UNL A   1      51.463  26.874  21.787  1.00  0.00    -0.744 OA
ENDBRANCH  96 100
ENDBRANCH  70  93
ENDBRANCH  44  45
ENDBRANCH  37  39
ENDBRANCH  36  37
ENDBRANCH  35  36
ENDBRANCH  34  35
ENDBRANCH  33  34
ENDBRANCH  32  33
ENDBRANCH  31  32
ENDBRANCH   1  31
TORSDOF 26
ENDMDL
MODEL 2
REMARK VINA RESULT:      -8.6      5.205      6.587
REMARK SMILES Cc1ccc(N2C(=O)C[C@H](Sc3ccccc3C(=O)OCCOCCOCCOCCOC(=O)c3ccc(-c4c5nc(c(-c6cc(S(=O)(=O)[O-])ccc6F)c6ccc([nH]6)c(-c6cc(S(=O)(=O)[O-])ccc6F)c6nc(c(-c7cc(S(=O)(=O)[O-])ccc7F)c7ccc4[nH]7)C=C6)C=C5)cc3)C2=O)cc1
REMARK SMILES IDX 26 1 25 2 24 3 23 4 22 5 21 6 20 7 18 8 19 9 17 10 12 11
REMARK SMILES IDX 13 12 14 13 16 14 15 15 11 16 10 17 6 18 7 19 98 20 8 21
REMARK SMILES IDX 9 22 99 23 5 24 1 25 2 26 3 27 101 28 4 29 100 30 27 31
REMARK SMILES IDX 28 32 29 33 30 34 31 35 32 36 33 37 34 38 35 39 36 40 97 41
REMARK SMILES IDX 37 42 96 43 38 44 39 45 40 46 90 47 41 48 95 49 89 50 91 51
REMARK SMILES IDX 42 52 94 53 88 54 87 55 43 57 75 58 55 59 74 60 56 61 59 62
REMARK SMILES IDX 73 63 92 64 57 65 58 66 72 68 93 69 60 70 44 71 45 72 53 73
REMARK SMILES IDX 46 74 52 75 54 76 51 77 47 78 48 79 49 80 50 81 76 82 77 83
REMARK SMILES IDX 85 84 78 85 84 86 86 87 83 88 79 89 80 90 81 91 82 92 61 93
REMARK SMILES IDX 62 94 70 95 63 96 69 97 71 98 68 99 64 100 65 101 66 102
REMARK SMILES IDX 67 103
REMARK H PARENT 91 56 59 67
REMARK Flexibility Score: inf
ROOT
ATOM      1  O   UNL A   1      39.965  26.274  28.813  1.00  0.00    -0.377 OA
ENDROOT
BRANCH   1   2
ATOM      2  C   UNL A   1      39.484  24.943  28.745  1.00  0.00     0.188 C 
BRANCH   2   3
ATOM      3  C   UNL A   1      39.448  24.312  27.354  1.00  0.00     0.188 C 
BRANCH   3   4
ATOM      4  O   UNL A   1      38.152  24.236  26.788  1.00  0.00    -0.376 OA
BRANCH   4   5
ATOM      5  C   UNL A   1      37.920  23.429  25.645  1.00  0.00     0.202 C 
BRANCH   5   6
ATOM      6  C   UNL A   1      36.784  23.703  24.673  1.00  0.00     0.261 C 
BRANCH   6   7
ATOM      7  O   UNL A   1      35.614  22.960  24.946  1.00  0.00    -0.460 OA
BRANCH   7   8
ATOM      8  C   UNL A   1      34.769  22.838  23.918  1.00  0.00     0.339 C 
ATOM      9  O   UNL A   1      34.804  23.464  22.865  1.00  0.00    -0.246 OA
BRANCH   8  10
ATOM     10  C   UNL A   1      34.057  21.572  24.158  1.00  0.00     0.073 A 
ATOM     11  C   UNL A   1      32.744  21.384  23.677  1.00  0.00     0.023 A 
ATOM     12  C   UNL A   1      32.133  20.156  23.958  1.00  0.00     0.016 A 
ATOM     13  C   UNL A   1      32.825  19.117  24.594  1.00  0.00     0.001 A 
ATOM     14  C   UNL A   1      34.764  20.508  24.772  1.00  0.00     0.017 A 
ATOM     15  C   UNL A   1      34.154  19.276  24.967  1.00  0.00     0.001 A 
BRANCH  11  16
ATOM     16  S   UNL A   1      31.686  22.618  22.898  1.00  0.00    -0.111 SA
BRANCH  16  17
ATOM     17  C   UNL A   1      30.794  23.528  24.232  1.00  0.00     0.151 C 
ATOM     18  N   UNL A   1      31.892  25.124  25.539  1.00  0.00    -0.250 N 
ATOM     19  C   UNL A   1      31.569  24.108  26.389  1.00  0.00     0.235 C 
ATOM     20  C   UNL A   1      31.225  24.972  24.354  1.00  0.00     0.247 C 
ATOM     21  O   UNL A   1      31.644  24.130  27.598  1.00  0.00    -0.274 OA
ATOM     22  C   UNL A   1      30.896  23.013  25.633  1.00  0.00     0.126 C 
ATOM     23  O   UNL A   1      30.927  25.849  23.552  1.00  0.00    -0.273 OA
BRANCH  18  24
ATOM     24  C   UNL A   1      32.338  26.338  26.098  1.00  0.00     0.052 A 
ATOM     25  C   UNL A   1      33.515  30.324  27.245  1.00  0.00     0.044 C 
ATOM     26  C   UNL A   1      33.093  28.946  26.828  1.00  0.00    -0.051 A 
ATOM     27  C   UNL A   1      34.021  28.071  26.247  1.00  0.00     0.005 A 
ATOM     28  C   UNL A   1      31.779  28.511  27.027  1.00  0.00     0.005 A 
ATOM     29  C   UNL A   1      33.649  26.770  25.890  1.00  0.00     0.027 A 
ATOM     30  C   UNL A   1      31.405  27.217  26.657  1.00  0.00     0.027 A 
ENDBRANCH  18  24
ENDBRANCH  16  17
ENDBRANCH  11  16
ENDBRANCH   8  10
ENDBRANCH   7   8
ENDBRANCH   6   7
ENDBRANCH   5   6
ENDBRANCH   4   5
ENDBRANCH   3   4
ENDBRANCH   2   3
ENDBRANCH   1   2
BRANCH   1  31
ATOM     31  C   UNL A   1      40.012  26.967  27.575  1.00  0.00     0.188 C 
BRANCH  31  32
ATOM     32  C   UNL A   1      39.693  28.444  27.568  1.00  0.00     0.188 C 
BRANCH  32  33
ATOM     33  O   UNL A   1      39.269  28.747  28.896  1.00  0.00    -0.376 OA
BRANCH  33  34
ATOM     34  C   UNL A   1      37.896  29.012  29.079  1.00  0.00     0.202 C 
BRANCH  34  35
ATOM     35  C   UNL A   1      37.628  30.503  29.284  1.00  0.00     0.261 C 
BRANCH  35  36
ATOM     36  O   UNL A   1      37.836  30.875  30.676  1.00  0.00    -0.460 OA
BRANCH  36  37
ATOM     37  C   UNL A   1      37.968  32.203  30.977  1.00  0.00     0.338 C 
ATOM     38  O   UNL A   1      37.227  32.802  31.741  1.00  0.00    -0.246 OA
BRANCH  37  39
ATOM     39  C   UNL A   1      39.184  32.816  30.348  1.00  0.00     0.060 A 
ATOM     40  C   UNL A   1      40.449  32.203  30.413  1.00  0.00     0.016 A 
ATOM     41  C   UNL A   1      39.099  34.099  29.837  1.00  0.00     0.016 A 
ATOM     42  C   UNL A   1      41.625  32.939  30.132  1.00  0.00     0.010 A 
ATOM     43  C   UNL A   1      40.256  34.846  29.697  1.00  0.00     0.010 A 
ATOM     44  C   UNL A   1      41.544  34.303  29.865  1.00  0.00    -0.014 A 
BRANCH  44  45
ATOM     45  C   UNL A   1      42.681  35.274  29.885  1.00  0.00     0.031 A 
ATOM     46  C   UNL A   1      42.984  36.018  28.593  1.00  0.00     0.074 A 
ATOM     47  C   UNL A   1      43.119  35.741  31.095  1.00  0.00     0.049 A 
ATOM     48  N   UNL A   1      43.818  36.993  28.452  1.00  0.00    -0.248 NA
ATOM     49  C   UNL A   1      42.272  35.780  27.331  1.00  0.00     0.031 C 
ATOM     50  C   UNL A   1      43.765  37.017  31.401  1.00  0.00     0.029 A 
ATOM     51  N   UNL A   1      43.032  35.181  32.374  1.00  0.00    -0.354 N 
ATOM     52  C   UNL A   1      43.498  37.722  27.307  1.00  0.00     0.074 A 
ATOM     53  C   UNL A   1      42.586  36.859  26.603  1.00  0.00     0.031 C 
ATOM     54  C   UNL A   1      44.035  37.162  32.710  1.00  0.00     0.029 A 
ATOM     55  C   UNL A   1      43.959  35.832  33.227  1.00  0.00     0.049 A 
ATOM     56  H   UNL A   1      42.424  34.453  32.639  1.00  0.00     0.167 HD
ATOM     57  C   UNL A   1      43.945  39.021  27.181  1.00  0.00     0.034 A 
ATOM     58  C   UNL A   1      45.071  35.153  33.625  1.00  0.00     0.034 A 
ATOM     59  C   UNL A   1      44.896  39.369  28.276  1.00  0.00     0.049 A 
ATOM     60  C   UNL A   1      46.301  35.643  32.782  1.00  0.00     0.074 A 
ATOM     61  C   UNL A   1      45.080  40.437  29.143  1.00  0.00     0.029 A 
ATOM     62  N   UNL A   1      45.779  38.389  28.737  1.00  0.00    -0.354 N 
ATOM     63  N   UNL A   1      46.214  36.481  31.762  1.00  0.00    -0.248 NA
ATOM     64  C   UNL A   1      47.702  35.371  33.056  1.00  0.00     0.031 C 
ATOM     65  C   UNL A   1      45.999  40.030  30.170  1.00  0.00     0.029 A 
ATOM     66  C   UNL A   1      46.435  38.740  29.897  1.00  0.00     0.049 A 
ATOM     67  H   UNL A   1      45.920  37.530  28.276  1.00  0.00     0.167 HD
ATOM     68  C   UNL A   1      47.418  36.925  31.304  1.00  0.00     0.074 A 
ATOM     69  C   UNL A   1      48.330  36.114  32.113  1.00  0.00     0.031 C 
ATOM     70  C   UNL A   1      47.563  37.914  30.339  1.00  0.00     0.034 A 
BRANCH  57  71
ATOM     71  C   UNL A   1      43.425  40.101  26.189  1.00  0.00     0.023 A 
ATOM     72  C   UNL A   1      44.346  41.005  25.590  1.00  0.00     0.031 A 
ATOM     73  C   UNL A   1      42.077  40.371  25.854  1.00  0.00     0.131 A 
ATOM     74  C   UNL A   1      43.938  42.091  24.775  1.00  0.00     0.055 A 
ATOM     75  C   UNL A   1      41.673  41.414  24.991  1.00  0.00     0.041 A 
ATOM     76  F   UNL A   1      41.058  39.676  26.366  1.00  0.00    -0.206 F 
ATOM     77  C   UNL A   1      42.602  42.289  24.454  1.00  0.00     0.022 A 
BRANCH  74  78
ATOM     78  S   UNL A   1      45.175  43.270  24.141  1.00  0.00     0.124 S 
ATOM     79  O   UNL A   1      45.121  43.031  22.703  1.00  0.00    -0.237 OA
ATOM     80  O   UNL A   1      44.655  44.551  24.603  1.00  0.00    -0.237 OA
ATOM     81  O   UNL A   1      46.416  42.844  24.788  1.00  0.00    -0.744 OA
ENDBRANCH  74  78
ENDBRANCH  57  71
BRANCH  58  82
ATOM     82  C   UNL A   1      44.556  33.834  34.187  1.00  0.00     0.023 A 
ATOM     83  C   UNL A   1      45.114  32.656  33.569  1.00  0.00     0.031 A 
ATOM     84  C   UNL A   1      44.242  33.726  35.552  1.00  0.00     0.131 A 
ATOM     85  C   UNL A   1      45.563  31.562  34.346  1.00  0.00     0.055 A 
ATOM     86  C   UNL A   1      44.642  32.603  36.309  1.00  0.00     0.041 A 
ATOM     87  F   UNL A   1      43.752  34.780  36.220  1.00  0.00    -0.206 F 
ATOM     88  C   UNL A   1      45.358  31.554  35.725  1.00  0.00     0.022 A 
BRANCH  85  89
ATOM     89  S   UNL A   1      46.670  30.281  33.627  1.00  0.00     0.124 S 
ATOM     90  O   UNL A   1      47.839  31.072  33.249  1.00  0.00    -0.237 OA
ATOM     91  O   UNL A   1      46.889  29.344  34.726  1.00  0.00    -0.237 OA
ATOM     92  O   UNL A   1      45.903  29.750  32.499  1.00  0.00    -0.744 OA
ENDBRANCH  85  89
ENDBRANCH  58  82
BRANCH  70  93
ATOM     93  C   UNL A   1      48.847  38.204  29.582  1.00  0.00     0.023 A 
ATOM     94  C   UNL A   1      49.323  37.342  28.613  1.00  0.00     0.031 A 
ATOM     95  C   UNL A   1      49.608  39.398  29.767  1.00  0.00     0.131 A 
ATOM     96  C   UNL A   1      50.311  37.761  27.715  1.00  0.00     0.055 A 
ATOM     97  C   UNL A   1      50.666  39.769  28.941  1.00  0.00     0.041 A 
ATOM     98  F   UNL A   1      49.356  40.292  30.732  1.00  0.00    -0.206 F 
ATOM     99  C   UNL A   1      50.989  38.969  27.865  1.00  0.00     0.022 A 
BRANCH  96 100
ATOM    100  S   UNL A   1      50.562  36.729  26.264  1.00  0.00     0.124 S 
ATOM    101  O   UNL A   1      51.604  37.455  25.544  1.00  0.00    -0.237 OA
ATOM    102  O   UNL A   1      50.978  35.468  26.873  1.00  0.00    -0.237 OA
ATOM    103  O   UNL A   1      49.250  36.714  25.624  1.00  0.00    -0.744 OA
ENDBRANCH  96 100
ENDBRANCH  70  93
ENDBRANCH  44  45
ENDBRANCH  37  39
ENDBRANCH  36  37
ENDBRANCH  35  36
ENDBRANCH  34  35
ENDBRANCH  33  34
ENDBRANCH  32  33
ENDBRANCH  31  32
ENDBRANCH   1  31
TORSDOF 26
ENDMDL
MODEL 3
REMARK VINA RESULT:      -8.5      5.303      7.412
REMARK SMILES Cc1ccc(N2C(=O)C[C@H](Sc3ccccc3C(=O)OCCOCCOCCOCCOC(=O)c3ccc(-c4c5nc(c(-c6cc(S(=O)(=O)[O-])ccc6F)c6ccc([nH]6)c(-c6cc(S(=O)(=O)[O-])ccc6F)c6nc(c(-c7cc(S(=O)(=O)[O-])ccc7F)c7ccc4[nH]7)C=C6)C=C5)cc3)C2=O)cc1
REMARK SMILES IDX 26 1 25 2 24 3 23 4 22 5 21 6 20 7 18 8 19 9 17 10 12 11
REMARK SMILES IDX 13 12 14 13 16 14 15 15 11 16 10 17 6 18 7 19 98 20 8 21
REMARK SMILES IDX 9 22 99 23 5 24 1 25 2 26 3 27 101 28 4 29 100 30 27 31
REMARK SMILES IDX 28 32 29 33 30 34 31 35 32 36 33 37 34 38 35 39 36 40 97 41
REMARK SMILES IDX 37 42 96 43 38 44 39 45 40 46 90 47 41 48 95 49 89 50 91 51
REMARK SMILES IDX 42 52 94 53 88 54 87 55 43 57 75 58 55 59 74 60 56 61 59 62
REMARK SMILES IDX 73 63 92 64 57 65 58 66 72 68 93 69 60 70 44 71 45 72 53 73
REMARK SMILES IDX 46 74 52 75 54 76 51 77 47 78 48 79 49 80 50 81 76 82 77 83
REMARK SMILES IDX 85 84 78 85 84 86 86 87 83 88 79 89 80 90 81 91 82 92 61 93
REMARK SMILES IDX 62 94 70 95 63 96 69 97 71 98 68 99 64 100 65 101 66 102
REMARK SMILES IDX 67 103
REMARK H PARENT 91 56 59 67
REMARK Flexibility Score: inf
ROOT
ATOM      1  O   UNL A   1      39.744  26.132  28.529  1.00  0.00    -0.377 OA
ENDROOT
BRANCH   1   2
ATOM      2  C   UNL A   1      39.252  24.883  28.077  1.00  0.00     0.188 C 
BRANCH   2   3
ATOM      3  C   UNL A   1      39.621  24.494  26.645  1.00  0.00     0.188 C 
BRANCH   3   4
ATOM      4  O   UNL A   1      38.508  24.359  25.779  1.00  0.00    -0.376 OA
BRANCH   4   5
ATOM      5  C   UNL A   1      37.476  23.435  26.083  1.00  0.00     0.202 C 
BRANCH   5   6
ATOM      6  C   UNL A   1      36.172  23.386  25.305  1.00  0.00     0.261 C 
BRANCH   6   7
ATOM      7  O   UNL A   1      35.457  24.605  25.323  1.00  0.00    -0.460 OA
BRANCH   7   8
ATOM      8  C   UNL A   1      34.257  24.547  25.908  1.00  0.00     0.339 C 
ATOM      9  O   UNL A   1      33.902  23.755  26.773  1.00  0.00    -0.246 OA
BRANCH   8  10
ATOM     10  C   UNL A   1      33.613  25.831  25.584  1.00  0.00     0.073 A 
ATOM     11  C   UNL A   1      32.233  26.019  25.807  1.00  0.00     0.023 A 
ATOM     12  C   UNL A   1      31.696  27.264  25.459  1.00  0.00     0.016 A 
ATOM     13  C   UNL A   1      32.505  28.316  25.011  1.00  0.00     0.001 A 
ATOM     14  C   UNL A   1      34.433  26.907  25.161  1.00  0.00     0.017 A 
ATOM     15  C   UNL A   1      33.880  28.154  24.898  1.00  0.00     0.001 A 
BRANCH  11  16
ATOM     16  S   UNL A   1      31.036  24.772  26.316  1.00  0.00    -0.111 SA
BRANCH  16  17
ATOM     17  C   UNL A   1      30.716  23.666  24.875  1.00  0.00     0.151 C 
ATOM     18  N   UNL A   1      32.239  21.997  24.279  1.00  0.00    -0.250 N 
ATOM     19  C   UNL A   1      32.246  22.889  23.248  1.00  0.00     0.235 C 
ATOM     20  C   UNL A   1      31.176  22.244  25.105  1.00  0.00     0.247 C 
ATOM     21  O   UNL A   1      32.767  22.733  22.166  1.00  0.00    -0.274 OA
ATOM     22  C   UNL A   1      31.327  24.023  23.557  1.00  0.00     0.126 C 
ATOM     23  O   UNL A   1      30.611  21.449  25.846  1.00  0.00    -0.273 OA
BRANCH  18  24
ATOM     24  C   UNL A   1      32.874  20.755  24.084  1.00  0.00     0.052 A 
ATOM     25  C   UNL A   1      34.452  16.744  23.983  1.00  0.00     0.044 C 
ATOM     26  C   UNL A   1      33.886  18.131  24.032  1.00  0.00    -0.051 A 
ATOM     27  C   UNL A   1      34.538  19.133  24.764  1.00  0.00     0.005 A 
ATOM     28  C   UNL A   1      32.715  18.449  23.337  1.00  0.00     0.005 A 
ATOM     29  C   UNL A   1      34.040  20.440  24.786  1.00  0.00     0.027 A 
ATOM     30  C   UNL A   1      32.211  19.751  23.369  1.00  0.00     0.027 A 
ENDBRANCH  18  24
ENDBRANCH  16  17
ENDBRANCH  11  16
ENDBRANCH   8  10
ENDBRANCH   7   8
ENDBRANCH   6   7
ENDBRANCH   5   6
ENDBRANCH   4   5
ENDBRANCH   3   4
ENDBRANCH   2   3
ENDBRANCH   1   2
BRANCH   1  31
ATOM     31  C   UNL A   1      40.030  27.078  27.510  1.00  0.00     0.188 C 
BRANCH  31  32
ATOM     32  C   UNL A   1      39.990  28.546  27.863  1.00  0.00     0.188 C 
BRANCH  32  33
ATOM     33  O   UNL A   1      39.098  28.645  28.973  1.00  0.00    -0.376 OA
BRANCH  33  34
ATOM     34  C   UNL A   1      37.785  29.079  28.696  1.00  0.00     0.202 C 
BRANCH  34  35
ATOM     35  C   UNL A   1      37.615  30.575  28.960  1.00  0.00     0.261 C 
BRANCH  35  36
ATOM     36  O   UNL A   1      37.428  30.827  30.381  1.00  0.00    -0.460 OA
BRANCH  36  37
ATOM     37  C   UNL A   1      37.692  32.083  30.855  1.00  0.00     0.338 C 
ATOM     38  O   UNL A   1      37.021  32.641  31.709  1.00  0.00    -0.246 OA
BRANCH  37  39
ATOM     39  C   UNL A   1      38.955  32.657  30.286  1.00  0.00     0.060 A 
ATOM     40  C   UNL A   1      40.188  31.983  30.372  1.00  0.00     0.016 A 
ATOM     41  C   UNL A   1      38.948  33.958  29.816  1.00  0.00     0.016 A 
ATOM     42  C   UNL A   1      41.406  32.671  30.154  1.00  0.00     0.010 A 
ATOM     43  C   UNL A   1      40.143  34.654  29.739  1.00  0.00     0.010 A 
ATOM     44  C   UNL A   1      41.398  34.045  29.930  1.00  0.00    -0.014 A 
BRANCH  44  45
ATOM     45  C   UNL A   1      42.577  34.960  30.019  1.00  0.00     0.031 A 
ATOM     46  C   UNL A   1      42.963  35.724  28.762  1.00  0.00     0.074 A 
ATOM     47  C   UNL A   1      42.991  35.372  31.257  1.00  0.00     0.049 A 
ATOM     48  N   UNL A   1      43.845  36.661  28.680  1.00  0.00    -0.248 NA
ATOM     49  C   UNL A   1      42.288  35.554  27.468  1.00  0.00     0.031 C 
ATOM     50  C   UNL A   1      43.684  36.607  31.623  1.00  0.00     0.029 A 
ATOM     51  N   UNL A   1      42.830  34.782  32.516  1.00  0.00    -0.354 N 
ATOM     52  C   UNL A   1      43.603  37.436  27.545  1.00  0.00     0.074 A 
ATOM     53  C   UNL A   1      42.679  36.637  26.784  1.00  0.00     0.031 C 
ATOM     54  C   UNL A   1      43.911  36.703  32.945  1.00  0.00     0.029 A 
ATOM     55  C   UNL A   1      43.753  35.365  33.420  1.00  0.00     0.049 A 
ATOM     56  H   UNL A   1      42.179  34.077  32.737  1.00  0.00     0.167 HD
ATOM     57  C   UNL A   1      44.115  38.714  27.473  1.00  0.00     0.034 A 
ATOM     58  C   UNL A   1      44.817  34.622  33.838  1.00  0.00     0.034 A 
ATOM     59  C   UNL A   1      45.039  38.987  28.611  1.00  0.00     0.049 A 
ATOM     60  C   UNL A   1      46.099  35.076  33.054  1.00  0.00     0.074 A 
ATOM     61  C   UNL A   1      45.241  40.020  29.515  1.00  0.00     0.029 A 
ATOM     62  N   UNL A   1      45.858  37.954  29.076  1.00  0.00    -0.354 N 
ATOM     63  N   UNL A   1      46.089  35.944  32.057  1.00  0.00    -0.248 NA
ATOM     64  C   UNL A   1      47.475  34.730  33.371  1.00  0.00     0.031 C 
ATOM     65  C   UNL A   1      46.101  39.542  30.562  1.00  0.00     0.029 A 
ATOM     66  C   UNL A   1      46.485  38.241  30.267  1.00  0.00     0.049 A 
ATOM     67  H   UNL A   1      45.976  37.102  28.595  1.00  0.00     0.167 HD
ATOM     68  C   UNL A   1      47.330  36.344  31.656  1.00  0.00     0.074 A 
ATOM     69  C   UNL A   1      48.171  35.467  32.474  1.00  0.00     0.031 C 
ATOM     70  C   UNL A   1      47.556  37.350  30.726  1.00  0.00     0.034 A 
BRANCH  57  71
ATOM     71  C   UNL A   1      43.684  39.845  26.494  1.00  0.00     0.023 A 
ATOM     72  C   UNL A   1      44.676  40.655  25.877  1.00  0.00     0.031 A 
ATOM     73  C   UNL A   1      42.362  40.249  26.190  1.00  0.00     0.131 A 
ATOM     74  C   UNL A   1      44.361  41.780  25.073  1.00  0.00     0.055 A 
ATOM     75  C   UNL A   1      42.045  41.331  25.338  1.00  0.00     0.041 A 
ATOM     76  F   UNL A   1      41.290  39.657  26.724  1.00  0.00    -0.206 F 
ATOM     77  C   UNL A   1      43.044  42.111  24.783  1.00  0.00     0.022 A 
BRANCH  74  78
ATOM     78  S   UNL A   1      45.695  42.831  24.413  1.00  0.00     0.124 S 
ATOM     79  O   UNL A   1      45.257  43.063  23.042  1.00  0.00    -0.237 OA
ATOM     80  O   UNL A   1      45.659  43.984  25.307  1.00  0.00    -0.237 OA
ATOM     81  O   UNL A   1      46.887  41.994  24.544  1.00  0.00    -0.744 OA
ENDBRANCH  74  78
ENDBRANCH  57  71
BRANCH  58  82
ATOM     82  C   UNL A   1      44.220  33.315  34.342  1.00  0.00     0.023 A 
ATOM     83  C   UNL A   1      43.302  33.456  35.446  1.00  0.00     0.031 A 
ATOM     84  C   UNL A   1      43.946  32.273  33.440  1.00  0.00     0.131 A 
ATOM     85  C   UNL A   1      42.067  32.768  35.466  1.00  0.00     0.055 A 
ATOM     86  C   UNL A   1      42.735  31.549  33.503  1.00  0.00     0.041 A 
ATOM     87  F   UNL A   1      44.723  32.087  32.364  1.00  0.00    -0.206 F 
ATOM     88  C   UNL A   1      41.768  31.839  34.471  1.00  0.00     0.022 A 
BRANCH  85  89
ATOM     89  S   UNL A   1      40.717  33.277  36.609  1.00  0.00     0.124 S 
ATOM     90  O   UNL A   1      40.131  31.989  36.974  1.00  0.00    -0.237 OA
ATOM     91  O   UNL A   1      41.412  33.966  37.693  1.00  0.00    -0.237 OA
ATOM     92  O   UNL A   1      39.860  34.125  35.780  1.00  0.00    -0.744 OA
ENDBRANCH  85  89
ENDBRANCH  58  82
BRANCH  70  93
ATOM     93  C   UNL A   1      48.880  37.599  30.025  1.00  0.00     0.023 A 
ATOM     94  C   UNL A   1      49.312  36.790  28.991  1.00  0.00     0.031 A 
ATOM     95  C   UNL A   1      49.729  38.705  30.333  1.00  0.00     0.131 A 
ATOM     96  C   UNL A   1      50.355  37.205  28.155  1.00  0.00     0.055 A 
ATOM     97  C   UNL A   1      50.836  39.059  29.565  1.00  0.00     0.041 A 
ATOM     98  F   UNL A   1      49.523  39.528  31.369  1.00  0.00    -0.206 F 
ATOM     99  C   UNL A   1      51.123  38.334  28.428  1.00  0.00     0.022 A 
BRANCH  96 100
ATOM    100  S   UNL A   1      50.561  36.289  26.622  1.00  0.00     0.124 S 
ATOM    101  O   UNL A   1      52.002  36.054  26.592  1.00  0.00    -0.237 OA
ATOM    102  O   UNL A   1      49.736  35.110  26.874  1.00  0.00    -0.237 OA
ATOM    103  O   UNL A   1      50.052  37.204  25.605  1.00  0.00    -0.744 OA
ENDBRANCH  96 100
ENDBRANCH  70  93
ENDBRANCH  44  45
ENDBRANCH  37  39
ENDBRANCH  36  37
ENDBRANCH  35  36
ENDBRANCH  34  35
ENDBRANCH  33  34
ENDBRANCH  32  33
ENDBRANCH  31  32
ENDBRANCH   1  31
TORSDOF 26
ENDMDL
