MODEL 1
REMARK VINA RESULT:      -8.2      0.000      0.000
REMARK SMILES CC1(C)CSC[C@@H]([N@H+]2CCC[C@H](CCC(=O)OCCOCCOCCOCCOC(=O)c3ccc(-c4c5nc(c(-c6cc(S(=O)(=O)[O-])ccc6F)c6ccc([nH]6)c(-c6cc(S(=O)(=O)[O-])ccc6F)c6nc(c(-c7cc(S(=O)(=O)[O-])ccc7F)c7ccc4[nH]7)C=C6)C=C5)cc3)C2)C1
REMARK SMILES IDX 23 1 22 2 21 3 20 4 19 5 18 6 17 7 15 8 16 9 14 10 13 11
REMARK SMILES IDX 12 12 8 13 9 14 95 15 10 17 11 18 7 19 1 20 2 21 3 22 4 23
REMARK SMILES IDX 96 24 5 25 6 26 24 27 25 28 26 29 27 30 28 31 29 32 30 33
REMARK SMILES IDX 31 34 32 35 33 36 94 37 34 38 93 39 35 40 36 41 37 42 87 43
REMARK SMILES IDX 38 44 92 45 86 46 88 47 39 48 91 49 85 50 84 51 40 53 72 54
REMARK SMILES IDX 52 55 71 56 53 57 56 58 70 59 89 60 54 61 55 62 69 64 90 65
REMARK SMILES IDX 57 66 41 67 42 68 50 69 43 70 49 71 51 72 48 73 44 74 45 75
REMARK SMILES IDX 46 76 47 77 73 78 74 79 82 80 75 81 81 82 83 83 80 84 76 85
REMARK SMILES IDX 77 86 78 87 79 88 58 89 59 90 67 91 60 92 66 93 68 94 65 95
REMARK SMILES IDX 61 96 62 97 63 98 64 99
REMARK H PARENT 8 16 88 52 56 63
REMARK Flexibility Score: inf
ROOT
ATOM      1  O   UNL A   1      38.297  22.082  26.296  1.00  0.00    -0.377 OA
ENDROOT
BRANCH   1   2
ATOM      2  C   UNL A   1      37.922  21.535  25.042  1.00  0.00     0.188 C 
BRANCH   2   3
ATOM      3  C   UNL A   1      37.764  20.015  24.960  1.00  0.00     0.188 C 
BRANCH   3   4
ATOM      4  O   UNL A   1      36.439  19.504  24.961  1.00  0.00    -0.376 OA
BRANCH   4   5
ATOM      5  C   UNL A   1      35.406  20.458  24.684  1.00  0.00     0.202 C 
BRANCH   5   6
ATOM      6  C   UNL A   1      34.388  20.708  25.809  1.00  0.00     0.261 C 
BRANCH   6   7
ATOM      7  O   UNL A   1      33.081  20.157  25.504  1.00  0.00    -0.463 OA
BRANCH   7   8
ATOM      8  C   UNL A   1      32.182  20.948  24.870  1.00  0.00     0.305 C 
ATOM      9  O   UNL A   1      32.061  21.028  23.652  1.00  0.00    -0.252 OA
BRANCH   8  10
ATOM     10  C   UNL A   1      31.366  21.798  25.829  1.00  0.00     0.123 C 
BRANCH  10  11
ATOM     11  C   UNL A   1      31.954  23.084  26.427  1.00  0.00     0.021 C 
BRANCH  11  12
ATOM     12  C   UNL A   1      32.225  24.311  25.524  1.00  0.00     0.045 C 
ATOM     13  N   UNL A   1      31.629  25.516  23.374  1.00  0.00    -0.332 N 
ATOM     14  C   UNL A   1      32.915  25.165  22.795  1.00  0.00     0.262 C 
ATOM     15  C   UNL A   1      31.230  24.515  24.371  1.00  0.00     0.265 C 
ATOM     16  H   UNL A   1      30.943  25.454  22.620  1.00  0.00     0.348 HD
ATOM     17  C   UNL A   1      34.016  25.090  23.839  1.00  0.00     0.062 C 
ATOM     18  C   UNL A   1      33.691  24.316  25.101  1.00  0.00     0.015 C 
BRANCH  13  19
ATOM     19  C   UNL A   1      31.374  26.950  23.677  1.00  0.00     0.194 C 
ATOM     20  C   UNL A   1      33.638  27.504  26.177  1.00  0.00     0.012 C 
ATOM     21  C   UNL A   1      32.334  28.243  25.856  1.00  0.00    -0.021 C 
ATOM     22  C   UNL A   1      31.773  28.688  27.228  1.00  0.00     0.012 C 
ATOM     23  C   UNL A   1      32.672  29.478  25.013  1.00  0.00     0.076 C 
ATOM     24  C   UNL A   1      31.224  27.420  25.149  1.00  0.00     0.073 C 
ATOM     25  S   UNL A   1      33.454  29.001  23.456  1.00  0.00    -0.155 SA
ATOM     26  C   UNL A   1      32.195  27.899  22.758  1.00  0.00     0.134 C 
ENDBRANCH  13  19
ENDBRANCH  11  12
ENDBRANCH  10  11
ENDBRANCH   8  10
ENDBRANCH   7   8
ENDBRANCH   6   7
ENDBRANCH   5   6
ENDBRANCH   4   5
ENDBRANCH   3   4
ENDBRANCH   2   3
ENDBRANCH   1   2
BRANCH   1  27
ATOM     27  C   UNL A   1      39.661  22.459  26.469  1.00  0.00     0.188 C 
BRANCH  27  28
ATOM     28  C   UNL A   1      40.607  21.444  27.122  1.00  0.00     0.188 C 
BRANCH  28  29
ATOM     29  O   UNL A   1      42.007  21.694  27.211  1.00  0.00    -0.376 OA
BRANCH  29  30
ATOM     30  C   UNL A   1      42.787  21.778  26.032  1.00  0.00     0.202 C 
BRANCH  30  31
ATOM     31  C   UNL A   1      42.812  23.189  25.439  1.00  0.00     0.261 C 
BRANCH  31  32
ATOM     32  O   UNL A   1      44.078  23.851  25.566  1.00  0.00    -0.460 OA
BRANCH  32  33
ATOM     33  C   UNL A   1      44.675  23.724  26.772  1.00  0.00     0.338 C 
ATOM     34  O   UNL A   1      45.362  22.789  27.181  1.00  0.00    -0.246 OA
BRANCH  33  35
ATOM     35  C   UNL A   1      44.321  24.882  27.598  1.00  0.00     0.060 A 
ATOM     36  C   UNL A   1      44.928  26.129  27.403  1.00  0.00     0.016 A 
ATOM     37  C   UNL A   1      43.406  24.692  28.630  1.00  0.00     0.016 A 
ATOM     38  C   UNL A   1      44.610  27.202  28.248  1.00  0.00     0.010 A 
ATOM     39  C   UNL A   1      43.093  25.763  29.465  1.00  0.00     0.010 A 
ATOM     40  C   UNL A   1      43.693  27.031  29.292  1.00  0.00    -0.014 A 
BRANCH  40  41
ATOM     41  C   UNL A   1      43.442  28.075  30.331  1.00  0.00     0.031 A 
ATOM     42  C   UNL A   1      44.146  27.912  31.656  1.00  0.00     0.074 A 
ATOM     43  C   UNL A   1      42.573  29.093  30.163  1.00  0.00     0.049 A 
ATOM     44  N   UNL A   1      43.924  28.498  32.802  1.00  0.00    -0.248 NA
ATOM     45  C   UNL A   1      45.219  26.905  31.690  1.00  0.00     0.031 C 
ATOM     46  C   UNL A   1      41.844  29.403  28.935  1.00  0.00     0.029 A 
ATOM     47  N   UNL A   1      42.126  30.042  31.059  1.00  0.00    -0.354 N 
ATOM     48  C   UNL A   1      44.802  27.900  33.700  1.00  0.00     0.074 A 
ATOM     49  C   UNL A   1      45.501  26.859  32.980  1.00  0.00     0.031 C 
ATOM     50  C   UNL A   1      41.019  30.444  29.161  1.00  0.00     0.029 A 
ATOM     51  C   UNL A   1      41.124  30.848  30.562  1.00  0.00     0.049 A 
ATOM     52  H   UNL A   1      42.490  30.135  31.969  1.00  0.00     0.167 HD
ATOM     53  C   UNL A   1      45.029  28.208  35.001  1.00  0.00     0.034 A 
ATOM     54  C   UNL A   1      40.352  31.774  31.175  1.00  0.00     0.034 A 
ATOM     55  C   UNL A   1      44.356  29.272  35.697  1.00  0.00     0.049 A 
ATOM     56  C   UNL A   1      40.561  32.051  32.647  1.00  0.00     0.074 A 
ATOM     57  C   UNL A   1      44.552  29.710  36.994  1.00  0.00     0.029 A 
ATOM     58  N   UNL A   1      43.354  30.065  35.154  1.00  0.00    -0.354 N 
ATOM     59  N   UNL A   1      41.404  31.493  33.484  1.00  0.00    -0.248 NA
ATOM     60  C   UNL A   1      39.719  33.093  33.255  1.00  0.00     0.031 C 
ATOM     61  C   UNL A   1      43.619  30.719  37.259  1.00  0.00     0.029 A 
ATOM     62  C   UNL A   1      42.899  30.969  36.101  1.00  0.00     0.049 A 
ATOM     63  H   UNL A   1      43.014  29.995  34.231  1.00  0.00     0.167 HD
ATOM     64  C   UNL A   1      41.226  32.149  34.701  1.00  0.00     0.074 A 
ATOM     65  C   UNL A   1      40.191  33.139  34.493  1.00  0.00     0.031 C 
ATOM     66  C   UNL A   1      41.876  31.963  35.878  1.00  0.00     0.034 A 
BRANCH  53  67
ATOM     67  C   UNL A   1      46.026  27.354  35.746  1.00  0.00     0.023 A 
ATOM     68  C   UNL A   1      45.619  26.277  36.554  1.00  0.00     0.031 A 
ATOM     69  C   UNL A   1      47.398  27.659  35.699  1.00  0.00     0.131 A 
ATOM     70  C   UNL A   1      46.555  25.615  37.360  1.00  0.00     0.055 A 
ATOM     71  C   UNL A   1      48.338  26.930  36.430  1.00  0.00     0.041 A 
ATOM     72  F   UNL A   1      47.845  28.689  34.963  1.00  0.00    -0.206 F 
ATOM     73  C   UNL A   1      47.916  25.915  37.283  1.00  0.00     0.022 A 
BRANCH  70  74
ATOM     74  S   UNL A   1      45.942  24.484  38.639  1.00  0.00     0.124 S 
ATOM     75  O   UNL A   1      46.667  23.258  38.319  1.00  0.00    -0.237 OA
ATOM     76  O   UNL A   1      46.336  25.157  39.871  1.00  0.00    -0.237 OA
ATOM     77  O   UNL A   1      44.503  24.433  38.389  1.00  0.00    -0.744 OA
ENDBRANCH  70  74
ENDBRANCH  53  67
BRANCH  54  78
ATOM     78  C   UNL A   1      39.264  32.483  30.432  1.00  0.00     0.023 A 
ATOM     79  C   UNL A   1      38.007  31.890  30.221  1.00  0.00     0.031 A 
ATOM     80  C   UNL A   1      39.498  33.739  29.849  1.00  0.00     0.131 A 
ATOM     81  C   UNL A   1      37.050  32.541  29.421  1.00  0.00     0.055 A 
ATOM     82  C   UNL A   1      38.523  34.411  29.109  1.00  0.00     0.041 A 
ATOM     83  F   UNL A   1      40.698  34.323  29.965  1.00  0.00    -0.206 F 
ATOM     84  C   UNL A   1      37.292  33.806  28.881  1.00  0.00     0.022 A 
BRANCH  81  85
ATOM     85  S   UNL A   1      35.516  31.666  29.007  1.00  0.00     0.124 S 
ATOM     86  O   UNL A   1      35.320  32.050  27.614  1.00  0.00    -0.237 OA
ATOM     87  O   UNL A   1      35.884  30.274  29.244  1.00  0.00    -0.237 OA
ATOM     88  O   UNL A   1      34.543  32.218  29.948  1.00  0.00    -0.744 OA
ENDBRANCH  81  85
ENDBRANCH  54  78
BRANCH  66  89
ATOM     89  C   UNL A   1      41.558  32.903  37.015  1.00  0.00     0.023 A 
ATOM     90  C   UNL A   1      40.548  32.634  37.953  1.00  0.00     0.031 A 
ATOM     91  C   UNL A   1      42.322  34.074  37.180  1.00  0.00     0.131 A 
ATOM     92  C   UNL A   1      40.312  33.540  39.001  1.00  0.00     0.055 A 
ATOM     93  C   UNL A   1      42.120  34.941  38.253  1.00  0.00     0.041 A 
ATOM     94  F   UNL A   1      43.298  34.380  36.309  1.00  0.00    -0.206 F 
ATOM     95  C   UNL A   1      41.105  34.679  39.168  1.00  0.00     0.022 A 
BRANCH  92  96
ATOM     96  S   UNL A   1      38.917  33.241  40.121  1.00  0.00     0.124 S 
ATOM     97  O   UNL A   1      38.777  34.533  40.785  1.00  0.00    -0.237 OA
ATOM     98  O   UNL A   1      37.846  32.879  39.199  1.00  0.00    -0.237 OA
ATOM     99  O   UNL A   1      39.389  32.153  40.976  1.00  0.00    -0.744 OA
ENDBRANCH  92  96
ENDBRANCH  66  89
ENDBRANCH  40  41
ENDBRANCH  33  35
ENDBRANCH  32  33
ENDBRANCH  31  32
ENDBRANCH  30  31
ENDBRANCH  29  30
ENDBRANCH  28  29
ENDBRANCH  27  28
ENDBRANCH   1  27
TORSDOF 26
ENDMDL
MODEL 2
REMARK VINA RESULT:      -7.9      4.966     10.532
REMARK SMILES CC1(C)CSC[C@@H]([N@H+]2CCC[C@H](CCC(=O)OCCOCCOCCOCCOC(=O)c3ccc(-c4c5nc(c(-c6cc(S(=O)(=O)[O-])ccc6F)c6ccc([nH]6)c(-c6cc(S(=O)(=O)[O-])ccc6F)c6nc(c(-c7cc(S(=O)(=O)[O-])ccc7F)c7ccc4[nH]7)C=C6)C=C5)cc3)C2)C1
REMARK SMILES IDX 23 1 22 2 21 3 20 4 19 5 18 6 17 7 15 8 16 9 14 10 13 11
REMARK SMILES IDX 12 12 8 13 9 14 95 15 10 17 11 18 7 19 1 20 2 21 3 22 4 23
REMARK SMILES IDX 96 24 5 25 6 26 24 27 25 28 26 29 27 30 28 31 29 32 30 33
REMARK SMILES IDX 31 34 32 35 33 36 94 37 34 38 93 39 35 40 36 41 37 42 87 43
REMARK SMILES IDX 38 44 92 45 86 46 88 47 39 48 91 49 85 50 84 51 40 53 72 54
REMARK SMILES IDX 52 55 71 56 53 57 56 58 70 59 89 60 54 61 55 62 69 64 90 65
REMARK SMILES IDX 57 66 41 67 42 68 50 69 43 70 49 71 51 72 48 73 44 74 45 75
REMARK SMILES IDX 46 76 47 77 73 78 74 79 82 80 75 81 81 82 83 83 80 84 76 85
REMARK SMILES IDX 77 86 78 87 79 88 58 89 59 90 67 91 60 92 66 93 68 94 65 95
REMARK SMILES IDX 61 96 62 97 63 98 64 99
REMARK H PARENT 8 16 88 52 56 63
REMARK Flexibility Score: inf
ROOT
ATOM      1  O   UNL A   1      31.566  26.697  23.834  1.00  0.00    -0.377 OA
ENDROOT
BRANCH   1   2
ATOM      2  C   UNL A   1      32.887  26.613  23.324  1.00  0.00     0.188 C 
BRANCH   2   3
ATOM      3  C   UNL A   1      33.339  25.258  22.774  1.00  0.00     0.188 C 
BRANCH   3   4
ATOM      4  O   UNL A   1      32.748  24.101  23.347  1.00  0.00    -0.376 OA
BRANCH   4   5
ATOM      5  C   UNL A   1      33.635  22.996  23.570  1.00  0.00     0.202 C 
BRANCH   5   6
ATOM      6  C   UNL A   1      35.115  23.230  23.225  1.00  0.00     0.261 C 
BRANCH   6   7
ATOM      7  O   UNL A   1      36.008  22.707  24.242  1.00  0.00    -0.463 OA
BRANCH   7   8
ATOM      8  C   UNL A   1      36.357  23.517  25.270  1.00  0.00     0.305 C 
ATOM      9  O   UNL A   1      35.683  24.458  25.675  1.00  0.00    -0.252 OA
BRANCH   8  10
ATOM     10  C   UNL A   1      37.725  23.187  25.842  1.00  0.00     0.123 C 
BRANCH  10  11
ATOM     11  C   UNL A   1      38.460  24.193  26.738  1.00  0.00     0.021 C 
BRANCH  11  12
ATOM     12  C   UNL A   1      39.955  24.509  26.493  1.00  0.00     0.045 C 
ATOM     13  N   UNL A   1      42.355  23.885  27.027  1.00  0.00    -0.332 N 
ATOM     14  C   UNL A   1      42.520  25.100  27.807  1.00  0.00     0.262 C 
ATOM     15  C   UNL A   1      40.947  23.466  27.030  1.00  0.00     0.265 C 
ATOM     16  H   UNL A   1      42.870  23.152  27.515  1.00  0.00     0.348 HD
ATOM     17  C   UNL A   1      41.694  26.253  27.263  1.00  0.00     0.062 C 
ATOM     18  C   UNL A   1      40.248  25.942  26.928  1.00  0.00     0.015 C 
BRANCH  13  19
ATOM     19  C   UNL A   1      43.118  23.769  25.755  1.00  0.00     0.194 C 
ATOM     20  C   UNL A   1      46.330  24.035  26.894  1.00  0.00     0.012 C 
ATOM     21  C   UNL A   1      45.757  24.332  25.503  1.00  0.00    -0.021 C 
ATOM     22  C   UNL A   1      46.601  25.510  24.961  1.00  0.00     0.012 C 
ATOM     23  C   UNL A   1      45.968  23.098  24.619  1.00  0.00     0.076 C 
ATOM     24  C   UNL A   1      44.268  24.766  25.443  1.00  0.00     0.073 C 
ATOM     25  S   UNL A   1      45.104  21.664  25.297  1.00  0.00    -0.155 SA
ATOM     26  C   UNL A   1      43.404  22.288  25.375  1.00  0.00     0.134 C 
ENDBRANCH  13  19
ENDBRANCH  11  12
ENDBRANCH  10  11
ENDBRANCH   8  10
ENDBRANCH   7   8
ENDBRANCH   6   7
ENDBRANCH   5   6
ENDBRANCH   4   5
ENDBRANCH   3   4
ENDBRANCH   2   3
ENDBRANCH   1   2
BRANCH   1  27
ATOM     27  C   UNL A   1      31.405  26.676  25.251  1.00  0.00     0.188 C 
BRANCH  27  28
ATOM     28  C   UNL A   1      32.113  27.764  26.068  1.00  0.00     0.188 C 
BRANCH  28  29
ATOM     29  O   UNL A   1      31.717  29.130  25.976  1.00  0.00    -0.376 OA
BRANCH  29  30
ATOM     30  C   UNL A   1      32.698  30.149  25.944  1.00  0.00     0.202 C 
BRANCH  30  31
ATOM     31  C   UNL A   1      33.401  30.337  27.289  1.00  0.00     0.261 C 
BRANCH  31  32
ATOM     32  O   UNL A   1      34.509  31.248  27.247  1.00  0.00    -0.460 OA
BRANCH  32  33
ATOM     33  C   UNL A   1      34.518  32.186  28.220  1.00  0.00     0.338 C 
ATOM     34  O   UNL A   1      33.655  33.027  28.468  1.00  0.00    -0.246 OA
BRANCH  33  35
ATOM     35  C   UNL A   1      35.794  32.109  28.937  1.00  0.00     0.060 A 
ATOM     36  C   UNL A   1      35.980  32.759  30.164  1.00  0.00     0.016 A 
ATOM     37  C   UNL A   1      36.843  31.422  28.332  1.00  0.00     0.016 A 
ATOM     38  C   UNL A   1      37.231  32.715  30.797  1.00  0.00     0.010 A 
ATOM     39  C   UNL A   1      38.083  31.381  28.967  1.00  0.00     0.010 A 
ATOM     40  C   UNL A   1      38.299  32.030  30.203  1.00  0.00    -0.014 A 
BRANCH  40  41
ATOM     41  C   UNL A   1      39.695  32.090  30.732  1.00  0.00     0.031 A 
ATOM     42  C   UNL A   1      40.542  33.264  30.307  1.00  0.00     0.074 A 
ATOM     43  C   UNL A   1      40.240  31.120  31.494  1.00  0.00     0.049 A 
ATOM     44  N   UNL A   1      41.833  33.442  30.392  1.00  0.00    -0.248 NA
ATOM     45  C   UNL A   1      39.822  34.369  29.653  1.00  0.00     0.031 C 
ATOM     46  C   UNL A   1      39.544  29.944  32.012  1.00  0.00     0.029 A 
ATOM     47  N   UNL A   1      41.537  30.956  31.936  1.00  0.00    -0.354 N 
ATOM     48  C   UNL A   1      42.083  34.657  29.763  1.00  0.00     0.074 A 
ATOM     49  C   UNL A   1      40.820  35.130  29.241  1.00  0.00     0.031 C 
ATOM     50  C   UNL A   1      40.423  29.165  32.671  1.00  0.00     0.029 A 
ATOM     51  C   UNL A   1      41.755  29.759  32.586  1.00  0.00     0.049 A 
ATOM     52  H   UNL A   1      42.240  31.631  31.801  1.00  0.00     0.167 HD
ATOM     53  C   UNL A   1      43.252  35.335  29.655  1.00  0.00     0.034 A 
ATOM     54  C   UNL A   1      42.902  29.190  33.022  1.00  0.00     0.034 A 
ATOM     55  C   UNL A   1      44.495  34.874  30.213  1.00  0.00     0.049 A 
ATOM     56  C   UNL A   1      44.211  29.920  32.823  1.00  0.00     0.074 A 
ATOM     57  C   UNL A   1      45.724  35.508  30.216  1.00  0.00     0.029 A 
ATOM     58  N   UNL A   1      44.669  33.661  30.866  1.00  0.00    -0.354 N 
ATOM     59  N   UNL A   1      44.435  31.077  32.242  1.00  0.00    -0.248 NA
ATOM     60  C   UNL A   1      45.423  29.273  33.348  1.00  0.00     0.031 C 
ATOM     61  C   UNL A   1      46.657  34.648  30.805  1.00  0.00     0.029 A 
ATOM     62  C   UNL A   1      45.993  33.514  31.247  1.00  0.00     0.049 A 
ATOM     63  H   UNL A   1      43.957  33.001  31.033  1.00  0.00     0.167 HD
ATOM     64  C   UNL A   1      45.802  31.314  32.377  1.00  0.00     0.074 A 
ATOM     65  C   UNL A   1      46.354  30.179  33.085  1.00  0.00     0.031 C 
ATOM     66  C   UNL A   1      46.530  32.384  31.968  1.00  0.00     0.034 A 
BRANCH  53  67
ATOM     67  C   UNL A   1      43.227  36.629  28.876  1.00  0.00     0.023 A 
ATOM     68  C   UNL A   1      43.304  37.879  29.516  1.00  0.00     0.031 A 
ATOM     69  C   UNL A   1      43.062  36.613  27.480  1.00  0.00     0.131 A 
ATOM     70  C   UNL A   1      43.109  39.055  28.778  1.00  0.00     0.055 A 
ATOM     71  C   UNL A   1      42.968  37.792  26.739  1.00  0.00     0.041 A 
ATOM     72  F   UNL A   1      42.961  35.451  26.816  1.00  0.00    -0.206 F 
ATOM     73  C   UNL A   1      42.970  39.022  27.390  1.00  0.00     0.022 A 
BRANCH  70  74
ATOM     74  S   UNL A   1      42.860  40.607  29.683  1.00  0.00     0.124 S 
ATOM     75  O   UNL A   1      43.561  41.561  28.828  1.00  0.00    -0.237 OA
ATOM     76  O   UNL A   1      41.407  40.724  29.716  1.00  0.00    -0.237 OA
ATOM     77  O   UNL A   1      43.496  40.355  30.975  1.00  0.00    -0.744 OA
ENDBRANCH  70  74
ENDBRANCH  53  67
BRANCH  54  78
ATOM     78  C   UNL A   1      42.898  27.830  33.646  1.00  0.00     0.023 A 
ATOM     79  C   UNL A   1      42.285  27.590  34.888  1.00  0.00     0.031 A 
ATOM     80  C   UNL A   1      43.583  26.763  33.040  1.00  0.00     0.131 A 
ATOM     81  C   UNL A   1      42.401  26.327  35.495  1.00  0.00     0.055 A 
ATOM     82  C   UNL A   1      43.640  25.492  33.616  1.00  0.00     0.041 A 
ATOM     83  F   UNL A   1      44.237  26.950  31.887  1.00  0.00    -0.206 F 
ATOM     84  C   UNL A   1      43.055  25.270  34.857  1.00  0.00     0.022 A 
BRANCH  81  85
ATOM     85  S   UNL A   1      41.769  26.106  37.181  1.00  0.00     0.124 S 
ATOM     86  O   UNL A   1      41.289  24.729  37.141  1.00  0.00    -0.237 OA
ATOM     87  O   UNL A   1      42.960  26.348  37.988  1.00  0.00    -0.237 OA
ATOM     88  O   UNL A   1      40.727  27.125  37.292  1.00  0.00    -0.744 OA
ENDBRANCH  81  85
ENDBRANCH  54  78
BRANCH  66  89
ATOM     89  C   UNL A   1      47.989  32.431  32.352  1.00  0.00     0.023 A 
ATOM     90  C   UNL A   1      48.434  33.025  33.545  1.00  0.00     0.031 A 
ATOM     91  C   UNL A   1      48.945  31.823  31.517  1.00  0.00     0.131 A 
ATOM     92  C   UNL A   1      49.803  33.019  33.857  1.00  0.00     0.055 A 
ATOM     93  C   UNL A   1      50.297  31.773  31.858  1.00  0.00     0.041 A 
ATOM     94  F   UNL A   1      48.574  31.244  30.363  1.00  0.00    -0.206 F 
ATOM     95  C   UNL A   1      50.733  32.380  33.032  1.00  0.00     0.022 A 
BRANCH  92  96
ATOM     96  S   UNL A   1      50.370  33.908  35.334  1.00  0.00     0.124 S 
ATOM     97  O   UNL A   1      49.521  33.340  36.375  1.00  0.00    -0.237 OA
ATOM     98  O   UNL A   1      51.782  33.547  35.395  1.00  0.00    -0.237 OA
ATOM     99  O   UNL A   1      50.104  35.309  35.014  1.00  0.00    -0.744 OA
ENDBRANCH  92  96
ENDBRANCH  66  89
ENDBRANCH  40  41
ENDBRANCH  33  35
ENDBRANCH  32  33
ENDBRANCH  31  32
ENDBRANCH  30  31
ENDBRANCH  29  30
ENDBRANCH  28  29
ENDBRANCH  27  28
ENDBRANCH   1  27
TORSDOF 26
ENDMDL
MODEL 3
REMARK VINA RESULT:      -7.9      4.261     10.001
REMARK SMILES CC1(C)CSC[C@@H]([N@H+]2CCC[C@H](CCC(=O)OCCOCCOCCOCCOC(=O)c3ccc(-c4c5nc(c(-c6cc(S(=O)(=O)[O-])ccc6F)c6ccc([nH]6)c(-c6cc(S(=O)(=O)[O-])ccc6F)c6nc(c(-c7cc(S(=O)(=O)[O-])ccc7F)c7ccc4[nH]7)C=C6)C=C5)cc3)C2)C1
REMARK SMILES IDX 23 1 22 2 21 3 20 4 19 5 18 6 17 7 15 8 16 9 14 10 13 11
REMARK SMILES IDX 12 12 8 13 9 14 95 15 10 17 11 18 7 19 1 20 2 21 3 22 4 23
REMARK SMILES IDX 96 24 5 25 6 26 24 27 25 28 26 29 27 30 28 31 29 32 30 33
REMARK SMILES IDX 31 34 32 35 33 36 94 37 34 38 93 39 35 40 36 41 37 42 87 43
REMARK SMILES IDX 38 44 92 45 86 46 88 47 39 48 91 49 85 50 84 51 40 53 72 54
REMARK SMILES IDX 52 55 71 56 53 57 56 58 70 59 89 60 54 61 55 62 69 64 90 65
REMARK SMILES IDX 57 66 41 67 42 68 50 69 43 70 49 71 51 72 48 73 44 74 45 75
REMARK SMILES IDX 46 76 47 77 73 78 74 79 82 80 75 81 81 82 83 83 80 84 76 85
REMARK SMILES IDX 77 86 78 87 79 88 58 89 59 90 67 91 60 92 66 93 68 94 65 95
REMARK SMILES IDX 61 96 62 97 63 98 64 99
REMARK H PARENT 8 16 88 52 56 63
REMARK Flexibility Score: inf
ROOT
ATOM      1  O   UNL A   1      31.454  26.703  23.708  1.00  0.00    -0.377 OA
ENDROOT
BRANCH   1   2
ATOM      2  C   UNL A   1      32.789  26.711  23.228  1.00  0.00     0.188 C 
BRANCH   2   3
ATOM      3  C   UNL A   1      33.454  25.354  22.987  1.00  0.00     0.188 C 
BRANCH   3   4
ATOM      4  O   UNL A   1      33.073  24.288  23.845  1.00  0.00    -0.376 OA
BRANCH   4   5
ATOM      5  C   UNL A   1      34.079  23.297  24.089  1.00  0.00     0.202 C 
BRANCH   5   6
ATOM      6  C   UNL A   1      35.501  23.636  23.611  1.00  0.00     0.261 C 
BRANCH   6   7
ATOM      7  O   UNL A   1      36.522  22.979  24.405  1.00  0.00    -0.463 OA
BRANCH   7   8
ATOM      8  C   UNL A   1      36.878  23.539  25.586  1.00  0.00     0.305 C 
ATOM      9  O   UNL A   1      36.121  24.175  26.312  1.00  0.00    -0.252 OA
BRANCH   8  10
ATOM     10  C   UNL A   1      38.354  23.362  25.901  1.00  0.00     0.123 C 
BRANCH  10  11
ATOM     11  C   UNL A   1      38.978  24.043  27.126  1.00  0.00     0.021 C 
BRANCH  11  12
ATOM     12  C   UNL A   1      40.492  24.364  27.154  1.00  0.00     0.045 C 
ATOM     13  N   UNL A   1      42.295  26.058  26.599  1.00  0.00    -0.332 N 
ATOM     14  C   UNL A   1      42.784  25.217  25.520  1.00  0.00     0.262 C 
ATOM     15  C   UNL A   1      40.864  25.817  26.824  1.00  0.00     0.265 C 
ATOM     16  H   UNL A   1      42.373  27.023  26.275  1.00  0.00     0.348 HD
ATOM     17  C   UNL A   1      42.606  23.737  25.815  1.00  0.00     0.062 C 
ATOM     18  C   UNL A   1      41.247  23.318  26.339  1.00  0.00     0.015 C 
BRANCH  13  19
ATOM     19  C   UNL A   1      43.171  26.238  27.788  1.00  0.00     0.194 C 
ATOM     20  C   UNL A   1      44.367  23.064  28.209  1.00  0.00     0.012 C 
ATOM     21  C   UNL A   1      44.229  24.201  29.228  1.00  0.00    -0.021 C 
ATOM     22  C   UNL A   1      43.915  23.503  30.573  1.00  0.00     0.012 C 
ATOM     23  C   UNL A   1      45.575  24.928  29.328  1.00  0.00     0.076 C 
ATOM     24  C   UNL A   1      43.099  25.233  28.969  1.00  0.00     0.073 C 
ATOM     25  S   UNL A   1      46.040  25.644  27.736  1.00  0.00    -0.155 SA
ATOM     26  C   UNL A   1      44.605  26.698  27.396  1.00  0.00     0.134 C 
ENDBRANCH  13  19
ENDBRANCH  11  12
ENDBRANCH  10  11
ENDBRANCH   8  10
ENDBRANCH   7   8
ENDBRANCH   6   7
ENDBRANCH   5   6
ENDBRANCH   4   5
ENDBRANCH   3   4
ENDBRANCH   2   3
ENDBRANCH   1   2
BRANCH   1  27
ATOM     27  C   UNL A   1      31.262  26.617  25.118  1.00  0.00     0.188 C 
BRANCH  27  28
ATOM     28  C   UNL A   1      31.915  27.692  25.996  1.00  0.00     0.188 C 
BRANCH  28  29
ATOM     29  O   UNL A   1      31.634  29.075  25.798  1.00  0.00    -0.376 OA
BRANCH  29  30
ATOM     30  C   UNL A   1      32.681  30.025  25.867  1.00  0.00     0.202 C 
BRANCH  30  31
ATOM     31  C   UNL A   1      32.706  30.782  27.196  1.00  0.00     0.261 C 
BRANCH  31  32
ATOM     32  O   UNL A   1      33.736  31.778  27.281  1.00  0.00    -0.460 OA
BRANCH  32  33
ATOM     33  C   UNL A   1      33.397  32.899  27.956  1.00  0.00     0.338 C 
ATOM     34  O   UNL A   1      32.455  33.659  27.735  1.00  0.00    -0.246 OA
BRANCH  33  35
ATOM     35  C   UNL A   1      34.395  33.141  29.002  1.00  0.00     0.060 A 
ATOM     36  C   UNL A   1      34.292  34.238  29.867  1.00  0.00     0.016 A 
ATOM     37  C   UNL A   1      35.489  32.282  29.071  1.00  0.00     0.016 A 
ATOM     38  C   UNL A   1      35.294  34.474  30.819  1.00  0.00     0.010 A 
ATOM     39  C   UNL A   1      36.480  32.522  30.020  1.00  0.00     0.010 A 
ATOM     40  C   UNL A   1      36.403  33.622  30.904  1.00  0.00    -0.014 A 
BRANCH  40  41
ATOM     41  C   UNL A   1      37.586  33.914  31.769  1.00  0.00     0.031 A 
ATOM     42  C   UNL A   1      38.885  34.240  31.074  1.00  0.00     0.074 A 
ATOM     43  C   UNL A   1      37.558  33.825  33.115  1.00  0.00     0.049 A 
ATOM     44  N   UNL A   1      40.103  34.277  31.545  1.00  0.00    -0.248 NA
ATOM     45  C   UNL A   1      38.786  34.515  29.631  1.00  0.00     0.031 C 
ATOM     46  C   UNL A   1      36.377  33.554  33.932  1.00  0.00     0.029 A 
ATOM     47  N   UNL A   1      38.580  33.919  34.037  1.00  0.00    -0.354 N 
ATOM     48  C   UNL A   1      40.917  34.537  30.447  1.00  0.00     0.074 A 
ATOM     49  C   UNL A   1      40.060  34.573  29.283  1.00  0.00     0.031 C 
ATOM     50  C   UNL A   1      36.743  33.470  35.225  1.00  0.00     0.029 A 
ATOM     51  C   UNL A   1      38.192  33.637  35.329  1.00  0.00     0.049 A 
ATOM     52  H   UNL A   1      39.502  34.166  33.794  1.00  0.00     0.167 HD
ATOM     53  C   UNL A   1      42.254  34.757  30.413  1.00  0.00     0.034 A 
ATOM     54  C   UNL A   1      38.924  33.485  36.456  1.00  0.00     0.034 A 
ATOM     55  C   UNL A   1      43.092  34.757  31.583  1.00  0.00     0.049 A 
ATOM     56  C   UNL A   1      40.425  33.653  36.390  1.00  0.00     0.074 A 
ATOM     57  C   UNL A   1      44.445  35.028  31.672  1.00  0.00     0.029 A 
ATOM     58  N   UNL A   1      42.656  34.471  32.870  1.00  0.00    -0.354 N 
ATOM     59  N   UNL A   1      41.185  33.916  35.351  1.00  0.00    -0.248 NA
ATOM     60  C   UNL A   1      41.169  33.515  37.651  1.00  0.00     0.031 C 
ATOM     61  C   UNL A   1      44.842  34.834  32.999  1.00  0.00     0.029 A 
ATOM     62  C   UNL A   1      43.721  34.527  33.754  1.00  0.00     0.049 A 
ATOM     63  H   UNL A   1      41.726  34.259  33.118  1.00  0.00     0.167 HD
ATOM     64  C   UNL A   1      42.484  34.021  35.844  1.00  0.00     0.074 A 
ATOM     65  C   UNL A   1      42.409  33.785  37.270  1.00  0.00     0.031 C 
ATOM     66  C   UNL A   1      43.632  34.306  35.178  1.00  0.00     0.034 A 
BRANCH  53  67
ATOM     67  C   UNL A   1      42.880  34.981  29.058  1.00  0.00     0.023 A 
ATOM     68  C   UNL A   1      43.290  33.908  28.246  1.00  0.00     0.031 A 
ATOM     69  C   UNL A   1      43.128  36.286  28.597  1.00  0.00     0.131 A 
ATOM     70  C   UNL A   1      44.017  34.156  27.074  1.00  0.00     0.055 A 
ATOM     71  C   UNL A   1      43.766  36.525  27.379  1.00  0.00     0.041 A 
ATOM     72  F   UNL A   1      42.779  37.350  29.336  1.00  0.00    -0.206 F 
ATOM     73  C   UNL A   1      44.234  35.458  26.619  1.00  0.00     0.022 A 
BRANCH  70  74
ATOM     74  S   UNL A   1      44.829  32.756  26.253  1.00  0.00     0.124 S 
ATOM     75  O   UNL A   1      44.578  33.056  24.846  1.00  0.00    -0.237 OA
ATOM     76  O   UNL A   1      46.211  32.887  26.698  1.00  0.00    -0.237 OA
ATOM     77  O   UNL A   1      44.112  31.593  26.772  1.00  0.00    -0.744 OA
ENDBRANCH  70  74
ENDBRANCH  53  67
BRANCH  54  78
ATOM     78  C   UNL A   1      38.275  33.103  37.749  1.00  0.00     0.023 A 
ATOM     79  C   UNL A   1      38.262  33.974  38.853  1.00  0.00     0.031 A 
ATOM     80  C   UNL A   1      37.729  31.821  37.924  1.00  0.00     0.131 A 
ATOM     81  C   UNL A   1      37.744  33.535  40.085  1.00  0.00     0.055 A 
ATOM     82  C   UNL A   1      37.158  31.412  39.131  1.00  0.00     0.041 A 
ATOM     83  F   UNL A   1      37.771  30.929  36.926  1.00  0.00    -0.206 F 
ATOM     84  C   UNL A   1      37.173  32.269  40.226  1.00  0.00     0.022 A 
BRANCH  81  85
ATOM     85  S   UNL A   1      37.918  34.609  41.538  1.00  0.00     0.124 S 
ATOM     86  O   UNL A   1      38.819  33.829  42.378  1.00  0.00    -0.237 OA
ATOM     87  O   UNL A   1      38.474  35.825  40.954  1.00  0.00    -0.237 OA
ATOM     88  O   UNL A   1      36.550  34.732  42.038  1.00  0.00    -0.744 OA
ENDBRANCH  81  85
ENDBRANCH  54  78
BRANCH  66  89
ATOM     89  C   UNL A   1      44.894  34.472  35.990  1.00  0.00     0.023 A 
ATOM     90  C   UNL A   1      45.722  33.388  36.324  1.00  0.00     0.031 A 
ATOM     91  C   UNL A   1      45.291  35.760  36.396  1.00  0.00     0.131 A 
ATOM     92  C   UNL A   1      46.894  33.609  37.065  1.00  0.00     0.055 A 
ATOM     93  C   UNL A   1      46.484  35.981  37.085  1.00  0.00     0.041 A 
ATOM     94  F   UNL A   1      44.534  36.831  36.105  1.00  0.00    -0.206 F 
ATOM     95  C   UNL A   1      47.289  34.900  37.429  1.00  0.00     0.022 A 
BRANCH  92  96
ATOM     96  S   UNL A   1      47.877  32.181  37.600  1.00  0.00     0.124 S 
ATOM     97  O   UNL A   1      48.755  32.774  38.603  1.00  0.00    -0.237 OA
ATOM     98  O   UNL A   1      46.856  31.269  38.104  1.00  0.00    -0.237 OA
ATOM     99  O   UNL A   1      48.543  31.745  36.374  1.00  0.00    -0.744 OA
ENDBRANCH  92  96
ENDBRANCH  66  89
ENDBRANCH  40  41
ENDBRANCH  33  35
ENDBRANCH  32  33
ENDBRANCH  31  32
ENDBRANCH  30  31
ENDBRANCH  29  30
ENDBRANCH  28  29
ENDBRANCH  27  28
ENDBRANCH   1  27
TORSDOF 26
ENDMDL
