MODEL 1
REMARK VINA RESULT:      -9.8      0.000      0.000
REMARK SMILES Cc1cc(Cl)ccc1-c1ccc(C(=O)OCCOCCOCCOCCOC(=O)c2ccc(-c3c4nc(c(-c5cc(S(=O)(=O)[O-])ccc5F)c5ccc([nH]5)c(-c5cc(S(=O)(=O)[O-])ccc5F)c5nc(c(-c6cc(S(=O)(=O)[O-])ccc6F)c6ccc3[nH]6)C=C5)C=C4)cc2)c(Cl)c1
REMARK SMILES IDX 22 1 21 2 20 3 19 4 18 5 17 6 16 7 15 8 13 9 14 10 12 11
REMARK SMILES IDX 9 12 10 13 95 14 11 15 93 16 94 17 8 18 1 19 2 20 3 21 4 22
REMARK SMILES IDX 7 23 5 24 6 25 23 26 24 27 25 28 26 29 27 30 28 31 29 32
REMARK SMILES IDX 30 33 31 34 92 35 32 36 91 37 33 38 34 39 35 40 85 41 36 42
REMARK SMILES IDX 90 43 84 44 86 45 37 46 89 47 83 48 82 49 38 51 70 52 50 53
REMARK SMILES IDX 69 54 51 55 54 56 68 57 87 58 52 59 53 60 67 62 88 63 55 64
REMARK SMILES IDX 39 65 40 66 48 67 41 68 47 69 49 70 46 71 42 72 43 73 44 74
REMARK SMILES IDX 45 75 71 76 72 77 80 78 73 79 79 80 81 81 78 82 74 83 75 84
REMARK SMILES IDX 76 85 77 86 56 87 57 88 65 89 58 90 64 91 66 92 63 93 59 94
REMARK SMILES IDX 60 95 61 96 62 97
REMARK H PARENT 86 50 54 61
REMARK Flexibility Score: inf
ROOT
ATOM      1  C   UNL A   1      35.095  32.135  28.545  1.00  0.00     0.188 C 
ENDROOT
BRANCH   1   2
ATOM      2  O   UNL A   1      35.459  30.757  28.613  1.00  0.00    -0.377 OA
BRANCH   2   3
ATOM      3  C   UNL A   1      35.398  29.951  27.452  1.00  0.00     0.188 C 
BRANCH   3   4
ATOM      4  C   UNL A   1      34.089  29.178  27.191  1.00  0.00     0.188 C 
BRANCH   4   5
ATOM      5  O   UNL A   1      33.125  29.872  26.427  1.00  0.00    -0.376 OA
BRANCH   5   6
ATOM      6  C   UNL A   1      32.905  29.582  25.058  1.00  0.00     0.202 C 
BRANCH   6   7
ATOM      7  C   UNL A   1      32.066  28.403  24.540  1.00  0.00     0.261 C 
BRANCH   7   8
ATOM      8  O   UNL A   1      32.613  27.651  23.460  1.00  0.00    -0.460 OA
BRANCH   8   9
ATOM      9  C   UNL A   1      31.789  26.810  22.805  1.00  0.00     0.339 C 
ATOM     10  O   UNL A   1      31.038  27.087  21.886  1.00  0.00    -0.246 OA
BRANCH   9  11
ATOM     11  C   UNL A   1      32.116  25.424  23.204  1.00  0.00     0.078 A 
ATOM     12  C   UNL A   1      32.808  22.747  23.744  1.00  0.00    -0.017 A 
ATOM     13  C   UNL A   1      33.490  23.469  22.756  1.00  0.00     0.010 A 
ATOM     14  C   UNL A   1      31.833  23.414  24.509  1.00  0.00     0.030 A 
ATOM     15  C   UNL A   1      33.143  24.793  22.484  1.00  0.00     0.018 A 
ATOM     16  C   UNL A   1      31.477  24.741  24.240  1.00  0.00     0.056 A 
ATOM     17  Cl  UNL A   1      30.182  25.413  25.164  1.00  0.00    -0.083 Cl
BRANCH  12  18
ATOM     18  C   UNL A   1      32.955  21.284  23.842  1.00  0.00    -0.015 A 
ATOM     19  C   UNL A   1      34.693  21.310  25.738  1.00  0.00     0.045 C 
ATOM     20  C   UNL A   1      33.824  20.613  24.727  1.00  0.00    -0.042 A 
ATOM     21  C   UNL A   1      33.906  19.204  24.671  1.00  0.00     0.024 A 
ATOM     22  C   UNL A   1      33.140  18.474  23.762  1.00  0.00     0.041 A 
ATOM     23  C   UNL A   1      32.191  20.514  22.936  1.00  0.00     0.010 A 
ATOM     24  Cl  UNL A   1      33.267  16.760  23.710  1.00  0.00    -0.084 Cl
ATOM     25  C   UNL A   1      32.279  19.124  22.893  1.00  0.00     0.021 A 
ENDBRANCH  12  18
ENDBRANCH   9  11
ENDBRANCH   8   9
ENDBRANCH   7   8
ENDBRANCH   6   7
ENDBRANCH   5   6
ENDBRANCH   4   5
ENDBRANCH   3   4
ENDBRANCH   2   3
ENDBRANCH   1   2
BRANCH   1  26
ATOM     26  C   UNL A   1      35.987  33.269  29.108  1.00  0.00     0.188 C 
BRANCH  26  27
ATOM     27  O   UNL A   1      35.467  34.580  28.944  1.00  0.00    -0.376 OA
BRANCH  27  28
ATOM     28  C   UNL A   1      34.189  34.715  28.351  1.00  0.00     0.202 C 
BRANCH  28  29
ATOM     29  C   UNL A   1      33.113  35.408  29.199  1.00  0.00     0.261 C 
BRANCH  29  30
ATOM     30  O   UNL A   1      32.775  34.758  30.433  1.00  0.00    -0.460 OA
BRANCH  30  31
ATOM     31  C   UNL A   1      32.976  35.472  31.563  1.00  0.00     0.338 C 
ATOM     32  O   UNL A   1      32.245  36.343  32.011  1.00  0.00    -0.246 OA
BRANCH  31  33
ATOM     33  C   UNL A   1      34.125  34.887  32.280  1.00  0.00     0.060 A 
ATOM     34  C   UNL A   1      35.358  35.548  32.226  1.00  0.00     0.016 A 
ATOM     35  C   UNL A   1      33.990  33.691  32.990  1.00  0.00     0.016 A 
ATOM     36  C   UNL A   1      36.479  34.977  32.828  1.00  0.00     0.010 A 
ATOM     37  C   UNL A   1      35.119  33.113  33.580  1.00  0.00     0.010 A 
ATOM     38  C   UNL A   1      36.377  33.729  33.456  1.00  0.00    -0.014 A 
BRANCH  38  39
ATOM     39  C   UNL A   1      37.624  32.974  33.744  1.00  0.00     0.031 A 
ATOM     40  C   UNL A   1      38.371  33.302  35.010  1.00  0.00     0.074 A 
ATOM     41  C   UNL A   1      38.036  31.967  32.956  1.00  0.00     0.049 A 
ATOM     42  N   UNL A   1      39.450  32.756  35.511  1.00  0.00    -0.248 NA
ATOM     43  C   UNL A   1      37.823  34.403  35.818  1.00  0.00     0.031 C 
ATOM     44  C   UNL A   1      37.366  31.519  31.738  1.00  0.00     0.029 A 
ATOM     45  N   UNL A   1      39.115  31.127  33.078  1.00  0.00    -0.354 N 
ATOM     46  C   UNL A   1      39.705  33.442  36.695  1.00  0.00     0.074 A 
ATOM     47  C   UNL A   1      38.707  34.485  36.798  1.00  0.00     0.031 C 
ATOM     48  C   UNL A   1      38.039  30.468  31.234  1.00  0.00     0.029 A 
ATOM     49  C   UNL A   1      39.204  30.194  32.072  1.00  0.00     0.049 A 
ATOM     50  H   UNL A   1      39.764  31.188  33.815  1.00  0.00     0.167 HD
ATOM     51  C   UNL A   1      40.667  33.212  37.623  1.00  0.00     0.034 A 
ATOM     52  C   UNL A   1      40.126  29.234  31.856  1.00  0.00     0.034 A 
ATOM     53  C   UNL A   1      41.673  32.186  37.492  1.00  0.00     0.049 A 
ATOM     54  C   UNL A   1      41.260  29.069  32.842  1.00  0.00     0.074 A 
ATOM     55  C   UNL A   1      42.705  31.871  38.359  1.00  0.00     0.029 A 
ATOM     56  N   UNL A   1      41.784  31.314  36.414  1.00  0.00    -0.354 N 
ATOM     57  N   UNL A   1      41.495  29.722  33.958  1.00  0.00    -0.248 NA
ATOM     58  C   UNL A   1      42.247  28.025  32.539  1.00  0.00     0.031 C 
ATOM     59  C   UNL A   1      43.485  30.871  37.768  1.00  0.00     0.029 A 
ATOM     60  C   UNL A   1      42.886  30.486  36.579  1.00  0.00     0.049 A 
ATOM     61  H   UNL A   1      41.169  31.287  35.646  1.00  0.00     0.167 HD
ATOM     62  C   UNL A   1      42.628  29.130  34.515  1.00  0.00     0.074 A 
ATOM     63  C   UNL A   1      43.019  28.065  33.615  1.00  0.00     0.031 C 
ATOM     64  C   UNL A   1      43.277  29.432  35.670  1.00  0.00     0.034 A 
BRANCH  51  65
ATOM     65  C   UNL A   1      40.699  34.137  38.820  1.00  0.00     0.023 A 
ATOM     66  C   UNL A   1      40.025  33.824  40.015  1.00  0.00     0.031 A 
ATOM     67  C   UNL A   1      41.343  35.384  38.741  1.00  0.00     0.131 A 
ATOM     68  C   UNL A   1      39.919  34.784  41.033  1.00  0.00     0.055 A 
ATOM     69  C   UNL A   1      41.321  36.295  39.800  1.00  0.00     0.041 A 
ATOM     70  F   UNL A   1      41.981  35.755  37.620  1.00  0.00    -0.206 F 
ATOM     71  C   UNL A   1      40.587  36.006  40.946  1.00  0.00     0.022 A 
BRANCH  68  72
ATOM     72  S   UNL A   1      38.730  34.494  42.374  1.00  0.00     0.124 S 
ATOM     73  O   UNL A   1      39.612  34.405  43.535  1.00  0.00    -0.237 OA
ATOM     74  O   UNL A   1      37.880  35.677  42.304  1.00  0.00    -0.237 OA
ATOM     75  O   UNL A   1      38.086  33.238  41.995  1.00  0.00    -0.744 OA
ENDBRANCH  68  72
ENDBRANCH  51  65
BRANCH  52  76
ATOM     76  C   UNL A   1      40.030  28.344  30.662  1.00  0.00     0.023 A 
ATOM     77  C   UNL A   1      40.769  28.612  29.499  1.00  0.00     0.031 A 
ATOM     78  C   UNL A   1      39.150  27.247  30.645  1.00  0.00     0.131 A 
ATOM     79  C   UNL A   1      40.583  27.823  28.353  1.00  0.00     0.055 A 
ATOM     80  C   UNL A   1      39.011  26.430  29.521  1.00  0.00     0.041 A 
ATOM     81  F   UNL A   1      38.414  26.949  31.727  1.00  0.00    -0.206 F 
ATOM     82  C   UNL A   1      39.720  26.725  28.361  1.00  0.00     0.022 A 
BRANCH  79  83
ATOM     83  S   UNL A   1      41.421  28.308  26.818  1.00  0.00     0.124 S 
ATOM     84  O   UNL A   1      41.713  27.012  26.219  1.00  0.00    -0.237 OA
ATOM     85  O   UNL A   1      40.396  29.107  26.153  1.00  0.00    -0.237 OA
ATOM     86  O   UNL A   1      42.584  29.057  27.288  1.00  0.00    -0.744 OA
ENDBRANCH  79  83
ENDBRANCH  52  76
BRANCH  64  87
ATOM     87  C   UNL A   1      44.444  28.547  36.056  1.00  0.00     0.023 A 
ATOM     88  C   UNL A   1      44.338  27.554  37.044  1.00  0.00     0.031 A 
ATOM     89  C   UNL A   1      45.700  28.733  35.446  1.00  0.00     0.131 A 
ATOM     90  C   UNL A   1      45.479  26.848  37.455  1.00  0.00     0.055 A 
ATOM     91  C   UNL A   1      46.813  27.970  35.801  1.00  0.00     0.041 A 
ATOM     92  F   UNL A   1      45.869  29.668  34.496  1.00  0.00    -0.206 F 
ATOM     93  C   UNL A   1      46.712  27.035  36.826  1.00  0.00     0.022 A 
BRANCH  90  94
ATOM     94  S   UNL A   1      45.365  25.787  38.923  1.00  0.00     0.124 S 
ATOM     95  O   UNL A   1      45.175  24.468  38.328  1.00  0.00    -0.237 OA
ATOM     96  O   UNL A   1      46.651  26.015  39.573  1.00  0.00    -0.237 OA
ATOM     97  O   UNL A   1      44.205  26.316  39.639  1.00  0.00    -0.744 OA
ENDBRANCH  90  94
ENDBRANCH  64  87
ENDBRANCH  38  39
ENDBRANCH  31  33
ENDBRANCH  30  31
ENDBRANCH  29  30
ENDBRANCH  28  29
ENDBRANCH  27  28
ENDBRANCH  26  27
ENDBRANCH   1  26
TORSDOF 24
ENDMDL
MODEL 2
REMARK VINA RESULT:      -9.6      5.972     10.010
REMARK SMILES Cc1cc(Cl)ccc1-c1ccc(C(=O)OCCOCCOCCOCCOC(=O)c2ccc(-c3c4nc(c(-c5cc(S(=O)(=O)[O-])ccc5F)c5ccc([nH]5)c(-c5cc(S(=O)(=O)[O-])ccc5F)c5nc(c(-c6cc(S(=O)(=O)[O-])ccc6F)c6ccc3[nH]6)C=C5)C=C4)cc2)c(Cl)c1
REMARK SMILES IDX 22 1 21 2 20 3 19 4 18 5 17 6 16 7 15 8 13 9 14 10 12 11
REMARK SMILES IDX 9 12 10 13 95 14 11 15 93 16 94 17 8 18 1 19 2 20 3 21 4 22
REMARK SMILES IDX 7 23 5 24 6 25 23 26 24 27 25 28 26 29 27 30 28 31 29 32
REMARK SMILES IDX 30 33 31 34 92 35 32 36 91 37 33 38 34 39 35 40 85 41 36 42
REMARK SMILES IDX 90 43 84 44 86 45 37 46 89 47 83 48 82 49 38 51 70 52 50 53
REMARK SMILES IDX 69 54 51 55 54 56 68 57 87 58 52 59 53 60 67 62 88 63 55 64
REMARK SMILES IDX 39 65 40 66 48 67 41 68 47 69 49 70 46 71 42 72 43 73 44 74
REMARK SMILES IDX 45 75 71 76 72 77 80 78 73 79 79 80 81 81 78 82 74 83 75 84
REMARK SMILES IDX 76 85 77 86 56 87 57 88 65 89 58 90 64 91 66 92 63 93 59 94
REMARK SMILES IDX 60 95 61 96 62 97
REMARK H PARENT 86 50 54 61
REMARK Flexibility Score: inf
ROOT
ATOM      1  C   UNL A   1      33.330  31.988  27.742  1.00  0.00     0.188 C 
ENDROOT
BRANCH   1   2
ATOM      2  O   UNL A   1      33.114  30.903  26.842  1.00  0.00    -0.377 OA
BRANCH   2   3
ATOM      3  C   UNL A   1      32.865  29.604  27.345  1.00  0.00     0.188 C 
BRANCH   3   4
ATOM      4  C   UNL A   1      31.785  28.762  26.636  1.00  0.00     0.188 C 
BRANCH   4   5
ATOM      5  O   UNL A   1      31.635  29.020  25.256  1.00  0.00    -0.376 OA
BRANCH   5   6
ATOM      6  C   UNL A   1      32.170  28.154  24.271  1.00  0.00     0.202 C 
BRANCH   6   7
ATOM      7  C   UNL A   1      31.398  27.000  23.610  1.00  0.00     0.261 C 
BRANCH   7   8
ATOM      8  O   UNL A   1      31.917  25.686  23.803  1.00  0.00    -0.460 OA
BRANCH   8   9
ATOM      9  C   UNL A   1      31.062  24.654  23.672  1.00  0.00     0.339 C 
ATOM     10  O   UNL A   1      29.934  24.688  23.210  1.00  0.00    -0.246 OA
BRANCH   9  11
ATOM     11  C   UNL A   1      31.793  23.398  23.946  1.00  0.00     0.078 A 
ATOM     12  C   UNL A   1      33.215  20.983  24.238  1.00  0.00    -0.017 A 
ATOM     13  C   UNL A   1      33.466  21.825  23.147  1.00  0.00     0.010 A 
ATOM     14  C   UNL A   1      32.301  21.412  25.219  1.00  0.00     0.030 A 
ATOM     15  C   UNL A   1      32.758  23.018  22.999  1.00  0.00     0.018 A 
ATOM     16  C   UNL A   1      31.584  22.606  25.076  1.00  0.00     0.056 A 
ATOM     17  Cl  UNL A   1      30.402  22.966  26.282  1.00  0.00    -0.083 Cl
BRANCH  12  18
ATOM     18  C   UNL A   1      33.729  19.603  24.257  1.00  0.00    -0.015 A 
ATOM     19  C   UNL A   1      31.823  18.580  22.864  1.00  0.00     0.045 C 
ATOM     20  C   UNL A   1      33.099  18.492  23.658  1.00  0.00    -0.042 A 
ATOM     21  C   UNL A   1      33.677  17.213  23.807  1.00  0.00     0.024 A 
ATOM     22  C   UNL A   1      34.856  17.036  24.530  1.00  0.00     0.041 A 
ATOM     23  C   UNL A   1      34.925  19.388  24.980  1.00  0.00     0.010 A 
ATOM     24  Cl  UNL A   1      35.533  15.464  24.703  1.00  0.00    -0.084 Cl
ATOM     25  C   UNL A   1      35.486  18.121  25.117  1.00  0.00     0.021 A 
ENDBRANCH  12  18
ENDBRANCH   9  11
ENDBRANCH   8   9
ENDBRANCH   7   8
ENDBRANCH   6   7
ENDBRANCH   5   6
ENDBRANCH   4   5
ENDBRANCH   3   4
ENDBRANCH   2   3
ENDBRANCH   1   2
BRANCH   1  26
ATOM     26  C   UNL A   1      34.670  32.760  27.823  1.00  0.00     0.188 C 
BRANCH  26  27
ATOM     27  O   UNL A   1      34.597  34.027  28.460  1.00  0.00    -0.376 OA
BRANCH  27  28
ATOM     28  C   UNL A   1      33.790  34.139  29.618  1.00  0.00     0.202 C 
BRANCH  28  29
ATOM     29  C   UNL A   1      34.477  33.841  30.959  1.00  0.00     0.261 C 
BRANCH  29  30
ATOM     30  O   UNL A   1      34.606  32.453  31.300  1.00  0.00    -0.460 OA
BRANCH  30  31
ATOM     31  C   UNL A   1      35.554  32.145  32.212  1.00  0.00     0.338 C 
ATOM     32  O   UNL A   1      35.489  32.330  33.418  1.00  0.00    -0.246 OA
BRANCH  31  33
ATOM     33  C   UNL A   1      36.605  31.359  31.537  1.00  0.00     0.060 A 
ATOM     34  C   UNL A   1      37.601  30.759  32.317  1.00  0.00     0.016 A 
ATOM     35  C   UNL A   1      36.614  31.224  30.146  1.00  0.00     0.016 A 
ATOM     36  C   UNL A   1      38.649  30.077  31.701  1.00  0.00     0.010 A 
ATOM     37  C   UNL A   1      37.675  30.552  29.530  1.00  0.00     0.010 A 
ATOM     38  C   UNL A   1      38.723  30.022  30.303  1.00  0.00    -0.014 A 
BRANCH  38  39
ATOM     39  C   UNL A   1      40.013  29.639  29.673  1.00  0.00     0.031 A 
ATOM     40  C   UNL A   1      40.095  28.301  28.988  1.00  0.00     0.074 A 
ATOM     41  C   UNL A   1      41.056  30.486  29.632  1.00  0.00     0.049 A 
ATOM     42  N   UNL A   1      41.084  27.759  28.325  1.00  0.00    -0.248 NA
ATOM     43  C   UNL A   1      38.890  27.459  29.067  1.00  0.00     0.031 C 
ATOM     44  C   UNL A   1      41.077  31.828  30.207  1.00  0.00     0.029 A 
ATOM     45  N   UNL A   1      42.295  30.342  29.060  1.00  0.00    -0.354 N 
ATOM     46  C   UNL A   1      40.619  26.516  27.903  1.00  0.00     0.074 A 
ATOM     47  C   UNL A   1      39.286  26.362  28.444  1.00  0.00     0.031 C 
ATOM     48  C   UNL A   1      42.268  32.396  29.941  1.00  0.00     0.029 A 
ATOM     49  C   UNL A   1      43.102  31.445  29.209  1.00  0.00     0.049 A 
ATOM     50  H   UNL A   1      42.579  29.527  28.589  1.00  0.00     0.167 HD
ATOM     51  C   UNL A   1      41.236  25.597  27.119  1.00  0.00     0.034 A 
ATOM     52  C   UNL A   1      44.370  31.656  28.801  1.00  0.00     0.034 A 
ATOM     53  C   UNL A   1      42.576  25.753  26.610  1.00  0.00     0.049 A 
ATOM     54  C   UNL A   1      45.083  30.571  28.028  1.00  0.00     0.074 A 
ATOM     55  C   UNL A   1      43.308  24.883  25.820  1.00  0.00     0.029 A 
ATOM     56  N   UNL A   1      43.397  26.849  26.854  1.00  0.00    -0.354 N 
ATOM     57  N   UNL A   1      44.638  29.398  27.634  1.00  0.00    -0.248 NA
ATOM     58  C   UNL A   1      46.471  30.848  27.635  1.00  0.00     0.031 C 
ATOM     59  C   UNL A   1      44.594  25.412  25.660  1.00  0.00     0.029 A 
ATOM     60  C   UNL A   1      44.637  26.660  26.260  1.00  0.00     0.049 A 
ATOM     61  H   UNL A   1      43.136  27.644  27.372  1.00  0.00     0.167 HD
ATOM     62  C   UNL A   1      45.675  28.823  26.902  1.00  0.00     0.074 A 
ATOM     63  C   UNL A   1      46.761  29.781  26.905  1.00  0.00     0.031 C 
ATOM     64  C   UNL A   1      45.721  27.617  26.276  1.00  0.00     0.034 A 
BRANCH  51  65
ATOM     65  C   UNL A   1      40.473  24.322  26.829  1.00  0.00     0.023 A 
ATOM     66  C   UNL A   1      39.279  24.328  26.084  1.00  0.00     0.031 A 
ATOM     67  C   UNL A   1      40.899  23.098  27.370  1.00  0.00     0.131 A 
ATOM     68  C   UNL A   1      38.502  23.162  25.996  1.00  0.00     0.055 A 
ATOM     69  C   UNL A   1      40.174  21.918  27.190  1.00  0.00     0.041 A 
ATOM     70  F   UNL A   1      42.016  23.028  28.113  1.00  0.00    -0.206 F 
ATOM     71  C   UNL A   1      38.956  21.950  26.518  1.00  0.00     0.022 A 
BRANCH  68  72
ATOM     72  S   UNL A   1      36.804  23.301  25.371  1.00  0.00     0.124 S 
ATOM     73  O   UNL A   1      37.010  23.177  23.929  1.00  0.00    -0.237 OA
ATOM     74  O   UNL A   1      36.135  22.181  26.021  1.00  0.00    -0.237 OA
ATOM     75  O   UNL A   1      36.381  24.627  25.818  1.00  0.00    -0.744 OA
ENDBRANCH  68  72
ENDBRANCH  51  65
BRANCH  52  76
ATOM     76  C   UNL A   1      45.062  32.943  29.108  1.00  0.00     0.023 A 
ATOM     77  C   UNL A   1      45.053  34.006  28.190  1.00  0.00     0.031 A 
ATOM     78  C   UNL A   1      45.794  33.106  30.297  1.00  0.00     0.131 A 
ATOM     79  C   UNL A   1      45.799  35.165  28.455  1.00  0.00     0.055 A 
ATOM     80  C   UNL A   1      46.488  34.284  30.582  1.00  0.00     0.041 A 
ATOM     81  F   UNL A   1      45.843  32.119  31.206  1.00  0.00    -0.206 F 
ATOM     82  C   UNL A   1      46.503  35.318  29.651  1.00  0.00     0.022 A 
BRANCH  79  83
ATOM     83  S   UNL A   1      45.907  36.441  27.169  1.00  0.00     0.124 S 
ATOM     84  O   UNL A   1      46.289  35.653  26.003  1.00  0.00    -0.237 OA
ATOM     85  O   UNL A   1      44.551  36.981  27.164  1.00  0.00    -0.237 OA
ATOM     86  O   UNL A   1      46.935  37.348  27.676  1.00  0.00    -0.744 OA
ENDBRANCH  79  83
ENDBRANCH  52  76
BRANCH  64  87
ATOM     87  C   UNL A   1      46.972  27.300  25.483  1.00  0.00     0.023 A 
ATOM     88  C   UNL A   1      47.174  27.781  24.178  1.00  0.00     0.031 A 
ATOM     89  C   UNL A   1      47.962  26.465  26.035  1.00  0.00     0.131 A 
ATOM     90  C   UNL A   1      48.288  27.355  23.438  1.00  0.00     0.055 A 
ATOM     91  C   UNL A   1      49.110  26.112  25.324  1.00  0.00     0.041 A 
ATOM     92  F   UNL A   1      47.828  25.970  27.276  1.00  0.00    -0.206 F 
ATOM     93  C   UNL A   1      49.268  26.540  24.009  1.00  0.00     0.022 A 
BRANCH  90  94
ATOM     94  S   UNL A   1      48.367  27.760  21.671  1.00  0.00     0.124 S 
ATOM     95  O   UNL A   1      48.438  26.437  21.060  1.00  0.00    -0.237 OA
ATOM     96  O   UNL A   1      47.122  28.492  21.464  1.00  0.00    -0.237 OA
ATOM     97  O   UNL A   1      49.584  28.562  21.556  1.00  0.00    -0.744 OA
ENDBRANCH  90  94
ENDBRANCH  64  87
ENDBRANCH  38  39
ENDBRANCH  31  33
ENDBRANCH  30  31
ENDBRANCH  29  30
ENDBRANCH  28  29
ENDBRANCH  27  28
ENDBRANCH  26  27
ENDBRANCH   1  26
TORSDOF 24
ENDMDL
MODEL 3
REMARK VINA RESULT:      -8.9      6.388     12.384
REMARK SMILES Cc1cc(Cl)ccc1-c1ccc(C(=O)OCCOCCOCCOCCOC(=O)c2ccc(-c3c4nc(c(-c5cc(S(=O)(=O)[O-])ccc5F)c5ccc([nH]5)c(-c5cc(S(=O)(=O)[O-])ccc5F)c5nc(c(-c6cc(S(=O)(=O)[O-])ccc6F)c6ccc3[nH]6)C=C5)C=C4)cc2)c(Cl)c1
REMARK SMILES IDX 22 1 21 2 20 3 19 4 18 5 17 6 16 7 15 8 13 9 14 10 12 11
REMARK SMILES IDX 9 12 10 13 95 14 11 15 93 16 94 17 8 18 1 19 2 20 3 21 4 22
REMARK SMILES IDX 7 23 5 24 6 25 23 26 24 27 25 28 26 29 27 30 28 31 29 32
REMARK SMILES IDX 30 33 31 34 92 35 32 36 91 37 33 38 34 39 35 40 85 41 36 42
REMARK SMILES IDX 90 43 84 44 86 45 37 46 89 47 83 48 82 49 38 51 70 52 50 53
REMARK SMILES IDX 69 54 51 55 54 56 68 57 87 58 52 59 53 60 67 62 88 63 55 64
REMARK SMILES IDX 39 65 40 66 48 67 41 68 47 69 49 70 46 71 42 72 43 73 44 74
REMARK SMILES IDX 45 75 71 76 72 77 80 78 73 79 79 80 81 81 78 82 74 83 75 84
REMARK SMILES IDX 76 85 77 86 56 87 57 88 65 89 58 90 64 91 66 92 63 93 59 94
REMARK SMILES IDX 60 95 61 96 62 97
REMARK H PARENT 86 50 54 61
REMARK Flexibility Score: inf
ROOT
ATOM      1  C   UNL A   1      48.757  27.634  22.867  1.00  0.00     0.188 C 
ENDROOT
BRANCH   1   2
ATOM      2  O   UNL A   1      47.520  27.074  23.305  1.00  0.00    -0.377 OA
BRANCH   2   3
ATOM      3  C   UNL A   1      46.791  27.695  24.346  1.00  0.00     0.188 C 
BRANCH   3   4
ATOM      4  C   UNL A   1      46.018  26.778  25.317  1.00  0.00     0.188 C 
BRANCH   4   5
ATOM      5  O   UNL A   1      45.853  25.446  24.880  1.00  0.00    -0.376 OA
BRANCH   5   6
ATOM      6  C   UNL A   1      44.598  24.792  24.927  1.00  0.00     0.202 C 
BRANCH   6   7
ATOM      7  C   UNL A   1      43.314  25.410  25.505  1.00  0.00     0.261 C 
BRANCH   7   8
ATOM      8  O   UNL A   1      42.456  24.539  26.239  1.00  0.00    -0.460 OA
BRANCH   8   9
ATOM      9  C   UNL A   1      42.597  24.508  27.578  1.00  0.00     0.339 C 
ATOM     10  O   UNL A   1      43.475  23.947  28.211  1.00  0.00    -0.246 OA
BRANCH   9  11
ATOM     11  C   UNL A   1      41.656  25.480  28.174  1.00  0.00     0.078 A 
ATOM     12  C   UNL A   1      39.695  27.237  29.177  1.00  0.00    -0.017 A 
ATOM     13  C   UNL A   1      39.339  25.956  28.738  1.00  0.00     0.010 A 
ATOM     14  C   UNL A   1      41.058  27.590  29.181  1.00  0.00     0.030 A 
ATOM     15  C   UNL A   1      40.309  25.087  28.235  1.00  0.00     0.018 A 
ATOM     16  C   UNL A   1      42.036  26.726  28.675  1.00  0.00     0.056 A 
ATOM     17  Cl  UNL A   1      43.658  27.316  28.619  1.00  0.00    -0.083 Cl
BRANCH  12  18
ATOM     18  C   UNL A   1      38.664  28.259  29.430  1.00  0.00    -0.015 A 
ATOM     19  C   UNL A   1      38.420  27.785  31.946  1.00  0.00     0.045 C 
ATOM     20  C   UNL A   1      38.056  28.508  30.678  1.00  0.00    -0.042 A 
ATOM     21  C   UNL A   1      37.036  29.481  30.762  1.00  0.00     0.024 A 
ATOM     22  C   UNL A   1      36.630  30.197  29.636  1.00  0.00     0.041 A 
ATOM     23  C   UNL A   1      38.231  29.005  28.310  1.00  0.00     0.010 A 
ATOM     24  Cl  UNL A   1      35.379  31.370  29.766  1.00  0.00    -0.084 Cl
ATOM     25  C   UNL A   1      37.226  29.964  28.408  1.00  0.00     0.021 A 
ENDBRANCH  12  18
ENDBRANCH   9  11
ENDBRANCH   8   9
ENDBRANCH   7   8
ENDBRANCH   6   7
ENDBRANCH   5   6
ENDBRANCH   4   5
ENDBRANCH   3   4
ENDBRANCH   2   3
ENDBRANCH   1   2
BRANCH   1  26
ATOM     26  C   UNL A   1      50.089  27.428  23.628  1.00  0.00     0.188 C 
BRANCH  26  27
ATOM     27  O   UNL A   1      51.171  26.966  22.832  1.00  0.00    -0.376 OA
BRANCH  27  28
ATOM     28  C   UNL A   1      52.478  27.078  23.364  1.00  0.00     0.202 C 
BRANCH  28  29
ATOM     29  C   UNL A   1      52.590  27.652  24.783  1.00  0.00     0.261 C 
BRANCH  29  30
ATOM     30  O   UNL A   1      53.131  26.767  25.775  1.00  0.00    -0.460 OA
BRANCH  30  31
ATOM     31  C   UNL A   1      52.427  25.642  26.024  1.00  0.00     0.338 C 
ATOM     32  O   UNL A   1      52.764  24.499  25.751  1.00  0.00    -0.246 OA
BRANCH  31  33
ATOM     33  C   UNL A   1      51.269  25.998  26.865  1.00  0.00     0.060 A 
ATOM     34  C   UNL A   1      50.004  25.517  26.507  1.00  0.00     0.016 A 
ATOM     35  C   UNL A   1      51.427  26.810  27.992  1.00  0.00     0.016 A 
ATOM     36  C   UNL A   1      48.881  25.902  27.238  1.00  0.00     0.010 A 
ATOM     37  C   UNL A   1      50.297  27.207  28.714  1.00  0.00     0.010 A 
ATOM     38  C   UNL A   1      49.015  26.797  28.307  1.00  0.00    -0.014 A 
BRANCH  38  39
ATOM     39  C   UNL A   1      47.801  27.483  28.817  1.00  0.00     0.031 A 
ATOM     40  C   UNL A   1      47.050  26.840  29.954  1.00  0.00     0.074 A 
ATOM     41  C   UNL A   1      47.421  28.684  28.349  1.00  0.00     0.049 A 
ATOM     42  N   UNL A   1      45.997  27.262  30.607  1.00  0.00    -0.248 NA
ATOM     43  C   UNL A   1      47.562  25.540  30.413  1.00  0.00     0.031 C 
ATOM     44  C   UNL A   1      48.099  29.432  27.293  1.00  0.00     0.029 A 
ATOM     45  N   UNL A   1      46.376  29.493  28.720  1.00  0.00    -0.354 N 
ATOM     46  C   UNL A   1      45.725  26.281  31.556  1.00  0.00     0.074 A 
ATOM     47  C   UNL A   1      46.683  25.218  31.346  1.00  0.00     0.031 C 
ATOM     48  C   UNL A   1      47.462  30.604  27.114  1.00  0.00     0.029 A 
ATOM     49  C   UNL A   1      46.315  30.672  28.016  1.00  0.00     0.049 A 
ATOM     50  H   UNL A   1      45.731  29.251  29.422  1.00  0.00     0.167 HD
ATOM     51  C   UNL A   1      44.779  26.276  32.529  1.00  0.00     0.034 A 
ATOM     52  C   UNL A   1      45.429  31.686  28.093  1.00  0.00     0.034 A 
ATOM     53  C   UNL A   1      43.812  27.332  32.707  1.00  0.00     0.049 A 
ATOM     54  C   UNL A   1      44.309  31.608  29.105  1.00  0.00     0.074 A 
ATOM     55  C   UNL A   1      42.799  27.428  33.646  1.00  0.00     0.029 A 
ATOM     56  N   UNL A   1      43.726  28.473  31.918  1.00  0.00    -0.354 N 
ATOM     57  N   UNL A   1      44.058  30.677  29.999  1.00  0.00    -0.248 NA
ATOM     58  C   UNL A   1      43.361  32.729  29.124  1.00  0.00     0.031 C 
ATOM     59  C   UNL A   1      42.053  28.579  33.371  1.00  0.00     0.029 A 
ATOM     60  C   UNL A   1      42.658  29.259  32.327  1.00  0.00     0.049 A 
ATOM     61  H   UNL A   1      44.336  28.693  31.177  1.00  0.00     0.167 HD
ATOM     62  C   UNL A   1      42.953  31.129  30.719  1.00  0.00     0.074 A 
ATOM     63  C   UNL A   1      42.595  32.416  30.159  1.00  0.00     0.031 C 
ATOM     64  C   UNL A   1      42.300  30.539  31.755  1.00  0.00     0.034 A 
BRANCH  51  65
ATOM     65  C   UNL A   1      44.721  25.055  33.420  1.00  0.00     0.023 A 
ATOM     66  C   UNL A   1      45.297  25.048  34.705  1.00  0.00     0.031 A 
ATOM     67  C   UNL A   1      44.154  23.857  32.953  1.00  0.00     0.131 A 
ATOM     68  C   UNL A   1      45.390  23.848  35.425  1.00  0.00     0.055 A 
ATOM     69  C   UNL A   1      44.157  22.689  33.720  1.00  0.00     0.041 A 
ATOM     70  F   UNL A   1      43.612  23.788  31.727  1.00  0.00    -0.206 F 
ATOM     71  C   UNL A   1      44.798  22.675  34.955  1.00  0.00     0.022 A 
BRANCH  68  72
ATOM     72  S   UNL A   1      46.470  23.797  36.883  1.00  0.00     0.124 S 
ATOM     73  O   UNL A   1      45.650  23.046  37.831  1.00  0.00    -0.237 OA
ATOM     74  O   UNL A   1      47.653  23.112  36.376  1.00  0.00    -0.237 OA
ATOM     75  O   UNL A   1      46.660  25.207  37.219  1.00  0.00    -0.744 OA
ENDBRANCH  68  72
ENDBRANCH  51  65
BRANCH  52  76
ATOM     76  C   UNL A   1      45.550  32.871  27.192  1.00  0.00     0.023 A 
ATOM     77  C   UNL A   1      46.449  33.910  27.481  1.00  0.00     0.031 A 
ATOM     78  C   UNL A   1      44.725  33.008  26.062  1.00  0.00     0.131 A 
ATOM     79  C   UNL A   1      46.469  35.062  26.679  1.00  0.00     0.055 A 
ATOM     80  C   UNL A   1      44.789  34.130  25.234  1.00  0.00     0.041 A 
ATOM     81  F   UNL A   1      43.843  32.048  25.743  1.00  0.00    -0.206 F 
ATOM     82  C   UNL A   1      45.657  35.172  25.548  1.00  0.00     0.022 A 
BRANCH  79  83
ATOM     83  S   UNL A   1      47.513  36.456  27.185  1.00  0.00     0.124 S 
ATOM     84  O   UNL A   1      46.518  37.488  27.453  1.00  0.00    -0.237 OA
ATOM     85  O   UNL A   1      48.202  35.911  28.351  1.00  0.00    -0.237 OA
ATOM     86  O   UNL A   1      48.359  36.690  26.017  1.00  0.00    -0.744 OA
ENDBRANCH  79  83
ENDBRANCH  52  76
BRANCH  64  87
ATOM     87  C   UNL A   1      41.171  31.320  32.393  1.00  0.00     0.023 A 
ATOM     88  C   UNL A   1      41.256  31.830  33.700  1.00  0.00     0.031 A 
ATOM     89  C   UNL A   1      39.969  31.522  31.688  1.00  0.00     0.131 A 
ATOM     90  C   UNL A   1      40.136  32.435  34.291  1.00  0.00     0.055 A 
ATOM     91  C   UNL A   1      38.886  32.199  32.252  1.00  0.00     0.041 A 
ATOM     92  F   UNL A   1      39.822  31.057  30.436  1.00  0.00    -0.206 F 
ATOM     93  C   UNL A   1      38.959  32.642  33.569  1.00  0.00     0.022 A 
BRANCH  90  94
ATOM     94  S   UNL A   1      40.189  32.818  36.065  1.00  0.00     0.124 S 
ATOM     95  O   UNL A   1      41.607  33.092  36.273  1.00  0.00    -0.237 OA
ATOM     96  O   UNL A   1      39.296  33.968  36.161  1.00  0.00    -0.237 OA
ATOM     97  O   UNL A   1      39.695  31.595  36.694  1.00  0.00    -0.744 OA
ENDBRANCH  90  94
ENDBRANCH  64  87
ENDBRANCH  38  39
ENDBRANCH  31  33
ENDBRANCH  30  31
ENDBRANCH  29  30
ENDBRANCH  28  29
ENDBRANCH  27  28
ENDBRANCH  26  27
ENDBRANCH   1  26
TORSDOF 24
ENDMDL
