MODEL 1
REMARK VINA RESULT:      -9.5      0.000      0.000
REMARK SMILES Cc1cc(C)cc(C[N@@H+]2CCO[C@@H](CC(=O)OCCOCCOCCOCCOC(=O)c3ccc(-c4c5nc(c(-c6cc(S(=O)(=O)[O-])ccc6F)c6ccc([nH]6)c(-c6cc(S(=O)(=O)[O-])ccc6F)c6nc(c(-c7cc(S(=O)(=O)[O-])ccc7F)c7ccc4[nH]7)C=C6)C=C5)cc3)C2)c1
REMARK SMILES IDX 23 1 22 2 21 3 20 4 19 5 18 6 17 7 15 8 16 9 14 10 13 11
REMARK SMILES IDX 9 12 10 13 95 14 11 16 12 17 8 18 7 19 1 20 2 21 3 22 96 23
REMARK SMILES IDX 4 24 5 25 6 26 24 27 25 28 26 29 27 30 28 31 29 32 30 33
REMARK SMILES IDX 31 34 32 35 33 36 94 37 34 38 93 39 35 40 36 41 37 42 87 43
REMARK SMILES IDX 38 44 92 45 86 46 88 47 39 48 91 49 85 50 84 51 40 53 72 54
REMARK SMILES IDX 52 55 71 56 53 57 56 58 70 59 89 60 54 61 55 62 69 64 90 65
REMARK SMILES IDX 57 66 41 67 42 68 50 69 43 70 49 71 51 72 48 73 44 74 45 75
REMARK SMILES IDX 46 76 47 77 73 78 74 79 82 80 75 81 81 82 83 83 80 84 76 85
REMARK SMILES IDX 77 86 78 87 79 88 58 89 59 90 67 91 60 92 66 93 68 94 65 95
REMARK SMILES IDX 61 96 62 97 63 98 64 99
REMARK H PARENT 9 15 88 52 56 63
REMARK Flexibility Score: inf
ROOT
ATOM      1  O   UNL A   1      32.801  29.978  27.283  1.00  0.00    -0.377 OA
ENDROOT
BRANCH   1   2
ATOM      2  C   UNL A   1      31.964  29.656  26.196  1.00  0.00     0.188 C 
BRANCH   2   3
ATOM      3  C   UNL A   1      32.608  28.738  25.160  1.00  0.00     0.188 C 
BRANCH   3   4
ATOM      4  O   UNL A   1      33.027  29.317  23.937  1.00  0.00    -0.376 OA
BRANCH   4   5
ATOM      5  C   UNL A   1      32.576  28.712  22.723  1.00  0.00     0.202 C 
BRANCH   5   6
ATOM      6  C   UNL A   1      31.064  28.492  22.508  1.00  0.00     0.261 C 
BRANCH   6   7
ATOM      7  O   UNL A   1      30.576  27.131  22.646  1.00  0.00    -0.463 OA
BRANCH   7   8
ATOM      8  C   UNL A   1      29.682  26.928  23.636  1.00  0.00     0.308 C 
ATOM      9  O   UNL A   1      28.505  27.286  23.575  1.00  0.00    -0.252 OA
BRANCH   8  10
ATOM     10  C   UNL A   1      30.191  26.293  24.903  1.00  0.00     0.160 C 
BRANCH  10  11
ATOM     11  C   UNL A   1      30.560  24.830  25.160  1.00  0.00     0.184 C 
ATOM     12  N   UNL A   1      32.290  23.051  25.711  1.00  0.00    -0.327 N 
ATOM     13  C   UNL A   1      31.556  22.809  26.956  1.00  0.00     0.291 C 
ATOM     14  C   UNL A   1      32.048  24.427  25.213  1.00  0.00     0.295 C 
ATOM     15  H   UNL A   1      33.286  23.035  25.929  1.00  0.00     0.348 HD
ATOM     16  C   UNL A   1      30.093  23.269  26.930  1.00  0.00     0.222 C 
ATOM     17  O   UNL A   1      29.956  24.607  26.469  1.00  0.00    -0.366 OA
BRANCH  12  18
ATOM     18  C   UNL A   1      32.294  21.945  24.740  1.00  0.00     0.299 C 
BRANCH  18  19
ATOM     19  C   UNL A   1      33.546  21.092  24.631  1.00  0.00     0.007 A 
ATOM     20  C   UNL A   1      34.495  17.376  24.525  1.00  0.00     0.044 C 
ATOM     21  C   UNL A   1      34.581  18.872  24.595  1.00  0.00    -0.050 A 
ATOM     22  C   UNL A   1      35.827  19.460  24.804  1.00  0.00     0.006 A 
ATOM     23  C   UNL A   1      33.456  19.702  24.492  1.00  0.00     0.013 A 
ATOM     24  C   UNL A   1      35.956  20.849  24.877  1.00  0.00    -0.050 A 
ATOM     25  C   UNL A   1      37.286  21.445  25.224  1.00  0.00     0.044 C 
ATOM     26  C   UNL A   1      34.823  21.657  24.719  1.00  0.00     0.013 A 
ENDBRANCH  18  19
ENDBRANCH  12  18
ENDBRANCH  10  11
ENDBRANCH   8  10
ENDBRANCH   7   8
ENDBRANCH   6   7
ENDBRANCH   5   6
ENDBRANCH   4   5
ENDBRANCH   3   4
ENDBRANCH   2   3
ENDBRANCH   1   2
BRANCH   1  27
ATOM     27  C   UNL A   1      33.982  29.208  27.467  1.00  0.00     0.188 C 
BRANCH  27  28
ATOM     28  C   UNL A   1      35.267  29.982  27.789  1.00  0.00     0.188 C 
BRANCH  28  29
ATOM     29  O   UNL A   1      35.473  31.284  27.260  1.00  0.00    -0.376 OA
BRANCH  29  30
ATOM     30  C   UNL A   1      35.315  32.481  27.997  1.00  0.00     0.202 C 
BRANCH  30  31
ATOM     31  C   UNL A   1      33.991  33.209  28.275  1.00  0.00     0.261 C 
BRANCH  31  32
ATOM     32  O   UNL A   1      34.072  34.524  28.808  1.00  0.00    -0.460 OA
BRANCH  32  33
ATOM     33  C   UNL A   1      33.796  34.601  30.127  1.00  0.00     0.338 C 
ATOM     34  O   UNL A   1      32.749  34.977  30.639  1.00  0.00    -0.246 OA
BRANCH  33  35
ATOM     35  C   UNL A   1      34.909  33.990  30.861  1.00  0.00     0.060 A 
ATOM     36  C   UNL A   1      36.193  34.509  30.663  1.00  0.00     0.016 A 
ATOM     37  C   UNL A   1      34.695  32.895  31.702  1.00  0.00     0.016 A 
ATOM     38  C   UNL A   1      37.282  33.908  31.277  1.00  0.00     0.010 A 
ATOM     39  C   UNL A   1      35.791  32.277  32.299  1.00  0.00     0.010 A 
ATOM     40  C   UNL A   1      37.089  32.759  32.053  1.00  0.00    -0.014 A 
BRANCH  40  41
ATOM     41  C   UNL A   1      38.264  31.939  32.412  1.00  0.00     0.031 A 
ATOM     42  C   UNL A   1      38.949  32.229  33.718  1.00  0.00     0.074 A 
ATOM     43  C   UNL A   1      38.671  30.939  31.615  1.00  0.00     0.049 A 
ATOM     44  N   UNL A   1      40.019  31.686  34.232  1.00  0.00    -0.248 NA
ATOM     45  C   UNL A   1      38.344  33.280  34.553  1.00  0.00     0.031 C 
ATOM     46  C   UNL A   1      38.029  30.543  30.363  1.00  0.00     0.029 A 
ATOM     47  N   UNL A   1      39.727  30.074  31.743  1.00  0.00    -0.354 N 
ATOM     48  C   UNL A   1      40.219  32.331  35.447  1.00  0.00     0.074 A 
ATOM     49  C   UNL A   1      39.183  33.332  35.574  1.00  0.00     0.031 C 
ATOM     50  C   UNL A   1      38.714  29.517  29.829  1.00  0.00     0.029 A 
ATOM     51  C   UNL A   1      39.865  29.217  30.678  1.00  0.00     0.049 A 
ATOM     52  H   UNL A   1      40.328  30.069  32.522  1.00  0.00     0.167 HD
ATOM     53  C   UNL A   1      41.180  32.099  36.374  1.00  0.00     0.034 A 
ATOM     54  C   UNL A   1      40.832  28.317  30.413  1.00  0.00     0.034 A 
ATOM     55  C   UNL A   1      42.209  31.104  36.211  1.00  0.00     0.049 A 
ATOM     56  C   UNL A   1      41.953  28.148  31.413  1.00  0.00     0.074 A 
ATOM     57  C   UNL A   1      43.234  30.773  37.078  1.00  0.00     0.029 A 
ATOM     58  N   UNL A   1      42.352  30.287  35.096  1.00  0.00    -0.354 N 
ATOM     59  N   UNL A   1      42.138  28.761  32.560  1.00  0.00    -0.248 NA
ATOM     60  C   UNL A   1      42.992  27.163  31.085  1.00  0.00     0.031 C 
ATOM     61  C   UNL A   1      44.043  29.819  36.453  1.00  0.00     0.029 A 
ATOM     62  C   UNL A   1      43.470  29.481  35.236  1.00  0.00     0.049 A 
ATOM     63  H   UNL A   1      41.747  30.280  34.319  1.00  0.00     0.167 HD
ATOM     64  C   UNL A   1      43.292  28.206  33.107  1.00  0.00     0.074 A 
ATOM     65  C   UNL A   1      43.754  27.205  32.168  1.00  0.00     0.031 C 
ATOM     66  C   UNL A   1      43.912  28.490  34.283  1.00  0.00     0.034 A 
BRANCH  53  67
ATOM     67  C   UNL A   1      41.190  32.978  37.601  1.00  0.00     0.023 A 
ATOM     68  C   UNL A   1      40.459  32.650  38.758  1.00  0.00     0.031 A 
ATOM     69  C   UNL A   1      41.917  34.182  37.603  1.00  0.00     0.131 A 
ATOM     70  C   UNL A   1      40.414  33.547  39.836  1.00  0.00     0.055 A 
ATOM     71  C   UNL A   1      41.936  35.030  38.711  1.00  0.00     0.041 A 
ATOM     72  F   UNL A   1      42.608  34.564  36.517  1.00  0.00    -0.206 F 
ATOM     73  C   UNL A   1      41.170  34.721  39.831  1.00  0.00     0.022 A 
BRANCH  70  74
ATOM     74  S   UNL A   1      39.237  33.230  41.179  1.00  0.00     0.124 S 
ATOM     75  O   UNL A   1      39.494  31.821  41.469  1.00  0.00    -0.237 OA
ATOM     76  O   UNL A   1      39.660  34.181  42.200  1.00  0.00    -0.237 OA
ATOM     77  O   UNL A   1      37.939  33.506  40.568  1.00  0.00    -0.744 OA
ENDBRANCH  70  74
ENDBRANCH  53  67
BRANCH  54  78
ATOM     78  C   UNL A   1      40.817  27.542  29.140  1.00  0.00     0.023 A 
ATOM     79  C   UNL A   1      41.723  27.824  28.106  1.00  0.00     0.031 A 
ATOM     80  C   UNL A   1      39.854  26.541  28.913  1.00  0.00     0.131 A 
ATOM     81  C   UNL A   1      41.617  27.153  26.878  1.00  0.00     0.055 A 
ATOM     82  C   UNL A   1      39.791  25.831  27.713  1.00  0.00     0.041 A 
ATOM     83  F   UNL A   1      38.958  26.232  29.865  1.00  0.00    -0.206 F 
ATOM     84  C   UNL A   1      40.667  26.148  26.680  1.00  0.00     0.022 A 
BRANCH  81  85
ATOM     85  S   UNL A   1      42.671  27.688  25.504  1.00  0.00     0.124 S 
ATOM     86  O   UNL A   1      42.660  26.509  24.646  1.00  0.00    -0.237 OA
ATOM     87  O   UNL A   1      41.948  28.852  25.003  1.00  0.00    -0.237 OA
ATOM     88  O   UNL A   1      43.950  27.979  26.149  1.00  0.00    -0.744 OA
ENDBRANCH  81  85
ENDBRANCH  54  78
BRANCH  66  89
ATOM     89  C   UNL A   1      45.123  27.664  34.643  1.00  0.00     0.023 A 
ATOM     90  C   UNL A   1      45.015  26.443  35.330  1.00  0.00     0.031 A 
ATOM     91  C   UNL A   1      46.408  28.105  34.275  1.00  0.00     0.131 A 
ATOM     92  C   UNL A   1      46.173  25.729  35.669  1.00  0.00     0.055 A 
ATOM     93  C   UNL A   1      47.550  27.358  34.556  1.00  0.00     0.041 A 
ATOM     94  F   UNL A   1      46.570  29.266  33.621  1.00  0.00    -0.206 F 
ATOM     95  C   UNL A   1      47.438  26.168  35.268  1.00  0.00     0.022 A 
BRANCH  92  96
ATOM     96  S   UNL A   1      46.015  24.261  36.722  1.00  0.00     0.124 S 
ATOM     97  O   UNL A   1      45.997  23.184  35.738  1.00  0.00    -0.237 OA
ATOM     98  O   UNL A   1      47.210  24.344  37.556  1.00  0.00    -0.237 OA
ATOM     99  O   UNL A   1      44.753  24.479  37.427  1.00  0.00    -0.744 OA
ENDBRANCH  92  96
ENDBRANCH  66  89
ENDBRANCH  40  41
ENDBRANCH  33  35
ENDBRANCH  32  33
ENDBRANCH  31  32
ENDBRANCH  30  31
ENDBRANCH  29  30
ENDBRANCH  28  29
ENDBRANCH  27  28
ENDBRANCH   1  27
TORSDOF 26
ENDMDL
MODEL 2
REMARK VINA RESULT:      -9.2      1.557      7.681
REMARK SMILES Cc1cc(C)cc(C[N@@H+]2CCO[C@@H](CC(=O)OCCOCCOCCOCCOC(=O)c3ccc(-c4c5nc(c(-c6cc(S(=O)(=O)[O-])ccc6F)c6ccc([nH]6)c(-c6cc(S(=O)(=O)[O-])ccc6F)c6nc(c(-c7cc(S(=O)(=O)[O-])ccc7F)c7ccc4[nH]7)C=C6)C=C5)cc3)C2)c1
REMARK SMILES IDX 23 1 22 2 21 3 20 4 19 5 18 6 17 7 15 8 16 9 14 10 13 11
REMARK SMILES IDX 9 12 10 13 95 14 11 16 12 17 8 18 7 19 1 20 2 21 3 22 96 23
REMARK SMILES IDX 4 24 5 25 6 26 24 27 25 28 26 29 27 30 28 31 29 32 30 33
REMARK SMILES IDX 31 34 32 35 33 36 94 37 34 38 93 39 35 40 36 41 37 42 87 43
REMARK SMILES IDX 38 44 92 45 86 46 88 47 39 48 91 49 85 50 84 51 40 53 72 54
REMARK SMILES IDX 52 55 71 56 53 57 56 58 70 59 89 60 54 61 55 62 69 64 90 65
REMARK SMILES IDX 57 66 41 67 42 68 50 69 43 70 49 71 51 72 48 73 44 74 45 75
REMARK SMILES IDX 46 76 47 77 73 78 74 79 82 80 75 81 81 82 83 83 80 84 76 85
REMARK SMILES IDX 77 86 78 87 79 88 58 89 59 90 67 91 60 92 66 93 68 94 65 95
REMARK SMILES IDX 61 96 62 97 63 98 64 99
REMARK H PARENT 9 15 88 52 56 63
REMARK Flexibility Score: inf
ROOT
ATOM      1  O   UNL A   1      32.858  30.111  27.202  1.00  0.00    -0.377 OA
ENDROOT
BRANCH   1   2
ATOM      2  C   UNL A   1      31.830  29.867  26.271  1.00  0.00     0.188 C 
BRANCH   2   3
ATOM      3  C   UNL A   1      32.189  28.843  25.196  1.00  0.00     0.188 C 
BRANCH   3   4
ATOM      4  O   UNL A   1      32.741  29.328  23.985  1.00  0.00    -0.376 OA
BRANCH   4   5
ATOM      5  C   UNL A   1      32.341  28.692  22.768  1.00  0.00     0.202 C 
BRANCH   5   6
ATOM      6  C   UNL A   1      30.856  28.324  22.563  1.00  0.00     0.261 C 
BRANCH   6   7
ATOM      7  O   UNL A   1      30.495  26.931  22.768  1.00  0.00    -0.463 OA
BRANCH   7   8
ATOM      8  C   UNL A   1      29.601  26.698  23.751  1.00  0.00     0.308 C 
ATOM      9  O   UNL A   1      28.400  26.952  23.654  1.00  0.00    -0.252 OA
BRANCH   8  10
ATOM     10  C   UNL A   1      30.136  26.164  25.054  1.00  0.00     0.160 C 
BRANCH  10  11
ATOM     11  C   UNL A   1      30.821  24.823  25.330  1.00  0.00     0.184 C 
ATOM     12  N   UNL A   1      32.808  23.495  26.195  1.00  0.00    -0.327 N 
ATOM     13  C   UNL A   1      31.919  22.953  27.227  1.00  0.00     0.291 C 
ATOM     14  C   UNL A   1      32.316  24.807  25.710  1.00  0.00     0.295 C 
ATOM     15  H   UNL A   1      33.701  23.710  26.638  1.00  0.00     0.348 HD
ATOM     16  C   UNL A   1      30.426  23.028  26.881  1.00  0.00     0.222 C 
ATOM     17  O   UNL A   1      30.036  24.327  26.455  1.00  0.00    -0.366 OA
BRANCH  12  18
ATOM     18  C   UNL A   1      33.315  22.527  25.209  1.00  0.00     0.299 C 
BRANCH  18  19
ATOM     19  C   UNL A   1      34.813  22.290  25.144  1.00  0.00     0.007 A 
ATOM     20  C   UNL A   1      37.246  19.345  24.782  1.00  0.00     0.044 C 
ATOM     21  C   UNL A   1      36.689  20.721  25.001  1.00  0.00    -0.050 A 
ATOM     22  C   UNL A   1      37.558  21.739  25.385  1.00  0.00     0.006 A 
ATOM     23  C   UNL A   1      35.325  21.017  24.866  1.00  0.00     0.013 A 
ATOM     24  C   UNL A   1      37.086  23.036  25.601  1.00  0.00    -0.050 A 
ATOM     25  C   UNL A   1      38.021  24.079  26.132  1.00  0.00     0.044 C 
ATOM     26  C   UNL A   1      35.727  23.316  25.410  1.00  0.00     0.013 A 
ENDBRANCH  18  19
ENDBRANCH  12  18
ENDBRANCH  10  11
ENDBRANCH   8  10
ENDBRANCH   7   8
ENDBRANCH   6   7
ENDBRANCH   5   6
ENDBRANCH   4   5
ENDBRANCH   3   4
ENDBRANCH   2   3
ENDBRANCH   1   2
BRANCH   1  27
ATOM     27  C   UNL A   1      33.952  29.203  27.244  1.00  0.00     0.188 C 
BRANCH  27  28
ATOM     28  C   UNL A   1      35.284  29.752  27.773  1.00  0.00     0.188 C 
BRANCH  28  29
ATOM     29  O   UNL A   1      35.722  31.051  27.405  1.00  0.00    -0.376 OA
BRANCH  29  30
ATOM     30  C   UNL A   1      35.408  32.233  28.116  1.00  0.00     0.202 C 
BRANCH  30  31
ATOM     31  C   UNL A   1      34.111  33.049  27.994  1.00  0.00     0.261 C 
BRANCH  31  32
ATOM     32  O   UNL A   1      34.142  34.391  28.460  1.00  0.00    -0.460 OA
BRANCH  32  33
ATOM     33  C   UNL A   1      33.706  34.544  29.728  1.00  0.00     0.338 C 
ATOM     34  O   UNL A   1      32.570  34.827  30.087  1.00  0.00    -0.246 OA
BRANCH  33  35
ATOM     35  C   UNL A   1      34.788  34.140  30.633  1.00  0.00     0.060 A 
ATOM     36  C   UNL A   1      36.056  34.697  30.433  1.00  0.00     0.016 A 
ATOM     37  C   UNL A   1      34.564  33.195  31.637  1.00  0.00     0.016 A 
ATOM     38  C   UNL A   1      37.122  34.281  31.217  1.00  0.00     0.010 A 
ATOM     39  C   UNL A   1      35.640  32.759  32.407  1.00  0.00     0.010 A 
ATOM     40  C   UNL A   1      36.927  33.273  32.168  1.00  0.00    -0.014 A 
BRANCH  40  41
ATOM     41  C   UNL A   1      38.111  32.603  32.746  1.00  0.00     0.031 A 
ATOM     42  C   UNL A   1      38.742  31.491  31.957  1.00  0.00     0.074 A 
ATOM     43  C   UNL A   1      38.627  33.013  33.915  1.00  0.00     0.049 A 
ATOM     44  N   UNL A   1      39.751  30.723  32.267  1.00  0.00    -0.248 NA
ATOM     45  C   UNL A   1      38.148  31.206  30.640  1.00  0.00     0.031 C 
ATOM     46  C   UNL A   1      38.121  34.125  34.717  1.00  0.00     0.029 A 
ATOM     47  N   UNL A   1      39.694  32.536  34.631  1.00  0.00    -0.354 N 
ATOM     48  C   UNL A   1      39.910  29.860  31.189  1.00  0.00     0.074 A 
ATOM     49  C   UNL A   1      38.869  30.174  30.235  1.00  0.00     0.031 C 
ATOM     50  C   UNL A   1      38.873  34.238  35.826  1.00  0.00     0.029 A 
ATOM     51  C   UNL A   1      39.881  33.179  35.831  1.00  0.00     0.049 A 
ATOM     52  H   UNL A   1      40.270  31.803  34.316  1.00  0.00     0.167 HD
ATOM     53  C   UNL A   1      40.848  28.899  31.013  1.00  0.00     0.034 A 
ATOM     54  C   UNL A   1      40.749  32.916  36.828  1.00  0.00     0.034 A 
ATOM     55  C   UNL A   1      41.863  28.599  31.989  1.00  0.00     0.049 A 
ATOM     56  C   UNL A   1      41.719  31.770  36.653  1.00  0.00     0.074 A 
ATOM     57  C   UNL A   1      42.869  27.652  31.926  1.00  0.00     0.029 A 
ATOM     58  N   UNL A   1      41.993  29.235  33.219  1.00  0.00    -0.354 N 
ATOM     59  N   UNL A   1      41.865  30.957  35.631  1.00  0.00    -0.248 NA
ATOM     60  C   UNL A   1      42.645  31.510  37.763  1.00  0.00     0.031 C 
ATOM     61  C   UNL A   1      43.551  27.658  33.146  1.00  0.00     0.029 A 
ATOM     62  C   UNL A   1      43.036  28.674  33.937  1.00  0.00     0.049 A 
ATOM     63  H   UNL A   1      41.426  29.976  33.533  1.00  0.00     0.167 HD
ATOM     64  C   UNL A   1      42.924  30.116  35.961  1.00  0.00     0.074 A 
ATOM     65  C   UNL A   1      43.384  30.526  37.272  1.00  0.00     0.031 C 
ATOM     66  C   UNL A   1      43.475  29.100  35.245  1.00  0.00     0.034 A 
BRANCH  53  67
ATOM     67  C   UNL A   1      40.770  28.073  29.751  1.00  0.00     0.023 A 
ATOM     68  C   UNL A   1      41.677  28.246  28.691  1.00  0.00     0.031 A 
ATOM     69  C   UNL A   1      39.749  27.118  29.594  1.00  0.00     0.131 A 
ATOM     70  C   UNL A   1      41.504  27.530  27.496  1.00  0.00     0.055 A 
ATOM     71  C   UNL A   1      39.633  26.348  28.435  1.00  0.00     0.041 A 
ATOM     72  F   UNL A   1      38.835  26.930  30.558  1.00  0.00    -0.206 F 
ATOM     73  C   UNL A   1      40.505  26.562  27.372  1.00  0.00     0.022 A 
BRANCH  70  74
ATOM     74  S   UNL A   1      42.507  27.988  26.057  1.00  0.00     0.124 S 
ATOM     75  O   UNL A   1      41.900  27.177  25.004  1.00  0.00    -0.237 OA
ATOM     76  O   UNL A   1      42.287  29.427  25.963  1.00  0.00    -0.237 OA
ATOM     77  O   UNL A   1      43.859  27.587  26.440  1.00  0.00    -0.744 OA
ENDBRANCH  70  74
ENDBRANCH  53  67
BRANCH  54  78
ATOM     78  C   UNL A   1      40.718  33.710  38.088  1.00  0.00     0.023 A 
ATOM     79  C   UNL A   1      39.887  33.343  39.158  1.00  0.00     0.031 A 
ATOM     80  C   UNL A   1      41.479  34.886  38.221  1.00  0.00     0.131 A 
ATOM     81  C   UNL A   1      39.797  34.169  40.290  1.00  0.00     0.055 A 
ATOM     82  C   UNL A   1      41.434  35.671  39.375  1.00  0.00     0.041 A 
ATOM     83  F   UNL A   1      42.289  35.288  37.228  1.00  0.00    -0.206 F 
ATOM     84  C   UNL A   1      40.576  35.321  40.413  1.00  0.00     0.022 A 
BRANCH  81  85
ATOM     85  S   UNL A   1      38.563  33.769  41.557  1.00  0.00     0.124 S 
ATOM     86  O   UNL A   1      37.598  34.847  41.380  1.00  0.00    -0.237 OA
ATOM     87  O   UNL A   1      38.124  32.440  41.144  1.00  0.00    -0.237 OA
ATOM     88  O   UNL A   1      39.328  33.813  42.802  1.00  0.00    -0.744 OA
ENDBRANCH  81  85
ENDBRANCH  54  78
BRANCH  66  89
ATOM     89  C   UNL A   1      44.674  28.404  35.842  1.00  0.00     0.023 A 
ATOM     90  C   UNL A   1      45.988  28.835  35.591  1.00  0.00     0.031 A 
ATOM     91  C   UNL A   1      44.492  27.298  36.692  1.00  0.00     0.131 A 
ATOM     92  C   UNL A   1      47.069  28.135  36.144  1.00  0.00     0.055 A 
ATOM     93  C   UNL A   1      45.568  26.647  37.293  1.00  0.00     0.041 A 
ATOM     94  F   UNL A   1      43.259  26.841  36.964  1.00  0.00    -0.206 F 
ATOM     95  C   UNL A   1      46.867  27.057  37.011  1.00  0.00     0.022 A 
BRANCH  92  96
ATOM     96  S   UNL A   1      48.751  28.594  35.646  1.00  0.00     0.124 S 
ATOM     97  O   UNL A   1      48.550  29.930  35.095  1.00  0.00    -0.237 OA
ATOM     98  O   UNL A   1      49.481  28.528  36.909  1.00  0.00    -0.237 OA
ATOM     99  O   UNL A   1      49.112  27.568  34.669  1.00  0.00    -0.744 OA
ENDBRANCH  92  96
ENDBRANCH  66  89
ENDBRANCH  40  41
ENDBRANCH  33  35
ENDBRANCH  32  33
ENDBRANCH  31  32
ENDBRANCH  30  31
ENDBRANCH  29  30
ENDBRANCH  28  29
ENDBRANCH  27  28
ENDBRANCH   1  27
TORSDOF 26
ENDMDL
MODEL 3
REMARK VINA RESULT:      -9.0      2.019      2.761
REMARK SMILES Cc1cc(C)cc(C[N@@H+]2CCO[C@@H](CC(=O)OCCOCCOCCOCCOC(=O)c3ccc(-c4c5nc(c(-c6cc(S(=O)(=O)[O-])ccc6F)c6ccc([nH]6)c(-c6cc(S(=O)(=O)[O-])ccc6F)c6nc(c(-c7cc(S(=O)(=O)[O-])ccc7F)c7ccc4[nH]7)C=C6)C=C5)cc3)C2)c1
REMARK SMILES IDX 23 1 22 2 21 3 20 4 19 5 18 6 17 7 15 8 16 9 14 10 13 11
REMARK SMILES IDX 9 12 10 13 95 14 11 16 12 17 8 18 7 19 1 20 2 21 3 22 96 23
REMARK SMILES IDX 4 24 5 25 6 26 24 27 25 28 26 29 27 30 28 31 29 32 30 33
REMARK SMILES IDX 31 34 32 35 33 36 94 37 34 38 93 39 35 40 36 41 37 42 87 43
REMARK SMILES IDX 38 44 92 45 86 46 88 47 39 48 91 49 85 50 84 51 40 53 72 54
REMARK SMILES IDX 52 55 71 56 53 57 56 58 70 59 89 60 54 61 55 62 69 64 90 65
REMARK SMILES IDX 57 66 41 67 42 68 50 69 43 70 49 71 51 72 48 73 44 74 45 75
REMARK SMILES IDX 46 76 47 77 73 78 74 79 82 80 75 81 81 82 83 83 80 84 76 85
REMARK SMILES IDX 77 86 78 87 79 88 58 89 59 90 67 91 60 92 66 93 68 94 65 95
REMARK SMILES IDX 61 96 62 97 63 98 64 99
REMARK H PARENT 9 15 88 52 56 63
REMARK Flexibility Score: inf
ROOT
ATOM      1  O   UNL A   1      34.427  30.614  27.371  1.00  0.00    -0.377 OA
ENDROOT
BRANCH   1   2
ATOM      2  C   UNL A   1      33.063  30.265  27.412  1.00  0.00     0.188 C 
BRANCH   2   3
ATOM      3  C   UNL A   1      32.320  30.488  26.097  1.00  0.00     0.188 C 
BRANCH   3   4
ATOM      4  O   UNL A   1      32.666  29.663  24.998  1.00  0.00    -0.376 OA
BRANCH   4   5
ATOM      5  C   UNL A   1      31.609  29.190  24.160  1.00  0.00     0.202 C 
BRANCH   5   6
ATOM      6  C   UNL A   1      31.319  27.675  24.096  1.00  0.00     0.261 C 
BRANCH   6   7
ATOM      7  O   UNL A   1      30.158  27.202  24.831  1.00  0.00    -0.463 OA
BRANCH   7   8
ATOM      8  C   UNL A   1      30.232  25.933  25.284  1.00  0.00     0.308 C 
ATOM      9  O   UNL A   1      30.022  25.614  26.455  1.00  0.00    -0.252 OA
BRANCH   8  10
ATOM     10  C   UNL A   1      30.666  24.877  24.302  1.00  0.00     0.160 C 
BRANCH  10  11
ATOM     11  C   UNL A   1      31.681  23.748  24.495  1.00  0.00     0.184 C 
ATOM     12  N   UNL A   1      32.222  21.352  25.150  1.00  0.00    -0.327 N 
ATOM     13  C   UNL A   1      32.639  21.131  23.762  1.00  0.00     0.291 C 
ATOM     14  C   UNL A   1      31.248  22.467  25.238  1.00  0.00     0.295 C 
ATOM     15  H   UNL A   1      31.694  20.532  25.449  1.00  0.00     0.348 HD
ATOM     16  C   UNL A   1      33.007  22.410  22.999  1.00  0.00     0.222 C 
ATOM     17  O   UNL A   1      32.005  23.414  23.113  1.00  0.00    -0.366 OA
BRANCH  12  18
ATOM     18  C   UNL A   1      33.286  21.267  26.163  1.00  0.00     0.299 C 
BRANCH  18  19
ATOM     19  C   UNL A   1      34.723  21.462  25.711  1.00  0.00     0.007 A 
ATOM     20  C   UNL A   1      37.740  19.312  24.714  1.00  0.00     0.044 C 
ATOM     21  C   UNL A   1      36.878  20.484  25.078  1.00  0.00    -0.050 A 
ATOM     22  C   UNL A   1      37.479  21.732  25.232  1.00  0.00     0.006 A 
ATOM     23  C   UNL A   1      35.498  20.371  25.302  1.00  0.00     0.013 A 
ATOM     24  C   UNL A   1      36.716  22.853  25.572  1.00  0.00    -0.050 A 
ATOM     25  C   UNL A   1      37.407  24.152  25.850  1.00  0.00     0.044 C 
ATOM     26  C   UNL A   1      35.332  22.721  25.740  1.00  0.00     0.013 A 
ENDBRANCH  18  19
ENDBRANCH  12  18
ENDBRANCH  10  11
ENDBRANCH   8  10
ENDBRANCH   7   8
ENDBRANCH   6   7
ENDBRANCH   5   6
ENDBRANCH   4   5
ENDBRANCH   3   4
ENDBRANCH   2   3
ENDBRANCH   1   2
BRANCH   1  27
ATOM     27  C   UNL A   1      34.784  31.955  27.681  1.00  0.00     0.188 C 
BRANCH  27  28
ATOM     28  C   UNL A   1      33.734  32.794  28.422  1.00  0.00     0.188 C 
BRANCH  28  29
ATOM     29  O   UNL A   1      33.396  34.093  27.960  1.00  0.00    -0.376 OA
BRANCH  29  30
ATOM     30  C   UNL A   1      33.337  35.244  28.780  1.00  0.00     0.202 C 
BRANCH  30  31
ATOM     31  C   UNL A   1      33.225  35.263  30.312  1.00  0.00     0.261 C 
BRANCH  31  32
ATOM     32  O   UNL A   1      34.408  34.998  31.053  1.00  0.00    -0.460 OA
BRANCH  32  33
ATOM     33  C   UNL A   1      34.293  33.978  31.928  1.00  0.00     0.338 C 
ATOM     34  O   UNL A   1      33.337  33.733  32.654  1.00  0.00    -0.246 OA
BRANCH  33  35
ATOM     35  C   UNL A   1      35.447  33.090  31.747  1.00  0.00     0.060 A 
ATOM     36  C   UNL A   1      35.526  31.941  32.541  1.00  0.00     0.016 A 
ATOM     37  C   UNL A   1      36.456  33.407  30.834  1.00  0.00     0.016 A 
ATOM     38  C   UNL A   1      36.640  31.119  32.456  1.00  0.00     0.010 A 
ATOM     39  C   UNL A   1      37.585  32.595  30.766  1.00  0.00     0.010 A 
ATOM     40  C   UNL A   1      37.695  31.474  31.607  1.00  0.00    -0.014 A 
BRANCH  40  41
ATOM     41  C   UNL A   1      38.998  30.797  31.774  1.00  0.00     0.031 A 
ATOM     42  C   UNL A   1      39.874  31.233  32.914  1.00  0.00     0.074 A 
ATOM     43  C   UNL A   1      39.359  29.794  30.957  1.00  0.00     0.049 A 
ATOM     44  N   UNL A   1      41.072  30.831  33.241  1.00  0.00    -0.248 NA
ATOM     45  C   UNL A   1      39.321  32.268  33.803  1.00  0.00     0.031 C 
ATOM     46  C   UNL A   1      38.545  29.261  29.866  1.00  0.00     0.029 A 
ATOM     47  N   UNL A   1      40.507  29.047  30.921  1.00  0.00    -0.354 N 
ATOM     48  C   UNL A   1      41.420  31.566  34.368  1.00  0.00     0.074 A 
ATOM     49  C   UNL A   1      40.322  32.466  34.645  1.00  0.00     0.031 C 
ATOM     50  C   UNL A   1      39.229  28.276  29.257  1.00  0.00     0.029 A 
ATOM     51  C   UNL A   1      40.541  28.144  29.887  1.00  0.00     0.049 A 
ATOM     52  H   UNL A   1      41.237  29.150  31.573  1.00  0.00     0.167 HD
ATOM     53  C   UNL A   1      42.552  31.487  35.107  1.00  0.00     0.034 A 
ATOM     54  C   UNL A   1      41.535  27.329  29.482  1.00  0.00     0.034 A 
ATOM     55  C   UNL A   1      43.636  30.590  34.796  1.00  0.00     0.049 A 
ATOM     56  C   UNL A   1      42.831  27.333  30.261  1.00  0.00     0.074 A 
ATOM     57  C   UNL A   1      44.831  30.416  35.468  1.00  0.00     0.029 A 
ATOM     58  N   UNL A   1      43.661  29.724  33.709  1.00  0.00    -0.354 N 
ATOM     59  N   UNL A   1      43.154  28.031  31.326  1.00  0.00    -0.248 NA
ATOM     60  C   UNL A   1      43.893  26.437  29.786  1.00  0.00     0.031 C 
ATOM     61  C   UNL A   1      45.612  29.509  34.744  1.00  0.00     0.029 A 
ATOM     62  C   UNL A   1      44.866  29.042  33.671  1.00  0.00     0.049 A 
ATOM     63  H   UNL A   1      42.928  29.610  33.061  1.00  0.00     0.167 HD
ATOM     64  C   UNL A   1      44.442  27.627  31.670  1.00  0.00     0.074 A 
ATOM     65  C   UNL A   1      44.830  26.620  30.704  1.00  0.00     0.031 C 
ATOM     66  C   UNL A   1      45.231  28.043  32.695  1.00  0.00     0.034 A 
BRANCH  53  67
ATOM     67  C   UNL A   1      42.691  32.436  36.273  1.00  0.00     0.023 A 
ATOM     68  C   UNL A   1      42.229  32.107  37.560  1.00  0.00     0.031 A 
ATOM     69  C   UNL A   1      43.266  33.706  36.085  1.00  0.00     0.131 A 
ATOM     70  C   UNL A   1      42.284  33.061  38.588  1.00  0.00     0.055 A 
ATOM     71  C   UNL A   1      43.395  34.618  37.134  1.00  0.00     0.041 A 
ATOM     72  F   UNL A   1      43.697  34.089  34.873  1.00  0.00    -0.206 F 
ATOM     73  C   UNL A   1      42.890  34.303  38.391  1.00  0.00     0.022 A 
BRANCH  70  74
ATOM     74  S   UNL A   1      41.419  32.709  40.143  1.00  0.00     0.124 S 
ATOM     75  O   UNL A   1      40.071  32.404  39.668  1.00  0.00    -0.237 OA
ATOM     76  O   UNL A   1      42.178  31.584  40.679  1.00  0.00    -0.237 OA
ATOM     77  O   UNL A   1      41.540  33.957  40.892  1.00  0.00    -0.744 OA
ENDBRANCH  70  74
ENDBRANCH  53  67
BRANCH  54  78
ATOM     78  C   UNL A   1      41.372  26.479  28.269  1.00  0.00     0.023 A 
ATOM     79  C   UNL A   1      41.334  25.079  28.362  1.00  0.00     0.031 A 
ATOM     80  C   UNL A   1      41.309  27.054  26.986  1.00  0.00     0.131 A 
ATOM     81  C   UNL A   1      41.288  24.301  27.195  1.00  0.00     0.055 A 
ATOM     82  C   UNL A   1      41.201  26.277  25.831  1.00  0.00     0.041 A 
ATOM     83  F   UNL A   1      41.346  28.388  26.836  1.00  0.00    -0.206 F 
ATOM     84  C   UNL A   1      41.205  24.890  25.931  1.00  0.00     0.022 A 
BRANCH  81  85
ATOM     85  S   UNL A   1      41.446  22.501  27.347  1.00  0.00     0.124 S 
ATOM     86  O   UNL A   1      42.380  22.194  26.270  1.00  0.00    -0.237 OA
ATOM     87  O   UNL A   1      41.962  22.356  28.704  1.00  0.00    -0.237 OA
ATOM     88  O   UNL A   1      40.080  22.021  27.146  1.00  0.00    -0.744 OA
ENDBRANCH  81  85
ENDBRANCH  54  78
BRANCH  66  89
ATOM     89  C   UNL A   1      46.570  27.364  32.856  1.00  0.00     0.023 A 
ATOM     90  C   UNL A   1      46.725  26.191  33.615  1.00  0.00     0.031 A 
ATOM     91  C   UNL A   1      47.708  27.896  32.221  1.00  0.00     0.131 A 
ATOM     92  C   UNL A   1      47.996  25.617  33.759  1.00  0.00     0.055 A 
ATOM     93  C   UNL A   1      48.956  27.283  32.313  1.00  0.00     0.041 A 
ATOM     94  F   UNL A   1      47.619  29.017  31.486  1.00  0.00    -0.206 F 
ATOM     95  C   UNL A   1      49.108  26.143  33.096  1.00  0.00     0.022 A 
BRANCH  92  96
ATOM     96  S   UNL A   1      48.197  24.222  34.900  1.00  0.00     0.124 S 
ATOM     97  O   UNL A   1      48.058  24.870  36.199  1.00  0.00    -0.237 OA
ATOM     98  O   UNL A   1      47.104  23.337  34.508  1.00  0.00    -0.237 OA
ATOM     99  O   UNL A   1      49.537  23.720  34.596  1.00  0.00    -0.744 OA
ENDBRANCH  92  96
ENDBRANCH  66  89
ENDBRANCH  40  41
ENDBRANCH  33  35
ENDBRANCH  32  33
ENDBRANCH  31  32
ENDBRANCH  30  31
ENDBRANCH  29  30
ENDBRANCH  28  29
ENDBRANCH  27  28
ENDBRANCH   1  27
TORSDOF 26
ENDMDL
