MODEL 1
REMARK VINA RESULT:      -7.7      0.000      0.000
REMARK SMILES C[NH2+][C@@]1(C(=O)OCCOCCOCCOCCOC(=O)c2ccc(-c3c4nc(c(-c5cc(S(=O)(=O)[O-])ccc5F)c5ccc([nH]5)c(-c5cc(S(=O)(=O)[O-])ccc5F)c5nc(c(-c6cc(S(=O)(=O)[O-])ccc6F)c6ccc3[nH]6)C=C5)C=C4)cc2)CCC[C@H]1CCOC
REMARK SMILES IDX 12 1 11 2 10 3 9 4 8 5 7 6 6 7 4 8 5 9 3 10 84 11 87 12
REMARK SMILES IDX 85 13 86 14 2 15 1 16 88 19 89 20 90 21 91 22 13 23 14 24
REMARK SMILES IDX 15 25 16 26 17 27 18 28 19 29 20 30 21 31 22 32 83 33 23 34
REMARK SMILES IDX 82 35 24 36 25 37 26 38 76 39 27 40 81 41 75 42 77 43 28 44
REMARK SMILES IDX 80 45 74 46 73 47 29 49 61 50 41 51 60 52 42 53 45 54 59 55
REMARK SMILES IDX 78 56 43 57 44 58 58 60 79 61 46 62 30 63 31 64 39 65 32 66
REMARK SMILES IDX 38 67 40 68 37 69 33 70 34 71 35 72 36 73 62 74 63 75 71 76
REMARK SMILES IDX 64 77 70 78 72 79 69 80 65 81 66 82 67 83 68 84 47 85 48 86
REMARK SMILES IDX 56 87 49 88 55 89 57 90 54 91 50 92 51 93 52 94 53 95
REMARK H PARENT 2 17 2 18 77 48 45 59
REMARK Flexibility Score: inf
ROOT
ATOM      1  O   UNL A   1      33.462  27.938  26.552  1.00  0.00    -0.377 OA
ENDROOT
BRANCH   1   2
ATOM      2  C   UNL A   1      32.128  27.624  26.880  1.00  0.00     0.188 C 
BRANCH   2   3
ATOM      3  C   UNL A   1      31.206  27.298  25.700  1.00  0.00     0.188 C 
BRANCH   3   4
ATOM      4  O   UNL A   1      30.863  28.279  24.730  1.00  0.00    -0.376 OA
BRANCH   4   5
ATOM      5  C   UNL A   1      31.387  28.199  23.414  1.00  0.00     0.202 C 
BRANCH   5   6
ATOM      6  C   UNL A   1      32.519  27.196  23.108  1.00  0.00     0.261 C 
BRANCH   6   7
ATOM      7  O   UNL A   1      32.215  26.084  22.232  1.00  0.00    -0.459 OA
BRANCH   7   8
ATOM      8  C   UNL A   1      31.755  24.955  22.825  1.00  0.00     0.368 C 
ATOM      9  O   UNL A   1      30.598  24.830  23.234  1.00  0.00    -0.245 OA
BRANCH   8  10
ATOM     10  C   UNL A   1      32.823  23.793  23.024  1.00  0.00     0.197 C 
ATOM     11  C   UNL A   1      32.449  23.193  24.398  1.00  0.00     0.081 C 
ATOM     12  C   UNL A   1      34.351  24.081  23.253  1.00  0.00     0.065 C 
ATOM     13  C   UNL A   1      33.141  24.106  25.403  1.00  0.00     0.008 C 
ATOM     14  C   UNL A   1      34.410  24.593  24.714  1.00  0.00     0.011 C 
BRANCH  10  15
ATOM     15  N   UNL A   1      32.575  22.765  21.968  1.00  0.00    -0.334 N 
ATOM     16  C   UNL A   1      32.101  21.482  22.488  1.00  0.00     0.331 C 
ATOM     17  H   UNL A   1      31.874  23.129  21.323  1.00  0.00     0.347 HD
ATOM     18  H   UNL A   1      33.471  22.587  21.514  1.00  0.00     0.347 HD
ENDBRANCH  10  15
BRANCH  12  19
ATOM     19  C   UNL A   1      35.339  22.875  23.125  1.00  0.00     0.039 C 
BRANCH  19  20
ATOM     20  C   UNL A   1      35.898  22.255  24.413  1.00  0.00     0.160 C 
BRANCH  20  21
ATOM     21  O   UNL A   1      37.313  22.048  24.399  1.00  0.00    -0.385 OA
ATOM     22  C   UNL A   1      37.750  20.876  25.063  1.00  0.00     0.194 C 
ENDBRANCH  20  21
ENDBRANCH  19  20
ENDBRANCH  12  19
ENDBRANCH   8  10
ENDBRANCH   7   8
ENDBRANCH   6   7
ENDBRANCH   5   6
ENDBRANCH   4   5
ENDBRANCH   3   4
ENDBRANCH   2   3
ENDBRANCH   1   2
BRANCH   1  23
ATOM     23  C   UNL A   1      33.756  29.310  26.356  1.00  0.00     0.188 C 
BRANCH  23  24
ATOM     24  C   UNL A   1      34.593  29.982  27.454  1.00  0.00     0.188 C 
BRANCH  24  25
ATOM     25  O   UNL A   1      34.581  31.407  27.357  1.00  0.00    -0.376 OA
BRANCH  25  26
ATOM     26  C   UNL A   1      35.225  32.155  28.380  1.00  0.00     0.202 C 
BRANCH  26  27
ATOM     27  C   UNL A   1      34.431  33.303  29.028  1.00  0.00     0.261 C 
BRANCH  27  28
ATOM     28  O   UNL A   1      34.048  33.140  30.402  1.00  0.00    -0.460 OA
BRANCH  28  29
ATOM     29  C   UNL A   1      34.663  33.898  31.334  1.00  0.00     0.338 C 
ATOM     30  O   UNL A   1      34.190  34.857  31.918  1.00  0.00    -0.246 OA
BRANCH  29  31
ATOM     31  C   UNL A   1      35.924  33.216  31.699  1.00  0.00     0.060 A 
ATOM     32  C   UNL A   1      37.136  33.755  31.245  1.00  0.00     0.016 A 
ATOM     33  C   UNL A   1      35.918  32.076  32.508  1.00  0.00     0.016 A 
ATOM     34  C   UNL A   1      38.342  33.140  31.574  1.00  0.00     0.010 A 
ATOM     35  C   UNL A   1      37.126  31.442  32.813  1.00  0.00     0.010 A 
ATOM     36  C   UNL A   1      38.340  31.953  32.319  1.00  0.00    -0.014 A 
BRANCH  36  37
ATOM     37  C   UNL A   1      39.569  31.124  32.362  1.00  0.00     0.031 A 
ATOM     38  C   UNL A   1      40.537  31.372  33.488  1.00  0.00     0.074 A 
ATOM     39  C   UNL A   1      39.804  30.158  31.456  1.00  0.00     0.049 A 
ATOM     40  N   UNL A   1      41.692  30.813  33.733  1.00  0.00    -0.248 NA
ATOM     41  C   UNL A   1      40.140  32.394  34.469  1.00  0.00     0.031 C 
ATOM     42  C   UNL A   1      38.911  29.792  30.359  1.00  0.00     0.029 A 
ATOM     43  N   UNL A   1      40.873  29.308  31.320  1.00  0.00    -0.354 N 
ATOM     44  C   UNL A   1      42.160  31.414  34.897  1.00  0.00     0.074 A 
ATOM     45  C   UNL A   1      41.183  32.408  35.282  1.00  0.00     0.031 C 
ATOM     46  C   UNL A   1      39.475  28.795  29.654  1.00  0.00     0.029 A 
ATOM     47  C   UNL A   1      40.785  28.480  30.224  1.00  0.00     0.049 A 
ATOM     48  H   UNL A   1      41.632  29.292  31.946  1.00  0.00     0.167 HD
ATOM     49  C   UNL A   1      43.298  31.155  35.585  1.00  0.00     0.034 A 
ATOM     50  C   UNL A   1      41.673  27.593  29.729  1.00  0.00     0.034 A 
ATOM     51  C   UNL A   1      44.273  30.178  35.171  1.00  0.00     0.049 A 
ATOM     52  C   UNL A   1      42.986  27.395  30.454  1.00  0.00     0.074 A 
ATOM     53  C   UNL A   1      45.464  29.834  35.785  1.00  0.00     0.029 A 
ATOM     54  N   UNL A   1      44.177  29.397  34.024  1.00  0.00    -0.354 N 
ATOM     55  N   UNL A   1      43.419  27.967  31.556  1.00  0.00    -0.248 NA
ATOM     56  C   UNL A   1      43.926  26.427  29.873  1.00  0.00     0.031 C 
ATOM     57  C   UNL A   1      46.122  28.906  34.972  1.00  0.00     0.029 A 
ATOM     58  C   UNL A   1      45.304  28.601  33.895  1.00  0.00     0.049 A 
ATOM     59  H   UNL A   1      43.420  29.410  33.396  1.00  0.00     0.167 HD
ATOM     60  C   UNL A   1      44.666  27.400  31.815  1.00  0.00     0.074 A 
ATOM     61  C   UNL A   1      44.908  26.434  30.764  1.00  0.00     0.031 C 
ATOM     62  C   UNL A   1      45.531  27.648  32.833  1.00  0.00     0.034 A 
BRANCH  49  63
ATOM     63  C   UNL A   1      43.567  31.989  36.814  1.00  0.00     0.023 A 
ATOM     64  C   UNL A   1      42.966  31.700  38.054  1.00  0.00     0.031 A 
ATOM     65  C   UNL A   1      44.400  33.119  36.734  1.00  0.00     0.131 A 
ATOM     66  C   UNL A   1      43.147  32.571  39.139  1.00  0.00     0.055 A 
ATOM     67  C   UNL A   1      44.642  33.935  37.841  1.00  0.00     0.041 A 
ATOM     68  F   UNL A   1      44.977  33.463  35.573  1.00  0.00    -0.206 F 
ATOM     69  C   UNL A   1      44.002  33.672  39.049  1.00  0.00     0.022 A 
BRANCH  66  70
ATOM     70  S   UNL A   1      42.128  32.332  40.620  1.00  0.00     0.124 S 
ATOM     71  O   UNL A   1      42.283  33.618  41.297  1.00  0.00    -0.237 OA
ATOM     72  O   UNL A   1      40.810  32.063  40.057  1.00  0.00    -0.237 OA
ATOM     73  O   UNL A   1      42.762  31.201  41.294  1.00  0.00    -0.744 OA
ENDBRANCH  66  70
ENDBRANCH  49  63
BRANCH  50  74
ATOM     74  C   UNL A   1      41.388  26.856  28.463  1.00  0.00     0.023 A 
ATOM     75  C   UNL A   1      41.170  25.468  28.457  1.00  0.00     0.031 A 
ATOM     76  C   UNL A   1      41.397  27.523  27.224  1.00  0.00     0.131 A 
ATOM     77  C   UNL A   1      41.018  24.788  27.237  1.00  0.00     0.055 A 
ATOM     78  C   UNL A   1      41.189  26.851  26.018  1.00  0.00     0.041 A 
ATOM     79  F   UNL A   1      41.608  28.849  27.168  1.00  0.00    -0.206 F 
ATOM     80  C   UNL A   1      41.011  25.471  26.020  1.00  0.00     0.022 A 
BRANCH  77  81
ATOM     81  S   UNL A   1      40.922  22.976  27.258  1.00  0.00     0.124 S 
ATOM     82  O   UNL A   1      41.599  22.629  26.014  1.00  0.00    -0.237 OA
ATOM     83  O   UNL A   1      41.632  22.650  28.490  1.00  0.00    -0.237 OA
ATOM     84  O   UNL A   1      39.483  22.712  27.281  1.00  0.00    -0.744 OA
ENDBRANCH  77  81
ENDBRANCH  50  74
BRANCH  62  85
ATOM     85  C   UNL A   1      46.795  26.823  32.884  1.00  0.00     0.023 A 
ATOM     86  C   UNL A   1      47.982  27.240  32.255  1.00  0.00     0.031 A 
ATOM     87  C   UNL A   1      46.810  25.598  33.575  1.00  0.00     0.131 A 
ATOM     88  C   UNL A   1      49.115  26.412  32.282  1.00  0.00     0.055 A 
ATOM     89  C   UNL A   1      47.959  24.811  33.656  1.00  0.00     0.041 A 
ATOM     90  F   UNL A   1      45.705  25.149  34.193  1.00  0.00    -0.206 F 
ATOM     91  C   UNL A   1      49.117  25.210  32.995  1.00  0.00     0.022 A 
BRANCH  88  92
ATOM     92  S   UNL A   1      50.560  26.881  31.292  1.00  0.00     0.124 S 
ATOM     93  O   UNL A   1      51.053  25.583  30.841  1.00  0.00    -0.237 OA
ATOM     94  O   UNL A   1      49.973  27.733  30.264  1.00  0.00    -0.237 OA
ATOM     95  O   UNL A   1      51.422  27.572  32.251  1.00  0.00    -0.744 OA
ENDBRANCH  88  92
ENDBRANCH  62  85
ENDBRANCH  36  37
ENDBRANCH  29  31
ENDBRANCH  28  29
ENDBRANCH  27  28
ENDBRANCH  26  27
ENDBRANCH  25  26
ENDBRANCH  24  25
ENDBRANCH  23  24
ENDBRANCH   1  23
TORSDOF 27
ENDMDL
MODEL 2
REMARK VINA RESULT:      -6.9      9.324     13.975
REMARK SMILES C[NH2+][C@@]1(C(=O)OCCOCCOCCOCCOC(=O)c2ccc(-c3c4nc(c(-c5cc(S(=O)(=O)[O-])ccc5F)c5ccc([nH]5)c(-c5cc(S(=O)(=O)[O-])ccc5F)c5nc(c(-c6cc(S(=O)(=O)[O-])ccc6F)c6ccc3[nH]6)C=C5)C=C4)cc2)CCC[C@H]1CCOC
REMARK SMILES IDX 12 1 11 2 10 3 9 4 8 5 7 6 6 7 4 8 5 9 3 10 84 11 87 12
REMARK SMILES IDX 85 13 86 14 2 15 1 16 88 19 89 20 90 21 91 22 13 23 14 24
REMARK SMILES IDX 15 25 16 26 17 27 18 28 19 29 20 30 21 31 22 32 83 33 23 34
REMARK SMILES IDX 82 35 24 36 25 37 26 38 76 39 27 40 81 41 75 42 77 43 28 44
REMARK SMILES IDX 80 45 74 46 73 47 29 49 61 50 41 51 60 52 42 53 45 54 59 55
REMARK SMILES IDX 78 56 43 57 44 58 58 60 79 61 46 62 30 63 31 64 39 65 32 66
REMARK SMILES IDX 38 67 40 68 37 69 33 70 34 71 35 72 36 73 62 74 63 75 71 76
REMARK SMILES IDX 64 77 70 78 72 79 69 80 65 81 66 82 67 83 68 84 47 85 48 86
REMARK SMILES IDX 56 87 49 88 55 89 57 90 54 91 50 92 51 93 52 94 53 95
REMARK H PARENT 2 17 2 18 77 48 45 59
REMARK Flexibility Score: inf
ROOT
ATOM      1  O   UNL A   1      47.959  39.456  27.408  1.00  0.00    -0.377 OA
ENDROOT
BRANCH   1   2
ATOM      2  C   UNL A   1      47.505  40.366  26.434  1.00  0.00     0.188 C 
BRANCH   2   3
ATOM      3  C   UNL A   1      46.510  39.811  25.408  1.00  0.00     0.188 C 
BRANCH   3   4
ATOM      4  O   UNL A   1      46.768  39.873  24.012  1.00  0.00    -0.376 OA
BRANCH   4   5
ATOM      5  C   UNL A   1      47.150  41.099  23.408  1.00  0.00     0.202 C 
BRANCH   5   6
ATOM      6  C   UNL A   1      46.169  42.290  23.422  1.00  0.00     0.261 C 
BRANCH   6   7
ATOM      7  O   UNL A   1      45.109  42.300  22.436  1.00  0.00    -0.459 OA
BRANCH   7   8
ATOM      8  C   UNL A   1      44.690  43.517  22.011  1.00  0.00     0.368 C 
ATOM      9  O   UNL A   1      44.509  44.472  22.769  1.00  0.00    -0.245 OA
BRANCH   8  10
ATOM     10  C   UNL A   1      44.382  43.640  20.454  1.00  0.00     0.197 C 
ATOM     11  C   UNL A   1      45.706  43.197  19.791  1.00  0.00     0.081 C 
ATOM     12  C   UNL A   1      44.164  45.024  19.744  1.00  0.00     0.065 C 
ATOM     13  C   UNL A   1      46.564  44.457  19.798  1.00  0.00     0.008 C 
ATOM     14  C   UNL A   1      45.590  45.622  19.663  1.00  0.00     0.011 C 
BRANCH  10  15
ATOM     15  N   UNL A   1      43.322  42.641  20.123  1.00  0.00    -0.334 N 
ATOM     16  C   UNL A   1      42.043  42.887  20.792  1.00  0.00     0.331 C 
ATOM     17  H   UNL A   1      43.166  42.659  19.116  1.00  0.00     0.347 HD
ATOM     18  H   UNL A   1      43.657  41.735  20.452  1.00  0.00     0.347 HD
ENDBRANCH  10  15
BRANCH  12  19
ATOM     19  C   UNL A   1      43.566  45.006  18.298  1.00  0.00     0.039 C 
BRANCH  19  20
ATOM     20  C   UNL A   1      42.138  45.531  18.097  1.00  0.00     0.160 C 
BRANCH  20  21
ATOM     21  O   UNL A   1      42.065  46.919  17.761  1.00  0.00    -0.385 OA
ATOM     22  C   UNL A   1      43.068  47.369  16.868  1.00  0.00     0.194 C 
ENDBRANCH  20  21
ENDBRANCH  19  20
ENDBRANCH  12  19
ENDBRANCH   8  10
ENDBRANCH   7   8
ENDBRANCH   6   7
ENDBRANCH   5   6
ENDBRANCH   4   5
ENDBRANCH   3   4
ENDBRANCH   2   3
ENDBRANCH   1   2
BRANCH   1  23
ATOM     23  C   UNL A   1      47.909  38.083  27.058  1.00  0.00     0.188 C 
BRANCH  23  24
ATOM     24  C   UNL A   1      49.124  37.539  26.293  1.00  0.00     0.188 C 
BRANCH  24  25
ATOM     25  O   UNL A   1      50.347  38.157  26.694  1.00  0.00    -0.376 OA
BRANCH  25  26
ATOM     26  C   UNL A   1      51.151  37.491  27.659  1.00  0.00     0.202 C 
BRANCH  26  27
ATOM     27  C   UNL A   1      51.133  35.952  27.657  1.00  0.00     0.261 C 
BRANCH  27  28
ATOM     28  O   UNL A   1      51.802  35.292  26.573  1.00  0.00    -0.460 OA
BRANCH  28  29
ATOM     29  C   UNL A   1      51.903  33.946  26.605  1.00  0.00     0.338 C 
ATOM     30  O   UNL A   1      52.930  33.293  26.577  1.00  0.00    -0.246 OA
BRANCH  29  31
ATOM     31  C   UNL A   1      50.561  33.410  26.925  1.00  0.00     0.060 A 
ATOM     32  C   UNL A   1      49.473  33.806  26.134  1.00  0.00     0.016 A 
ATOM     33  C   UNL A   1      50.381  32.499  27.969  1.00  0.00     0.016 A 
ATOM     34  C   UNL A   1      48.197  33.315  26.405  1.00  0.00     0.010 A 
ATOM     35  C   UNL A   1      49.096  32.031  28.259  1.00  0.00     0.010 A 
ATOM     36  C   UNL A   1      47.994  32.463  27.499  1.00  0.00    -0.014 A 
BRANCH  36  37
ATOM     37  C   UNL A   1      46.613  32.235  27.991  1.00  0.00     0.031 A 
ATOM     38  C   UNL A   1      46.020  33.273  28.905  1.00  0.00     0.074 A 
ATOM     39  C   UNL A   1      45.893  31.165  27.611  1.00  0.00     0.049 A 
ATOM     40  N   UNL A   1      44.855  33.297  29.495  1.00  0.00    -0.248 NA
ATOM     41  C   UNL A   1      46.863  34.445  29.187  1.00  0.00     0.031 C 
ATOM     42  C   UNL A   1      46.345  30.127  26.686  1.00  0.00     0.029 A 
ATOM     43  N   UNL A   1      44.625  30.775  27.962  1.00  0.00    -0.354 N 
ATOM     44  C   UNL A   1      44.825  34.484  30.219  1.00  0.00     0.074 A 
ATOM     45  C   UNL A   1      46.103  35.131  30.025  1.00  0.00     0.031 C 
ATOM     46  C   UNL A   1      45.368  29.212  26.550  1.00  0.00     0.029 A 
ATOM     47  C   UNL A   1      44.241  29.577  27.407  1.00  0.00     0.049 A 
ATOM     48  H   UNL A   1      44.045  31.304  28.556  1.00  0.00     0.167 HD
ATOM     49  C   UNL A   1      43.819  34.992  30.971  1.00  0.00     0.034 A 
ATOM     50  C   UNL A   1      43.119  28.850  27.595  1.00  0.00     0.034 A 
ATOM     51  C   UNL A   1      42.560  34.321  31.173  1.00  0.00     0.049 A 
ATOM     52  C   UNL A   1      42.051  29.385  28.523  1.00  0.00     0.074 A 
ATOM     53  C   UNL A   1      41.471  34.736  31.917  1.00  0.00     0.029 A 
ATOM     54  N   UNL A   1      42.227  33.080  30.641  1.00  0.00    -0.354 N 
ATOM     55  N   UNL A   1      42.031  30.510  29.202  1.00  0.00    -0.248 NA
ATOM     56  C   UNL A   1      40.853  28.555  28.705  1.00  0.00     0.031 C 
ATOM     57  C   UNL A   1      40.514  33.716  31.899  1.00  0.00     0.029 A 
ATOM     58  C   UNL A   1      40.966  32.700  31.071  1.00  0.00     0.049 A 
ATOM     59  H   UNL A   1      42.804  32.549  30.047  1.00  0.00     0.167 HD
ATOM     60  C   UNL A   1      40.803  30.536  29.861  1.00  0.00     0.074 A 
ATOM     61  C   UNL A   1      40.108  29.321  29.488  1.00  0.00     0.031 C 
ATOM     62  C   UNL A   1      40.292  31.479  30.694  1.00  0.00     0.034 A 
BRANCH  49  63
ATOM     63  C   UNL A   1      44.076  36.303  31.673  1.00  0.00     0.023 A 
ATOM     64  C   UNL A   1      44.532  36.356  33.004  1.00  0.00     0.031 A 
ATOM     65  C   UNL A   1      43.815  37.520  31.019  1.00  0.00     0.131 A 
ATOM     66  C   UNL A   1      44.642  37.593  33.658  1.00  0.00     0.055 A 
ATOM     67  C   UNL A   1      44.007  38.751  31.649  1.00  0.00     0.041 A 
ATOM     68  F   UNL A   1      43.350  37.534  29.760  1.00  0.00    -0.206 F 
ATOM     69  C   UNL A   1      44.407  38.792  32.982  1.00  0.00     0.022 A 
BRANCH  66  70
ATOM     70  S   UNL A   1      44.942  37.603  35.446  1.00  0.00     0.124 S 
ATOM     71  O   UNL A   1      46.235  38.280  35.525  1.00  0.00    -0.237 OA
ATOM     72  O   UNL A   1      43.798  38.350  35.955  1.00  0.00    -0.237 OA
ATOM     73  O   UNL A   1      44.968  36.183  35.798  1.00  0.00    -0.744 OA
ENDBRANCH  66  70
ENDBRANCH  49  63
BRANCH  50  74
ATOM     74  C   UNL A   1      42.955  27.519  26.938  1.00  0.00     0.023 A 
ATOM     75  C   UNL A   1      43.428  26.342  27.542  1.00  0.00     0.031 A 
ATOM     76  C   UNL A   1      42.380  27.414  25.658  1.00  0.00     0.131 A 
ATOM     77  C   UNL A   1      43.361  25.123  26.847  1.00  0.00     0.055 A 
ATOM     78  C   UNL A   1      42.264  26.190  24.996  1.00  0.00     0.041 A 
ATOM     79  F   UNL A   1      41.918  28.507  25.029  1.00  0.00    -0.206 F 
ATOM     80  C   UNL A   1      42.770  25.036  25.586  1.00  0.00     0.022 A 
BRANCH  77  81
ATOM     81  S   UNL A   1      44.146  23.660  27.581  1.00  0.00     0.124 S 
ATOM     82  O   UNL A   1      45.282  24.251  28.279  1.00  0.00    -0.237 OA
ATOM     83  O   UNL A   1      43.077  23.134  28.423  1.00  0.00    -0.237 OA
ATOM     84  O   UNL A   1      44.484  22.837  26.420  1.00  0.00    -0.744 OA
ENDBRANCH  77  81
ENDBRANCH  50  74
BRANCH  62  85
ATOM     85  C   UNL A   1      38.891  31.257  31.215  1.00  0.00     0.023 A 
ATOM     86  C   UNL A   1      37.775  31.893  30.645  1.00  0.00     0.031 A 
ATOM     87  C   UNL A   1      38.673  30.390  32.302  1.00  0.00     0.131 A 
ATOM     88  C   UNL A   1      36.500  31.699  31.200  1.00  0.00     0.055 A 
ATOM     89  C   UNL A   1      37.395  30.148  32.807  1.00  0.00     0.041 A 
ATOM     90  F   UNL A   1      39.702  29.757  32.888  1.00  0.00    -0.206 F 
ATOM     91  C   UNL A   1      36.300  30.815  32.263  1.00  0.00     0.022 A 
BRANCH  88  92
ATOM     92  S   UNL A   1      35.117  32.690  30.573  1.00  0.00     0.124 S 
ATOM     93  O   UNL A   1      34.195  32.674  31.704  1.00  0.00    -0.237 OA
ATOM     94  O   UNL A   1      35.753  33.971  30.287  1.00  0.00    -0.237 OA
ATOM     95  O   UNL A   1      34.668  31.946  29.396  1.00  0.00    -0.744 OA
ENDBRANCH  88  92
ENDBRANCH  62  85
ENDBRANCH  36  37
ENDBRANCH  29  31
ENDBRANCH  28  29
ENDBRANCH  27  28
ENDBRANCH  26  27
ENDBRANCH  25  26
ENDBRANCH  24  25
ENDBRANCH  23  24
ENDBRANCH   1  23
TORSDOF 27
ENDMDL
MODEL 3
REMARK VINA RESULT:      -6.9      5.079      9.711
REMARK SMILES C[NH2+][C@@]1(C(=O)OCCOCCOCCOCCOC(=O)c2ccc(-c3c4nc(c(-c5cc(S(=O)(=O)[O-])ccc5F)c5ccc([nH]5)c(-c5cc(S(=O)(=O)[O-])ccc5F)c5nc(c(-c6cc(S(=O)(=O)[O-])ccc6F)c6ccc3[nH]6)C=C5)C=C4)cc2)CCC[C@H]1CCOC
REMARK SMILES IDX 12 1 11 2 10 3 9 4 8 5 7 6 6 7 4 8 5 9 3 10 84 11 87 12
REMARK SMILES IDX 85 13 86 14 2 15 1 16 88 19 89 20 90 21 91 22 13 23 14 24
REMARK SMILES IDX 15 25 16 26 17 27 18 28 19 29 20 30 21 31 22 32 83 33 23 34
REMARK SMILES IDX 82 35 24 36 25 37 26 38 76 39 27 40 81 41 75 42 77 43 28 44
REMARK SMILES IDX 80 45 74 46 73 47 29 49 61 50 41 51 60 52 42 53 45 54 59 55
REMARK SMILES IDX 78 56 43 57 44 58 58 60 79 61 46 62 30 63 31 64 39 65 32 66
REMARK SMILES IDX 38 67 40 68 37 69 33 70 34 71 35 72 36 73 62 74 63 75 71 76
REMARK SMILES IDX 64 77 70 78 72 79 69 80 65 81 66 82 67 83 68 84 47 85 48 86
REMARK SMILES IDX 56 87 49 88 55 89 57 90 54 91 50 92 51 93 52 94 53 95
REMARK H PARENT 2 17 2 18 77 48 45 59
REMARK Flexibility Score: inf
ROOT
ATOM      1  O   UNL A   1      33.632  27.945  26.472  1.00  0.00    -0.377 OA
ENDROOT
BRANCH   1   2
ATOM      2  C   UNL A   1      32.269  27.706  26.737  1.00  0.00     0.188 C 
BRANCH   2   3
ATOM      3  C   UNL A   1      31.380  27.462  25.512  1.00  0.00     0.188 C 
BRANCH   3   4
ATOM      4  O   UNL A   1      31.221  28.446  24.500  1.00  0.00    -0.376 OA
BRANCH   4   5
ATOM      5  C   UNL A   1      31.947  28.348  23.285  1.00  0.00     0.202 C 
BRANCH   5   6
ATOM      6  C   UNL A   1      33.052  27.281  23.145  1.00  0.00     0.261 C 
BRANCH   6   7
ATOM      7  O   UNL A   1      32.810  26.174  22.244  1.00  0.00    -0.459 OA
BRANCH   7   8
ATOM      8  C   UNL A   1      32.111  25.127  22.747  1.00  0.00     0.368 C 
ATOM      9  O   UNL A   1      30.893  25.158  22.941  1.00  0.00    -0.245 OA
BRANCH   8  10
ATOM     10  C   UNL A   1      32.968  23.845  23.139  1.00  0.00     0.197 C 
ATOM     11  C   UNL A   1      32.229  23.282  24.373  1.00  0.00     0.081 C 
ATOM     12  C   UNL A   1      34.428  23.949  23.711  1.00  0.00     0.065 C 
ATOM     13  C   UNL A   1      32.777  24.099  25.538  1.00  0.00     0.008 C 
ATOM     14  C   UNL A   1      34.215  24.439  25.165  1.00  0.00     0.011 C 
BRANCH  10  15
ATOM     15  N   UNL A   1      32.850  22.862  22.019  1.00  0.00    -0.334 N 
ATOM     16  C   UNL A   1      32.200  21.606  22.398  1.00  0.00     0.331 C 
ATOM     17  H   UNL A   1      32.307  23.292  21.271  1.00  0.00     0.347 HD
ATOM     18  H   UNL A   1      33.800  22.628  21.730  1.00  0.00     0.347 HD
ENDBRANCH  10  15
BRANCH  12  19
ATOM     19  C   UNL A   1      35.277  22.636  23.764  1.00  0.00     0.039 C 
BRANCH  19  20
ATOM     20  C   UNL A   1      35.066  21.683  24.949  1.00  0.00     0.160 C 
BRANCH  20  21
ATOM     21  O   UNL A   1      36.276  21.212  25.546  1.00  0.00    -0.385 OA
ATOM     22  C   UNL A   1      37.451  21.488  24.806  1.00  0.00     0.194 C 
ENDBRANCH  20  21
ENDBRANCH  19  20
ENDBRANCH  12  19
ENDBRANCH   8  10
ENDBRANCH   7   8
ENDBRANCH   6   7
ENDBRANCH   5   6
ENDBRANCH   4   5
ENDBRANCH   3   4
ENDBRANCH   2   3
ENDBRANCH   1   2
BRANCH   1  23
ATOM     23  C   UNL A   1      34.062  29.293  26.553  1.00  0.00     0.188 C 
BRANCH  23  24
ATOM     24  C   UNL A   1      34.947  29.646  27.756  1.00  0.00     0.188 C 
BRANCH  24  25
ATOM     25  O   UNL A   1      35.079  31.056  27.945  1.00  0.00    -0.376 OA
BRANCH  25  26
ATOM     26  C   UNL A   1      35.592  31.522  29.186  1.00  0.00     0.202 C 
BRANCH  26  27
ATOM     27  C   UNL A   1      34.675  32.409  30.045  1.00  0.00     0.261 C 
BRANCH  27  28
ATOM     28  O   UNL A   1      34.396  31.962  31.381  1.00  0.00    -0.460 OA
BRANCH  28  29
ATOM     29  C   UNL A   1      34.468  32.860  32.387  1.00  0.00     0.338 C 
ATOM     30  O   UNL A   1      33.592  33.123  33.190  1.00  0.00    -0.246 OA
BRANCH  29  31
ATOM     31  C   UNL A   1      35.879  33.291  32.493  1.00  0.00     0.060 A 
ATOM     32  C   UNL A   1      36.854  32.332  32.800  1.00  0.00     0.016 A 
ATOM     33  C   UNL A   1      36.245  34.620  32.258  1.00  0.00     0.016 A 
ATOM     34  C   UNL A   1      38.194  32.705  32.902  1.00  0.00     0.010 A 
ATOM     35  C   UNL A   1      37.585  34.998  32.390  1.00  0.00     0.010 A 
ATOM     36  C   UNL A   1      38.559  34.049  32.746  1.00  0.00    -0.014 A 
BRANCH  36  37
ATOM     37  C   UNL A   1      39.900  34.490  33.200  1.00  0.00     0.031 A 
ATOM     38  C   UNL A   1      41.011  34.497  32.184  1.00  0.00     0.074 A 
ATOM     39  C   UNL A   1      40.120  34.909  34.458  1.00  0.00     0.049 A 
ATOM     40  N   UNL A   1      42.273  34.803  32.330  1.00  0.00    -0.248 NA
ATOM     41  C   UNL A   1      40.641  34.101  30.816  1.00  0.00     0.031 C 
ATOM     42  C   UNL A   1      39.108  35.000  35.508  1.00  0.00     0.029 A 
ATOM     43  N   UNL A   1      41.275  35.336  35.065  1.00  0.00    -0.354 N 
ATOM     44  C   UNL A   1      42.846  34.638  31.074  1.00  0.00     0.074 A 
ATOM     45  C   UNL A   1      41.804  34.165  30.191  1.00  0.00     0.031 C 
ATOM     46  C   UNL A   1      39.690  35.446  36.636  1.00  0.00     0.029 A 
ATOM     47  C   UNL A   1      41.121  35.634  36.399  1.00  0.00     0.049 A 
ATOM     48  H   UNL A   1      42.133  35.420  34.590  1.00  0.00     0.167 HD
ATOM     49  C   UNL A   1      44.126  34.868  30.690  1.00  0.00     0.034 A 
ATOM     50  C   UNL A   1      42.038  35.991  37.324  1.00  0.00     0.034 A 
ATOM     51  C   UNL A   1      45.158  35.315  31.591  1.00  0.00     0.049 A 
ATOM     52  C   UNL A   1      43.482  36.139  36.897  1.00  0.00     0.074 A 
ATOM     53  C   UNL A   1      46.488  35.576  31.317  1.00  0.00     0.029 A 
ATOM     54  N   UNL A   1      44.978  35.554  32.949  1.00  0.00    -0.354 N 
ATOM     55  N   UNL A   1      44.015  35.982  35.706  1.00  0.00    -0.248 NA
ATOM     56  C   UNL A   1      44.446  36.519  37.939  1.00  0.00     0.031 C 
ATOM     57  C   UNL A   1      47.128  35.895  32.519  1.00  0.00     0.029 A 
ATOM     58  C   UNL A   1      46.180  35.922  33.531  1.00  0.00     0.049 A 
ATOM     59  H   UNL A   1      44.122  35.471  33.427  1.00  0.00     0.167 HD
ATOM     60  C   UNL A   1      45.369  36.280  35.852  1.00  0.00     0.074 A 
ATOM     61  C   UNL A   1      45.567  36.636  37.242  1.00  0.00     0.031 C 
ATOM     62  C   UNL A   1      46.359  36.266  34.922  1.00  0.00     0.034 A 
BRANCH  49  63
ATOM     63  C   UNL A   1      44.479  34.574  29.252  1.00  0.00     0.023 A 
ATOM     64  C   UNL A   1      44.696  33.261  28.795  1.00  0.00     0.031 A 
ATOM     65  C   UNL A   1      44.649  35.626  28.336  1.00  0.00     0.131 A 
ATOM     66  C   UNL A   1      45.141  33.041  27.482  1.00  0.00     0.055 A 
ATOM     67  C   UNL A   1      45.010  35.395  27.007  1.00  0.00     0.041 A 
ATOM     68  F   UNL A   1      44.485  36.901  28.721  1.00  0.00    -0.206 F 
ATOM     69  C   UNL A   1      45.274  34.097  26.578  1.00  0.00     0.022 A 
BRANCH  66  70
ATOM     70  S   UNL A   1      45.692  31.376  27.021  1.00  0.00     0.124 S 
ATOM     71  O   UNL A   1      44.496  30.836  26.378  1.00  0.00    -0.237 OA
ATOM     72  O   UNL A   1      46.822  31.650  26.142  1.00  0.00    -0.237 OA
ATOM     73  O   UNL A   1      46.033  30.761  28.303  1.00  0.00    -0.744 OA
ENDBRANCH  66  70
ENDBRANCH  49  63
BRANCH  50  74
ATOM     74  C   UNL A   1      41.644  36.188  38.750  1.00  0.00     0.023 A 
ATOM     75  C   UNL A   1      41.218  37.440  39.225  1.00  0.00     0.031 A 
ATOM     76  C   UNL A   1      41.753  35.137  39.679  1.00  0.00     0.131 A 
ATOM     77  C   UNL A   1      40.965  37.620  40.595  1.00  0.00     0.055 A 
ATOM     78  C   UNL A   1      41.445  35.307  41.030  1.00  0.00     0.041 A 
ATOM     79  F   UNL A   1      42.163  33.920  39.283  1.00  0.00    -0.206 F 
ATOM     80  C   UNL A   1      41.061  36.559  41.498  1.00  0.00     0.022 A 
BRANCH  77  81
ATOM     81  S   UNL A   1      40.595  39.291  41.199  1.00  0.00     0.124 S 
ATOM     82  O   UNL A   1      41.275  39.297  42.489  1.00  0.00    -0.237 OA
ATOM     83  O   UNL A   1      41.184  40.126  40.158  1.00  0.00    -0.237 OA
ATOM     84  O   UNL A   1      39.134  39.314  41.262  1.00  0.00    -0.744 OA
ENDBRANCH  77  81
ENDBRANCH  50  74
BRANCH  62  85
ATOM     85  C   UNL A   1      47.735  36.700  35.371  1.00  0.00     0.023 A 
ATOM     86  C   UNL A   1      48.176  38.029  35.240  1.00  0.00     0.031 A 
ATOM     87  C   UNL A   1      48.618  35.765  35.940  1.00  0.00     0.131 A 
ATOM     88  C   UNL A   1      49.484  38.372  35.619  1.00  0.00     0.055 A 
ATOM     89  C   UNL A   1      49.893  36.126  36.377  1.00  0.00     0.041 A 
ATOM     90  F   UNL A   1      48.252  34.482  36.088  1.00  0.00    -0.206 F 
ATOM     91  C   UNL A   1      50.337  37.435  36.205  1.00  0.00     0.022 A 
BRANCH  88  92
ATOM     92  S   UNL A   1      50.088  40.041  35.248  1.00  0.00     0.124 S 
ATOM     93  O   UNL A   1      49.563  40.261  33.903  1.00  0.00    -0.237 OA
ATOM     94  O   UNL A   1      49.480  40.838  36.307  1.00  0.00    -0.237 OA
ATOM     95  O   UNL A   1      51.542  39.906  35.331  1.00  0.00    -0.744 OA
ENDBRANCH  88  92
ENDBRANCH  62  85
ENDBRANCH  36  37
ENDBRANCH  29  31
ENDBRANCH  28  29
ENDBRANCH  27  28
ENDBRANCH  26  27
ENDBRANCH  25  26
ENDBRANCH  24  25
ENDBRANCH  23  24
ENDBRANCH   1  23
TORSDOF 27
ENDMDL
