MODEL 1
REMARK VINA RESULT:      -8.4      0.000      0.000
REMARK SMILES O=C(CC(=O)c1ccccc1)Nc1cccc(C(=O)OCCOCCOCCOCCOC(=O)c2ccc(-c3c4nc(c(-c5cc(S(=O)(=O)[O-])ccc5F)c5ccc([nH]5)c(-c5cc(S(=O)(=O)[O-])ccc5F)c5nc(c(-c6cc(S(=O)(=O)[O-])ccc6F)c6ccc3[nH]6)C=C5)C=C4)cc2)c1
REMARK SMILES IDX 25 1 24 2 23 3 22 4 21 5 20 6 18 7 19 8 17 9 13 10 14 11
REMARK SMILES IDX 98 12 15 13 16 14 12 15 1 16 2 17 3 19 4 20 5 21 6 22 7 23
REMARK SMILES IDX 11 24 8 25 10 26 9 27 26 28 27 29 28 30 29 31 30 32 31 33
REMARK SMILES IDX 32 34 33 35 34 36 35 37 36 38 97 39 37 40 96 41 38 42 39 43
REMARK SMILES IDX 40 44 90 45 41 46 95 47 89 48 91 49 42 50 94 51 88 52 87 53
REMARK SMILES IDX 43 55 75 56 55 57 74 58 56 59 59 60 73 61 92 62 57 63 58 64
REMARK SMILES IDX 72 66 93 67 60 68 44 69 45 70 53 71 46 72 52 73 54 74 51 75
REMARK SMILES IDX 47 76 48 77 49 78 50 79 76 80 77 81 85 82 78 83 84 84 86 85
REMARK SMILES IDX 83 86 79 87 80 88 81 89 82 90 61 91 62 92 70 93 63 94 69 95
REMARK SMILES IDX 71 96 68 97 64 98 65 99 66 100 67 101
REMARK H PARENT 12 18 91 54 59 65
REMARK Flexibility Score: inf
ROOT
ATOM      1  C   UNL A   1      44.620  30.033  30.914  1.00  0.00     0.188 C 
ENDROOT
BRANCH   1   2
ATOM      2  C   UNL A   1      43.277  30.126  31.668  1.00  0.00     0.188 C 
BRANCH   2   3
ATOM      3  O   UNL A   1      42.372  29.069  31.389  1.00  0.00    -0.376 OA
BRANCH   3   4
ATOM      4  C   UNL A   1      41.844  28.344  32.486  1.00  0.00     0.202 C 
BRANCH   4   5
ATOM      5  C   UNL A   1      40.391  28.652  32.862  1.00  0.00     0.261 C 
BRANCH   5   6
ATOM      6  O   UNL A   1      39.424  28.289  31.871  1.00  0.00    -0.460 OA
BRANCH   6   7
ATOM      7  C   UNL A   1      38.130  28.621  32.072  1.00  0.00     0.338 C 
ATOM      8  O   UNL A   1      37.457  28.400  33.062  1.00  0.00    -0.246 OA
BRANCH   7   9
ATOM      9  C   UNL A   1      37.745  29.519  30.955  1.00  0.00     0.062 A 
ATOM     10  C   UNL A   1      36.267  30.013  29.093  1.00  0.00     0.042 A 
ATOM     11  C   UNL A   1      37.189  30.962  28.638  1.00  0.00     0.026 A 
ATOM     12  C   UNL A   1      36.560  29.285  30.245  1.00  0.00     0.041 A 
ATOM     13  C   UNL A   1      38.362  31.218  29.359  1.00  0.00     0.003 A 
ATOM     14  C   UNL A   1      38.637  30.506  30.527  1.00  0.00     0.016 A 
BRANCH  10  15
ATOM     15  N   UNL A   1      35.068  29.845  28.367  1.00  0.00    -0.326 N 
ATOM     16  O   UNL A   1      34.553  32.072  27.900  1.00  0.00    -0.274 OA
ATOM     17  C   UNL A   1      34.321  30.871  27.802  1.00  0.00     0.232 C 
ATOM     18  H   UNL A   1      34.733  28.926  28.252  1.00  0.00     0.169 HD
BRANCH  17  19
ATOM     19  C   UNL A   1      33.201  30.397  26.927  1.00  0.00     0.181 C 
BRANCH  19  20
ATOM     20  C   UNL A   1      33.457  29.124  26.163  1.00  0.00     0.172 C 
ATOM     21  O   UNL A   1      34.611  28.778  25.895  1.00  0.00    -0.294 OA
BRANCH  20  22
ATOM     22  C   UNL A   1      32.346  28.217  25.750  1.00  0.00     0.018 A 
ATOM     23  C   UNL A   1      32.442  26.873  26.136  1.00  0.00     0.012 A 
ATOM     24  C   UNL A   1      31.288  28.610  24.923  1.00  0.00     0.012 A 
ATOM     25  C   UNL A   1      31.499  25.939  25.698  1.00  0.00     0.001 A 
ATOM     26  C   UNL A   1      30.355  27.671  24.474  1.00  0.00     0.001 A 
ATOM     27  C   UNL A   1      30.461  26.337  24.858  1.00  0.00     0.000 A 
ENDBRANCH  20  22
ENDBRANCH  19  20
ENDBRANCH  17  19
ENDBRANCH  10  15
ENDBRANCH   7   9
ENDBRANCH   6   7
ENDBRANCH   5   6
ENDBRANCH   4   5
ENDBRANCH   3   4
ENDBRANCH   2   3
ENDBRANCH   1   2
BRANCH   1  28
ATOM     28  O   UNL A   1      44.857  30.846  29.776  1.00  0.00    -0.377 OA
BRANCH  28  29
ATOM     29  C   UNL A   1      46.109  31.506  29.625  1.00  0.00     0.188 C 
BRANCH  29  30
ATOM     30  C   UNL A   1      46.600  31.949  28.227  1.00  0.00     0.188 C 
BRANCH  30  31
ATOM     31  O   UNL A   1      47.330  33.167  28.213  1.00  0.00    -0.376 OA
BRANCH  31  32
ATOM     32  C   UNL A   1      47.165  33.984  27.064  1.00  0.00     0.202 C 
BRANCH  32  33
ATOM     33  C   UNL A   1      45.928  33.675  26.211  1.00  0.00     0.261 C 
BRANCH  33  34
ATOM     34  O   UNL A   1      44.818  34.571  26.375  1.00  0.00    -0.460 OA
BRANCH  34  35
ATOM     35  C   UNL A   1      44.956  35.593  27.250  1.00  0.00     0.338 C 
ATOM     36  O   UNL A   1      45.488  36.669  27.046  1.00  0.00    -0.246 OA
BRANCH  35  37
ATOM     37  C   UNL A   1      44.180  35.234  28.456  1.00  0.00     0.060 A 
ATOM     38  C   UNL A   1      44.032  36.167  29.491  1.00  0.00     0.016 A 
ATOM     39  C   UNL A   1      43.559  33.987  28.530  1.00  0.00     0.016 A 
ATOM     40  C   UNL A   1      43.254  35.850  30.608  1.00  0.00     0.010 A 
ATOM     41  C   UNL A   1      42.804  33.663  29.658  1.00  0.00     0.010 A 
ATOM     42  C   UNL A   1      42.656  34.587  30.708  1.00  0.00    -0.014 A 
BRANCH  42  43
ATOM     43  C   UNL A   1      42.013  34.142  31.970  1.00  0.00     0.031 A 
ATOM     44  C   UNL A   1      40.514  34.223  32.066  1.00  0.00     0.074 A 
ATOM     45  C   UNL A   1      42.739  33.704  33.014  1.00  0.00     0.049 A 
ATOM     46  N   UNL A   1      39.738  34.059  33.104  1.00  0.00    -0.248 NA
ATOM     47  C   UNL A   1      39.801  34.540  30.819  1.00  0.00     0.031 C 
ATOM     48  C   UNL A   1      44.189  33.515  33.019  1.00  0.00     0.029 A 
ATOM     49  N   UNL A   1      42.352  33.359  34.286  1.00  0.00    -0.354 N 
ATOM     50  C   UNL A   1      38.442  34.244  32.636  1.00  0.00     0.074 A 
ATOM     51  C   UNL A   1      38.542  34.572  31.230  1.00  0.00     0.031 C 
ATOM     52  C   UNL A   1      44.571  33.109  34.243  1.00  0.00     0.029 A 
ATOM     53  C   UNL A   1      43.404  33.062  35.123  1.00  0.00     0.049 A 
ATOM     54  H   UNL A   1      41.411  33.327  34.573  1.00  0.00     0.167 HD
ATOM     55  C   UNL A   1      37.275  34.140  33.316  1.00  0.00     0.034 A 
ATOM     56  C   UNL A   1      43.423  32.827  36.453  1.00  0.00     0.034 A 
ATOM     57  C   UNL A   1      37.190  33.842  34.723  1.00  0.00     0.049 A 
ATOM     58  C   UNL A   1      42.117  32.872  37.221  1.00  0.00     0.074 A 
ATOM     59  C   UNL A   1      36.061  33.740  35.517  1.00  0.00     0.029 A 
ATOM     60  N   UNL A   1      38.280  33.606  35.550  1.00  0.00    -0.354 N 
ATOM     61  N   UNL A   1      40.896  33.064  36.774  1.00  0.00    -0.248 NA
ATOM     62  C   UNL A   1      42.193  32.672  38.677  1.00  0.00     0.031 C 
ATOM     63  C   UNL A   1      36.471  33.510  36.833  1.00  0.00     0.029 A 
ATOM     64  C   UNL A   1      37.851  33.390  36.850  1.00  0.00     0.049 A 
ATOM     65  H   UNL A   1      39.220  33.593  35.257  1.00  0.00     0.167 HD
ATOM     66  C   UNL A   1      40.063  32.970  37.887  1.00  0.00     0.074 A 
ATOM     67  C   UNL A   1      40.914  32.687  39.022  1.00  0.00     0.031 C 
ATOM     68  C   UNL A   1      38.715  33.104  37.970  1.00  0.00     0.034 A 
BRANCH  55  69
ATOM     69  C   UNL A   1      36.003  34.393  32.550  1.00  0.00     0.023 A 
ATOM     70  C   UNL A   1      35.325  35.621  32.639  1.00  0.00     0.031 A 
ATOM     71  C   UNL A   1      35.456  33.395  31.725  1.00  0.00     0.131 A 
ATOM     72  C   UNL A   1      34.114  35.802  31.957  1.00  0.00     0.055 A 
ATOM     73  C   UNL A   1      34.289  33.606  30.991  1.00  0.00     0.041 A 
ATOM     74  F   UNL A   1      36.048  32.193  31.622  1.00  0.00    -0.206 F 
ATOM     75  C   UNL A   1      33.604  34.813  31.113  1.00  0.00     0.022 A 
BRANCH  72  76
ATOM     76  S   UNL A   1      33.154  37.306  32.279  1.00  0.00     0.124 S 
ATOM     77  O   UNL A   1      34.051  38.045  33.164  1.00  0.00    -0.237 OA
ATOM     78  O   UNL A   1      32.976  37.860  30.943  1.00  0.00    -0.237 OA
ATOM     79  O   UNL A   1      31.936  36.806  32.914  1.00  0.00    -0.744 OA
ENDBRANCH  72  76
ENDBRANCH  55  69
BRANCH  56  80
ATOM     80  C   UNL A   1      44.707  32.599  37.183  1.00  0.00     0.023 A 
ATOM     81  C   UNL A   1      45.520  33.680  37.566  1.00  0.00     0.031 A 
ATOM     82  C   UNL A   1      45.201  31.300  37.400  1.00  0.00     0.131 A 
ATOM     83  C   UNL A   1      46.807  33.444  38.073  1.00  0.00     0.055 A 
ATOM     84  C   UNL A   1      46.454  31.071  37.973  1.00  0.00     0.041 A 
ATOM     85  F   UNL A   1      44.478  30.227  37.040  1.00  0.00    -0.206 F 
ATOM     86  C   UNL A   1      47.275  32.147  38.292  1.00  0.00     0.022 A 
BRANCH  83  87
ATOM     87  S   UNL A   1      47.922  34.859  38.295  1.00  0.00     0.124 S 
ATOM     88  O   UNL A   1      48.170  35.258  36.913  1.00  0.00    -0.237 OA
ATOM     89  O   UNL A   1      47.101  35.769  39.088  1.00  0.00    -0.237 OA
ATOM     90  O   UNL A   1      49.069  34.284  38.994  1.00  0.00    -0.744 OA
ENDBRANCH  83  87
ENDBRANCH  56  80
BRANCH  68  91
ATOM     91  C   UNL A   1      38.076  32.889  39.321  1.00  0.00     0.023 A 
ATOM     92  C   UNL A   1      38.201  33.832  40.356  1.00  0.00     0.031 A 
ATOM     93  C   UNL A   1      37.323  31.729  39.570  1.00  0.00     0.131 A 
ATOM     94  C   UNL A   1      37.620  33.576  41.608  1.00  0.00     0.055 A 
ATOM     95  C   UNL A   1      36.698  31.506  40.798  1.00  0.00     0.041 A 
ATOM     96  F   UNL A   1      37.171  30.794  38.617  1.00  0.00    -0.206 F 
ATOM     97  C   UNL A   1      36.855  32.428  41.829  1.00  0.00     0.022 A 
BRANCH  94  98
ATOM     98  S   UNL A   1      37.937  34.731  42.970  1.00  0.00     0.124 S 
ATOM     99  O   UNL A   1      36.586  35.083  43.390  1.00  0.00    -0.237 OA
ATOM    100  O   UNL A   1      38.702  33.912  43.904  1.00  0.00    -0.237 OA
ATOM    101  O   UNL A   1      38.691  35.811  42.334  1.00  0.00    -0.744 OA
ENDBRANCH  94  98
ENDBRANCH  68  91
ENDBRANCH  42  43
ENDBRANCH  35  37
ENDBRANCH  34  35
ENDBRANCH  33  34
ENDBRANCH  32  33
ENDBRANCH  31  32
ENDBRANCH  30  31
ENDBRANCH  29  30
ENDBRANCH  28  29
ENDBRANCH   1  28
TORSDOF 27
ENDMDL
MODEL 2
REMARK VINA RESULT:      -8.4      2.653      3.924
REMARK SMILES O=C(CC(=O)c1ccccc1)Nc1cccc(C(=O)OCCOCCOCCOCCOC(=O)c2ccc(-c3c4nc(c(-c5cc(S(=O)(=O)[O-])ccc5F)c5ccc([nH]5)c(-c5cc(S(=O)(=O)[O-])ccc5F)c5nc(c(-c6cc(S(=O)(=O)[O-])ccc6F)c6ccc3[nH]6)C=C5)C=C4)cc2)c1
REMARK SMILES IDX 25 1 24 2 23 3 22 4 21 5 20 6 18 7 19 8 17 9 13 10 14 11
REMARK SMILES IDX 98 12 15 13 16 14 12 15 1 16 2 17 3 19 4 20 5 21 6 22 7 23
REMARK SMILES IDX 11 24 8 25 10 26 9 27 26 28 27 29 28 30 29 31 30 32 31 33
REMARK SMILES IDX 32 34 33 35 34 36 35 37 36 38 97 39 37 40 96 41 38 42 39 43
REMARK SMILES IDX 40 44 90 45 41 46 95 47 89 48 91 49 42 50 94 51 88 52 87 53
REMARK SMILES IDX 43 55 75 56 55 57 74 58 56 59 59 60 73 61 92 62 57 63 58 64
REMARK SMILES IDX 72 66 93 67 60 68 44 69 45 70 53 71 46 72 52 73 54 74 51 75
REMARK SMILES IDX 47 76 48 77 49 78 50 79 76 80 77 81 85 82 78 83 84 84 86 85
REMARK SMILES IDX 83 86 79 87 80 88 81 89 82 90 61 91 62 92 70 93 63 94 69 95
REMARK SMILES IDX 71 96 68 97 64 98 65 99 66 100 67 101
REMARK H PARENT 12 18 91 54 59 65
REMARK Flexibility Score: inf
ROOT
ATOM      1  C   UNL A   1      44.241  30.136  31.090  1.00  0.00     0.188 C 
ENDROOT
BRANCH   1   2
ATOM      2  C   UNL A   1      42.788  30.248  31.598  1.00  0.00     0.188 C 
BRANCH   2   3
ATOM      3  O   UNL A   1      42.319  29.103  32.291  1.00  0.00    -0.376 OA
BRANCH   3   4
ATOM      4  C   UNL A   1      41.705  29.300  33.553  1.00  0.00     0.202 C 
BRANCH   4   5
ATOM      5  C   UNL A   1      40.172  29.297  33.567  1.00  0.00     0.261 C 
BRANCH   5   6
ATOM      6  O   UNL A   1      39.567  28.228  32.833  1.00  0.00    -0.460 OA
BRANCH   6   7
ATOM      7  C   UNL A   1      38.255  28.313  32.522  1.00  0.00     0.338 C 
ATOM      8  O   UNL A   1      37.324  28.478  33.288  1.00  0.00    -0.246 OA
BRANCH   7   9
ATOM      9  C   UNL A   1      38.176  28.408  31.043  1.00  0.00     0.062 A 
ATOM     10  C   UNL A   1      39.223  28.090  28.875  1.00  0.00     0.042 A 
ATOM     11  C   UNL A   1      38.230  28.892  28.300  1.00  0.00     0.026 A 
ATOM     12  C   UNL A   1      39.196  27.866  30.251  1.00  0.00     0.041 A 
ATOM     13  C   UNL A   1      37.194  29.414  29.083  1.00  0.00     0.003 A 
ATOM     14  C   UNL A   1      37.157  29.163  30.456  1.00  0.00     0.016 A 
BRANCH  10  15
ATOM     15  N   UNL A   1      40.204  27.530  28.029  1.00  0.00    -0.326 N 
ATOM     16  O   UNL A   1      41.881  29.141  28.220  1.00  0.00    -0.274 OA
ATOM     17  C   UNL A   1      41.460  28.072  27.789  1.00  0.00     0.232 C 
ATOM     18  H   UNL A   1      39.980  26.688  27.572  1.00  0.00     0.169 HD
BRANCH  17  19
ATOM     19  C   UNL A   1      42.369  27.175  27.004  1.00  0.00     0.181 C 
BRANCH  19  20
ATOM     20  C   UNL A   1      41.728  25.950  26.406  1.00  0.00     0.172 C 
ATOM     21  O   UNL A   1      41.040  26.041  25.386  1.00  0.00    -0.294 OA
BRANCH  20  22
ATOM     22  C   UNL A   1      41.938  24.590  26.985  1.00  0.00     0.018 A 
ATOM     23  C   UNL A   1      42.256  24.518  28.348  1.00  0.00     0.012 A 
ATOM     24  C   UNL A   1      41.939  23.414  26.226  1.00  0.00     0.012 A 
ATOM     25  C   UNL A   1      42.572  23.293  28.940  1.00  0.00     0.001 A 
ATOM     26  C   UNL A   1      42.272  22.192  26.817  1.00  0.00     0.001 A 
ATOM     27  C   UNL A   1      42.591  22.131  28.171  1.00  0.00     0.000 A 
ENDBRANCH  20  22
ENDBRANCH  19  20
ENDBRANCH  17  19
ENDBRANCH  10  15
ENDBRANCH   7   9
ENDBRANCH   6   7
ENDBRANCH   5   6
ENDBRANCH   4   5
ENDBRANCH   3   4
ENDBRANCH   2   3
ENDBRANCH   1   2
BRANCH   1  28
ATOM     28  O   UNL A   1      44.555  30.469  29.747  1.00  0.00    -0.377 OA
BRANCH  28  29
ATOM     29  C   UNL A   1      45.787  31.115  29.447  1.00  0.00     0.188 C 
BRANCH  29  30
ATOM     30  C   UNL A   1      46.224  31.331  27.980  1.00  0.00     0.188 C 
BRANCH  30  31
ATOM     31  O   UNL A   1      47.078  32.448  27.772  1.00  0.00    -0.376 OA
BRANCH  31  32
ATOM     32  C   UNL A   1      46.775  33.270  26.657  1.00  0.00     0.202 C 
BRANCH  32  33
ATOM     33  C   UNL A   1      45.309  33.252  26.206  1.00  0.00     0.261 C 
BRANCH  33  34
ATOM     34  O   UNL A   1      44.631  34.518  26.235  1.00  0.00    -0.460 OA
BRANCH  34  35
ATOM     35  C   UNL A   1      44.995  35.406  27.188  1.00  0.00     0.338 C 
ATOM     36  O   UNL A   1      45.711  36.382  27.048  1.00  0.00    -0.246 OA
BRANCH  35  37
ATOM     37  C   UNL A   1      44.218  35.079  28.401  1.00  0.00     0.060 A 
ATOM     38  C   UNL A   1      44.121  36.016  29.439  1.00  0.00     0.016 A 
ATOM     39  C   UNL A   1      43.545  33.860  28.480  1.00  0.00     0.016 A 
ATOM     40  C   UNL A   1      43.342  35.730  30.563  1.00  0.00     0.010 A 
ATOM     41  C   UNL A   1      42.789  33.566  29.615  1.00  0.00     0.010 A 
ATOM     42  C   UNL A   1      42.692  34.493  30.669  1.00  0.00    -0.014 A 
BRANCH  42  43
ATOM     43  C   UNL A   1      42.043  34.074  31.936  1.00  0.00     0.031 A 
ATOM     44  C   UNL A   1      40.546  34.170  32.030  1.00  0.00     0.074 A 
ATOM     45  C   UNL A   1      42.765  33.646  32.988  1.00  0.00     0.049 A 
ATOM     46  N   UNL A   1      39.767  34.028  33.069  1.00  0.00    -0.248 NA
ATOM     47  C   UNL A   1      39.836  34.473  30.778  1.00  0.00     0.031 C 
ATOM     48  C   UNL A   1      44.213  33.444  32.997  1.00  0.00     0.029 A 
ATOM     49  N   UNL A   1      42.374  33.325  34.265  1.00  0.00    -0.354 N 
ATOM     50  C   UNL A   1      38.473  34.217  32.598  1.00  0.00     0.074 A 
ATOM     51  C   UNL A   1      38.577  34.523  31.187  1.00  0.00     0.031 C 
ATOM     52  C   UNL A   1      44.591  33.054  34.228  1.00  0.00     0.029 A 
ATOM     53  C   UNL A   1      43.423  33.031  35.108  1.00  0.00     0.049 A 
ATOM     54  H   UNL A   1      41.433  33.305  34.552  1.00  0.00     0.167 HD
ATOM     55  C   UNL A   1      37.304  34.135  33.278  1.00  0.00     0.034 A 
ATOM     56  C   UNL A   1      43.438  32.817  36.441  1.00  0.00     0.034 A 
ATOM     57  C   UNL A   1      37.216  33.860  34.690  1.00  0.00     0.049 A 
ATOM     58  C   UNL A   1      42.132  32.886  37.207  1.00  0.00     0.074 A 
ATOM     59  C   UNL A   1      36.086  33.780  35.484  1.00  0.00     0.029 A 
ATOM     60  N   UNL A   1      38.304  33.627  35.521  1.00  0.00    -0.354 N 
ATOM     61  N   UNL A   1      40.914  33.081  36.756  1.00  0.00    -0.248 NA
ATOM     62  C   UNL A   1      42.205  32.709  38.666  1.00  0.00     0.031 C 
ATOM     63  C   UNL A   1      36.493  33.567  36.804  1.00  0.00     0.029 A 
ATOM     64  C   UNL A   1      37.871  33.436  36.824  1.00  0.00     0.049 A 
ATOM     65  H   UNL A   1      39.243  33.601  35.229  1.00  0.00     0.167 HD
ATOM     66  C   UNL A   1      40.079  33.012  37.870  1.00  0.00     0.074 A 
ATOM     67  C   UNL A   1      40.926  32.740  39.010  1.00  0.00     0.031 C 
ATOM     68  C   UNL A   1      38.731  33.159  37.949  1.00  0.00     0.034 A 
BRANCH  55  69
ATOM     69  C   UNL A   1      36.035  34.386  32.507  1.00  0.00     0.023 A 
ATOM     70  C   UNL A   1      35.361  35.617  32.587  1.00  0.00     0.031 A 
ATOM     71  C   UNL A   1      35.488  33.384  31.686  1.00  0.00     0.131 A 
ATOM     72  C   UNL A   1      34.152  35.797  31.900  1.00  0.00     0.055 A 
ATOM     73  C   UNL A   1      34.323  33.595  30.948  1.00  0.00     0.041 A 
ATOM     74  F   UNL A   1      36.076  32.181  31.593  1.00  0.00    -0.206 F 
ATOM     75  C   UNL A   1      33.642  34.804  31.060  1.00  0.00     0.022 A 
BRANCH  72  76
ATOM     76  S   UNL A   1      33.196  37.306  32.210  1.00  0.00     0.124 S 
ATOM     77  O   UNL A   1      33.107  37.880  30.870  1.00  0.00    -0.237 OA
ATOM     78  O   UNL A   1      31.954  36.785  32.767  1.00  0.00    -0.237 OA
ATOM     79  O   UNL A   1      34.033  38.055  33.146  1.00  0.00    -0.744 OA
ENDBRANCH  72  76
ENDBRANCH  55  69
BRANCH  56  80
ATOM     80  C   UNL A   1      44.720  32.590  37.176  1.00  0.00     0.023 A 
ATOM     81  C   UNL A   1      45.101  31.298  37.577  1.00  0.00     0.031 A 
ATOM     82  C   UNL A   1      45.520  33.668  37.596  1.00  0.00     0.131 A 
ATOM     83  C   UNL A   1      46.201  31.124  38.432  1.00  0.00     0.055 A 
ATOM     84  C   UNL A   1      46.657  33.481  38.386  1.00  0.00     0.041 A 
ATOM     85  F   UNL A   1      45.198  34.927  37.258  1.00  0.00    -0.206 F 
ATOM     86  C   UNL A   1      46.990  32.206  38.827  1.00  0.00     0.022 A 
BRANCH  83  87
ATOM     87  S   UNL A   1      46.491  29.481  39.145  1.00  0.00     0.124 S 
ATOM     88  O   UNL A   1      47.416  29.789  40.230  1.00  0.00    -0.237 OA
ATOM     89  O   UNL A   1      45.146  29.081  39.543  1.00  0.00    -0.237 OA
ATOM     90  O   UNL A   1      47.063  28.723  38.033  1.00  0.00    -0.744 OA
ENDBRANCH  83  87
ENDBRANCH  56  80
BRANCH  68  91
ATOM     91  C   UNL A   1      38.090  32.972  39.302  1.00  0.00     0.023 A 
ATOM     92  C   UNL A   1      38.228  33.926  40.325  1.00  0.00     0.031 A 
ATOM     93  C   UNL A   1      37.320  31.825  39.567  1.00  0.00     0.131 A 
ATOM     94  C   UNL A   1      37.643  33.695  41.580  1.00  0.00     0.055 A 
ATOM     95  C   UNL A   1      36.693  31.628  40.797  1.00  0.00     0.041 A 
ATOM     96  F   UNL A   1      37.155  30.880  38.626  1.00  0.00    -0.206 F 
ATOM     97  C   UNL A   1      36.862  32.561  41.816  1.00  0.00     0.022 A 
BRANCH  94  98
ATOM     98  S   UNL A   1      37.977  34.863  42.927  1.00  0.00     0.124 S 
ATOM     99  O   UNL A   1      38.540  36.001  42.209  1.00  0.00    -0.237 OA
ATOM    100  O   UNL A   1      36.651  35.065  43.503  1.00  0.00    -0.237 OA
ATOM    101  O   UNL A   1      38.918  34.142  43.782  1.00  0.00    -0.744 OA
ENDBRANCH  94  98
ENDBRANCH  68  91
ENDBRANCH  42  43
ENDBRANCH  35  37
ENDBRANCH  34  35
ENDBRANCH  33  34
ENDBRANCH  32  33
ENDBRANCH  31  32
ENDBRANCH  30  31
ENDBRANCH  29  30
ENDBRANCH  28  29
ENDBRANCH   1  28
TORSDOF 27
ENDMDL
MODEL 3
REMARK VINA RESULT:      -7.5      2.807      8.271
REMARK SMILES O=C(CC(=O)c1ccccc1)Nc1cccc(C(=O)OCCOCCOCCOCCOC(=O)c2ccc(-c3c4nc(c(-c5cc(S(=O)(=O)[O-])ccc5F)c5ccc([nH]5)c(-c5cc(S(=O)(=O)[O-])ccc5F)c5nc(c(-c6cc(S(=O)(=O)[O-])ccc6F)c6ccc3[nH]6)C=C5)C=C4)cc2)c1
REMARK SMILES IDX 25 1 24 2 23 3 22 4 21 5 20 6 18 7 19 8 17 9 13 10 14 11
REMARK SMILES IDX 98 12 15 13 16 14 12 15 1 16 2 17 3 19 4 20 5 21 6 22 7 23
REMARK SMILES IDX 11 24 8 25 10 26 9 27 26 28 27 29 28 30 29 31 30 32 31 33
REMARK SMILES IDX 32 34 33 35 34 36 35 37 36 38 97 39 37 40 96 41 38 42 39 43
REMARK SMILES IDX 40 44 90 45 41 46 95 47 89 48 91 49 42 50 94 51 88 52 87 53
REMARK SMILES IDX 43 55 75 56 55 57 74 58 56 59 59 60 73 61 92 62 57 63 58 64
REMARK SMILES IDX 72 66 93 67 60 68 44 69 45 70 53 71 46 72 52 73 54 74 51 75
REMARK SMILES IDX 47 76 48 77 49 78 50 79 76 80 77 81 85 82 78 83 84 84 86 85
REMARK SMILES IDX 83 86 79 87 80 88 81 89 82 90 61 91 62 92 70 93 63 94 69 95
REMARK SMILES IDX 71 96 68 97 64 98 65 99 66 100 67 101
REMARK H PARENT 12 18 91 54 59 65
REMARK Flexibility Score: inf
ROOT
ATOM      1  C   UNL A   1      44.624  29.562  32.052  1.00  0.00     0.188 C 
ENDROOT
BRANCH   1   2
ATOM      2  C   UNL A   1      43.150  29.732  32.477  1.00  0.00     0.188 C 
BRANCH   2   3
ATOM      3  O   UNL A   1      42.782  28.995  33.631  1.00  0.00    -0.376 OA
BRANCH   3   4
ATOM      4  C   UNL A   1      41.843  29.580  34.518  1.00  0.00     0.202 C 
BRANCH   4   5
ATOM      5  C   UNL A   1      40.372  29.491  34.097  1.00  0.00     0.261 C 
BRANCH   5   6
ATOM      6  O   UNL A   1      40.042  28.348  33.303  1.00  0.00    -0.460 OA
BRANCH   6   7
ATOM      7  C   UNL A   1      38.879  28.346  32.616  1.00  0.00     0.338 C 
ATOM      8  O   UNL A   1      37.755  28.228  33.068  1.00  0.00    -0.246 OA
BRANCH   7   9
ATOM      9  C   UNL A   1      39.207  28.756  31.227  1.00  0.00     0.062 A 
ATOM     10  C   UNL A   1      40.307  28.275  29.117  1.00  0.00     0.042 A 
ATOM     11  C   UNL A   1      40.154  29.618  28.753  1.00  0.00     0.026 A 
ATOM     12  C   UNL A   1      39.843  27.856  30.363  1.00  0.00     0.041 A 
ATOM     13  C   UNL A   1      39.495  30.515  29.603  1.00  0.00     0.003 A 
ATOM     14  C   UNL A   1      39.008  30.083  30.838  1.00  0.00     0.016 A 
BRANCH  10  15
ATOM     15  N   UNL A   1      40.915  27.397  28.194  1.00  0.00    -0.326 N 
ATOM     16  O   UNL A   1      39.125  25.969  27.743  1.00  0.00    -0.274 OA
ATOM     17  C   UNL A   1      40.281  26.339  27.556  1.00  0.00     0.232 C 
ATOM     18  H   UNL A   1      41.865  27.547  27.985  1.00  0.00     0.169 HD
BRANCH  17  19
ATOM     19  C   UNL A   1      41.106  25.693  26.484  1.00  0.00     0.181 C 
BRANCH  19  20
ATOM     20  C   UNL A   1      41.806  24.417  26.873  1.00  0.00     0.172 C 
ATOM     21  O   UNL A   1      41.256  23.608  27.624  1.00  0.00    -0.294 OA
BRANCH  20  22
ATOM     22  C   UNL A   1      43.152  24.061  26.332  1.00  0.00     0.018 A 
ATOM     23  C   UNL A   1      43.945  23.203  27.106  1.00  0.00     0.012 A 
ATOM     24  C   UNL A   1      43.692  24.616  25.167  1.00  0.00     0.012 A 
ATOM     25  C   UNL A   1      45.255  22.909  26.722  1.00  0.00     0.001 A 
ATOM     26  C   UNL A   1      45.009  24.333  24.794  1.00  0.00     0.001 A 
ATOM     27  C   UNL A   1      45.791  23.483  25.571  1.00  0.00     0.000 A 
ENDBRANCH  20  22
ENDBRANCH  19  20
ENDBRANCH  17  19
ENDBRANCH  10  15
ENDBRANCH   7   9
ENDBRANCH   6   7
ENDBRANCH   5   6
ENDBRANCH   4   5
ENDBRANCH   3   4
ENDBRANCH   2   3
ENDBRANCH   1   2
BRANCH   1  28
ATOM     28  O   UNL A   1      44.968  29.504  30.677  1.00  0.00    -0.377 OA
BRANCH  28  29
ATOM     29  C   UNL A   1      46.027  30.314  30.177  1.00  0.00     0.188 C 
BRANCH  29  30
ATOM     30  C   UNL A   1      46.715  29.967  28.837  1.00  0.00     0.188 C 
BRANCH  30  31
ATOM     31  O   UNL A   1      47.465  31.029  28.263  1.00  0.00    -0.376 OA
BRANCH  31  32
ATOM     32  C   UNL A   1      47.029  31.491  26.994  1.00  0.00     0.202 C 
BRANCH  32  33
ATOM     33  C   UNL A   1      45.544  31.260  26.686  1.00  0.00     0.261 C 
BRANCH  33  34
ATOM     34  O   UNL A   1      44.972  32.121  25.690  1.00  0.00    -0.460 OA
BRANCH  34  35
ATOM     35  C   UNL A   1      44.784  33.421  26.012  1.00  0.00     0.338 C 
ATOM     36  O   UNL A   1      44.942  34.388  25.288  1.00  0.00    -0.246 OA
BRANCH  35  37
ATOM     37  C   UNL A   1      44.175  33.447  27.357  1.00  0.00     0.060 A 
ATOM     38  C   UNL A   1      43.621  32.276  27.893  1.00  0.00     0.016 A 
ATOM     39  C   UNL A   1      44.202  34.625  28.104  1.00  0.00     0.016 A 
ATOM     40  C   UNL A   1      43.094  32.285  29.187  1.00  0.00     0.010 A 
ATOM     41  C   UNL A   1      43.651  34.638  29.386  1.00  0.00     0.010 A 
ATOM     42  C   UNL A   1      43.083  33.473  29.931  1.00  0.00    -0.014 A 
BRANCH  42  43
ATOM     43  C   UNL A   1      42.337  33.569  31.211  1.00  0.00     0.031 A 
ATOM     44  C   UNL A   1      43.086  33.304  32.487  1.00  0.00     0.074 A 
ATOM     45  C   UNL A   1      41.023  33.856  31.239  1.00  0.00     0.049 A 
ATOM     46  N   UNL A   1      42.631  33.160  33.703  1.00  0.00    -0.248 NA
ATOM     47  C   UNL A   1      44.547  33.179  32.368  1.00  0.00     0.031 C 
ATOM     48  C   UNL A   1      40.204  34.199  30.077  1.00  0.00     0.029 A 
ATOM     49  N   UNL A   1      40.139  33.881  32.291  1.00  0.00    -0.354 N 
ATOM     50  C   UNL A   1      43.749  32.935  34.499  1.00  0.00     0.074 A 
ATOM     51  C   UNL A   1      44.898  32.922  33.619  1.00  0.00     0.031 C 
ATOM     52  C   UNL A   1      38.933  34.379  30.478  1.00  0.00     0.029 A 
ATOM     53  C   UNL A   1      38.835  34.110  31.913  1.00  0.00     0.049 A 
ATOM     54  H   UNL A   1      40.412  33.748  33.227  1.00  0.00     0.167 HD
ATOM     55  C   UNL A   1      43.811  32.764  35.841  1.00  0.00     0.034 A 
ATOM     56  C   UNL A   1      37.696  34.062  32.635  1.00  0.00     0.034 A 
ATOM     57  C   UNL A   1      42.656  32.749  36.702  1.00  0.00     0.049 A 
ATOM     58  C   UNL A   1      37.778  33.713  34.108  1.00  0.00     0.074 A 
ATOM     59  C   UNL A   1      42.603  32.556  38.071  1.00  0.00     0.029 A 
ATOM     60  N   UNL A   1      41.347  32.926  36.274  1.00  0.00    -0.354 N 
ATOM     61  N   UNL A   1      38.838  33.485  34.850  1.00  0.00    -0.248 NA
ATOM     62  C   UNL A   1      36.506  33.609  34.840  1.00  0.00     0.031 C 
ATOM     63  C   UNL A   1      41.261  32.550  38.461  1.00  0.00     0.029 A 
ATOM     64  C   UNL A   1      40.479  32.815  37.349  1.00  0.00     0.049 A 
ATOM     65  H   UNL A   1      41.075  33.103  35.345  1.00  0.00     0.167 HD
ATOM     66  C   UNL A   1      38.360  33.251  36.138  1.00  0.00     0.074 A 
ATOM     67  C   UNL A   1      36.921  33.381  36.078  1.00  0.00     0.031 C 
ATOM     68  C   UNL A   1      39.044  32.954  37.272  1.00  0.00     0.034 A 
BRANCH  55  69
ATOM     69  C   UNL A   1      45.171  32.538  36.448  1.00  0.00     0.023 A 
ATOM     70  C   UNL A   1      45.941  33.608  36.937  1.00  0.00     0.031 A 
ATOM     71  C   UNL A   1      45.708  31.242  36.537  1.00  0.00     0.131 A 
ATOM     72  C   UNL A   1      47.226  33.368  37.443  1.00  0.00     0.055 A 
ATOM     73  C   UNL A   1      46.957  31.002  37.109  1.00  0.00     0.041 A 
ATOM     74  F   UNL A   1      45.026  30.186  36.063  1.00  0.00    -0.206 F 
ATOM     75  C   UNL A   1      47.729  32.070  37.558  1.00  0.00     0.022 A 
BRANCH  72  76
ATOM     76  S   UNL A   1      48.277  34.790  37.846  1.00  0.00     0.124 S 
ATOM     77  O   UNL A   1      49.548  34.140  38.156  1.00  0.00    -0.237 OA
ATOM     78  O   UNL A   1      48.241  35.569  36.614  1.00  0.00    -0.237 OA
ATOM     79  O   UNL A   1      47.603  35.401  38.989  1.00  0.00    -0.744 OA
ENDBRANCH  72  76
ENDBRANCH  55  69
BRANCH  56  80
ATOM     80  C   UNL A   1      36.361  34.272  31.995  1.00  0.00     0.023 A 
ATOM     81  C   UNL A   1      35.597  35.417  32.280  1.00  0.00     0.031 A 
ATOM     82  C   UNL A   1      35.776  33.280  31.187  1.00  0.00     0.131 A 
ATOM     83  C   UNL A   1      34.271  35.506  31.829  1.00  0.00     0.055 A 
ATOM     84  C   UNL A   1      34.482  33.408  30.679  1.00  0.00     0.041 A 
ATOM     85  F   UNL A   1      36.450  32.156  30.893  1.00  0.00    -0.206 F 
ATOM     86  C   UNL A   1      33.713  34.516  31.018  1.00  0.00     0.022 A 
BRANCH  83  87
ATOM     87  S   UNL A   1      33.236  36.863  32.447  1.00  0.00     0.124 S 
ATOM     88  O   UNL A   1      33.110  37.701  31.260  1.00  0.00    -0.237 OA
ATOM     89  O   UNL A   1      32.030  36.157  32.865  1.00  0.00    -0.237 OA
ATOM     90  O   UNL A   1      34.033  37.432  33.532  1.00  0.00    -0.744 OA
ENDBRANCH  83  87
ENDBRANCH  56  80
BRANCH  68  91
ATOM     91  C   UNL A   1      38.248  32.808  38.546  1.00  0.00     0.023 A 
ATOM     92  C   UNL A   1      38.299  33.775  39.565  1.00  0.00     0.031 A 
ATOM     93  C   UNL A   1      37.419  31.688  38.736  1.00  0.00     0.131 A 
ATOM     94  C   UNL A   1      37.569  33.581  40.748  1.00  0.00     0.055 A 
ATOM     95  C   UNL A   1      36.651  31.530  39.890  1.00  0.00     0.041 A 
ATOM     96  F   UNL A   1      37.333  30.733  37.796  1.00  0.00    -0.206 F 
ATOM     97  C   UNL A   1      36.732  32.474  40.909  1.00  0.00     0.022 A 
BRANCH  94  98
ATOM     98  S   UNL A   1      37.783  34.762  42.108  1.00  0.00     0.124 S 
ATOM     99  O   UNL A   1      38.964  34.237  42.783  1.00  0.00    -0.237 OA
ATOM    100  O   UNL A   1      37.962  36.026  41.401  1.00  0.00    -0.237 OA
ATOM    101  O   UNL A   1      36.535  34.648  42.862  1.00  0.00    -0.744 OA
ENDBRANCH  94  98
ENDBRANCH  68  91
ENDBRANCH  42  43
ENDBRANCH  35  37
ENDBRANCH  34  35
ENDBRANCH  33  34
ENDBRANCH  32  33
ENDBRANCH  31  32
ENDBRANCH  30  31
ENDBRANCH  29  30
ENDBRANCH  28  29
ENDBRANCH   1  28
TORSDOF 27
ENDMDL
