MODEL 1
REMARK VINA RESULT:     -10.4      0.000      0.000
REMARK SMILES N#CC1=C(N)N2C(=O)[C@@H](CC(=O)OCCOCCOCCOCCOC(=O)c3ccc(-c4c5nc(c(-c6cc(S(=O)(=O)[O-])ccc6F)c6ccc([nH]6)c(-c6cc(S(=O)(=O)[O-])ccc6F)c6nc(c(-c7cc(S(=O)(=O)[O-])ccc7F)c7ccc4[nH]7)C=C6)C=C5)cc3)SC2=C(C#N)[C@H]1c1ccc(Cl)cc1
REMARK SMILES IDX 20 1 19 2 18 3 17 4 16 5 15 6 14 7 13 8 11 9 12 10 10 11
REMARK SMILES IDX 9 12 3 13 4 14 96 15 6 16 93 17 7 18 92 19 8 20 91 21 2 22
REMARK SMILES IDX 1 23 5 24 97 27 98 28 103 29 99 30 102 31 100 32 101 33
REMARK SMILES IDX 94 34 95 35 21 36 22 37 23 38 24 39 25 40 26 41 27 42 28 43
REMARK SMILES IDX 29 44 90 45 30 46 89 47 31 48 32 49 33 50 83 51 34 52 88 53
REMARK SMILES IDX 82 54 84 55 35 56 87 57 81 58 80 59 36 61 68 62 48 63 67 64
REMARK SMILES IDX 49 65 52 66 66 67 85 68 50 69 51 70 65 72 86 73 53 74 37 75
REMARK SMILES IDX 38 76 46 77 39 78 45 79 47 80 44 81 40 82 41 83 42 84 43 85
REMARK SMILES IDX 69 86 70 87 78 88 71 89 77 90 79 91 76 92 72 93 73 94 74 95
REMARK SMILES IDX 75 96 54 97 55 98 63 99 56 100 62 101 64 102 61 103 57 104
REMARK SMILES IDX 58 105 59 106 60 107
REMARK H PARENT 5 25 5 26 84 60 52 71
REMARK Flexibility Score: inf
ROOT
ATOM      1  C   UNL A   1      34.950  17.263  24.258  1.00  0.00     0.188 C 
ENDROOT
BRANCH   1   2
ATOM      2  O   UNL A   1      33.907  17.141  23.296  1.00  0.00    -0.377 OA
BRANCH   2   3
ATOM      3  C   UNL A   1      32.620  17.679  23.473  1.00  0.00     0.188 C 
BRANCH   3   4
ATOM      4  C   UNL A   1      32.539  19.188  23.691  1.00  0.00     0.188 C 
BRANCH   4   5
ATOM      5  O   UNL A   1      32.056  19.631  24.944  1.00  0.00    -0.376 OA
BRANCH   5   6
ATOM      6  C   UNL A   1      32.944  19.614  26.059  1.00  0.00     0.202 C 
BRANCH   6   7
ATOM      7  C   UNL A   1      33.617  20.920  26.530  1.00  0.00     0.261 C 
BRANCH   7   8
ATOM      8  O   UNL A   1      34.698  21.384  25.674  1.00  0.00    -0.463 OA
BRANCH   8   9
ATOM      9  C   UNL A   1      34.704  22.705  25.375  1.00  0.00     0.307 C 
ATOM     10  O   UNL A   1      35.027  23.579  26.178  1.00  0.00    -0.252 OA
BRANCH   9  11
ATOM     11  C   UNL A   1      34.585  23.031  23.891  1.00  0.00     0.147 C 
BRANCH  11  12
ATOM     12  C   UNL A   1      33.324  22.835  23.044  1.00  0.00     0.154 C 
ATOM     13  C   UNL A   1      31.387  27.216  22.827  1.00  0.00     0.083 C 
ATOM     14  C   UNL A   1      31.724  26.132  22.055  1.00  0.00     0.126 C 
ATOM     15  C   UNL A   1      31.082  26.980  24.322  1.00  0.00     0.107 C 
ATOM     16  N   UNL A   1      32.133  24.929  22.667  1.00  0.00    -0.258 N 
ATOM     17  C   UNL A   1      30.941  25.493  24.650  1.00  0.00     0.073 C 
ATOM     18  C   UNL A   1      32.906  23.917  22.045  1.00  0.00     0.247 C 
ATOM     19  C   UNL A   1      31.600  24.606  23.889  1.00  0.00     0.099 C 
ATOM     20  O   UNL A   1      33.193  23.852  20.852  1.00  0.00    -0.273 OA
ATOM     21  S   UNL A   1      31.882  22.929  24.255  1.00  0.00    -0.093 SA
BRANCH  13  22
ATOM     22  C   UNL A   1      30.938  28.557  22.270  1.00  0.00     0.100 C 
ATOM     23  N   UNL A   1      30.565  29.670  21.808  1.00  0.00    -0.193 NA
ENDBRANCH  13  22
BRANCH  14  24
ATOM     24  N   UNL A   1      31.667  26.114  20.686  1.00  0.00    -0.384 N 
ATOM     25  H   UNL A   1      30.839  26.383  20.225  1.00  0.00     0.158 HD
ATOM     26  H   UNL A   1      32.452  25.832  20.164  1.00  0.00     0.158 HD
ENDBRANCH  14  24
BRANCH  15  27
ATOM     27  C   UNL A   1      32.068  27.680  25.277  1.00  0.00    -0.034 A 
ATOM     28  C   UNL A   1      33.467  27.493  25.197  1.00  0.00     0.006 A 
ATOM     29  C   UNL A   1      31.582  28.500  26.310  1.00  0.00     0.006 A 
ATOM     30  C   UNL A   1      34.337  28.093  26.109  1.00  0.00     0.021 A 
ATOM     31  C   UNL A   1      32.457  29.120  27.209  1.00  0.00     0.021 A 
ATOM     32  C   UNL A   1      33.829  28.910  27.109  1.00  0.00     0.041 A 
ATOM     33  Cl  UNL A   1      34.900  29.651  28.230  1.00  0.00    -0.084 Cl
ENDBRANCH  15  27
BRANCH  17  34
ATOM     34  C   UNL A   1      30.205  25.109  25.804  1.00  0.00     0.098 C 
ATOM     35  N   UNL A   1      29.598  24.822  26.757  1.00  0.00    -0.193 NA
ENDBRANCH  17  34
ENDBRANCH  11  12
ENDBRANCH   9  11
ENDBRANCH   8   9
ENDBRANCH   7   8
ENDBRANCH   6   7
ENDBRANCH   5   6
ENDBRANCH   4   5
ENDBRANCH   3   4
ENDBRANCH   2   3
ENDBRANCH   1   2
BRANCH   1  36
ATOM     36  C   UNL A   1      35.753  18.561  24.457  1.00  0.00     0.188 C 
BRANCH  36  37
ATOM     37  O   UNL A   1      37.065  18.558  25.007  1.00  0.00    -0.376 OA
BRANCH  37  38
ATOM     38  C   UNL A   1      37.873  19.702  24.819  1.00  0.00     0.202 C 
BRANCH  38  39
ATOM     39  C   UNL A   1      39.151  19.829  25.645  1.00  0.00     0.261 C 
BRANCH  39  40
ATOM     40  O   UNL A   1      39.327  21.168  26.069  1.00  0.00    -0.460 OA
BRANCH  40  41
ATOM     41  C   UNL A   1      40.625  21.427  26.297  1.00  0.00     0.338 C 
ATOM     42  O   UNL A   1      41.603  20.878  25.828  1.00  0.00    -0.246 OA
BRANCH  41  43
ATOM     43  C   UNL A   1      40.679  22.669  27.040  1.00  0.00     0.060 A 
ATOM     44  C   UNL A   1      40.012  23.733  26.436  1.00  0.00     0.016 A 
ATOM     45  C   UNL A   1      41.434  22.797  28.209  1.00  0.00     0.016 A 
ATOM     46  C   UNL A   1      40.207  24.993  26.931  1.00  0.00     0.010 A 
ATOM     47  C   UNL A   1      41.644  24.074  28.700  1.00  0.00     0.010 A 
ATOM     48  C   UNL A   1      41.097  25.160  27.999  1.00  0.00    -0.014 A 
BRANCH  48  49
ATOM     49  C   UNL A   1      41.660  26.502  28.144  1.00  0.00     0.031 A 
ATOM     50  C   UNL A   1      40.829  27.533  28.848  1.00  0.00     0.074 A 
ATOM     51  C   UNL A   1      42.941  26.691  27.809  1.00  0.00     0.049 A 
ATOM     52  N   UNL A   1      41.123  28.771  29.129  1.00  0.00    -0.248 NA
ATOM     53  C   UNL A   1      39.489  27.114  29.303  1.00  0.00     0.031 C 
ATOM     54  C   UNL A   1      43.815  25.670  27.227  1.00  0.00     0.029 A 
ATOM     55  N   UNL A   1      43.732  27.791  27.936  1.00  0.00    -0.354 N 
ATOM     56  C   UNL A   1      40.004  29.281  29.780  1.00  0.00     0.074 A 
ATOM     57  C   UNL A   1      39.012  28.234  29.821  1.00  0.00     0.031 C 
ATOM     58  C   UNL A   1      45.033  26.200  27.044  1.00  0.00     0.029 A 
ATOM     59  C   UNL A   1      44.994  27.604  27.437  1.00  0.00     0.049 A 
ATOM     60  H   UNL A   1      43.429  28.633  28.343  1.00  0.00     0.167 HD
ATOM     61  C   UNL A   1      39.843  30.520  30.298  1.00  0.00     0.034 A 
ATOM     62  C   UNL A   1      45.982  28.499  27.280  1.00  0.00     0.034 A 
ATOM     63  C   UNL A   1      40.871  31.526  30.226  1.00  0.00     0.049 A 
ATOM     64  C   UNL A   1      45.732  29.905  27.760  1.00  0.00     0.074 A 
ATOM     65  C   UNL A   1      40.839  32.825  30.692  1.00  0.00     0.029 A 
ATOM     66  N   UNL A   1      42.118  31.339  29.638  1.00  0.00    -0.354 N 
ATOM     67  N   UNL A   1      44.662  30.400  28.346  1.00  0.00    -0.248 NA
ATOM     68  C   UNL A   1      46.819  30.866  27.572  1.00  0.00     0.031 C 
ATOM     69  C   UNL A   1      42.027  33.450  30.305  1.00  0.00     0.029 A 
ATOM     70  C   UNL A   1      42.848  32.512  29.694  1.00  0.00     0.049 A 
ATOM     71  H   UNL A   1      42.435  30.495  29.241  1.00  0.00     0.167 HD
ATOM     72  C   UNL A   1      44.964  31.727  28.625  1.00  0.00     0.074 A 
ATOM     73  C   UNL A   1      46.322  31.943  28.162  1.00  0.00     0.031 C 
ATOM     74  C   UNL A   1      44.199  32.685  29.212  1.00  0.00     0.034 A 
BRANCH  61  75
ATOM     75  C   UNL A   1      38.506  30.861  30.905  1.00  0.00     0.023 A 
ATOM     76  C   UNL A   1      37.566  31.669  30.243  1.00  0.00     0.031 A 
ATOM     77  C   UNL A   1      38.175  30.382  32.185  1.00  0.00     0.131 A 
ATOM     78  C   UNL A   1      36.365  32.015  30.884  1.00  0.00     0.055 A 
ATOM     79  C   UNL A   1      36.946  30.661  32.783  1.00  0.00     0.041 A 
ATOM     80  F   UNL A   1      39.050  29.640  32.884  1.00  0.00    -0.206 F 
ATOM     81  C   UNL A   1      36.036  31.491  32.137  1.00  0.00     0.022 A 
BRANCH  78  82
ATOM     82  S   UNL A   1      35.301  33.270  30.121  1.00  0.00     0.124 S 
ATOM     83  O   UNL A   1      34.992  34.127  31.262  1.00  0.00    -0.237 OA
ATOM     84  O   UNL A   1      36.173  33.847  29.104  1.00  0.00    -0.237 OA
ATOM     85  O   UNL A   1      34.172  32.495  29.608  1.00  0.00    -0.744 OA
ENDBRANCH  78  82
ENDBRANCH  61  75
BRANCH  62  86
ATOM     86  C   UNL A   1      47.244  28.109  26.600  1.00  0.00     0.023 A 
ATOM     87  C   UNL A   1      47.354  28.156  25.206  1.00  0.00     0.031 A 
ATOM     88  C   UNL A   1      48.347  27.636  27.337  1.00  0.00     0.131 A 
ATOM     89  C   UNL A   1      48.512  27.671  24.584  1.00  0.00     0.055 A 
ATOM     90  C   UNL A   1      49.527  27.227  26.717  1.00  0.00     0.041 A 
ATOM     91  F   UNL A   1      48.297  27.573  28.676  1.00  0.00    -0.206 F 
ATOM     92  C   UNL A   1      49.606  27.224  25.328  1.00  0.00     0.022 A 
BRANCH  89  93
ATOM     93  S   UNL A   1      48.509  27.509  22.780  1.00  0.00     0.124 S 
ATOM     94  O   UNL A   1      48.395  26.064  22.616  1.00  0.00    -0.237 OA
ATOM     95  O   UNL A   1      47.336  28.292  22.409  1.00  0.00    -0.237 OA
ATOM     96  O   UNL A   1      49.793  28.084  22.387  1.00  0.00    -0.744 OA
ENDBRANCH  89  93
ENDBRANCH  62  86
BRANCH  74  97
ATOM     97  C   UNL A   1      44.846  34.029  29.428  1.00  0.00     0.023 A 
ATOM     98  C   UNL A   1      44.705  35.074  28.501  1.00  0.00     0.031 A 
ATOM     99  C   UNL A   1      45.623  34.260  30.578  1.00  0.00     0.131 A 
ATOM    100  C   UNL A   1      45.393  36.277  28.702  1.00  0.00     0.055 A 
ATOM    101  C   UNL A   1      46.233  35.490  30.814  1.00  0.00     0.041 A 
ATOM    102  F   UNL A   1      45.794  33.293  31.493  1.00  0.00    -0.206 F 
ATOM    103  C   UNL A   1      46.133  36.502  29.865  1.00  0.00     0.022 A 
BRANCH 100 104
ATOM    104  S   UNL A   1      45.408  37.496  27.361  1.00  0.00     0.124 S 
ATOM    105  O   UNL A   1      46.294  36.863  26.388  1.00  0.00    -0.237 OA
ATOM    106  O   UNL A   1      44.000  37.569  26.986  1.00  0.00    -0.237 OA
ATOM    107  O   UNL A   1      45.944  38.697  27.997  1.00  0.00    -0.744 OA
ENDBRANCH 100 104
ENDBRANCH  74  97
ENDBRANCH  48  49
ENDBRANCH  41  43
ENDBRANCH  40  41
ENDBRANCH  39  40
ENDBRANCH  38  39
ENDBRANCH  37  38
ENDBRANCH  36  37
ENDBRANCH   1  36
TORSDOF 28
ENDMDL
MODEL 2
REMARK VINA RESULT:     -10.4      1.738      2.070
REMARK SMILES N#CC1=C(N)N2C(=O)[C@@H](CC(=O)OCCOCCOCCOCCOC(=O)c3ccc(-c4c5nc(c(-c6cc(S(=O)(=O)[O-])ccc6F)c6ccc([nH]6)c(-c6cc(S(=O)(=O)[O-])ccc6F)c6nc(c(-c7cc(S(=O)(=O)[O-])ccc7F)c7ccc4[nH]7)C=C6)C=C5)cc3)SC2=C(C#N)[C@H]1c1ccc(Cl)cc1
REMARK SMILES IDX 20 1 19 2 18 3 17 4 16 5 15 6 14 7 13 8 11 9 12 10 10 11
REMARK SMILES IDX 9 12 3 13 4 14 96 15 6 16 93 17 7 18 92 19 8 20 91 21 2 22
REMARK SMILES IDX 1 23 5 24 97 27 98 28 103 29 99 30 102 31 100 32 101 33
REMARK SMILES IDX 94 34 95 35 21 36 22 37 23 38 24 39 25 40 26 41 27 42 28 43
REMARK SMILES IDX 29 44 90 45 30 46 89 47 31 48 32 49 33 50 83 51 34 52 88 53
REMARK SMILES IDX 82 54 84 55 35 56 87 57 81 58 80 59 36 61 68 62 48 63 67 64
REMARK SMILES IDX 49 65 52 66 66 67 85 68 50 69 51 70 65 72 86 73 53 74 37 75
REMARK SMILES IDX 38 76 46 77 39 78 45 79 47 80 44 81 40 82 41 83 42 84 43 85
REMARK SMILES IDX 69 86 70 87 78 88 71 89 77 90 79 91 76 92 72 93 73 94 74 95
REMARK SMILES IDX 75 96 54 97 55 98 63 99 56 100 62 101 64 102 61 103 57 104
REMARK SMILES IDX 58 105 59 106 60 107
REMARK H PARENT 5 25 5 26 84 60 52 71
REMARK Flexibility Score: inf
ROOT
ATOM      1  C   UNL A   1      34.750  17.198  24.337  1.00  0.00     0.188 C 
ENDROOT
BRANCH   1   2
ATOM      2  O   UNL A   1      33.651  17.202  23.433  1.00  0.00    -0.377 OA
BRANCH   2   3
ATOM      3  C   UNL A   1      32.413  17.805  23.718  1.00  0.00     0.188 C 
BRANCH   3   4
ATOM      4  C   UNL A   1      32.415  19.324  23.866  1.00  0.00     0.188 C 
BRANCH   4   5
ATOM      5  O   UNL A   1      32.092  19.845  25.140  1.00  0.00    -0.376 OA
BRANCH   5   6
ATOM      6  C   UNL A   1      33.100  19.845  26.149  1.00  0.00     0.202 C 
BRANCH   6   7
ATOM      7  C   UNL A   1      33.600  21.179  26.741  1.00  0.00     0.261 C 
BRANCH   7   8
ATOM      8  O   UNL A   1      34.724  21.770  26.032  1.00  0.00    -0.463 OA
BRANCH   8   9
ATOM      9  C   UNL A   1      34.555  23.038  25.585  1.00  0.00     0.307 C 
ATOM     10  O   UNL A   1      34.678  24.030  26.300  1.00  0.00    -0.252 OA
BRANCH   9  11
ATOM     11  C   UNL A   1      34.505  23.185  24.068  1.00  0.00     0.147 C 
BRANCH  11  12
ATOM     12  C   UNL A   1      33.266  22.948  23.200  1.00  0.00     0.154 C 
ATOM     13  C   UNL A   1      31.291  27.298  22.793  1.00  0.00     0.083 C 
ATOM     14  C   UNL A   1      31.656  26.193  22.065  1.00  0.00     0.126 C 
ATOM     15  C   UNL A   1      30.954  27.108  24.288  1.00  0.00     0.107 C 
ATOM     16  N   UNL A   1      32.063  25.014  22.726  1.00  0.00    -0.258 N 
ATOM     17  C   UNL A   1      30.820  25.631  24.661  1.00  0.00     0.073 C 
ATOM     18  C   UNL A   1      32.861  23.991  22.156  1.00  0.00     0.247 C 
ATOM     19  C   UNL A   1      31.505  24.726  23.946  1.00  0.00     0.099 C 
ATOM     20  O   UNL A   1      33.175  23.890  20.973  1.00  0.00    -0.273 OA
ATOM     21  S   UNL A   1      31.796  23.066  24.374  1.00  0.00    -0.093 SA
BRANCH  13  22
ATOM     22  C   UNL A   1      30.842  28.615  22.182  1.00  0.00     0.100 C 
ATOM     23  N   UNL A   1      30.469  29.708  21.675  1.00  0.00    -0.193 NA
ENDBRANCH  13  22
BRANCH  14  24
ATOM     24  N   UNL A   1      31.631  26.129  20.697  1.00  0.00    -0.384 N 
ATOM     25  H   UNL A   1      31.352  26.914  20.173  1.00  0.00     0.158 HD
ATOM     26  H   UNL A   1      31.892  25.298  20.238  1.00  0.00     0.158 HD
ENDBRANCH  14  24
BRANCH  15  27
ATOM     27  C   UNL A   1      31.911  27.850  25.241  1.00  0.00    -0.034 A 
ATOM     28  C   UNL A   1      31.648  29.154  25.719  1.00  0.00     0.006 A 
ATOM     29  C   UNL A   1      33.123  27.252  25.624  1.00  0.00     0.006 A 
ATOM     30  C   UNL A   1      32.557  29.830  26.536  1.00  0.00     0.021 A 
ATOM     31  C   UNL A   1      34.022  27.920  26.462  1.00  0.00     0.021 A 
ATOM     32  C   UNL A   1      33.739  29.206  26.910  1.00  0.00     0.041 A 
ATOM     33  Cl  UNL A   1      34.857  30.036  27.917  1.00  0.00    -0.084 Cl
ENDBRANCH  15  27
BRANCH  17  34
ATOM     34  C   UNL A   1      30.062  25.278  25.811  1.00  0.00     0.098 C 
ATOM     35  N   UNL A   1      29.416  24.993  26.739  1.00  0.00    -0.193 NA
ENDBRANCH  17  34
ENDBRANCH  11  12
ENDBRANCH   9  11
ENDBRANCH   8   9
ENDBRANCH   7   8
ENDBRANCH   6   7
ENDBRANCH   5   6
ENDBRANCH   4   5
ENDBRANCH   3   4
ENDBRANCH   2   3
ENDBRANCH   1   2
BRANCH   1  36
ATOM     36  C   UNL A   1      35.622  18.440  24.596  1.00  0.00     0.188 C 
BRANCH  36  37
ATOM     37  O   UNL A   1      36.992  18.335  24.965  1.00  0.00    -0.376 OA
BRANCH  37  38
ATOM     38  C   UNL A   1      37.787  19.503  24.931  1.00  0.00     0.202 C 
BRANCH  38  39
ATOM     39  C   UNL A   1      39.150  19.471  25.618  1.00  0.00     0.261 C 
BRANCH  39  40
ATOM     40  O   UNL A   1      39.592  20.788  25.887  1.00  0.00    -0.460 OA
BRANCH  40  41
ATOM     41  C   UNL A   1      40.736  20.771  26.591  1.00  0.00     0.338 C 
ATOM     42  O   UNL A   1      41.628  19.946  26.569  1.00  0.00    -0.246 OA
BRANCH  41  43
ATOM     43  C   UNL A   1      40.851  22.064  27.232  1.00  0.00     0.060 A 
ATOM     44  C   UNL A   1      40.182  23.096  26.577  1.00  0.00     0.016 A 
ATOM     45  C   UNL A   1      41.661  22.261  28.354  1.00  0.00     0.016 A 
ATOM     46  C   UNL A   1      40.428  24.384  26.964  1.00  0.00     0.010 A 
ATOM     47  C   UNL A   1      41.921  23.566  28.736  1.00  0.00     0.010 A 
ATOM     48  C   UNL A   1      41.368  24.609  27.977  1.00  0.00    -0.014 A 
BRANCH  48  49
ATOM     49  C   UNL A   1      41.967  25.943  27.994  1.00  0.00     0.031 A 
ATOM     50  C   UNL A   1      41.244  27.022  28.744  1.00  0.00     0.074 A 
ATOM     51  C   UNL A   1      43.203  26.089  27.501  1.00  0.00     0.049 A 
ATOM     52  N   UNL A   1      41.591  28.264  28.932  1.00  0.00    -0.248 NA
ATOM     53  C   UNL A   1      39.961  26.652  29.373  1.00  0.00     0.031 C 
ATOM     54  C   UNL A   1      43.983  25.024  26.866  1.00  0.00     0.029 A 
ATOM     55  N   UNL A   1      44.021  27.175  27.483  1.00  0.00    -0.354 N 
ATOM     56  C   UNL A   1      40.567  28.826  29.687  1.00  0.00     0.074 A 
ATOM     57  C   UNL A   1      39.569  27.804  29.892  1.00  0.00     0.031 C 
ATOM     58  C   UNL A   1      45.179  25.519  26.516  1.00  0.00     0.029 A 
ATOM     59  C   UNL A   1      45.212  26.939  26.847  1.00  0.00     0.049 A 
ATOM     60  H   UNL A   1      43.784  28.041  27.886  1.00  0.00     0.167 HD
ATOM     61  C   UNL A   1      40.490  30.089  30.164  1.00  0.00     0.034 A 
ATOM     62  C   UNL A   1      46.189  27.804  26.534  1.00  0.00     0.034 A 
ATOM     63  C   UNL A   1      41.518  31.068  29.925  1.00  0.00     0.049 A 
ATOM     64  C   UNL A   1      46.022  29.235  26.977  1.00  0.00     0.074 A 
ATOM     65  C   UNL A   1      41.565  32.386  30.333  1.00  0.00     0.029 A 
ATOM     66  N   UNL A   1      42.683  30.828  29.203  1.00  0.00    -0.354 N 
ATOM     67  N   UNL A   1      45.039  29.778  27.662  1.00  0.00    -0.248 NA
ATOM     68  C   UNL A   1      47.095  30.163  26.618  1.00  0.00     0.031 C 
ATOM     69  C   UNL A   1      42.709  32.967  29.780  1.00  0.00     0.029 A 
ATOM     70  C   UNL A   1      43.435  31.986  29.119  1.00  0.00     0.049 A 
ATOM     71  H   UNL A   1      42.936  29.961  28.810  1.00  0.00     0.167 HD
ATOM     72  C   UNL A   1      45.394  31.109  27.844  1.00  0.00     0.074 A 
ATOM     73  C   UNL A   1      46.691  31.274  27.213  1.00  0.00     0.031 C 
ATOM     74  C   UNL A   1      44.722  32.108  28.473  1.00  0.00     0.034 A 
BRANCH  61  75
ATOM     75  C   UNL A   1      39.241  30.486  30.909  1.00  0.00     0.023 A 
ATOM     76  C   UNL A   1      38.232  31.267  30.320  1.00  0.00     0.031 A 
ATOM     77  C   UNL A   1      39.067  30.088  32.247  1.00  0.00     0.131 A 
ATOM     78  C   UNL A   1      37.123  31.668  31.082  1.00  0.00     0.055 A 
ATOM     79  C   UNL A   1      37.924  30.421  32.974  1.00  0.00     0.041 A 
ATOM     80  F   UNL A   1      40.016  29.376  32.876  1.00  0.00    -0.206 F 
ATOM     81  C   UNL A   1      36.947  31.224  32.395  1.00  0.00     0.022 A 
BRANCH  78  82
ATOM     82  S   UNL A   1      35.982  32.892  30.381  1.00  0.00     0.124 S 
ATOM     83  O   UNL A   1      36.381  32.895  28.976  1.00  0.00    -0.237 OA
ATOM     84  O   UNL A   1      34.677  32.312  30.675  1.00  0.00    -0.237 OA
ATOM     85  O   UNL A   1      36.300  34.116  31.114  1.00  0.00    -0.744 OA
ENDBRANCH  78  82
ENDBRANCH  61  75
BRANCH  62  86
ATOM     86  C   UNL A   1      47.354  27.357  25.728  1.00  0.00     0.023 A 
ATOM     87  C   UNL A   1      48.467  26.767  26.336  1.00  0.00     0.031 A 
ATOM     88  C   UNL A   1      47.388  27.557  24.334  1.00  0.00     0.131 A 
ATOM     89  C   UNL A   1      49.598  26.463  25.568  1.00  0.00     0.055 A 
ATOM     90  C   UNL A   1      48.487  27.181  23.562  1.00  0.00     0.041 A 
ATOM     91  F   UNL A   1      46.346  28.115  23.699  1.00  0.00    -0.206 F 
ATOM     92  C   UNL A   1      49.611  26.647  24.183  1.00  0.00     0.022 A 
BRANCH  89  93
ATOM     93  S   UNL A   1      51.104  25.946  26.432  1.00  0.00     0.124 S 
ATOM     94  O   UNL A   1      52.013  25.706  25.318  1.00  0.00    -0.237 OA
ATOM     95  O   UNL A   1      51.393  27.113  27.258  1.00  0.00    -0.237 OA
ATOM     96  O   UNL A   1      50.681  24.753  27.164  1.00  0.00    -0.744 OA
ENDBRANCH  89  93
ENDBRANCH  62  86
BRANCH  74  97
ATOM     97  C   UNL A   1      45.412  33.445  28.550  1.00  0.00     0.023 A 
ATOM     98  C   UNL A   1      46.282  33.768  29.604  1.00  0.00     0.031 A 
ATOM     99  C   UNL A   1      45.187  34.412  27.553  1.00  0.00     0.131 A 
ATOM    100  C   UNL A   1      46.836  35.052  29.678  1.00  0.00     0.055 A 
ATOM    101  C   UNL A   1      45.811  35.657  27.587  1.00  0.00     0.041 A 
ATOM    102  F   UNL A   1      44.362  34.156  26.526  1.00  0.00    -0.206 F 
ATOM    103  C   UNL A   1      46.628  35.989  28.663  1.00  0.00     0.022 A 
BRANCH 100 104
ATOM    104  S   UNL A   1      47.727  35.521  31.184  1.00  0.00     0.124 S 
ATOM    105  O   UNL A   1      49.119  35.396  30.762  1.00  0.00    -0.237 OA
ATOM    106  O   UNL A   1      47.253  36.881  31.419  1.00  0.00    -0.237 OA
ATOM    107  O   UNL A   1      47.285  34.533  32.165  1.00  0.00    -0.744 OA
ENDBRANCH 100 104
ENDBRANCH  74  97
ENDBRANCH  48  49
ENDBRANCH  41  43
ENDBRANCH  40  41
ENDBRANCH  39  40
ENDBRANCH  38  39
ENDBRANCH  37  38
ENDBRANCH  36  37
ENDBRANCH   1  36
TORSDOF 28
ENDMDL
MODEL 3
REMARK VINA RESULT:      -9.1      1.571      2.006
REMARK SMILES N#CC1=C(N)N2C(=O)[C@@H](CC(=O)OCCOCCOCCOCCOC(=O)c3ccc(-c4c5nc(c(-c6cc(S(=O)(=O)[O-])ccc6F)c6ccc([nH]6)c(-c6cc(S(=O)(=O)[O-])ccc6F)c6nc(c(-c7cc(S(=O)(=O)[O-])ccc7F)c7ccc4[nH]7)C=C6)C=C5)cc3)SC2=C(C#N)[C@H]1c1ccc(Cl)cc1
REMARK SMILES IDX 20 1 19 2 18 3 17 4 16 5 15 6 14 7 13 8 11 9 12 10 10 11
REMARK SMILES IDX 9 12 3 13 4 14 96 15 6 16 93 17 7 18 92 19 8 20 91 21 2 22
REMARK SMILES IDX 1 23 5 24 97 27 98 28 103 29 99 30 102 31 100 32 101 33
REMARK SMILES IDX 94 34 95 35 21 36 22 37 23 38 24 39 25 40 26 41 27 42 28 43
REMARK SMILES IDX 29 44 90 45 30 46 89 47 31 48 32 49 33 50 83 51 34 52 88 53
REMARK SMILES IDX 82 54 84 55 35 56 87 57 81 58 80 59 36 61 68 62 48 63 67 64
REMARK SMILES IDX 49 65 52 66 66 67 85 68 50 69 51 70 65 72 86 73 53 74 37 75
REMARK SMILES IDX 38 76 46 77 39 78 45 79 47 80 44 81 40 82 41 83 42 84 43 85
REMARK SMILES IDX 69 86 70 87 78 88 71 89 77 90 79 91 76 92 72 93 73 94 74 95
REMARK SMILES IDX 75 96 54 97 55 98 63 99 56 100 62 101 64 102 61 103 57 104
REMARK SMILES IDX 58 105 59 106 60 107
REMARK H PARENT 5 25 5 26 84 60 52 71
REMARK Flexibility Score: inf
ROOT
ATOM      1  C   UNL A   1      35.493  17.801  24.614  1.00  0.00     0.188 C 
ENDROOT
BRANCH   1   2
ATOM      2  O   UNL A   1      34.327  17.483  23.863  1.00  0.00    -0.377 OA
BRANCH   2   3
ATOM      3  C   UNL A   1      33.018  17.691  24.335  1.00  0.00     0.188 C 
BRANCH   3   4
ATOM      4  C   UNL A   1      32.443  19.093  24.149  1.00  0.00     0.188 C 
BRANCH   4   5
ATOM      5  O   UNL A   1      32.210  19.851  25.320  1.00  0.00    -0.376 OA
BRANCH   5   6
ATOM      6  C   UNL A   1      33.289  20.039  26.233  1.00  0.00     0.202 C 
BRANCH   6   7
ATOM      7  C   UNL A   1      33.584  21.444  26.799  1.00  0.00     0.261 C 
BRANCH   7   8
ATOM      8  O   UNL A   1      34.758  22.088  26.231  1.00  0.00    -0.463 OA
BRANCH   8   9
ATOM      9  C   UNL A   1      34.555  23.281  25.621  1.00  0.00     0.307 C 
ATOM     10  O   UNL A   1      34.614  24.359  26.208  1.00  0.00    -0.252 OA
BRANCH   9  11
ATOM     11  C   UNL A   1      34.552  23.234  24.098  1.00  0.00     0.147 C 
BRANCH  11  12
ATOM     12  C   UNL A   1      33.319  22.980  23.226  1.00  0.00     0.154 C 
ATOM     13  C   UNL A   1      31.300  27.307  22.791  1.00  0.00     0.083 C 
ATOM     14  C   UNL A   1      31.680  26.203  22.069  1.00  0.00     0.126 C 
ATOM     15  C   UNL A   1      30.959  27.121  24.286  1.00  0.00     0.107 C 
ATOM     16  N   UNL A   1      32.096  25.032  22.738  1.00  0.00    -0.258 N 
ATOM     17  C   UNL A   1      30.839  25.645  24.665  1.00  0.00     0.073 C 
ATOM     18  C   UNL A   1      32.907  24.015  22.175  1.00  0.00     0.247 C 
ATOM     19  C   UNL A   1      31.537  24.744  23.957  1.00  0.00     0.099 C 
ATOM     20  O   UNL A   1      33.227  23.911  20.994  1.00  0.00    -0.273 OA
ATOM     21  S   UNL A   1      31.843  23.088  24.394  1.00  0.00    -0.093 SA
BRANCH  13  22
ATOM     22  C   UNL A   1      30.839  28.617  22.172  1.00  0.00     0.100 C 
ATOM     23  N   UNL A   1      30.457  29.703  21.658  1.00  0.00    -0.193 NA
ENDBRANCH  13  22
BRANCH  14  24
ATOM     24  N   UNL A   1      31.660  26.132  20.702  1.00  0.00    -0.384 N 
ATOM     25  H   UNL A   1      32.503  26.026  20.203  1.00  0.00     0.158 HD
ATOM     26  H   UNL A   1      30.805  26.186  20.218  1.00  0.00     0.158 HD
ENDBRANCH  14  24
BRANCH  15  27
ATOM     27  C   UNL A   1      31.905  27.878  25.239  1.00  0.00    -0.034 A 
ATOM     28  C   UNL A   1      31.560  29.115  25.828  1.00  0.00     0.006 A 
ATOM     29  C   UNL A   1      33.186  27.367  25.508  1.00  0.00     0.006 A 
ATOM     30  C   UNL A   1      32.455  29.811  26.643  1.00  0.00     0.021 A 
ATOM     31  C   UNL A   1      34.073  28.053  26.343  1.00  0.00     0.021 A 
ATOM     32  C   UNL A   1      33.708  29.273  26.903  1.00  0.00     0.041 A 
ATOM     33  Cl  UNL A   1      34.809  30.127  27.908  1.00  0.00    -0.084 Cl
ENDBRANCH  15  27
BRANCH  17  34
ATOM     34  C   UNL A   1      30.081  25.289  25.814  1.00  0.00     0.098 C 
ATOM     35  N   UNL A   1      29.463  24.970  26.750  1.00  0.00    -0.193 NA
ENDBRANCH  17  34
ENDBRANCH  11  12
ENDBRANCH   9  11
ENDBRANCH   8   9
ENDBRANCH   7   8
ENDBRANCH   6   7
ENDBRANCH   5   6
ENDBRANCH   4   5
ENDBRANCH   3   4
ENDBRANCH   2   3
ENDBRANCH   1   2
BRANCH   1  36
ATOM     36  C   UNL A   1      36.123  19.206  24.621  1.00  0.00     0.188 C 
BRANCH  36  37
ATOM     37  O   UNL A   1      37.514  19.407  24.846  1.00  0.00    -0.376 OA
BRANCH  37  38
ATOM     38  C   UNL A   1      37.943  20.675  25.297  1.00  0.00     0.202 C 
BRANCH  38  39
ATOM     39  C   UNL A   1      39.250  20.759  26.082  1.00  0.00     0.261 C 
BRANCH  39  40
ATOM     40  O   UNL A   1      39.597  22.113  26.309  1.00  0.00    -0.460 OA
BRANCH  40  41
ATOM     41  C   UNL A   1      40.931  22.263  26.336  1.00  0.00     0.338 C 
ATOM     42  O   UNL A   1      41.777  21.646  25.718  1.00  0.00    -0.246 OA
BRANCH  41  43
ATOM     43  C   UNL A   1      41.200  23.482  27.069  1.00  0.00     0.060 A 
ATOM     44  C   UNL A   1      40.805  24.648  26.416  1.00  0.00     0.016 A 
ATOM     45  C   UNL A   1      41.897  23.476  28.280  1.00  0.00     0.016 A 
ATOM     46  C   UNL A   1      41.230  25.850  26.910  1.00  0.00     0.010 A 
ATOM     47  C   UNL A   1      42.340  24.692  28.772  1.00  0.00     0.010 A 
ATOM     48  C   UNL A   1      42.072  25.852  28.028  1.00  0.00    -0.014 A 
BRANCH  48  49
ATOM     49  C   UNL A   1      42.893  27.051  28.195  1.00  0.00     0.031 A 
ATOM     50  C   UNL A   1      42.401  28.105  29.141  1.00  0.00     0.074 A 
ATOM     51  C   UNL A   1      44.112  27.066  27.643  1.00  0.00     0.049 A 
ATOM     52  N   UNL A   1      42.966  29.230  29.481  1.00  0.00    -0.248 NA
ATOM     53  C   UNL A   1      41.104  27.860  29.800  1.00  0.00     0.031 C 
ATOM     54  C   UNL A   1      44.667  25.998  26.808  1.00  0.00     0.029 A 
ATOM     55  N   UNL A   1      45.104  27.993  27.724  1.00  0.00    -0.354 N 
ATOM     56  C   UNL A   1      42.089  29.830  30.379  1.00  0.00     0.074 A 
ATOM     57  C   UNL A   1      40.939  28.967  30.505  1.00  0.00     0.031 C 
ATOM     58  C   UNL A   1      45.914  26.338  26.450  1.00  0.00     0.029 A 
ATOM     59  C   UNL A   1      46.206  27.665  26.979  1.00  0.00     0.049 A 
ATOM     60  H   UNL A   1      45.038  28.814  28.263  1.00  0.00     0.167 HD
ATOM     61  C   UNL A   1      42.253  31.000  31.038  1.00  0.00     0.034 A 
ATOM     62  C   UNL A   1      47.304  28.396  26.726  1.00  0.00     0.034 A 
ATOM     63  C   UNL A   1      43.423  31.821  30.870  1.00  0.00     0.049 A 
ATOM     64  C   UNL A   1      47.406  29.749  27.380  1.00  0.00     0.074 A 
ATOM     65  C   UNL A   1      43.716  33.036  31.459  1.00  0.00     0.029 A 
ATOM     66  N   UNL A   1      44.496  31.507  30.041  1.00  0.00    -0.354 N 
ATOM     67  N   UNL A   1      46.563  30.334  28.204  1.00  0.00    -0.248 NA
ATOM     68  C   UNL A   1      48.606  30.532  27.084  1.00  0.00     0.031 C 
ATOM     69  C   UNL A   1      44.916  33.499  30.917  1.00  0.00     0.029 A 
ATOM     70  C   UNL A   1      45.432  32.526  30.072  1.00  0.00     0.049 A 
ATOM     71  H   UNL A   1      44.577  30.681  29.511  1.00  0.00     0.167 HD
ATOM     72  C   UNL A   1      47.151  31.545  28.550  1.00  0.00     0.074 A 
ATOM     73  C   UNL A   1      48.427  31.591  27.860  1.00  0.00     0.031 C 
ATOM     74  C   UNL A   1      46.690  32.532  29.362  1.00  0.00     0.034 A 
BRANCH  61  75
ATOM     75  C   UNL A   1      41.126  31.477  31.918  1.00  0.00     0.023 A 
ATOM     76  C   UNL A   1      40.013  32.166  31.405  1.00  0.00     0.031 A 
ATOM     77  C   UNL A   1      41.178  31.253  33.305  1.00  0.00     0.131 A 
ATOM     78  C   UNL A   1      39.027  32.651  32.279  1.00  0.00     0.055 A 
ATOM     79  C   UNL A   1      40.154  31.664  34.159  1.00  0.00     0.041 A 
ATOM     80  F   UNL A   1      42.235  30.637  33.858  1.00  0.00    -0.206 F 
ATOM     81  C   UNL A   1      39.074  32.377  33.649  1.00  0.00     0.022 A 
BRANCH  78  82
ATOM     82  S   UNL A   1      37.753  33.763  31.623  1.00  0.00     0.124 S 
ATOM     83  O   UNL A   1      38.485  34.457  30.566  1.00  0.00    -0.237 OA
ATOM     84  O   UNL A   1      36.720  32.833  31.182  1.00  0.00    -0.237 OA
ATOM     85  O   UNL A   1      37.397  34.592  32.772  1.00  0.00    -0.744 OA
ENDBRANCH  78  82
ENDBRANCH  61  75
BRANCH  62  86
ATOM     86  C   UNL A   1      48.336  27.893  25.784  1.00  0.00     0.023 A 
ATOM     87  C   UNL A   1      48.204  28.083  24.404  1.00  0.00     0.031 A 
ATOM     88  C   UNL A   1      49.451  27.171  26.250  1.00  0.00     0.131 A 
ATOM     89  C   UNL A   1      49.130  27.497  23.531  1.00  0.00     0.055 A 
ATOM     90  C   UNL A   1      50.412  26.655  25.381  1.00  0.00     0.041 A 
ATOM     91  F   UNL A   1      49.629  26.962  27.564  1.00  0.00    -0.206 F 
ATOM     92  C   UNL A   1      50.243  26.801  24.008  1.00  0.00     0.022 A 
BRANCH  89  93
ATOM     93  S   UNL A   1      48.779  27.547  21.754  1.00  0.00     0.124 S 
ATOM     94  O   UNL A   1      48.942  26.146  21.384  1.00  0.00    -0.237 OA
ATOM     95  O   UNL A   1      47.415  28.064  21.731  1.00  0.00    -0.237 OA
ATOM     96  O   UNL A   1      49.799  28.455  21.234  1.00  0.00    -0.744 OA
ENDBRANCH  89  93
ENDBRANCH  62  86
BRANCH  74  97
ATOM     97  C   UNL A   1      47.604  33.710  29.581  1.00  0.00     0.023 A 
ATOM     98  C   UNL A   1      47.637  34.796  28.692  1.00  0.00     0.031 A 
ATOM     99  C   UNL A   1      48.462  33.737  30.696  1.00  0.00     0.131 A 
ATOM    100  C   UNL A   1      48.562  35.828  28.891  1.00  0.00     0.055 A 
ATOM    101  C   UNL A   1      49.318  34.810  30.935  1.00  0.00     0.041 A 
ATOM    102  F   UNL A   1      48.475  32.722  31.575  1.00  0.00    -0.206 F 
ATOM    103  C   UNL A   1      49.383  35.856  30.021  1.00  0.00     0.022 A 
BRANCH 100 104
ATOM    104  S   UNL A   1      48.764  37.068  27.585  1.00  0.00     0.124 S 
ATOM    105  O   UNL A   1      47.535  36.899  26.816  1.00  0.00    -0.237 OA
ATOM    106  O   UNL A   1      48.875  38.309  28.345  1.00  0.00    -0.237 OA
ATOM    107  O   UNL A   1      49.986  36.648  26.902  1.00  0.00    -0.744 OA
ENDBRANCH 100 104
ENDBRANCH  74  97
ENDBRANCH  48  49
ENDBRANCH  41  43
ENDBRANCH  40  41
ENDBRANCH  39  40
ENDBRANCH  38  39
ENDBRANCH  37  38
ENDBRANCH  36  37
ENDBRANCH   1  36
TORSDOF 28
ENDMDL
