MODEL 1
REMARK VINA RESULT:     -10.8      0.000      0.000
REMARK SMILES Cc1ccc(CN(CC(=O)OCCOCCOCCOCCOC(=O)c2ccc(-c3c4nc(c(-c5cc(S(=O)(=O)[O-])ccc5F)c5ccc([nH]5)c(-c5cc(S(=O)(=O)[O-])ccc5F)c5nc(c(-c6cc(S(=O)(=O)[O-])ccc6F)c6ccc3[nH]6)C=C5)C=C4)cc2)C(=O)c2cc3c(s2)CCOC3)cc1
REMARK SMILES IDX 17 1 16 2 15 3 14 4 13 5 12 6 11 7 9 8 10 9 8 10 7 11 6 12
REMARK SMILES IDX 5 13 1 14 2 15 3 16 101 17 4 18 100 19 89 20 90 21 91 22
REMARK SMILES IDX 92 23 95 24 93 25 94 26 99 27 96 28 98 29 97 30 18 31 19 32
REMARK SMILES IDX 20 33 21 34 22 35 23 36 24 37 25 38 26 39 27 40 88 41 28 42
REMARK SMILES IDX 87 43 29 44 30 45 31 46 81 47 32 48 86 49 80 50 82 51 33 52
REMARK SMILES IDX 85 53 79 54 78 55 34 57 66 58 46 59 65 60 47 61 50 62 64 63
REMARK SMILES IDX 83 64 48 65 49 66 63 68 84 69 51 70 35 71 36 72 44 73 37 74
REMARK SMILES IDX 43 75 45 76 42 77 38 78 39 79 40 80 41 81 67 82 68 83 76 84
REMARK SMILES IDX 69 85 75 86 77 87 74 88 70 89 71 90 72 91 73 92 52 93 53 94
REMARK SMILES IDX 61 95 54 96 60 97 62 98 59 99 55 100 56 101 57 102 58 103
REMARK H PARENT 82 56 50 67
REMARK Flexibility Score: inf
ROOT
ATOM      1  O   UNL A   1      40.711  20.966  27.921  1.00  0.00    -0.377 OA
ENDROOT
BRANCH   1   2
ATOM      2  C   UNL A   1      40.799  22.144  27.155  1.00  0.00     0.188 C 
BRANCH   2   3
ATOM      3  C   UNL A   1      39.473  22.584  26.536  1.00  0.00     0.188 C 
BRANCH   3   4
ATOM      4  O   UNL A   1      38.701  21.582  25.882  1.00  0.00    -0.376 OA
BRANCH   4   5
ATOM      5  C   UNL A   1      37.492  22.034  25.249  1.00  0.00     0.202 C 
BRANCH   5   6
ATOM      6  C   UNL A   1      36.226  21.170  25.231  1.00  0.00     0.261 C 
BRANCH   6   7
ATOM      7  O   UNL A   1      35.089  21.747  25.862  1.00  0.00    -0.462 OA
BRANCH   7   8
ATOM      8  C   UNL A   1      33.903  21.433  25.297  1.00  0.00     0.325 C 
ATOM      9  O   UNL A   1      33.174  20.503  25.620  1.00  0.00    -0.250 OA
BRANCH   8  10
ATOM     10  C   UNL A   1      33.562  22.485  24.271  1.00  0.00     0.242 C 
BRANCH  10  11
ATOM     11  N   UNL A   1      32.402  23.339  24.567  1.00  0.00    -0.323 N 
BRANCH  11  12
ATOM     12  C   UNL A   1      31.354  23.371  23.501  1.00  0.00     0.156 C 
BRANCH  12  13
ATOM     13  C   UNL A   1      30.933  24.769  23.175  1.00  0.00    -0.029 A 
ATOM     14  C   UNL A   1      30.458  28.967  23.556  1.00  0.00     0.044 C 
ATOM     15  C   UNL A   1      30.531  27.506  23.251  1.00  0.00    -0.051 A 
ATOM     16  C   UNL A   1      29.619  26.645  23.872  1.00  0.00     0.004 A 
ATOM     17  C   UNL A   1      31.570  26.982  22.473  1.00  0.00     0.004 A 
ATOM     18  C   UNL A   1      29.798  25.276  23.803  1.00  0.00     0.006 A 
ATOM     19  C   UNL A   1      31.771  25.608  22.428  1.00  0.00     0.006 A 
ENDBRANCH  12  13
ENDBRANCH  11  12
BRANCH  11  20
ATOM     20  C   UNL A   1      32.177  23.957  25.844  1.00  0.00     0.264 C 
ATOM     21  O   UNL A   1      31.592  23.339  26.733  1.00  0.00    -0.268 OA
BRANCH  20  22
ATOM     22  C   UNL A   1      32.480  25.397  26.047  1.00  0.00     0.093 A 
ATOM     23  C   UNL A   1      31.869  26.288  26.924  1.00  0.00     0.032 A 
ATOM     24  S   UNL A   1      33.978  26.133  25.576  1.00  0.00    -0.135 S 
ATOM     25  C   UNL A   1      32.241  27.628  26.731  1.00  0.00    -0.008 A 
ATOM     26  C   UNL A   1      33.534  27.624  26.285  1.00  0.00     0.013 A 
ATOM     27  C   UNL A   1      31.510  28.878  27.127  1.00  0.00     0.196 C 
ATOM     28  C   UNL A   1      34.363  28.845  26.490  1.00  0.00     0.075 C 
ATOM     29  O   UNL A   1      32.389  30.001  27.343  1.00  0.00    -0.376 OA
ATOM     30  C   UNL A   1      33.424  30.060  26.340  1.00  0.00     0.166 C 
ENDBRANCH  20  22
ENDBRANCH  11  20
ENDBRANCH  10  11
ENDBRANCH   8  10
ENDBRANCH   7   8
ENDBRANCH   6   7
ENDBRANCH   5   6
ENDBRANCH   4   5
ENDBRANCH   3   4
ENDBRANCH   2   3
ENDBRANCH   1   2
BRANCH   1  31
ATOM     31  C   UNL A   1      41.586  19.989  27.415  1.00  0.00     0.188 C 
BRANCH  31  32
ATOM     32  C   UNL A   1      41.195  19.460  26.058  1.00  0.00     0.188 C 
BRANCH  32  33
ATOM     33  O   UNL A   1      42.053  18.340  25.798  1.00  0.00    -0.376 OA
BRANCH  33  34
ATOM     34  C   UNL A   1      43.394  18.562  26.201  1.00  0.00     0.202 C 
BRANCH  34  35
ATOM     35  C   UNL A   1      44.307  18.844  24.998  1.00  0.00     0.261 C 
BRANCH  35  36
ATOM     36  O   UNL A   1      44.120  20.226  24.600  1.00  0.00    -0.460 OA
BRANCH  36  37
ATOM     37  C   UNL A   1      44.970  21.137  25.146  1.00  0.00     0.338 C 
ATOM     38  O   UNL A   1      46.166  20.938  25.363  1.00  0.00    -0.246 OA
BRANCH  37  39
ATOM     39  C   UNL A   1      44.230  22.356  25.607  1.00  0.00     0.060 A 
ATOM     40  C   UNL A   1      43.656  23.240  24.670  1.00  0.00     0.016 A 
ATOM     41  C   UNL A   1      44.335  22.762  26.935  1.00  0.00     0.016 A 
ATOM     42  C   UNL A   1      43.318  24.565  25.033  1.00  0.00     0.010 A 
ATOM     43  C   UNL A   1      44.044  24.082  27.275  1.00  0.00     0.010 A 
ATOM     44  C   UNL A   1      43.569  25.020  26.332  1.00  0.00    -0.014 A 
BRANCH  44  45
ATOM     45  C   UNL A   1      43.632  26.450  26.755  1.00  0.00     0.031 A 
ATOM     46  C   UNL A   1      42.356  27.218  27.058  1.00  0.00     0.074 A 
ATOM     47  C   UNL A   1      44.800  26.904  27.279  1.00  0.00     0.049 A 
ATOM     48  N   UNL A   1      42.254  28.407  27.571  1.00  0.00    -0.248 NA
ATOM     49  C   UNL A   1      41.032  26.656  26.787  1.00  0.00     0.031 C 
ATOM     50  C   UNL A   1      44.876  27.857  28.369  1.00  0.00     0.029 A 
ATOM     51  N   UNL A   1      46.125  26.522  27.143  1.00  0.00    -0.354 N 
ATOM     52  C   UNL A   1      40.961  28.579  28.049  1.00  0.00     0.074 A 
ATOM     53  C   UNL A   1      40.220  27.529  27.397  1.00  0.00     0.031 C 
ATOM     54  C   UNL A   1      46.107  27.911  28.894  1.00  0.00     0.029 A 
ATOM     55  C   UNL A   1      46.968  27.338  27.918  1.00  0.00     0.049 A 
ATOM     56  H   UNL A   1      46.434  25.778  26.577  1.00  0.00     0.167 HD
ATOM     57  C   UNL A   1      40.682  29.477  29.055  1.00  0.00     0.034 A 
ATOM     58  C   UNL A   1      47.955  28.080  27.349  1.00  0.00     0.034 A 
ATOM     59  C   UNL A   1      41.837  30.359  29.394  1.00  0.00     0.049 A 
ATOM     60  C   UNL A   1      47.486  29.573  27.297  1.00  0.00     0.074 A 
ATOM     61  C   UNL A   1      42.319  30.949  30.556  1.00  0.00     0.029 A 
ATOM     62  N   UNL A   1      42.780  30.710  28.414  1.00  0.00    -0.354 N 
ATOM     63  N   UNL A   1      46.290  29.960  27.715  1.00  0.00    -0.248 NA
ATOM     64  C   UNL A   1      48.259  30.753  26.930  1.00  0.00     0.031 C 
ATOM     65  C   UNL A   1      43.652  31.413  30.304  1.00  0.00     0.029 A 
ATOM     66  C   UNL A   1      43.929  31.268  28.949  1.00  0.00     0.049 A 
ATOM     67  H   UNL A   1      42.640  30.573  27.449  1.00  0.00     0.167 HD
ATOM     68  C   UNL A   1      46.102  31.300  27.710  1.00  0.00     0.074 A 
ATOM     69  C   UNL A   1      47.391  31.759  27.199  1.00  0.00     0.031 C 
ATOM     70  C   UNL A   1      44.921  31.915  28.077  1.00  0.00     0.034 A 
BRANCH  57  71
ATOM     71  C   UNL A   1      39.380  29.467  29.913  1.00  0.00     0.023 A 
ATOM     72  C   UNL A   1      38.571  30.631  29.999  1.00  0.00     0.031 A 
ATOM     73  C   UNL A   1      38.947  28.416  30.761  1.00  0.00     0.131 A 
ATOM     74  C   UNL A   1      37.465  30.727  30.886  1.00  0.00     0.055 A 
ATOM     75  C   UNL A   1      37.789  28.477  31.565  1.00  0.00     0.041 A 
ATOM     76  F   UNL A   1      39.651  27.291  30.924  1.00  0.00    -0.206 F 
ATOM     77  C   UNL A   1      37.048  29.642  31.645  1.00  0.00     0.022 A 
BRANCH  74  78
ATOM     78  S   UNL A   1      36.609  32.321  31.103  1.00  0.00     0.124 S 
ATOM     79  O   UNL A   1      36.962  32.668  32.476  1.00  0.00    -0.237 OA
ATOM     80  O   UNL A   1      37.200  33.145  30.056  1.00  0.00    -0.237 OA
ATOM     81  O   UNL A   1      35.199  31.984  30.897  1.00  0.00    -0.744 OA
ENDBRANCH  74  78
ENDBRANCH  57  71
BRANCH  58  82
ATOM     82  C   UNL A   1      48.819  27.100  26.572  1.00  0.00     0.023 A 
ATOM     83  C   UNL A   1      48.459  26.992  25.181  1.00  0.00     0.031 A 
ATOM     84  C   UNL A   1      50.199  27.038  26.852  1.00  0.00     0.131 A 
ATOM     85  C   UNL A   1      49.430  27.124  24.159  1.00  0.00     0.055 A 
ATOM     86  C   UNL A   1      51.164  27.147  25.825  1.00  0.00     0.041 A 
ATOM     87  F   UNL A   1      50.635  27.125  28.118  1.00  0.00    -0.206 F 
ATOM     88  C   UNL A   1      50.781  27.252  24.485  1.00  0.00     0.022 A 
BRANCH  85  89
ATOM     89  S   UNL A   1      48.923  27.438  22.418  1.00  0.00     0.124 S 
ATOM     90  O   UNL A   1      50.119  28.065  21.864  1.00  0.00    -0.237 OA
ATOM     91  O   UNL A   1      48.619  26.110  21.892  1.00  0.00    -0.237 OA
ATOM     92  O   UNL A   1      47.772  28.331  22.558  1.00  0.00    -0.744 OA
ENDBRANCH  85  89
ENDBRANCH  58  82
BRANCH  70  93
ATOM     93  C   UNL A   1      44.531  33.295  27.599  1.00  0.00     0.023 A 
ATOM     94  C   UNL A   1      44.834  34.413  28.366  1.00  0.00     0.031 A 
ATOM     95  C   UNL A   1      44.016  33.559  26.300  1.00  0.00     0.131 A 
ATOM     96  C   UNL A   1      44.516  35.698  27.924  1.00  0.00     0.055 A 
ATOM     97  C   UNL A   1      43.814  34.850  25.811  1.00  0.00     0.041 A 
ATOM     98  F   UNL A   1      43.706  32.589  25.430  1.00  0.00    -0.206 F 
ATOM     99  C   UNL A   1      44.040  35.935  26.639  1.00  0.00     0.022 A 
BRANCH  96 100
ATOM    100  S   UNL A   1      44.635  37.014  29.146  1.00  0.00     0.124 S 
ATOM    101  O   UNL A   1      45.930  36.723  29.759  1.00  0.00    -0.237 OA
ATOM    102  O   UNL A   1      44.584  38.216  28.320  1.00  0.00    -0.237 OA
ATOM    103  O   UNL A   1      43.474  36.788  30.003  1.00  0.00    -0.744 OA
ENDBRANCH  96 100
ENDBRANCH  70  93
ENDBRANCH  44  45
ENDBRANCH  37  39
ENDBRANCH  36  37
ENDBRANCH  35  36
ENDBRANCH  34  35
ENDBRANCH  33  34
ENDBRANCH  32  33
ENDBRANCH  31  32
ENDBRANCH   1  31
TORSDOF 28
ENDMDL
MODEL 2
REMARK VINA RESULT:     -10.5      1.630      3.342
REMARK SMILES Cc1ccc(CN(CC(=O)OCCOCCOCCOCCOC(=O)c2ccc(-c3c4nc(c(-c5cc(S(=O)(=O)[O-])ccc5F)c5ccc([nH]5)c(-c5cc(S(=O)(=O)[O-])ccc5F)c5nc(c(-c6cc(S(=O)(=O)[O-])ccc6F)c6ccc3[nH]6)C=C5)C=C4)cc2)C(=O)c2cc3c(s2)CCOC3)cc1
REMARK SMILES IDX 17 1 16 2 15 3 14 4 13 5 12 6 11 7 9 8 10 9 8 10 7 11 6 12
REMARK SMILES IDX 5 13 1 14 2 15 3 16 101 17 4 18 100 19 89 20 90 21 91 22
REMARK SMILES IDX 92 23 95 24 93 25 94 26 99 27 96 28 98 29 97 30 18 31 19 32
REMARK SMILES IDX 20 33 21 34 22 35 23 36 24 37 25 38 26 39 27 40 88 41 28 42
REMARK SMILES IDX 87 43 29 44 30 45 31 46 81 47 32 48 86 49 80 50 82 51 33 52
REMARK SMILES IDX 85 53 79 54 78 55 34 57 66 58 46 59 65 60 47 61 50 62 64 63
REMARK SMILES IDX 83 64 48 65 49 66 63 68 84 69 51 70 35 71 36 72 44 73 37 74
REMARK SMILES IDX 43 75 45 76 42 77 38 78 39 79 40 80 41 81 67 82 68 83 76 84
REMARK SMILES IDX 69 85 75 86 77 87 74 88 70 89 71 90 72 91 73 92 52 93 53 94
REMARK SMILES IDX 61 95 54 96 60 97 62 98 59 99 55 100 56 101 57 102 58 103
REMARK H PARENT 82 56 50 67
REMARK Flexibility Score: inf
ROOT
ATOM      1  O   UNL A   1      40.782  21.208  27.863  1.00  0.00    -0.377 OA
ENDROOT
BRANCH   1   2
ATOM      2  C   UNL A   1      40.648  22.014  26.717  1.00  0.00     0.188 C 
BRANCH   2   3
ATOM      3  C   UNL A   1      39.200  22.264  26.299  1.00  0.00     0.188 C 
BRANCH   3   4
ATOM      4  O   UNL A   1      38.568  23.430  26.818  1.00  0.00    -0.376 OA
BRANCH   4   5
ATOM      5  C   UNL A   1      37.638  24.085  25.938  1.00  0.00     0.202 C 
BRANCH   5   6
ATOM      6  C   UNL A   1      36.445  23.336  25.335  1.00  0.00     0.261 C 
BRANCH   6   7
ATOM      7  O   UNL A   1      35.312  23.213  26.188  1.00  0.00    -0.462 OA
BRANCH   7   8
ATOM      8  C   UNL A   1      34.203  23.852  25.758  1.00  0.00     0.325 C 
ATOM      9  O   UNL A   1      33.360  24.389  26.466  1.00  0.00    -0.250 OA
BRANCH   8  10
ATOM     10  C   UNL A   1      34.226  23.899  24.250  1.00  0.00     0.242 C 
BRANCH  10  11
ATOM     11  N   UNL A   1      32.957  24.232  23.585  1.00  0.00    -0.323 N 
BRANCH  11  12
ATOM     12  C   UNL A   1      32.927  25.569  22.917  1.00  0.00     0.156 C 
BRANCH  12  13
ATOM     13  C   UNL A   1      32.631  26.670  23.884  1.00  0.00    -0.029 A 
ATOM     14  C   UNL A   1      31.857  28.617  27.573  1.00  0.00     0.044 C 
ATOM     15  C   UNL A   1      32.118  28.109  26.192  1.00  0.00    -0.051 A 
ATOM     16  C   UNL A   1      31.065  27.521  25.483  1.00  0.00     0.004 A 
ATOM     17  C   UNL A   1      33.414  28.090  25.664  1.00  0.00     0.004 A 
ATOM     18  C   UNL A   1      31.315  26.834  24.311  1.00  0.00     0.006 A 
ATOM     19  C   UNL A   1      33.674  27.374  24.502  1.00  0.00     0.006 A 
ENDBRANCH  12  13
ENDBRANCH  11  12
BRANCH  11  20
ATOM     20  C   UNL A   1      31.880  23.296  23.415  1.00  0.00     0.264 C 
ATOM     21  O   UNL A   1      30.717  23.697  23.375  1.00  0.00    -0.268 OA
BRANCH  20  22
ATOM     22  C   UNL A   1      32.138  21.835  23.469  1.00  0.00     0.093 A 
ATOM     23  C   UNL A   1      32.063  20.989  24.572  1.00  0.00     0.032 A 
ATOM     24  S   UNL A   1      32.112  20.809  22.071  1.00  0.00    -0.135 S 
ATOM     25  C   UNL A   1      32.566  19.698  24.339  1.00  0.00    -0.008 A 
ATOM     26  C   UNL A   1      32.327  19.406  23.025  1.00  0.00     0.013 A 
ATOM     27  C   UNL A   1      33.069  18.688  25.330  1.00  0.00     0.196 C 
ATOM     28  C   UNL A   1      32.257  17.976  22.614  1.00  0.00     0.075 C 
ATOM     29  O   UNL A   1      32.929  17.329  24.870  1.00  0.00    -0.376 OA
ATOM     30  C   UNL A   1      33.278  17.206  23.475  1.00  0.00     0.166 C 
ENDBRANCH  20  22
ENDBRANCH  11  20
ENDBRANCH  10  11
ENDBRANCH   8  10
ENDBRANCH   7   8
ENDBRANCH   6   7
ENDBRANCH   5   6
ENDBRANCH   4   5
ENDBRANCH   3   4
ENDBRANCH   2   3
ENDBRANCH   1   2
BRANCH   1  31
ATOM     31  C   UNL A   1      41.376  19.978  27.528  1.00  0.00     0.188 C 
BRANCH  31  32
ATOM     32  C   UNL A   1      41.169  19.569  26.091  1.00  0.00     0.188 C 
BRANCH  32  33
ATOM     33  O   UNL A   1      41.952  18.384  25.891  1.00  0.00    -0.376 OA
BRANCH  33  34
ATOM     34  C   UNL A   1      43.302  18.535  26.296  1.00  0.00     0.202 C 
BRANCH  34  35
ATOM     35  C   UNL A   1      44.258  18.518  25.093  1.00  0.00     0.261 C 
BRANCH  35  36
ATOM     36  O   UNL A   1      44.203  19.818  24.451  1.00  0.00    -0.460 OA
BRANCH  36  37
ATOM     37  C   UNL A   1      45.073  20.759  24.907  1.00  0.00     0.338 C 
ATOM     38  O   UNL A   1      46.276  20.570  25.096  1.00  0.00    -0.246 OA
BRANCH  37  39
ATOM     39  C   UNL A   1      44.351  22.008  25.314  1.00  0.00     0.060 A 
ATOM     40  C   UNL A   1      43.940  22.944  24.342  1.00  0.00     0.016 A 
ATOM     41  C   UNL A   1      44.320  22.378  26.656  1.00  0.00     0.016 A 
ATOM     42  C   UNL A   1      43.634  24.277  24.700  1.00  0.00     0.010 A 
ATOM     43  C   UNL A   1      44.063  23.704  26.997  1.00  0.00     0.010 A 
ATOM     44  C   UNL A   1      43.754  24.688  26.033  1.00  0.00    -0.014 A 
BRANCH  44  45
ATOM     45  C   UNL A   1      43.844  26.103  26.501  1.00  0.00     0.031 A 
ATOM     46  C   UNL A   1      42.585  26.937  26.671  1.00  0.00     0.074 A 
ATOM     47  C   UNL A   1      44.964  26.476  27.173  1.00  0.00     0.049 A 
ATOM     48  N   UNL A   1      42.488  28.119  27.202  1.00  0.00    -0.248 NA
ATOM     49  C   UNL A   1      41.274  26.459  26.228  1.00  0.00     0.031 C 
ATOM     50  C   UNL A   1      44.960  27.400  28.291  1.00  0.00     0.029 A 
ATOM     51  N   UNL A   1      46.272  26.021  27.185  1.00  0.00    -0.354 N 
ATOM     52  C   UNL A   1      41.158  28.355  27.527  1.00  0.00     0.074 A 
ATOM     53  C   UNL A   1      40.445  27.364  26.761  1.00  0.00     0.031 C 
ATOM     54  C   UNL A   1      46.120  27.371  28.960  1.00  0.00     0.029 A 
ATOM     55  C   UNL A   1      47.059  26.770  28.079  1.00  0.00     0.049 A 
ATOM     56  H   UNL A   1      46.606  25.273  26.639  1.00  0.00     0.167 HD
ATOM     57  C   UNL A   1      40.810  29.245  28.518  1.00  0.00     0.034 A 
ATOM     58  C   UNL A   1      48.147  27.466  27.652  1.00  0.00     0.034 A 
ATOM     59  C   UNL A   1      41.962  30.051  29.018  1.00  0.00     0.049 A 
ATOM     60  C   UNL A   1      47.771  28.985  27.588  1.00  0.00     0.074 A 
ATOM     61  C   UNL A   1      42.332  30.587  30.245  1.00  0.00     0.029 A 
ATOM     62  N   UNL A   1      43.035  30.368  28.167  1.00  0.00    -0.354 N 
ATOM     63  N   UNL A   1      46.556  29.430  27.871  1.00  0.00    -0.248 NA
ATOM     64  C   UNL A   1      48.646  30.125  27.349  1.00  0.00     0.031 C 
ATOM     65  C   UNL A   1      43.709  30.978  30.168  1.00  0.00     0.029 A 
ATOM     66  C   UNL A   1      44.139  30.847  28.851  1.00  0.00     0.049 A 
ATOM     67  H   UNL A   1      43.004  30.260  27.189  1.00  0.00     0.167 HD
ATOM     68  C   UNL A   1      46.444  30.779  27.882  1.00  0.00     0.074 A 
ATOM     69  C   UNL A   1      47.809  31.174  27.542  1.00  0.00     0.031 C 
ATOM     70  C   UNL A   1      45.263  31.454  28.123  1.00  0.00     0.034 A 
BRANCH  57  71
ATOM     71  C   UNL A   1      39.415  29.293  29.215  1.00  0.00     0.023 A 
ATOM     72  C   UNL A   1      38.415  30.190  28.754  1.00  0.00     0.031 A 
ATOM     73  C   UNL A   1      39.046  28.594  30.393  1.00  0.00     0.131 A 
ATOM     74  C   UNL A   1      37.189  30.386  29.445  1.00  0.00     0.055 A 
ATOM     75  C   UNL A   1      37.788  28.715  31.020  1.00  0.00     0.041 A 
ATOM     76  F   UNL A   1      39.900  27.807  31.056  1.00  0.00    -0.206 F 
ATOM     77  C   UNL A   1      36.856  29.625  30.558  1.00  0.00     0.022 A 
BRANCH  74  78
ATOM     78  S   UNL A   1      36.051  31.708  28.922  1.00  0.00     0.124 S 
ATOM     79  O   UNL A   1      35.599  31.220  27.623  1.00  0.00    -0.237 OA
ATOM     80  O   UNL A   1      35.058  31.715  29.990  1.00  0.00    -0.237 OA
ATOM     81  O   UNL A   1      36.905  32.896  28.870  1.00  0.00    -0.744 OA
ENDBRANCH  74  78
ENDBRANCH  57  71
BRANCH  58  82
ATOM     82  C   UNL A   1      49.044  26.455  26.956  1.00  0.00     0.023 A 
ATOM     83  C   UNL A   1      49.384  26.821  25.605  1.00  0.00     0.031 A 
ATOM     84  C   UNL A   1      50.067  25.829  27.696  1.00  0.00     0.131 A 
ATOM     85  C   UNL A   1      50.729  26.830  25.165  1.00  0.00     0.055 A 
ATOM     86  C   UNL A   1      51.405  25.820  27.240  1.00  0.00     0.041 A 
ATOM     87  F   UNL A   1      49.846  25.445  28.962  1.00  0.00    -0.206 F 
ATOM     88  C   UNL A   1      51.748  26.374  26.004  1.00  0.00     0.022 A 
BRANCH  85  89
ATOM     89  S   UNL A   1      51.206  27.714  23.622  1.00  0.00     0.124 S 
ATOM     90  O   UNL A   1      52.460  27.053  23.271  1.00  0.00    -0.237 OA
ATOM     91  O   UNL A   1      50.095  27.459  22.710  1.00  0.00    -0.237 OA
ATOM     92  O   UNL A   1      51.347  29.104  24.060  1.00  0.00    -0.744 OA
ENDBRANCH  85  89
ENDBRANCH  58  82
BRANCH  70  93
ATOM     93  C   UNL A   1      45.011  32.864  27.642  1.00  0.00     0.023 A 
ATOM     94  C   UNL A   1      45.542  33.945  28.333  1.00  0.00     0.031 A 
ATOM     95  C   UNL A   1      44.396  33.169  26.396  1.00  0.00     0.131 A 
ATOM     96  C   UNL A   1      45.351  35.253  27.883  1.00  0.00     0.055 A 
ATOM     97  C   UNL A   1      44.315  34.466  25.887  1.00  0.00     0.041 A 
ATOM     98  F   UNL A   1      43.866  32.234  25.598  1.00  0.00    -0.206 F 
ATOM     99  C   UNL A   1      44.773  35.527  26.649  1.00  0.00     0.022 A 
BRANCH  96 100
ATOM    100  S   UNL A   1      45.778  36.564  29.039  1.00  0.00     0.124 S 
ATOM    101  O   UNL A   1      44.893  37.640  28.597  1.00  0.00    -0.237 OA
ATOM    102  O   UNL A   1      45.450  35.965  30.328  1.00  0.00    -0.237 OA
ATOM    103  O   UNL A   1      47.200  36.786  28.791  1.00  0.00    -0.744 OA
ENDBRANCH  96 100
ENDBRANCH  70  93
ENDBRANCH  44  45
ENDBRANCH  37  39
ENDBRANCH  36  37
ENDBRANCH  35  36
ENDBRANCH  34  35
ENDBRANCH  33  34
ENDBRANCH  32  33
ENDBRANCH  31  32
ENDBRANCH   1  31
TORSDOF 28
ENDMDL
MODEL 3
REMARK VINA RESULT:     -10.2      1.593      2.627
REMARK SMILES Cc1ccc(CN(CC(=O)OCCOCCOCCOCCOC(=O)c2ccc(-c3c4nc(c(-c5cc(S(=O)(=O)[O-])ccc5F)c5ccc([nH]5)c(-c5cc(S(=O)(=O)[O-])ccc5F)c5nc(c(-c6cc(S(=O)(=O)[O-])ccc6F)c6ccc3[nH]6)C=C5)C=C4)cc2)C(=O)c2cc3c(s2)CCOC3)cc1
REMARK SMILES IDX 17 1 16 2 15 3 14 4 13 5 12 6 11 7 9 8 10 9 8 10 7 11 6 12
REMARK SMILES IDX 5 13 1 14 2 15 3 16 101 17 4 18 100 19 89 20 90 21 91 22
REMARK SMILES IDX 92 23 95 24 93 25 94 26 99 27 96 28 98 29 97 30 18 31 19 32
REMARK SMILES IDX 20 33 21 34 22 35 23 36 24 37 25 38 26 39 27 40 88 41 28 42
REMARK SMILES IDX 87 43 29 44 30 45 31 46 81 47 32 48 86 49 80 50 82 51 33 52
REMARK SMILES IDX 85 53 79 54 78 55 34 57 66 58 46 59 65 60 47 61 50 62 64 63
REMARK SMILES IDX 83 64 48 65 49 66 63 68 84 69 51 70 35 71 36 72 44 73 37 74
REMARK SMILES IDX 43 75 45 76 42 77 38 78 39 79 40 80 41 81 67 82 68 83 76 84
REMARK SMILES IDX 69 85 75 86 77 87 74 88 70 89 71 90 72 91 73 92 52 93 53 94
REMARK SMILES IDX 61 95 54 96 60 97 62 98 59 99 55 100 56 101 57 102 58 103
REMARK H PARENT 82 56 50 67
REMARK Flexibility Score: inf
ROOT
ATOM      1  O   UNL A   1      39.872  21.297  27.270  1.00  0.00    -0.377 OA
ENDROOT
BRANCH   1   2
ATOM      2  C   UNL A   1      39.547  21.828  26.007  1.00  0.00     0.188 C 
BRANCH   2   3
ATOM      3  C   UNL A   1      38.193  21.368  25.469  1.00  0.00     0.188 C 
BRANCH   3   4
ATOM      4  O   UNL A   1      37.033  21.873  26.123  1.00  0.00    -0.376 OA
BRANCH   4   5
ATOM      5  C   UNL A   1      36.800  23.285  25.986  1.00  0.00     0.202 C 
BRANCH   5   6
ATOM      6  C   UNL A   1      36.095  23.864  24.753  1.00  0.00     0.261 C 
BRANCH   6   7
ATOM      7  O   UNL A   1      34.959  23.134  24.306  1.00  0.00    -0.462 OA
BRANCH   7   8
ATOM      8  C   UNL A   1      33.781  23.531  24.835  1.00  0.00     0.325 C 
ATOM      9  O   UNL A   1      33.008  22.832  25.479  1.00  0.00    -0.250 OA
BRANCH   8  10
ATOM     10  C   UNL A   1      33.622  25.013  24.602  1.00  0.00     0.242 C 
BRANCH  10  11
ATOM     11  N   UNL A   1      32.251  25.542  24.661  1.00  0.00    -0.323 N 
BRANCH  11  12
ATOM     12  C   UNL A   1      31.895  26.233  25.938  1.00  0.00     0.156 C 
BRANCH  12  13
ATOM     13  C   UNL A   1      32.542  27.577  26.045  1.00  0.00    -0.029 A 
ATOM     14  C   UNL A   1      33.993  31.161  27.791  1.00  0.00     0.044 C 
ATOM     15  C   UNL A   1      33.555  29.966  27.007  1.00  0.00    -0.051 A 
ATOM     16  C   UNL A   1      32.218  29.882  26.603  1.00  0.00     0.004 A 
ATOM     17  C   UNL A   1      34.419  28.885  26.797  1.00  0.00     0.004 A 
ATOM     18  C   UNL A   1      31.721  28.700  26.087  1.00  0.00     0.006 A 
ATOM     19  C   UNL A   1      33.915  27.686  26.308  1.00  0.00     0.006 A 
ENDBRANCH  12  13
ENDBRANCH  11  12
BRANCH  11  20
ATOM     20  C   UNL A   1      31.363  25.572  23.532  1.00  0.00     0.264 C 
ATOM     21  O   UNL A   1      31.402  24.671  22.694  1.00  0.00    -0.268 OA
BRANCH  20  22
ATOM     22  C   UNL A   1      30.523  26.767  23.266  1.00  0.00     0.093 A 
ATOM     23  C   UNL A   1      29.303  27.107  23.845  1.00  0.00     0.032 A 
ATOM     24  S   UNL A   1      31.131  28.218  22.535  1.00  0.00    -0.135 S 
ATOM     25  C   UNL A   1      28.661  28.194  23.232  1.00  0.00    -0.008 A 
ATOM     26  C   UNL A   1      29.641  29.025  22.762  1.00  0.00     0.013 A 
ATOM     27  C   UNL A   1      27.205  28.562  23.247  1.00  0.00     0.196 C 
ATOM     28  C   UNL A   1      29.313  30.462  22.546  1.00  0.00     0.075 C 
ATOM     29  O   UNL A   1      26.979  29.976  23.070  1.00  0.00    -0.376 OA
ATOM     30  C   UNL A   1      27.851  30.526  22.061  1.00  0.00     0.166 C 
ENDBRANCH  20  22
ENDBRANCH  11  20
ENDBRANCH  10  11
ENDBRANCH   8  10
ENDBRANCH   7   8
ENDBRANCH   6   7
ENDBRANCH   5   6
ENDBRANCH   4   5
ENDBRANCH   3   4
ENDBRANCH   2   3
ENDBRANCH   1   2
BRANCH   1  31
ATOM     31  C   UNL A   1      40.956  20.408  27.163  1.00  0.00     0.188 C 
BRANCH  31  32
ATOM     32  C   UNL A   1      41.361  20.105  25.742  1.00  0.00     0.188 C 
BRANCH  32  33
ATOM     33  O   UNL A   1      41.870  18.763  25.745  1.00  0.00    -0.376 OA
BRANCH  33  34
ATOM     34  C   UNL A   1      43.159  18.660  26.326  1.00  0.00     0.202 C 
BRANCH  34  35
ATOM     35  C   UNL A   1      44.252  18.513  25.256  1.00  0.00     0.261 C 
BRANCH  35  36
ATOM     36  O   UNL A   1      44.350  19.767  24.533  1.00  0.00    -0.460 OA
BRANCH  36  37
ATOM     37  C   UNL A   1      45.219  20.688  25.029  1.00  0.00     0.338 C 
ATOM     38  O   UNL A   1      46.386  20.452  25.350  1.00  0.00    -0.246 OA
BRANCH  37  39
ATOM     39  C   UNL A   1      44.529  21.992  25.296  1.00  0.00     0.060 A 
ATOM     40  C   UNL A   1      44.382  22.946  24.268  1.00  0.00     0.016 A 
ATOM     41  C   UNL A   1      44.272  22.376  26.610  1.00  0.00     0.016 A 
ATOM     42  C   UNL A   1      44.115  24.302  24.568  1.00  0.00     0.010 A 
ATOM     43  C   UNL A   1      44.054  23.721  26.902  1.00  0.00     0.010 A 
ATOM     44  C   UNL A   1      44.009  24.716  25.900  1.00  0.00    -0.014 A 
BRANCH  44  45
ATOM     45  C   UNL A   1      44.114  26.124  26.384  1.00  0.00     0.031 A 
ATOM     46  C   UNL A   1      42.863  26.966  26.572  1.00  0.00     0.074 A 
ATOM     47  C   UNL A   1      45.241  26.481  27.051  1.00  0.00     0.049 A 
ATOM     48  N   UNL A   1      42.779  28.143  27.117  1.00  0.00    -0.248 NA
ATOM     49  C   UNL A   1      41.545  26.504  26.134  1.00  0.00     0.031 C 
ATOM     50  C   UNL A   1      45.254  27.392  28.179  1.00  0.00     0.029 A 
ATOM     51  N   UNL A   1      46.546  26.016  27.048  1.00  0.00    -0.354 N 
ATOM     52  C   UNL A   1      41.453  28.386  27.455  1.00  0.00     0.074 A 
ATOM     53  C   UNL A   1      40.727  27.410  26.683  1.00  0.00     0.031 C 
ATOM     54  C   UNL A   1      46.418  27.347  28.839  1.00  0.00     0.029 A 
ATOM     55  C   UNL A   1      47.346  26.748  27.944  1.00  0.00     0.049 A 
ATOM     56  H   UNL A   1      46.870  25.271  26.491  1.00  0.00     0.167 HD
ATOM     57  C   UNL A   1      41.120  29.268  28.458  1.00  0.00     0.034 A 
ATOM     58  C   UNL A   1      48.436  27.440  27.517  1.00  0.00     0.034 A 
ATOM     59  C   UNL A   1      42.282  30.059  28.958  1.00  0.00     0.049 A 
ATOM     60  C   UNL A   1      48.071  28.962  27.472  1.00  0.00     0.074 A 
ATOM     61  C   UNL A   1      42.665  30.578  30.188  1.00  0.00     0.029 A 
ATOM     62  N   UNL A   1      43.351  30.377  28.102  1.00  0.00    -0.354 N 
ATOM     63  N   UNL A   1      46.863  29.415  27.769  1.00  0.00    -0.248 NA
ATOM     64  C   UNL A   1      48.954  30.099  27.239  1.00  0.00     0.031 C 
ATOM     65  C   UNL A   1      44.045  30.959  30.104  1.00  0.00     0.029 A 
ATOM     66  C   UNL A   1      44.465  30.840  28.783  1.00  0.00     0.049 A 
ATOM     67  H   UNL A   1      43.313  30.280  27.123  1.00  0.00     0.167 HD
ATOM     68  C   UNL A   1      46.761  30.764  27.796  1.00  0.00     0.074 A 
ATOM     69  C   UNL A   1      48.127  31.152  27.450  1.00  0.00     0.031 C 
ATOM     70  C   UNL A   1      45.588  31.446  28.054  1.00  0.00     0.034 A 
BRANCH  57  71
ATOM     71  C   UNL A   1      39.730  29.319  29.165  1.00  0.00     0.023 A 
ATOM     72  C   UNL A   1      39.020  30.545  29.260  1.00  0.00     0.031 A 
ATOM     73  C   UNL A   1      39.113  28.253  29.869  1.00  0.00     0.131 A 
ATOM     74  C   UNL A   1      37.831  30.680  30.026  1.00  0.00     0.055 A 
ATOM     75  C   UNL A   1      37.879  28.365  30.544  1.00  0.00     0.041 A 
ATOM     76  F   UNL A   1      39.694  27.058  30.012  1.00  0.00    -0.206 F 
ATOM     77  C   UNL A   1      37.237  29.586  30.640  1.00  0.00     0.022 A 
BRANCH  74  78
ATOM     78  S   UNL A   1      37.096  32.327  30.282  1.00  0.00     0.124 S 
ATOM     79  O   UNL A   1      38.038  32.935  31.215  1.00  0.00    -0.237 OA
ATOM     80  O   UNL A   1      37.075  32.879  28.932  1.00  0.00    -0.237 OA
ATOM     81  O   UNL A   1      35.777  32.030  30.844  1.00  0.00    -0.744 OA
ENDBRANCH  74  78
ENDBRANCH  57  71
BRANCH  58  82
ATOM     82  C   UNL A   1      49.319  26.430  26.803  1.00  0.00     0.023 A 
ATOM     83  C   UNL A   1      49.741  26.857  25.494  1.00  0.00     0.031 A 
ATOM     84  C   UNL A   1      50.276  25.714  27.550  1.00  0.00     0.131 A 
ATOM     85  C   UNL A   1      51.106  26.828  25.117  1.00  0.00     0.055 A 
ATOM     86  C   UNL A   1      51.633  25.668  27.156  1.00  0.00     0.041 A 
ATOM     87  F   UNL A   1      49.976  25.268  28.779  1.00  0.00    -0.206 F 
ATOM     88  C   UNL A   1      52.060  26.276  25.973  1.00  0.00     0.022 A 
BRANCH  85  89
ATOM     89  S   UNL A   1      51.696  27.776  23.654  1.00  0.00     0.124 S 
ATOM     90  O   UNL A   1      53.142  27.762  23.849  1.00  0.00    -0.237 OA
ATOM     91  O   UNL A   1      51.216  27.003  22.513  1.00  0.00    -0.237 OA
ATOM     92  O   UNL A   1      51.067  29.087  23.827  1.00  0.00    -0.744 OA
ENDBRANCH  85  89
ENDBRANCH  58  82
BRANCH  70  93
ATOM     93  C   UNL A   1      45.343  32.863  27.589  1.00  0.00     0.023 A 
ATOM     94  C   UNL A   1      46.039  33.918  28.166  1.00  0.00     0.031 A 
ATOM     95  C   UNL A   1      44.557  33.191  26.451  1.00  0.00     0.131 A 
ATOM     96  C   UNL A   1      45.854  35.230  27.725  1.00  0.00     0.055 A 
ATOM     97  C   UNL A   1      44.470  34.484  25.935  1.00  0.00     0.041 A 
ATOM     98  F   UNL A   1      43.853  32.280  25.766  1.00  0.00    -0.206 F 
ATOM     99  C   UNL A   1      45.104  35.524  26.592  1.00  0.00     0.022 A 
BRANCH  96 100
ATOM    100  S   UNL A   1      46.534  36.526  28.772  1.00  0.00     0.124 S 
ATOM    101  O   UNL A   1      45.716  37.672  28.382  1.00  0.00    -0.237 OA
ATOM    102  O   UNL A   1      46.292  36.005  30.113  1.00  0.00    -0.237 OA
ATOM    103  O   UNL A   1      47.935  36.591  28.365  1.00  0.00    -0.744 OA
ENDBRANCH  96 100
ENDBRANCH  70  93
ENDBRANCH  44  45
ENDBRANCH  37  39
ENDBRANCH  36  37
ENDBRANCH  35  36
ENDBRANCH  34  35
ENDBRANCH  33  34
ENDBRANCH  32  33
ENDBRANCH  31  32
ENDBRANCH   1  31
TORSDOF 28
ENDMDL
