MODEL 1
REMARK VINA RESULT:     -10.6      0.000      0.000
REMARK SMILES Cn1ccc(-c2n[nH]c(=O)n2-c2ccc(C(=O)OCCOCCOCCOCCOC(=O)c3ccc(-c4c5nc(c(-c6cc(S(=O)(=O)[O-])ccc6F)c6ccc([nH]6)c(-c6cc(S(=O)(=O)[O-])ccc6F)c6nc(c(-c7cc(S(=O)(=O)[O-])ccc7F)c7ccc4[nH]7)C=C6)C=C5)cc3)cc2)n1
REMARK SMILES IDX 25 1 24 2 23 3 22 4 21 5 20 6 19 7 18 8 16 9 17 10 15 11
REMARK SMILES IDX 12 12 13 13 97 14 14 15 96 16 11 17 6 18 7 19 8 20 9 21
REMARK SMILES IDX 10 23 5 24 1 25 2 26 3 27 98 28 4 29 26 30 27 31 28 32 29 33
REMARK SMILES IDX 30 34 31 35 32 36 33 37 34 38 95 39 35 40 94 41 36 42 37 43
REMARK SMILES IDX 38 44 88 45 39 46 93 47 87 48 89 49 40 50 92 51 86 52 85 53
REMARK SMILES IDX 41 55 73 56 53 57 72 58 54 59 57 60 71 61 90 62 55 63 56 64
REMARK SMILES IDX 70 66 91 67 58 68 42 69 43 70 51 71 44 72 50 73 52 74 49 75
REMARK SMILES IDX 45 76 46 77 47 78 48 79 74 80 75 81 83 82 76 83 82 84 84 85
REMARK SMILES IDX 81 86 77 87 78 88 79 89 80 90 59 91 60 92 68 93 61 94 67 95
REMARK SMILES IDX 69 96 66 97 62 98 63 99 64 100 65 101
REMARK H PARENT 8 22 89 54 57 65
REMARK Flexibility Score: inf
ROOT
ATOM      1  C   UNL A   1      40.527  21.402  26.170  1.00  0.00     0.188 C 
ENDROOT
BRANCH   1   2
ATOM      2  O   UNL A   1      39.269  21.994  26.496  1.00  0.00    -0.377 OA
BRANCH   2   3
ATOM      3  C   UNL A   1      38.242  21.917  25.523  1.00  0.00     0.188 C 
BRANCH   3   4
ATOM      4  C   UNL A   1      37.086  22.914  25.749  1.00  0.00     0.188 C 
BRANCH   4   5
ATOM      5  O   UNL A   1      35.872  22.471  26.325  1.00  0.00    -0.376 OA
BRANCH   5   6
ATOM      6  C   UNL A   1      35.039  21.485  25.746  1.00  0.00     0.202 C 
BRANCH   6   7
ATOM      7  C   UNL A   1      34.354  21.557  24.370  1.00  0.00     0.261 C 
BRANCH   7   8
ATOM      8  O   UNL A   1      33.505  22.664  24.102  1.00  0.00    -0.460 OA
BRANCH   8   9
ATOM      9  C   UNL A   1      33.945  23.535  23.172  1.00  0.00     0.338 C 
ATOM     10  O   UNL A   1      34.211  23.304  22.007  1.00  0.00    -0.246 OA
BRANCH   9  11
ATOM     11  C   UNL A   1      33.879  24.890  23.763  1.00  0.00     0.060 A 
ATOM     12  C   UNL A   1      33.604  27.396  24.944  1.00  0.00     0.052 A 
ATOM     13  C   UNL A   1      33.745  26.267  25.753  1.00  0.00     0.028 A 
ATOM     14  C   UNL A   1      33.745  27.277  23.550  1.00  0.00     0.028 A 
ATOM     15  C   UNL A   1      33.839  25.009  25.159  1.00  0.00     0.018 A 
ATOM     16  C   UNL A   1      33.900  26.027  22.957  1.00  0.00     0.018 A 
BRANCH  12  17
ATOM     17  N   UNL A   1      33.207  28.618  25.502  1.00  0.00    -0.242 N 
ATOM     18  C   UNL A   1      32.078  29.330  25.219  1.00  0.00     0.189 A 
ATOM     19  N   UNL A   1      31.981  30.478  25.835  1.00  0.00    -0.150 NA
ATOM     20  N   UNL A   1      33.093  30.500  26.638  1.00  0.00    -0.226 N 
ATOM     21  C   UNL A   1      33.846  29.333  26.484  1.00  0.00     0.348 A 
ATOM     22  H   UNL A   1      33.330  31.240  27.242  1.00  0.00     0.195 HD
ATOM     23  O   UNL A   1      34.865  29.069  27.102  1.00  0.00    -0.246 OA
BRANCH  18  24
ATOM     24  C   UNL A   1      31.007  28.807  24.387  1.00  0.00     0.130 A 
ATOM     25  C   UNL A   1      28.525  26.401  23.825  1.00  0.00     0.173 C 
ATOM     26  N   UNL A   1      29.451  27.505  23.747  1.00  0.00    -0.275 N 
ATOM     27  C   UNL A   1      29.555  28.428  22.750  1.00  0.00     0.109 A 
ATOM     28  N   UNL A   1      30.320  27.707  24.749  1.00  0.00    -0.170 NA
ATOM     29  C   UNL A   1      30.534  29.309  23.150  1.00  0.00     0.054 A 
ENDBRANCH  18  24
ENDBRANCH  12  17
ENDBRANCH   9  11
ENDBRANCH   8   9
ENDBRANCH   7   8
ENDBRANCH   6   7
ENDBRANCH   5   6
ENDBRANCH   4   5
ENDBRANCH   3   4
ENDBRANCH   2   3
ENDBRANCH   1   2
BRANCH   1  30
ATOM     30  C   UNL A   1      40.789  19.892  26.420  1.00  0.00     0.188 C 
BRANCH  30  31
ATOM     31  O   UNL A   1      41.984  19.588  27.123  1.00  0.00    -0.376 OA
BRANCH  31  32
ATOM     32  C   UNL A   1      42.866  18.549  26.746  1.00  0.00     0.202 C 
BRANCH  32  33
ATOM     33  C   UNL A   1      43.468  18.588  25.349  1.00  0.00     0.261 C 
BRANCH  33  34
ATOM     34  O   UNL A   1      44.574  19.459  25.233  1.00  0.00    -0.460 OA
BRANCH  34  35
ATOM     35  C   UNL A   1      44.641  20.101  24.048  1.00  0.00     0.338 C 
ATOM     36  O   UNL A   1      44.532  19.618  22.942  1.00  0.00    -0.246 OA
BRANCH  35  37
ATOM     37  C   UNL A   1      45.029  21.484  24.320  1.00  0.00     0.060 A 
ATOM     38  C   UNL A   1      45.977  21.660  25.324  1.00  0.00     0.016 A 
ATOM     39  C   UNL A   1      44.160  22.505  23.902  1.00  0.00     0.016 A 
ATOM     40  C   UNL A   1      45.856  22.775  26.112  1.00  0.00     0.010 A 
ATOM     41  C   UNL A   1      44.017  23.596  24.713  1.00  0.00     0.010 A 
ATOM     42  C   UNL A   1      44.804  23.665  25.857  1.00  0.00    -0.014 A 
BRANCH  42  43
ATOM     43  C   UNL A   1      44.655  24.804  26.731  1.00  0.00     0.031 A 
ATOM     44  C   UNL A   1      45.806  25.715  26.587  1.00  0.00     0.074 A 
ATOM     45  C   UNL A   1      43.562  25.018  27.484  1.00  0.00     0.049 A 
ATOM     46  N   UNL A   1      46.781  25.864  27.418  1.00  0.00    -0.248 NA
ATOM     47  C   UNL A   1      46.057  26.304  25.258  1.00  0.00     0.031 C 
ATOM     48  C   UNL A   1      42.297  24.283  27.490  1.00  0.00     0.029 A 
ATOM     49  N   UNL A   1      43.326  26.024  28.366  1.00  0.00    -0.354 N 
ATOM     50  C   UNL A   1      47.615  26.801  26.825  1.00  0.00     0.074 A 
ATOM     51  C   UNL A   1      47.281  26.800  25.431  1.00  0.00     0.031 C 
ATOM     52  C   UNL A   1      41.364  25.006  28.156  1.00  0.00     0.029 A 
ATOM     53  C   UNL A   1      41.990  26.192  28.721  1.00  0.00     0.049 A 
ATOM     54  H   UNL A   1      44.045  26.593  28.725  1.00  0.00     0.167 HD
ATOM     55  C   UNL A   1      48.256  27.724  27.592  1.00  0.00     0.034 A 
ATOM     56  C   UNL A   1      41.454  27.268  29.368  1.00  0.00     0.034 A 
ATOM     57  C   UNL A   1      48.319  27.276  28.971  1.00  0.00     0.049 A 
ATOM     58  C   UNL A   1      42.581  27.953  30.057  1.00  0.00     0.074 A 
ATOM     59  C   UNL A   1      48.829  26.148  29.589  1.00  0.00     0.029 A 
ATOM     60  N   UNL A   1      47.439  27.827  29.878  1.00  0.00    -0.354 N 
ATOM     61  N   UNL A   1      43.239  27.418  31.048  1.00  0.00    -0.248 NA
ATOM     62  C   UNL A   1      43.308  28.977  29.317  1.00  0.00     0.031 C 
ATOM     63  C   UNL A   1      47.877  25.816  30.599  1.00  0.00     0.029 A 
ATOM     64  C   UNL A   1      46.893  26.805  30.619  1.00  0.00     0.049 A 
ATOM     65  H   UNL A   1      47.234  28.784  29.977  1.00  0.00     0.167 HD
ATOM     66  C   UNL A   1      44.573  27.694  30.787  1.00  0.00     0.074 A 
ATOM     67  C   UNL A   1      44.548  28.729  29.754  1.00  0.00     0.031 C 
ATOM     68  C   UNL A   1      45.564  26.849  31.207  1.00  0.00     0.034 A 
BRANCH  55  69
ATOM     69  C   UNL A   1      48.407  29.178  27.190  1.00  0.00     0.023 A 
ATOM     70  C   UNL A   1      49.708  29.703  27.245  1.00  0.00     0.031 A 
ATOM     71  C   UNL A   1      47.372  30.134  27.046  1.00  0.00     0.131 A 
ATOM     72  C   UNL A   1      49.926  31.089  27.308  1.00  0.00     0.055 A 
ATOM     73  C   UNL A   1      47.601  31.512  27.046  1.00  0.00     0.041 A 
ATOM     74  F   UNL A   1      46.076  29.817  26.971  1.00  0.00    -0.206 F 
ATOM     75  C   UNL A   1      48.880  31.999  27.217  1.00  0.00     0.022 A 
BRANCH  72  76
ATOM     76  S   UNL A   1      51.595  31.661  27.699  1.00  0.00     0.124 S 
ATOM     77  O   UNL A   1      51.649  32.914  26.955  1.00  0.00    -0.237 OA
ATOM     78  O   UNL A   1      51.536  31.774  29.152  1.00  0.00    -0.237 OA
ATOM     79  O   UNL A   1      52.446  30.589  27.189  1.00  0.00    -0.744 OA
ENDBRANCH  72  76
ENDBRANCH  55  69
BRANCH  56  80
ATOM     80  C   UNL A   1      40.128  27.923  29.147  1.00  0.00     0.023 A 
ATOM     81  C   UNL A   1      39.267  28.291  30.210  1.00  0.00     0.031 A 
ATOM     82  C   UNL A   1      39.806  28.446  27.874  1.00  0.00     0.131 A 
ATOM     83  C   UNL A   1      38.160  29.146  29.976  1.00  0.00     0.055 A 
ATOM     84  C   UNL A   1      38.715  29.291  27.651  1.00  0.00     0.041 A 
ATOM     85  F   UNL A   1      40.594  28.230  26.811  1.00  0.00    -0.206 F 
ATOM     86  C   UNL A   1      37.895  29.656  28.705  1.00  0.00     0.022 A 
BRANCH  83  87
ATOM     87  S   UNL A   1      37.092  29.703  31.349  1.00  0.00     0.124 S 
ATOM     88  O   UNL A   1      37.619  31.034  31.631  1.00  0.00    -0.237 OA
ATOM     89  O   UNL A   1      35.759  29.643  30.763  1.00  0.00    -0.237 OA
ATOM     90  O   UNL A   1      37.340  28.713  32.398  1.00  0.00    -0.744 OA
ENDBRANCH  83  87
ENDBRANCH  56  80
BRANCH  68  91
ATOM     91  C   UNL A   1      45.212  25.774  32.223  1.00  0.00     0.023 A 
ATOM     92  C   UNL A   1      45.177  25.950  33.627  1.00  0.00     0.031 A 
ATOM     93  C   UNL A   1      44.809  24.525  31.719  1.00  0.00     0.131 A 
ATOM     94  C   UNL A   1      44.772  24.888  34.464  1.00  0.00     0.055 A 
ATOM     95  C   UNL A   1      44.383  23.487  32.547  1.00  0.00     0.041 A 
ATOM     96  F   UNL A   1      44.797  24.296  30.395  1.00  0.00    -0.206 F 
ATOM     97  C   UNL A   1      44.372  23.662  33.925  1.00  0.00     0.022 A 
BRANCH  94  98
ATOM     98  S   UNL A   1      44.797  25.061  36.280  1.00  0.00     0.124 S 
ATOM     99  O   UNL A   1      43.385  25.070  36.644  1.00  0.00    -0.237 OA
ATOM    100  O   UNL A   1      45.557  23.885  36.697  1.00  0.00    -0.237 OA
ATOM    101  O   UNL A   1      45.488  26.335  36.490  1.00  0.00    -0.744 OA
ENDBRANCH  94  98
ENDBRANCH  68  91
ENDBRANCH  42  43
ENDBRANCH  35  37
ENDBRANCH  34  35
ENDBRANCH  33  34
ENDBRANCH  32  33
ENDBRANCH  31  32
ENDBRANCH  30  31
ENDBRANCH   1  30
TORSDOF 25
ENDMDL
MODEL 2
REMARK VINA RESULT:     -10.3      3.993      5.527
REMARK SMILES Cn1ccc(-c2n[nH]c(=O)n2-c2ccc(C(=O)OCCOCCOCCOCCOC(=O)c3ccc(-c4c5nc(c(-c6cc(S(=O)(=O)[O-])ccc6F)c6ccc([nH]6)c(-c6cc(S(=O)(=O)[O-])ccc6F)c6nc(c(-c7cc(S(=O)(=O)[O-])ccc7F)c7ccc4[nH]7)C=C6)C=C5)cc3)cc2)n1
REMARK SMILES IDX 25 1 24 2 23 3 22 4 21 5 20 6 19 7 18 8 16 9 17 10 15 11
REMARK SMILES IDX 12 12 13 13 97 14 14 15 96 16 11 17 6 18 7 19 8 20 9 21
REMARK SMILES IDX 10 23 5 24 1 25 2 26 3 27 98 28 4 29 26 30 27 31 28 32 29 33
REMARK SMILES IDX 30 34 31 35 32 36 33 37 34 38 95 39 35 40 94 41 36 42 37 43
REMARK SMILES IDX 38 44 88 45 39 46 93 47 87 48 89 49 40 50 92 51 86 52 85 53
REMARK SMILES IDX 41 55 73 56 53 57 72 58 54 59 57 60 71 61 90 62 55 63 56 64
REMARK SMILES IDX 70 66 91 67 58 68 42 69 43 70 51 71 44 72 50 73 52 74 49 75
REMARK SMILES IDX 45 76 46 77 47 78 48 79 74 80 75 81 83 82 76 83 82 84 84 85
REMARK SMILES IDX 81 86 77 87 78 88 79 89 80 90 59 91 60 92 68 93 61 94 67 95
REMARK SMILES IDX 69 96 66 97 62 98 63 99 64 100 65 101
REMARK H PARENT 8 22 89 54 57 65
REMARK Flexibility Score: inf
ROOT
ATOM      1  C   UNL A   1      38.189  23.101  26.109  1.00  0.00     0.188 C 
ENDROOT
BRANCH   1   2
ATOM      2  O   UNL A   1      37.280  23.042  25.009  1.00  0.00    -0.377 OA
BRANCH   2   3
ATOM      3  C   UNL A   1      37.002  21.764  24.464  1.00  0.00     0.188 C 
BRANCH   3   4
ATOM      4  C   UNL A   1      35.549  21.292  24.680  1.00  0.00     0.188 C 
BRANCH   4   5
ATOM      5  O   UNL A   1      34.739  21.919  25.657  1.00  0.00    -0.376 OA
BRANCH   5   6
ATOM      6  C   UNL A   1      33.485  22.511  25.379  1.00  0.00     0.202 C 
BRANCH   6   7
ATOM      7  C   UNL A   1      32.274  21.826  24.721  1.00  0.00     0.261 C 
BRANCH   7   8
ATOM      8  O   UNL A   1      31.618  22.503  23.658  1.00  0.00    -0.460 OA
BRANCH   8   9
ATOM      9  C   UNL A   1      32.401  23.273  22.876  1.00  0.00     0.338 C 
ATOM     10  O   UNL A   1      33.308  22.911  22.149  1.00  0.00    -0.246 OA
BRANCH   9  11
ATOM     11  C   UNL A   1      31.851  24.646  22.908  1.00  0.00     0.060 A 
ATOM     12  C   UNL A   1      30.955  27.278  23.062  1.00  0.00     0.052 A 
ATOM     13  C   UNL A   1      32.129  26.992  22.364  1.00  0.00     0.028 A 
ATOM     14  C   UNL A   1      30.163  26.226  23.556  1.00  0.00     0.028 A 
ATOM     15  C   UNL A   1      32.598  25.680  22.326  1.00  0.00     0.018 A 
ATOM     16  C   UNL A   1      30.601  24.907  23.466  1.00  0.00     0.018 A 
BRANCH  12  17
ATOM     17  N   UNL A   1      30.625  28.603  23.374  1.00  0.00    -0.242 N 
ATOM     18  C   UNL A   1      31.024  29.322  24.463  1.00  0.00     0.189 A 
ATOM     19  N   UNL A   1      30.516  30.522  24.548  1.00  0.00    -0.150 NA
ATOM     20  N   UNL A   1      29.778  30.635  23.397  1.00  0.00    -0.226 N 
ATOM     21  C   UNL A   1      29.869  29.472  22.628  1.00  0.00     0.348 A 
ATOM     22  H   UNL A   1      29.254  31.429  23.147  1.00  0.00     0.195 HD
ATOM     23  O   UNL A   1      29.344  29.310  21.538  1.00  0.00    -0.246 OA
BRANCH  18  24
ATOM     24  C   UNL A   1      32.026  28.839  25.399  1.00  0.00     0.130 A 
ATOM     25  C   UNL A   1      35.015  29.357  27.151  1.00  0.00     0.173 C 
ATOM     26  N   UNL A   1      33.801  28.832  26.572  1.00  0.00    -0.275 N 
ATOM     27  C   UNL A   1      33.243  27.609  26.791  1.00  0.00     0.109 A 
ATOM     28  N   UNL A   1      33.089  29.597  25.731  1.00  0.00    -0.170 NA
ATOM     29  C   UNL A   1      32.071  27.592  26.070  1.00  0.00     0.054 A 
ENDBRANCH  18  24
ENDBRANCH  12  17
ENDBRANCH   9  11
ENDBRANCH   8   9
ENDBRANCH   7   8
ENDBRANCH   6   7
ENDBRANCH   5   6
ENDBRANCH   4   5
ENDBRANCH   3   4
ENDBRANCH   2   3
ENDBRANCH   1   2
BRANCH   1  30
ATOM     30  C   UNL A   1      39.503  22.273  26.107  1.00  0.00     0.188 C 
BRANCH  30  31
ATOM     31  O   UNL A   1      39.765  21.542  27.294  1.00  0.00    -0.376 OA
BRANCH  31  32
ATOM     32  C   UNL A   1      41.010  20.933  27.574  1.00  0.00     0.202 C 
BRANCH  32  33
ATOM     33  C   UNL A   1      42.245  21.458  26.857  1.00  0.00     0.261 C 
BRANCH  33  34
ATOM     34  O   UNL A   1      42.892  22.512  27.538  1.00  0.00    -0.460 OA
BRANCH  34  35
ATOM     35  C   UNL A   1      42.739  23.717  26.952  1.00  0.00     0.338 C 
ATOM     36  O   UNL A   1      43.136  24.060  25.859  1.00  0.00    -0.246 OA
BRANCH  35  37
ATOM     37  C   UNL A   1      42.132  24.610  27.937  1.00  0.00     0.060 A 
ATOM     38  C   UNL A   1      40.958  25.242  27.537  1.00  0.00     0.016 A 
ATOM     39  C   UNL A   1      42.945  25.093  28.975  1.00  0.00     0.016 A 
ATOM     40  C   UNL A   1      40.751  26.521  27.986  1.00  0.00     0.010 A 
ATOM     41  C   UNL A   1      42.757  26.381  29.389  1.00  0.00     0.010 A 
ATOM     42  C   UNL A   1      41.717  27.105  28.816  1.00  0.00    -0.014 A 
BRANCH  42  43
ATOM     43  C   UNL A   1      41.514  28.472  29.232  1.00  0.00     0.031 A 
ATOM     44  C   UNL A   1      42.528  29.351  28.620  1.00  0.00     0.074 A 
ATOM     45  C   UNL A   1      40.478  28.865  29.994  1.00  0.00     0.049 A 
ATOM     46  N   UNL A   1      43.551  29.874  29.206  1.00  0.00    -0.248 NA
ATOM     47  C   UNL A   1      42.581  29.421  27.147  1.00  0.00     0.031 C 
ATOM     48  C   UNL A   1      39.317  28.088  30.430  1.00  0.00     0.029 A 
ATOM     49  N   UNL A   1      40.205  30.105  30.477  1.00  0.00    -0.354 N 
ATOM     50  C   UNL A   1      44.206  30.586  28.212  1.00  0.00     0.074 A 
ATOM     51  C   UNL A   1      43.746  30.040  26.968  1.00  0.00     0.031 C 
ATOM     52  C   UNL A   1      38.370  28.932  30.908  1.00  0.00     0.029 A 
ATOM     53  C   UNL A   1      38.898  30.288  30.921  1.00  0.00     0.049 A 
ATOM     54  H   UNL A   1      40.881  30.820  30.510  1.00  0.00     0.167 HD
ATOM     55  C   UNL A   1      44.799  31.774  28.503  1.00  0.00     0.034 A 
ATOM     56  C   UNL A   1      38.298  31.481  31.200  1.00  0.00     0.034 A 
ATOM     57  C   UNL A   1      45.045  31.878  29.930  1.00  0.00     0.049 A 
ATOM     58  C   UNL A   1      39.394  32.459  31.442  1.00  0.00     0.074 A 
ATOM     59  C   UNL A   1      45.743  31.104  30.841  1.00  0.00     0.029 A 
ATOM     60  N   UNL A   1      44.193  32.655  30.685  1.00  0.00    -0.354 N 
ATOM     61  N   UNL A   1      40.201  32.384  32.464  1.00  0.00    -0.248 NA
ATOM     62  C   UNL A   1      39.920  33.188  30.295  1.00  0.00     0.031 C 
ATOM     63  C   UNL A   1      44.936  31.097  32.017  1.00  0.00     0.029 A 
ATOM     64  C   UNL A   1      43.846  31.943  31.809  1.00  0.00     0.049 A 
ATOM     65  H   UNL A   1      43.884  33.562  30.458  1.00  0.00     0.167 HD
ATOM     66  C   UNL A   1      41.462  32.647  31.949  1.00  0.00     0.074 A 
ATOM     67  C   UNL A   1      41.216  33.218  30.625  1.00  0.00     0.031 C 
ATOM     68  C   UNL A   1      42.582  32.099  32.510  1.00  0.00     0.034 A 
BRANCH  55  69
ATOM     69  C   UNL A   1      44.736  32.982  27.589  1.00  0.00     0.023 A 
ATOM     70  C   UNL A   1      43.974  34.068  28.049  1.00  0.00     0.031 A 
ATOM     71  C   UNL A   1      45.107  33.036  26.223  1.00  0.00     0.131 A 
ATOM     72  C   UNL A   1      43.497  35.044  27.160  1.00  0.00     0.055 A 
ATOM     73  C   UNL A   1      44.681  34.045  25.356  1.00  0.00     0.041 A 
ATOM     74  F   UNL A   1      45.835  32.095  25.615  1.00  0.00    -0.206 F 
ATOM     75  C   UNL A   1      43.838  35.037  25.813  1.00  0.00     0.022 A 
BRANCH  72  76
ATOM     76  S   UNL A   1      42.267  36.216  27.778  1.00  0.00     0.124 S 
ATOM     77  O   UNL A   1      42.719  36.405  29.152  1.00  0.00    -0.237 OA
ATOM     78  O   UNL A   1      42.453  37.345  26.874  1.00  0.00    -0.237 OA
ATOM     79  O   UNL A   1      41.008  35.492  27.624  1.00  0.00    -0.744 OA
ENDBRANCH  72  76
ENDBRANCH  55  69
BRANCH  56  80
ATOM     80  C   UNL A   1      36.888  31.901  30.935  1.00  0.00     0.023 A 
ATOM     81  C   UNL A   1      36.069  32.507  31.919  1.00  0.00     0.031 A 
ATOM     82  C   UNL A   1      36.410  31.955  29.606  1.00  0.00     0.131 A 
ATOM     83  C   UNL A   1      34.850  33.132  31.555  1.00  0.00     0.055 A 
ATOM     84  C   UNL A   1      35.208  32.576  29.253  1.00  0.00     0.041 A 
ATOM     85  F   UNL A   1      37.138  31.486  28.582  1.00  0.00    -0.206 F 
ATOM     86  C   UNL A   1      34.429  33.180  30.226  1.00  0.00     0.022 A 
BRANCH  83  87
ATOM     87  S   UNL A   1      33.825  33.996  32.796  1.00  0.00     0.124 S 
ATOM     88  O   UNL A   1      33.108  34.972  31.982  1.00  0.00    -0.237 OA
ATOM     89  O   UNL A   1      33.030  32.915  33.364  1.00  0.00    -0.237 OA
ATOM     90  O   UNL A   1      34.812  34.571  33.712  1.00  0.00    -0.744 OA
ENDBRANCH  83  87
ENDBRANCH  56  80
BRANCH  68  91
ATOM     91  C   UNL A   1      42.460  31.455  33.883  1.00  0.00     0.023 A 
ATOM     92  C   UNL A   1      42.296  30.071  34.129  1.00  0.00     0.031 A 
ATOM     93  C   UNL A   1      42.605  32.297  35.000  1.00  0.00     0.131 A 
ATOM     94  C   UNL A   1      42.258  29.588  35.455  1.00  0.00     0.055 A 
ATOM     95  C   UNL A   1      42.596  31.812  36.307  1.00  0.00     0.041 A 
ATOM     96  F   UNL A   1      42.786  33.618  34.838  1.00  0.00    -0.206 F 
ATOM     97  C   UNL A   1      42.412  30.456  36.540  1.00  0.00     0.022 A 
BRANCH  94  98
ATOM     98  S   UNL A   1      41.965  27.821  35.803  1.00  0.00     0.124 S 
ATOM     99  O   UNL A   1      40.848  27.835  36.740  1.00  0.00    -0.237 OA
ATOM    100  O   UNL A   1      41.678  27.283  34.476  1.00  0.00    -0.237 OA
ATOM    101  O   UNL A   1      43.236  27.373  36.377  1.00  0.00    -0.744 OA
ENDBRANCH  94  98
ENDBRANCH  68  91
ENDBRANCH  42  43
ENDBRANCH  35  37
ENDBRANCH  34  35
ENDBRANCH  33  34
ENDBRANCH  32  33
ENDBRANCH  31  32
ENDBRANCH  30  31
ENDBRANCH   1  30
TORSDOF 25
ENDMDL
MODEL 3
REMARK VINA RESULT:     -10.1      4.424      9.297
REMARK SMILES Cn1ccc(-c2n[nH]c(=O)n2-c2ccc(C(=O)OCCOCCOCCOCCOC(=O)c3ccc(-c4c5nc(c(-c6cc(S(=O)(=O)[O-])ccc6F)c6ccc([nH]6)c(-c6cc(S(=O)(=O)[O-])ccc6F)c6nc(c(-c7cc(S(=O)(=O)[O-])ccc7F)c7ccc4[nH]7)C=C6)C=C5)cc3)cc2)n1
REMARK SMILES IDX 25 1 24 2 23 3 22 4 21 5 20 6 19 7 18 8 16 9 17 10 15 11
REMARK SMILES IDX 12 12 13 13 97 14 14 15 96 16 11 17 6 18 7 19 8 20 9 21
REMARK SMILES IDX 10 23 5 24 1 25 2 26 3 27 98 28 4 29 26 30 27 31 28 32 29 33
REMARK SMILES IDX 30 34 31 35 32 36 33 37 34 38 95 39 35 40 94 41 36 42 37 43
REMARK SMILES IDX 38 44 88 45 39 46 93 47 87 48 89 49 40 50 92 51 86 52 85 53
REMARK SMILES IDX 41 55 73 56 53 57 72 58 54 59 57 60 71 61 90 62 55 63 56 64
REMARK SMILES IDX 70 66 91 67 58 68 42 69 43 70 51 71 44 72 50 73 52 74 49 75
REMARK SMILES IDX 45 76 46 77 47 78 48 79 74 80 75 81 83 82 76 83 82 84 84 85
REMARK SMILES IDX 81 86 77 87 78 88 79 89 80 90 59 91 60 92 68 93 61 94 67 95
REMARK SMILES IDX 69 96 66 97 62 98 63 99 64 100 65 101
REMARK H PARENT 8 22 89 54 57 65
REMARK Flexibility Score: inf
ROOT
ATOM      1  C   UNL A   1      37.255  23.449  25.961  1.00  0.00     0.188 C 
ENDROOT
BRANCH   1   2
ATOM      2  O   UNL A   1      37.158  22.654  24.779  1.00  0.00    -0.377 OA
BRANCH   2   3
ATOM      3  C   UNL A   1      36.994  21.257  24.947  1.00  0.00     0.188 C 
BRANCH   3   4
ATOM      4  C   UNL A   1      35.523  20.791  24.932  1.00  0.00     0.188 C 
BRANCH   4   5
ATOM      5  O   UNL A   1      34.521  21.591  25.529  1.00  0.00    -0.376 OA
BRANCH   5   6
ATOM      6  C   UNL A   1      33.204  21.711  25.026  1.00  0.00     0.202 C 
BRANCH   6   7
ATOM      7  C   UNL A   1      32.756  21.489  23.571  1.00  0.00     0.261 C 
BRANCH   7   8
ATOM      8  O   UNL A   1      32.315  22.617  22.827  1.00  0.00    -0.460 OA
BRANCH   8   9
ATOM      9  C   UNL A   1      33.234  23.581  22.615  1.00  0.00     0.338 C 
ATOM     10  O   UNL A   1      34.393  23.437  22.272  1.00  0.00    -0.246 OA
BRANCH   9  11
ATOM     11  C   UNL A   1      32.541  24.885  22.696  1.00  0.00     0.060 A 
ATOM     12  C   UNL A   1      31.361  27.394  22.955  1.00  0.00     0.052 A 
ATOM     13  C   UNL A   1      32.605  27.281  22.332  1.00  0.00     0.028 A 
ATOM     14  C   UNL A   1      30.653  26.234  23.315  1.00  0.00     0.028 A 
ATOM     15  C   UNL A   1      33.213  26.029  22.243  1.00  0.00     0.018 A 
ATOM     16  C   UNL A   1      31.233  24.976  23.172  1.00  0.00     0.018 A 
BRANCH  12  17
ATOM     17  N   UNL A   1      30.871  28.652  23.326  1.00  0.00    -0.242 N 
ATOM     18  C   UNL A   1      31.166  29.354  24.459  1.00  0.00     0.189 A 
ATOM     19  N   UNL A   1      30.518  30.479  24.596  1.00  0.00    -0.150 NA
ATOM     20  N   UNL A   1      29.788  30.566  23.437  1.00  0.00    -0.226 N 
ATOM     21  C   UNL A   1      30.028  29.465  22.611  1.00  0.00     0.348 A 
ATOM     22  H   UNL A   1      29.177  31.305  23.216  1.00  0.00     0.195 HD
ATOM     23  O   UNL A   1      29.542  29.300  21.503  1.00  0.00    -0.246 OA
BRANCH  18  24
ATOM     24  C   UNL A   1      32.205  28.943  25.390  1.00  0.00     0.130 A 
ATOM     25  C   UNL A   1      35.011  29.749  27.324  1.00  0.00     0.173 C 
ATOM     26  N   UNL A   1      33.919  29.099  26.640  1.00  0.00    -0.275 N 
ATOM     27  C   UNL A   1      33.564  27.786  26.711  1.00  0.00     0.109 A 
ATOM     28  N   UNL A   1      33.117  29.824  25.845  1.00  0.00    -0.170 NA
ATOM     29  C   UNL A   1      32.433  27.657  25.937  1.00  0.00     0.054 A 
ENDBRANCH  18  24
ENDBRANCH  12  17
ENDBRANCH   9  11
ENDBRANCH   8   9
ENDBRANCH   7   8
ENDBRANCH   6   7
ENDBRANCH   5   6
ENDBRANCH   4   5
ENDBRANCH   3   4
ENDBRANCH   2   3
ENDBRANCH   1   2
BRANCH   1  30
ATOM     30  C   UNL A   1      38.632  23.950  26.476  1.00  0.00     0.188 C 
BRANCH  30  31
ATOM     31  O   UNL A   1      39.404  22.992  27.183  1.00  0.00    -0.376 OA
BRANCH  31  32
ATOM     32  C   UNL A   1      40.810  22.883  27.064  1.00  0.00     0.202 C 
BRANCH  32  33
ATOM     33  C   UNL A   1      41.529  23.848  26.133  1.00  0.00     0.261 C 
BRANCH  33  34
ATOM     34  O   UNL A   1      41.967  25.030  26.768  1.00  0.00    -0.460 OA
BRANCH  34  35
ATOM     35  C   UNL A   1      41.637  26.159  26.108  1.00  0.00     0.338 C 
ATOM     36  O   UNL A   1      42.033  26.519  25.020  1.00  0.00    -0.246 OA
BRANCH  35  37
ATOM     37  C   UNL A   1      40.821  26.971  27.009  1.00  0.00     0.060 A 
ATOM     38  C   UNL A   1      40.723  28.321  26.684  1.00  0.00     0.016 A 
ATOM     39  C   UNL A   1      40.575  26.476  28.300  1.00  0.00     0.016 A 
ATOM     40  C   UNL A   1      40.663  29.214  27.723  1.00  0.00     0.010 A 
ATOM     41  C   UNL A   1      40.555  27.369  29.335  1.00  0.00     0.010 A 
ATOM     42  C   UNL A   1      40.695  28.719  29.034  1.00  0.00    -0.014 A 
BRANCH  42  43
ATOM     43  C   UNL A   1      40.689  29.673  30.117  1.00  0.00     0.031 A 
ATOM     44  C   UNL A   1      39.387  30.362  30.188  1.00  0.00     0.074 A 
ATOM     45  C   UNL A   1      41.712  29.817  30.979  1.00  0.00     0.049 A 
ATOM     46  N   UNL A   1      39.131  31.569  29.816  1.00  0.00    -0.248 NA
ATOM     47  C   UNL A   1      38.184  29.539  30.419  1.00  0.00     0.031 C 
ATOM     48  C   UNL A   1      42.922  29.004  31.106  1.00  0.00     0.029 A 
ATOM     49  N   UNL A   1      41.836  30.699  32.004  1.00  0.00    -0.354 N 
ATOM     50  C   UNL A   1      37.775  31.737  30.055  1.00  0.00     0.074 A 
ATOM     51  C   UNL A   1      37.223  30.416  30.135  1.00  0.00     0.031 C 
ATOM     52  C   UNL A   1      43.530  29.290  32.283  1.00  0.00     0.029 A 
ATOM     53  C   UNL A   1      42.822  30.381  32.935  1.00  0.00     0.049 A 
ATOM     54  H   UNL A   1      41.272  31.502  32.083  1.00  0.00     0.167 HD
ATOM     55  C   UNL A   1      37.305  32.932  30.500  1.00  0.00     0.034 A 
ATOM     56  C   UNL A   1      42.977  30.939  34.171  1.00  0.00     0.034 A 
ATOM     57  C   UNL A   1      38.256  33.989  30.207  1.00  0.00     0.049 A 
ATOM     58  C   UNL A   1      42.267  32.247  34.137  1.00  0.00     0.074 A 
ATOM     59  C   UNL A   1      38.845  34.452  29.044  1.00  0.00     0.029 A 
ATOM     60  N   UNL A   1      39.051  34.454  31.233  1.00  0.00    -0.354 N 
ATOM     61  N   UNL A   1      42.660  33.251  33.402  1.00  0.00    -0.248 NA
ATOM     62  C   UNL A   1      40.855  32.263  34.496  1.00  0.00     0.031 C 
ATOM     63  C   UNL A   1      40.198  34.733  29.399  1.00  0.00     0.029 A 
ATOM     64  C   UNL A   1      40.345  34.529  30.772  1.00  0.00     0.049 A 
ATOM     65  H   UNL A   1      38.747  34.689  32.139  1.00  0.00     0.167 HD
ATOM     66  C   UNL A   1      41.500  33.764  32.840  1.00  0.00     0.074 A 
ATOM     67  C   UNL A   1      40.412  33.169  33.618  1.00  0.00     0.031 C 
ATOM     68  C   UNL A   1      41.518  34.374  31.617  1.00  0.00     0.034 A 
BRANCH  55  69
ATOM     69  C   UNL A   1      36.235  33.060  31.566  1.00  0.00     0.023 A 
ATOM     70  C   UNL A   1      35.079  33.770  31.203  1.00  0.00     0.031 A 
ATOM     71  C   UNL A   1      36.378  32.803  32.952  1.00  0.00     0.131 A 
ATOM     72  C   UNL A   1      34.225  34.310  32.178  1.00  0.00     0.055 A 
ATOM     73  C   UNL A   1      35.491  33.290  33.915  1.00  0.00     0.041 A 
ATOM     74  F   UNL A   1      37.410  32.138  33.479  1.00  0.00    -0.206 F 
ATOM     75  C   UNL A   1      34.427  34.082  33.534  1.00  0.00     0.022 A 
BRANCH  72  76
ATOM     76  S   UNL A   1      32.953  35.472  31.633  1.00  0.00     0.124 S 
ATOM     77  O   UNL A   1      33.645  36.746  31.793  1.00  0.00    -0.237 OA
ATOM     78  O   UNL A   1      32.717  35.032  30.263  1.00  0.00    -0.237 OA
ATOM     79  O   UNL A   1      31.856  35.230  32.567  1.00  0.00    -0.744 OA
ENDBRANCH  72  76
ENDBRANCH  55  69
BRANCH  56  80
ATOM     80  C   UNL A   1      43.387  30.278  35.448  1.00  0.00     0.023 A 
ATOM     81  C   UNL A   1      43.102  28.921  35.736  1.00  0.00     0.031 A 
ATOM     82  C   UNL A   1      44.314  30.916  36.303  1.00  0.00     0.131 A 
ATOM     83  C   UNL A   1      43.738  28.267  36.821  1.00  0.00     0.055 A 
ATOM     84  C   UNL A   1      44.940  30.264  37.369  1.00  0.00     0.041 A 
ATOM     85  F   UNL A   1      44.719  32.174  36.079  1.00  0.00    -0.206 F 
ATOM     86  C   UNL A   1      44.664  28.932  37.625  1.00  0.00     0.022 A 
BRANCH  83  87
ATOM     87  S   UNL A   1      43.452  26.493  37.152  1.00  0.00     0.124 S 
ATOM     88  O   UNL A   1      44.606  25.869  36.514  1.00  0.00    -0.237 OA
ATOM     89  O   UNL A   1      43.408  26.442  38.608  1.00  0.00    -0.237 OA
ATOM     90  O   UNL A   1      42.171  26.226  36.496  1.00  0.00    -0.744 OA
ENDBRANCH  83  87
ENDBRANCH  56  80
BRANCH  68  91
ATOM     91  C   UNL A   1      42.864  34.759  31.023  1.00  0.00     0.023 A 
ATOM     92  C   UNL A   1      43.524  34.077  29.973  1.00  0.00     0.031 A 
ATOM     93  C   UNL A   1      43.461  35.939  31.502  1.00  0.00     0.131 A 
ATOM     94  C   UNL A   1      44.743  34.571  29.464  1.00  0.00     0.055 A 
ATOM     95  C   UNL A   1      44.651  36.440  30.978  1.00  0.00     0.041 A 
ATOM     96  F   UNL A   1      42.877  36.648  32.482  1.00  0.00    -0.206 F 
ATOM     97  C   UNL A   1      45.303  35.752  29.963  1.00  0.00     0.022 A 
BRANCH  94  98
ATOM     98  S   UNL A   1      45.657  33.668  28.169  1.00  0.00     0.124 S 
ATOM     99  O   UNL A   1      46.571  34.668  27.631  1.00  0.00    -0.237 OA
ATOM    100  O   UNL A   1      46.273  32.578  28.921  1.00  0.00    -0.237 OA
ATOM    101  O   UNL A   1      44.603  33.246  27.243  1.00  0.00    -0.744 OA
ENDBRANCH  94  98
ENDBRANCH  68  91
ENDBRANCH  42  43
ENDBRANCH  35  37
ENDBRANCH  34  35
ENDBRANCH  33  34
ENDBRANCH  32  33
ENDBRANCH  31  32
ENDBRANCH  30  31
ENDBRANCH   1  30
TORSDOF 25
ENDMDL
