MODEL 1
REMARK VINA RESULT:      -8.6      0.000      0.000
REMARK SMILES NS(=O)(=O)c1ccc(N2N=C(C(=O)OCCOCCOCCOCCOC(=O)c3ccc(-c4c5nc(c(-c6cc(S(=O)(=O)[O-])ccc6F)c6ccc([nH]6)c(-c6cc(S(=O)(=O)[O-])ccc6F)c6nc(c(-c7cc(S(=O)(=O)[O-])ccc7F)c7ccc4[nH]7)C=C6)C=C5)cc3)C[C@H]2c2ccco2)cc1
REMARK SMILES IDX 20 1 19 2 18 3 17 4 16 5 15 6 14 7 12 8 13 9 11 10 9 11
REMARK SMILES IDX 10 12 93 13 92 14 8 15 5 16 6 17 100 18 7 19 99 20 2 21 3 22
REMARK SMILES IDX 4 23 1 24 94 27 95 28 98 29 96 30 97 31 21 32 22 33 23 34
REMARK SMILES IDX 24 35 25 36 26 37 27 38 28 39 29 40 30 41 91 42 31 43 90 44
REMARK SMILES IDX 32 45 33 46 34 47 84 48 35 49 89 50 83 51 85 52 36 53 88 54
REMARK SMILES IDX 82 55 81 56 37 58 69 59 49 60 68 61 50 62 53 63 67 64 86 65
REMARK SMILES IDX 51 66 52 67 66 69 87 70 54 71 38 72 39 73 47 74 40 75 46 76
REMARK SMILES IDX 48 77 45 78 41 79 42 80 43 81 44 82 70 83 71 84 79 85 72 86
REMARK SMILES IDX 78 87 80 88 77 89 73 90 74 91 75 92 76 93 55 94 56 95 64 96
REMARK SMILES IDX 57 97 63 98 65 99 62 100 58 101 59 102 60 103 61 104
REMARK H PARENT 1 25 1 26 85 57 53 68
REMARK Flexibility Score: inf
ROOT
ATOM      1  O   UNL A   1      40.247  28.078  29.480  1.00  0.00    -0.377 OA
ENDROOT
BRANCH   1   2
ATOM      2  C   UNL A   1      41.508  27.437  29.546  1.00  0.00     0.188 C 
BRANCH   2   3
ATOM      3  C   UNL A   1      42.047  26.996  28.174  1.00  0.00     0.188 C 
BRANCH   3   4
ATOM      4  O   UNL A   1      41.619  25.758  27.638  1.00  0.00    -0.376 OA
BRANCH   4   5
ATOM      5  C   UNL A   1      40.411  25.115  28.023  1.00  0.00     0.202 C 
BRANCH   5   6
ATOM      6  C   UNL A   1      39.874  23.769  27.494  1.00  0.00     0.261 C 
BRANCH   6   7
ATOM      7  O   UNL A   1      38.795  23.824  26.570  1.00  0.00    -0.459 OA
BRANCH   7   8
ATOM      8  C   UNL A   1      38.430  22.670  25.992  1.00  0.00     0.354 C 
ATOM      9  O   UNL A   1      38.858  21.551  26.192  1.00  0.00    -0.245 OA
BRANCH   8  10
ATOM     10  C   UNL A   1      37.237  22.971  25.127  1.00  0.00     0.148 C 
ATOM     11  N   UNL A   1      35.550  23.949  24.310  1.00  0.00    -0.254 N 
ATOM     12  N   UNL A   1      36.525  24.053  25.258  1.00  0.00    -0.169 NA
ATOM     13  C   UNL A   1      35.458  22.584  23.756  1.00  0.00     0.180 C 
ATOM     14  C   UNL A   1      36.898  22.095  23.959  1.00  0.00     0.101 C 
BRANCH  11  15
ATOM     15  C   UNL A   1      34.532  24.890  24.287  1.00  0.00     0.060 A 
ATOM     16  C   UNL A   1      32.540  26.877  24.249  1.00  0.00     0.082 A 
ATOM     17  C   UNL A   1      33.186  26.569  25.447  1.00  0.00     0.024 A 
ATOM     18  C   UNL A   1      32.836  26.164  23.087  1.00  0.00     0.024 A 
ATOM     19  C   UNL A   1      34.175  25.574  25.459  1.00  0.00     0.029 A 
ATOM     20  C   UNL A   1      33.816  25.171  23.118  1.00  0.00     0.029 A 
BRANCH  16  21
ATOM     21  S   UNL A   1      31.324  28.154  24.164  1.00  0.00     0.238 S 
ATOM     22  O   UNL A   1      30.006  27.553  24.265  1.00  0.00    -0.207 OA
ATOM     23  O   UNL A   1      31.679  29.057  23.105  1.00  0.00    -0.207 OA
BRANCH  21  24
ATOM     24  N   UNL A   1      31.510  29.014  25.595  1.00  0.00    -0.225 NA
ATOM     25  H   UNL A   1      32.291  29.663  25.502  1.00  0.00     0.137 HD
ATOM     26  H   UNL A   1      31.696  28.366  26.360  1.00  0.00     0.137 HD
ENDBRANCH  21  24
ENDBRANCH  16  21
ENDBRANCH  11  15
BRANCH  13  27
ATOM     27  C   UNL A   1      34.484  21.644  24.411  1.00  0.00     0.128 A 
ATOM     28  C   UNL A   1      34.602  20.708  25.420  1.00  0.00     0.048 A 
ATOM     29  O   UNL A   1      33.192  21.667  23.963  1.00  0.00    -0.467 OA
ATOM     30  C   UNL A   1      33.323  20.119  25.575  1.00  0.00     0.042 A 
ATOM     31  C   UNL A   1      32.496  20.753  24.680  1.00  0.00     0.195 A 
ENDBRANCH  13  27
ENDBRANCH   8  10
ENDBRANCH   7   8
ENDBRANCH   6   7
ENDBRANCH   5   6
ENDBRANCH   4   5
ENDBRANCH   3   4
ENDBRANCH   2   3
ENDBRANCH   1   2
BRANCH   1  32
ATOM     32  C   UNL A   1      39.731  28.618  30.696  1.00  0.00     0.188 C 
BRANCH  32  33
ATOM     33  C   UNL A   1      38.208  28.604  30.951  1.00  0.00     0.188 C 
BRANCH  33  34
ATOM     34  O   UNL A   1      37.700  29.807  31.520  1.00  0.00    -0.376 OA
BRANCH  34  35
ATOM     35  C   UNL A   1      38.327  31.031  31.161  1.00  0.00     0.202 C 
BRANCH  35  36
ATOM     36  C   UNL A   1      37.826  31.682  29.863  1.00  0.00     0.261 C 
BRANCH  36  37
ATOM     37  O   UNL A   1      37.496  33.076  29.960  1.00  0.00    -0.460 OA
BRANCH  37  38
ATOM     38  C   UNL A   1      38.049  33.753  30.990  1.00  0.00     0.338 C 
ATOM     39  O   UNL A   1      37.632  33.808  32.133  1.00  0.00    -0.246 OA
BRANCH  38  40
ATOM     40  C   UNL A   1      39.367  34.260  30.559  1.00  0.00     0.060 A 
ATOM     41  C   UNL A   1      39.495  34.748  29.255  1.00  0.00     0.016 A 
ATOM     42  C   UNL A   1      40.470  34.226  31.418  1.00  0.00     0.016 A 
ATOM     43  C   UNL A   1      40.744  35.144  28.782  1.00  0.00     0.010 A 
ATOM     44  C   UNL A   1      41.725  34.615  30.938  1.00  0.00     0.010 A 
ATOM     45  C   UNL A   1      41.874  35.030  29.603  1.00  0.00    -0.014 A 
BRANCH  45  46
ATOM     46  C   UNL A   1      43.218  35.154  28.984  1.00  0.00     0.031 A 
ATOM     47  C   UNL A   1      43.759  36.531  28.706  1.00  0.00     0.074 A 
ATOM     48  C   UNL A   1      43.973  34.068  28.740  1.00  0.00     0.049 A 
ATOM     49  N   UNL A   1      44.925  36.889  28.236  1.00  0.00    -0.248 NA
ATOM     50  C   UNL A   1      42.856  37.654  28.997  1.00  0.00     0.031 C 
ATOM     51  C   UNL A   1      43.562  32.686  28.986  1.00  0.00     0.029 A 
ATOM     52  N   UNL A   1      45.244  33.959  28.236  1.00  0.00    -0.354 N 
ATOM     53  C   UNL A   1      44.898  38.279  28.173  1.00  0.00     0.074 A 
ATOM     54  C   UNL A   1      43.578  38.690  28.604  1.00  0.00     0.031 C 
ATOM     55  C   UNL A   1      44.565  31.866  28.626  1.00  0.00     0.029 A 
ATOM     56  C   UNL A   1      45.675  32.661  28.101  1.00  0.00     0.049 A 
ATOM     57  H   UNL A   1      45.795  34.738  27.993  1.00  0.00     0.167 HD
ATOM     58  C   UNL A   1      45.886  39.134  27.806  1.00  0.00     0.034 A 
ATOM     59  C   UNL A   1      46.824  32.170  27.597  1.00  0.00     0.034 A 
ATOM     60  C   UNL A   1      47.189  38.702  27.360  1.00  0.00     0.049 A 
ATOM     61  C   UNL A   1      47.894  33.132  27.139  1.00  0.00     0.074 A 
ATOM     62  C   UNL A   1      48.274  39.477  26.988  1.00  0.00     0.029 A 
ATOM     63  N   UNL A   1      47.581  37.376  27.203  1.00  0.00    -0.354 N 
ATOM     64  N   UNL A   1      47.874  34.447  27.124  1.00  0.00    -0.248 NA
ATOM     65  C   UNL A   1      49.148  32.545  26.655  1.00  0.00     0.031 C 
ATOM     66  C   UNL A   1      49.284  38.625  26.524  1.00  0.00     0.029 A 
ATOM     67  C   UNL A   1      48.872  37.314  26.699  1.00  0.00     0.049 A 
ATOM     68  H   UNL A   1      47.020  36.595  27.418  1.00  0.00     0.167 HD
ATOM     69  C   UNL A   1      49.124  34.842  26.653  1.00  0.00     0.074 A 
ATOM     70  C   UNL A   1      49.876  33.625  26.417  1.00  0.00     0.031 C 
ATOM     71  C   UNL A   1      49.609  36.095  26.442  1.00  0.00     0.034 A 
BRANCH  58  72
ATOM     72  C   UNL A   1      45.557  40.610  27.811  1.00  0.00     0.023 A 
ATOM     73  C   UNL A   1      45.535  41.365  28.998  1.00  0.00     0.031 A 
ATOM     74  C   UNL A   1      45.199  41.261  26.616  1.00  0.00     0.131 A 
ATOM     75  C   UNL A   1      45.069  42.689  28.979  1.00  0.00     0.055 A 
ATOM     76  C   UNL A   1      44.829  42.607  26.590  1.00  0.00     0.041 A 
ATOM     77  F   UNL A   1      45.174  40.590  25.453  1.00  0.00    -0.206 F 
ATOM     78  C   UNL A   1      44.742  43.324  27.780  1.00  0.00     0.022 A 
BRANCH  75  79
ATOM     79  S   UNL A   1      44.717  43.507  30.561  1.00  0.00     0.124 S 
ATOM     80  O   UNL A   1      44.531  44.895  30.141  1.00  0.00    -0.237 OA
ATOM     81  O   UNL A   1      43.518  42.811  31.015  1.00  0.00    -0.237 OA
ATOM     82  O   UNL A   1      45.921  43.261  31.350  1.00  0.00    -0.744 OA
ENDBRANCH  75  79
ENDBRANCH  58  72
BRANCH  59  83
ATOM     83  C   UNL A   1      47.009  30.696  27.463  1.00  0.00     0.023 A 
ATOM     84  C   UNL A   1      46.652  30.006  26.293  1.00  0.00     0.031 A 
ATOM     85  C   UNL A   1      47.533  29.949  28.533  1.00  0.00     0.131 A 
ATOM     86  C   UNL A   1      46.796  28.611  26.234  1.00  0.00     0.055 A 
ATOM     87  C   UNL A   1      47.721  28.569  28.451  1.00  0.00     0.041 A 
ATOM     88  F   UNL A   1      47.889  30.558  29.676  1.00  0.00    -0.206 F 
ATOM     89  C   UNL A   1      47.343  27.890  27.299  1.00  0.00     0.022 A 
BRANCH  86  90
ATOM     90  S   UNL A   1      46.201  27.731  24.762  1.00  0.00     0.124 S 
ATOM     91  O   UNL A   1      46.722  28.568  23.686  1.00  0.00    -0.237 OA
ATOM     92  O   UNL A   1      46.827  26.422  24.918  1.00  0.00    -0.237 OA
ATOM     93  O   UNL A   1      44.748  27.748  24.919  1.00  0.00    -0.744 OA
ENDBRANCH  86  90
ENDBRANCH  59  83
BRANCH  71  94
ATOM     94  C   UNL A   1      51.042  36.209  25.970  1.00  0.00     0.023 A 
ATOM     95  C   UNL A   1      52.129  36.132  26.860  1.00  0.00     0.031 A 
ATOM     96  C   UNL A   1      51.324  36.430  24.609  1.00  0.00     0.131 A 
ATOM     97  C   UNL A   1      53.434  36.351  26.393  1.00  0.00     0.055 A 
ATOM     98  C   UNL A   1      52.630  36.570  24.138  1.00  0.00     0.041 A 
ATOM     99  F   UNL A   1      50.330  36.518  23.710  1.00  0.00    -0.206 F 
ATOM    100  C   UNL A   1      53.693  36.550  25.034  1.00  0.00     0.022 A 
BRANCH  97 101
ATOM    101  S   UNL A   1      54.777  36.510  27.603  1.00  0.00     0.124 S 
ATOM    102  O   UNL A   1      55.123  35.116  27.854  1.00  0.00    -0.237 OA
ATOM    103  O   UNL A   1      55.767  37.291  26.869  1.00  0.00    -0.237 OA
ATOM    104  O   UNL A   1      54.146  37.203  28.724  1.00  0.00    -0.744 OA
ENDBRANCH  97 101
ENDBRANCH  71  94
ENDBRANCH  45  46
ENDBRANCH  38  40
ENDBRANCH  37  38
ENDBRANCH  36  37
ENDBRANCH  35  36
ENDBRANCH  34  35
ENDBRANCH  33  34
ENDBRANCH  32  33
ENDBRANCH   1  32
TORSDOF 27
ENDMDL
MODEL 2
REMARK VINA RESULT:      -8.6      7.946     11.718
REMARK SMILES NS(=O)(=O)c1ccc(N2N=C(C(=O)OCCOCCOCCOCCOC(=O)c3ccc(-c4c5nc(c(-c6cc(S(=O)(=O)[O-])ccc6F)c6ccc([nH]6)c(-c6cc(S(=O)(=O)[O-])ccc6F)c6nc(c(-c7cc(S(=O)(=O)[O-])ccc7F)c7ccc4[nH]7)C=C6)C=C5)cc3)C[C@H]2c2ccco2)cc1
REMARK SMILES IDX 20 1 19 2 18 3 17 4 16 5 15 6 14 7 12 8 13 9 11 10 9 11
REMARK SMILES IDX 10 12 93 13 92 14 8 15 5 16 6 17 100 18 7 19 99 20 2 21 3 22
REMARK SMILES IDX 4 23 1 24 94 27 95 28 98 29 96 30 97 31 21 32 22 33 23 34
REMARK SMILES IDX 24 35 25 36 26 37 27 38 28 39 29 40 30 41 91 42 31 43 90 44
REMARK SMILES IDX 32 45 33 46 34 47 84 48 35 49 89 50 83 51 85 52 36 53 88 54
REMARK SMILES IDX 82 55 81 56 37 58 69 59 49 60 68 61 50 62 53 63 67 64 86 65
REMARK SMILES IDX 51 66 52 67 66 69 87 70 54 71 38 72 39 73 47 74 40 75 46 76
REMARK SMILES IDX 48 77 45 78 41 79 42 80 43 81 44 82 70 83 71 84 79 85 72 86
REMARK SMILES IDX 78 87 80 88 77 89 73 90 74 91 75 92 76 93 55 94 56 95 64 96
REMARK SMILES IDX 57 97 63 98 65 99 62 100 58 101 59 102 60 103 61 104
REMARK H PARENT 1 25 1 26 85 57 53 68
REMARK Flexibility Score: inf
ROOT
ATOM      1  O   UNL A   1      40.452  29.241  29.272  1.00  0.00    -0.377 OA
ENDROOT
BRANCH   1   2
ATOM      2  C   UNL A   1      39.776  28.254  28.514  1.00  0.00     0.188 C 
BRANCH   2   3
ATOM      3  C   UNL A   1      39.209  27.106  29.366  1.00  0.00     0.188 C 
BRANCH   3   4
ATOM      4  O   UNL A   1      39.652  25.785  29.114  1.00  0.00    -0.376 OA
BRANCH   4   5
ATOM      5  C   UNL A   1      39.892  25.277  27.810  1.00  0.00     0.202 C 
BRANCH   5   6
ATOM      6  C   UNL A   1      39.543  23.867  27.290  1.00  0.00     0.261 C 
BRANCH   6   7
ATOM      7  O   UNL A   1      38.886  23.788  26.032  1.00  0.00    -0.459 OA
BRANCH   7   8
ATOM      8  C   UNL A   1      38.249  22.642  25.749  1.00  0.00     0.354 C 
ATOM      9  O   UNL A   1      38.486  21.521  26.150  1.00  0.00    -0.245 OA
BRANCH   8  10
ATOM     10  C   UNL A   1      37.034  23.005  24.939  1.00  0.00     0.148 C 
ATOM     11  N   UNL A   1      35.367  24.071  24.195  1.00  0.00    -0.254 N 
ATOM     12  N   UNL A   1      36.390  24.125  25.095  1.00  0.00    -0.169 NA
ATOM     13  C   UNL A   1      35.173  22.710  23.657  1.00  0.00     0.180 C 
ATOM     14  C   UNL A   1      36.591  22.143  23.796  1.00  0.00     0.101 C 
BRANCH  11  15
ATOM     15  C   UNL A   1      34.402  25.066  24.213  1.00  0.00     0.060 A 
ATOM     16  C   UNL A   1      32.370  27.013  24.212  1.00  0.00     0.082 A 
ATOM     17  C   UNL A   1      32.908  26.576  23.001  1.00  0.00     0.024 A 
ATOM     18  C   UNL A   1      32.876  26.534  25.420  1.00  0.00     0.024 A 
ATOM     19  C   UNL A   1      33.923  25.608  23.010  1.00  0.00     0.029 A 
ATOM     20  C   UNL A   1      33.893  25.578  25.411  1.00  0.00     0.029 A 
BRANCH  16  21
ATOM     21  S   UNL A   1      31.056  28.192  24.260  1.00  0.00     0.238 S 
ATOM     22  O   UNL A   1      31.283  29.100  25.370  1.00  0.00    -0.207 OA
ATOM     23  O   UNL A   1      29.811  27.500  24.073  1.00  0.00    -0.207 OA
BRANCH  21  24
ATOM     24  N   UNL A   1      31.280  29.134  22.888  1.00  0.00    -0.225 NA
ATOM     25  H   UNL A   1      32.163  28.882  22.444  1.00  0.00     0.137 HD
ATOM     26  H   UNL A   1      31.300  30.118  23.150  1.00  0.00     0.137 HD
ENDBRANCH  21  24
ENDBRANCH  16  21
ENDBRANCH  11  15
BRANCH  13  27
ATOM     27  C   UNL A   1      34.181  21.828  24.365  1.00  0.00     0.128 A 
ATOM     28  C   UNL A   1      34.308  20.705  25.159  1.00  0.00     0.048 A 
ATOM     29  O   UNL A   1      32.857  22.147  24.239  1.00  0.00    -0.467 OA
ATOM     30  C   UNL A   1      32.994  20.311  25.513  1.00  0.00     0.042 A 
ATOM     31  C   UNL A   1      32.150  21.235  24.945  1.00  0.00     0.195 A 
ENDBRANCH  13  27
ENDBRANCH   8  10
ENDBRANCH   7   8
ENDBRANCH   6   7
ENDBRANCH   5   6
ENDBRANCH   4   5
ENDBRANCH   3   4
ENDBRANCH   2   3
ENDBRANCH   1   2
BRANCH   1  32
ATOM     32  C   UNL A   1      39.707  29.887  30.304  1.00  0.00     0.188 C 
BRANCH  32  33
ATOM     33  C   UNL A   1      38.259  30.344  30.025  1.00  0.00     0.188 C 
BRANCH  33  34
ATOM     34  O   UNL A   1      38.145  31.348  29.020  1.00  0.00    -0.376 OA
BRANCH  34  35
ATOM     35  C   UNL A   1      37.270  32.440  29.265  1.00  0.00     0.202 C 
BRANCH  35  36
ATOM     36  C   UNL A   1      35.780  32.086  29.392  1.00  0.00     0.261 C 
BRANCH  36  37
ATOM     37  O   UNL A   1      35.317  31.834  30.727  1.00  0.00    -0.460 OA
BRANCH  37  38
ATOM     38  C   UNL A   1      34.856  32.903  31.414  1.00  0.00     0.338 C 
ATOM     39  O   UNL A   1      33.892  33.590  31.130  1.00  0.00    -0.246 OA
BRANCH  38  40
ATOM     40  C   UNL A   1      35.593  32.988  32.691  1.00  0.00     0.060 A 
ATOM     41  C   UNL A   1      35.297  34.046  33.556  1.00  0.00     0.016 A 
ATOM     42  C   UNL A   1      36.583  32.057  33.017  1.00  0.00     0.016 A 
ATOM     43  C   UNL A   1      36.038  34.214  34.724  1.00  0.00     0.010 A 
ATOM     44  C   UNL A   1      37.331  32.232  34.185  1.00  0.00     0.010 A 
ATOM     45  C   UNL A   1      37.093  33.340  35.018  1.00  0.00    -0.014 A 
BRANCH  45  46
ATOM     46  C   UNL A   1      38.055  33.719  36.083  1.00  0.00     0.031 A 
ATOM     47  C   UNL A   1      39.284  34.500  35.700  1.00  0.00     0.074 A 
ATOM     48  C   UNL A   1      37.809  33.437  37.375  1.00  0.00     0.049 A 
ATOM     49  N   UNL A   1      40.227  34.996  36.457  1.00  0.00    -0.248 NA
ATOM     50  C   UNL A   1      39.471  34.751  34.263  1.00  0.00     0.031 C 
ATOM     51  C   UNL A   1      36.644  32.703  37.867  1.00  0.00     0.029 A 
ATOM     52  N   UNL A   1      38.522  33.739  38.507  1.00  0.00    -0.354 N 
ATOM     53  C   UNL A   1      41.121  35.618  35.591  1.00  0.00     0.074 A 
ATOM     54  C   UNL A   1      40.631  35.387  34.249  1.00  0.00     0.031 C 
ATOM     55  C   UNL A   1      36.727  32.608  39.206  1.00  0.00     0.029 A 
ATOM     56  C   UNL A   1      37.959  33.250  39.661  1.00  0.00     0.049 A 
ATOM     57  H   UNL A   1      39.359  34.258  38.493  1.00  0.00     0.167 HD
ATOM     58  C   UNL A   1      42.238  36.329  35.888  1.00  0.00     0.034 A 
ATOM     59  C   UNL A   1      38.397  33.299  40.935  1.00  0.00     0.034 A 
ATOM     60  C   UNL A   1      42.721  36.531  37.233  1.00  0.00     0.049 A 
ATOM     61  C   UNL A   1      39.671  34.046  41.244  1.00  0.00     0.074 A 
ATOM     62  C   UNL A   1      43.824  37.253  37.655  1.00  0.00     0.029 A 
ATOM     63  N   UNL A   1      42.144  35.992  38.378  1.00  0.00    -0.354 N 
ATOM     64  N   UNL A   1      40.488  34.667  40.422  1.00  0.00    -0.248 NA
ATOM     65  C   UNL A   1      40.069  34.119  42.655  1.00  0.00     0.031 C 
ATOM     66  C   UNL A   1      43.964  37.077  39.036  1.00  0.00     0.029 A 
ATOM     67  C   UNL A   1      42.892  36.328  39.497  1.00  0.00     0.049 A 
ATOM     68  H   UNL A   1      41.323  35.448  38.391  1.00  0.00     0.167 HD
ATOM     69  C   UNL A   1      41.482  35.227  41.221  1.00  0.00     0.074 A 
ATOM     70  C   UNL A   1      41.148  34.885  42.590  1.00  0.00     0.031 C 
ATOM     71  C   UNL A   1      42.566  35.963  40.859  1.00  0.00     0.034 A 
BRANCH  58  72
ATOM     72  C   UNL A   1      43.038  36.873  34.725  1.00  0.00     0.023 A 
ATOM     73  C   UNL A   1      43.068  38.247  34.419  1.00  0.00     0.031 A 
ATOM     74  C   UNL A   1      43.731  35.999  33.870  1.00  0.00     0.131 A 
ATOM     75  C   UNL A   1      43.689  38.690  33.241  1.00  0.00     0.055 A 
ATOM     76  C   UNL A   1      44.430  36.458  32.751  1.00  0.00     0.041 A 
ATOM     77  F   UNL A   1      43.720  34.674  34.091  1.00  0.00    -0.206 F 
ATOM     78  C   UNL A   1      44.394  37.808  32.419  1.00  0.00     0.022 A 
BRANCH  75  79
ATOM     79  S   UNL A   1      43.403  40.399  32.699  1.00  0.00     0.124 S 
ATOM     80  O   UNL A   1      44.651  41.047  33.097  1.00  0.00    -0.237 OA
ATOM     81  O   UNL A   1      43.193  40.243  31.264  1.00  0.00    -0.237 OA
ATOM     82  O   UNL A   1      42.227  40.808  33.463  1.00  0.00    -0.744 OA
ENDBRANCH  75  79
ENDBRANCH  58  72
BRANCH  59  83
ATOM     83  C   UNL A   1      37.642  32.588  42.009  1.00  0.00     0.023 A 
ATOM     84  C   UNL A   1      36.523  33.161  42.633  1.00  0.00     0.031 A 
ATOM     85  C   UNL A   1      38.058  31.315  42.440  1.00  0.00     0.131 A 
ATOM     86  C   UNL A   1      35.878  32.474  43.674  1.00  0.00     0.055 A 
ATOM     87  C   UNL A   1      37.383  30.616  43.440  1.00  0.00     0.041 A 
ATOM     88  F   UNL A   1      39.124  30.723  41.877  1.00  0.00    -0.206 F 
ATOM     89  C   UNL A   1      36.291  31.200  44.071  1.00  0.00     0.022 A 
BRANCH  86  90
ATOM     90  S   UNL A   1      34.519  33.296  44.554  1.00  0.00     0.124 S 
ATOM     91  O   UNL A   1      34.862  33.030  45.946  1.00  0.00    -0.237 OA
ATOM     92  O   UNL A   1      34.664  34.679  44.110  1.00  0.00    -0.237 OA
ATOM     93  O   UNL A   1      33.328  32.608  44.060  1.00  0.00    -0.744 OA
ENDBRANCH  86  90
ENDBRANCH  59  83
BRANCH  71  94
ATOM     94  C   UNL A   1      43.449  36.485  41.972  1.00  0.00     0.023 A 
ATOM     95  C   UNL A   1      44.525  35.737  42.483  1.00  0.00     0.031 A 
ATOM     96  C   UNL A   1      43.189  37.740  42.552  1.00  0.00     0.131 A 
ATOM     97  C   UNL A   1      45.249  36.214  43.587  1.00  0.00     0.055 A 
ATOM     98  C   UNL A   1      43.961  38.244  43.600  1.00  0.00     0.041 A 
ATOM     99  F   UNL A   1      42.173  38.500  42.112  1.00  0.00    -0.206 F 
ATOM    100  C   UNL A   1      44.986  37.472  44.136  1.00  0.00     0.022 A 
BRANCH  97 101
ATOM    101  S   UNL A   1      46.448  35.111  44.385  1.00  0.00     0.124 S 
ATOM    102  O   UNL A   1      46.837  35.885  45.558  1.00  0.00    -0.237 OA
ATOM    103  O   UNL A   1      45.649  33.917  44.644  1.00  0.00    -0.237 OA
ATOM    104  O   UNL A   1      47.492  34.952  43.374  1.00  0.00    -0.744 OA
ENDBRANCH  97 101
ENDBRANCH  71  94
ENDBRANCH  45  46
ENDBRANCH  38  40
ENDBRANCH  37  38
ENDBRANCH  36  37
ENDBRANCH  35  36
ENDBRANCH  34  35
ENDBRANCH  33  34
ENDBRANCH  32  33
ENDBRANCH   1  32
TORSDOF 27
ENDMDL
MODEL 3
REMARK VINA RESULT:      -8.5      7.140     10.398
REMARK SMILES NS(=O)(=O)c1ccc(N2N=C(C(=O)OCCOCCOCCOCCOC(=O)c3ccc(-c4c5nc(c(-c6cc(S(=O)(=O)[O-])ccc6F)c6ccc([nH]6)c(-c6cc(S(=O)(=O)[O-])ccc6F)c6nc(c(-c7cc(S(=O)(=O)[O-])ccc7F)c7ccc4[nH]7)C=C6)C=C5)cc3)C[C@H]2c2ccco2)cc1
REMARK SMILES IDX 20 1 19 2 18 3 17 4 16 5 15 6 14 7 12 8 13 9 11 10 9 11
REMARK SMILES IDX 10 12 93 13 92 14 8 15 5 16 6 17 100 18 7 19 99 20 2 21 3 22
REMARK SMILES IDX 4 23 1 24 94 27 95 28 98 29 96 30 97 31 21 32 22 33 23 34
REMARK SMILES IDX 24 35 25 36 26 37 27 38 28 39 29 40 30 41 91 42 31 43 90 44
REMARK SMILES IDX 32 45 33 46 34 47 84 48 35 49 89 50 83 51 85 52 36 53 88 54
REMARK SMILES IDX 82 55 81 56 37 58 69 59 49 60 68 61 50 62 53 63 67 64 86 65
REMARK SMILES IDX 51 66 52 67 66 69 87 70 54 71 38 72 39 73 47 74 40 75 46 76
REMARK SMILES IDX 48 77 45 78 41 79 42 80 43 81 44 82 70 83 71 84 79 85 72 86
REMARK SMILES IDX 78 87 80 88 77 89 73 90 74 91 75 92 76 93 55 94 56 95 64 96
REMARK SMILES IDX 57 97 63 98 65 99 62 100 58 101 59 102 60 103 61 104
REMARK H PARENT 1 25 1 26 85 57 53 68
REMARK Flexibility Score: inf
ROOT
ATOM      1  O   UNL A   1      37.760  30.669  29.314  1.00  0.00    -0.377 OA
ENDROOT
BRANCH   1   2
ATOM      2  C   UNL A   1      37.892  32.069  29.138  1.00  0.00     0.188 C 
BRANCH   2   3
ATOM      3  C   UNL A   1      36.779  32.882  29.820  1.00  0.00     0.188 C 
BRANCH   3   4
ATOM      4  O   UNL A   1      35.548  32.247  30.108  1.00  0.00    -0.376 OA
BRANCH   4   5
ATOM      5  C   UNL A   1      34.418  32.307  29.249  1.00  0.00     0.202 C 
BRANCH   5   6
ATOM      6  C   UNL A   1      34.312  31.730  27.822  1.00  0.00     0.261 C 
BRANCH   6   7
ATOM      7  O   UNL A   1      33.593  30.513  27.671  1.00  0.00    -0.459 OA
BRANCH   7   8
ATOM      8  C   UNL A   1      34.289  29.440  27.266  1.00  0.00     0.354 C 
ATOM      9  O   UNL A   1      35.492  29.272  27.264  1.00  0.00    -0.245 OA
BRANCH   8  10
ATOM     10  C   UNL A   1      33.289  28.363  26.946  1.00  0.00     0.148 C 
ATOM     11  N   UNL A   1      32.461  26.499  26.391  1.00  0.00    -0.254 N 
ATOM     12  N   UNL A   1      33.637  27.159  26.596  1.00  0.00    -0.169 NA
ATOM     13  C   UNL A   1      31.313  27.424  26.308  1.00  0.00     0.180 C 
ATOM     14  C   UNL A   1      31.824  28.591  27.163  1.00  0.00     0.101 C 
BRANCH  11  15
ATOM     15  C   UNL A   1      32.492  25.218  25.863  1.00  0.00     0.060 A 
ATOM     16  C   UNL A   1      32.569  22.577  24.893  1.00  0.00     0.082 A 
ATOM     17  C   UNL A   1      33.748  23.194  25.312  1.00  0.00     0.024 A 
ATOM     18  C   UNL A   1      31.367  23.283  24.897  1.00  0.00     0.024 A 
ATOM     19  C   UNL A   1      33.703  24.512  25.791  1.00  0.00     0.029 A 
ATOM     20  C   UNL A   1      31.340  24.598  25.368  1.00  0.00     0.029 A 
BRANCH  16  21
ATOM     21  S   UNL A   1      32.559  20.904  24.329  1.00  0.00     0.238 S 
ATOM     22  O   UNL A   1      32.237  20.889  22.914  1.00  0.00    -0.207 OA
ATOM     23  O   UNL A   1      31.853  20.101  25.288  1.00  0.00    -0.207 OA
BRANCH  21  24
ATOM     24  N   UNL A   1      34.165  20.421  24.405  1.00  0.00    -0.225 NA
ATOM     25  H   UNL A   1      34.639  20.932  25.149  1.00  0.00     0.137 HD
ATOM     26  H   UNL A   1      34.622  20.616  23.515  1.00  0.00     0.137 HD
ENDBRANCH  21  24
ENDBRANCH  16  21
ENDBRANCH  11  15
BRANCH  13  27
ATOM     27  C   UNL A   1      30.920  27.906  24.939  1.00  0.00     0.128 A 
ATOM     28  C   UNL A   1      30.487  27.264  23.795  1.00  0.00     0.048 A 
ATOM     29  O   UNL A   1      30.983  29.253  24.707  1.00  0.00    -0.467 OA
ATOM     30  C   UNL A   1      30.299  28.270  22.815  1.00  0.00     0.042 A 
ATOM     31  C   UNL A   1      30.594  29.464  23.428  1.00  0.00     0.195 A 
ENDBRANCH  13  27
ENDBRANCH   8  10
ENDBRANCH   7   8
ENDBRANCH   6   7
ENDBRANCH   5   6
ENDBRANCH   4   5
ENDBRANCH   3   4
ENDBRANCH   2   3
ENDBRANCH   1   2
BRANCH   1  32
ATOM     32  C   UNL A   1      38.967  29.912  29.401  1.00  0.00     0.188 C 
BRANCH  32  33
ATOM     33  C   UNL A   1      39.415  29.053  28.199  1.00  0.00     0.188 C 
BRANCH  33  34
ATOM     34  O   UNL A   1      40.356  28.034  28.527  1.00  0.00    -0.376 OA
BRANCH  34  35
ATOM     35  C   UNL A   1      41.409  27.779  27.607  1.00  0.00     0.202 C 
BRANCH  35  36
ATOM     36  C   UNL A   1      40.986  27.180  26.258  1.00  0.00     0.261 C 
BRANCH  36  37
ATOM     37  O   UNL A   1      42.057  26.909  25.340  1.00  0.00    -0.460 OA
BRANCH  37  38
ATOM     38  C   UNL A   1      42.685  25.721  25.484  1.00  0.00     0.338 C 
ATOM     39  O   UNL A   1      42.178  24.617  25.414  1.00  0.00    -0.246 OA
BRANCH  38  40
ATOM     40  C   UNL A   1      44.139  25.969  25.542  1.00  0.00     0.060 A 
ATOM     41  C   UNL A   1      45.003  24.878  25.396  1.00  0.00     0.016 A 
ATOM     42  C   UNL A   1      44.646  27.252  25.767  1.00  0.00     0.016 A 
ATOM     43  C   UNL A   1      46.377  25.058  25.540  1.00  0.00     0.010 A 
ATOM     44  C   UNL A   1      46.024  27.429  25.920  1.00  0.00     0.010 A 
ATOM     45  C   UNL A   1      46.890  26.322  25.855  1.00  0.00    -0.014 A 
BRANCH  45  46
ATOM     46  C   UNL A   1      48.300  26.425  26.311  1.00  0.00     0.031 A 
ATOM     47  C   UNL A   1      49.344  26.881  25.327  1.00  0.00     0.074 A 
ATOM     48  C   UNL A   1      48.634  26.187  27.592  1.00  0.00     0.049 A 
ATOM     49  N   UNL A   1      50.619  27.108  25.510  1.00  0.00    -0.248 NA
ATOM     50  C   UNL A   1      48.883  27.106  23.949  1.00  0.00     0.031 C 
ATOM     51  C   UNL A   1      47.706  25.759  28.638  1.00  0.00     0.029 A 
ATOM     52  N   UNL A   1      49.845  26.277  28.229  1.00  0.00    -0.354 N 
ATOM     53  C   UNL A   1      51.114  27.502  24.271  1.00  0.00     0.074 A 
ATOM     54  C   UNL A   1      50.010  27.430  23.337  1.00  0.00     0.031 C 
ATOM     55  C   UNL A   1      48.387  25.619  29.789  1.00  0.00     0.029 A 
ATOM     56  C   UNL A   1      49.798  25.921  29.556  1.00  0.00     0.049 A 
ATOM     57  H   UNL A   1      50.671  26.569  27.779  1.00  0.00     0.167 HD
ATOM     58  C   UNL A   1      52.369  27.903  23.945  1.00  0.00     0.034 A 
ATOM     59  C   UNL A   1      50.783  25.832  30.472  1.00  0.00     0.034 A 
ATOM     60  C   UNL A   1      53.462  27.949  24.887  1.00  0.00     0.049 A 
ATOM     61  C   UNL A   1      52.186  26.227  30.081  1.00  0.00     0.074 A 
ATOM     62  C   UNL A   1      54.766  28.362  24.676  1.00  0.00     0.029 A 
ATOM     63  N   UNL A   1      53.386  27.548  26.217  1.00  0.00    -0.354 N 
ATOM     64  N   UNL A   1      52.636  26.640  28.916  1.00  0.00    -0.248 NA
ATOM     65  C   UNL A   1      53.208  26.169  31.133  1.00  0.00     0.031 C 
ATOM     66  C   UNL A   1      55.496  28.127  25.847  1.00  0.00     0.029 A 
ATOM     67  C   UNL A   1      54.629  27.663  26.823  1.00  0.00     0.049 A 
ATOM     68  H   UNL A   1      52.568  27.229  26.662  1.00  0.00     0.167 HD
ATOM     69  C   UNL A   1      53.988  26.916  29.105  1.00  0.00     0.074 A 
ATOM     70  C   UNL A   1      54.272  26.640  30.500  1.00  0.00     0.031 C 
ATOM     71  C   UNL A   1      54.910  27.362  28.211  1.00  0.00     0.034 A 
BRANCH  58  72
ATOM     72  C   UNL A   1      52.626  28.254  22.495  1.00  0.00     0.023 A 
ATOM     73  C   UNL A   1      52.391  29.545  21.988  1.00  0.00     0.031 A 
ATOM     74  C   UNL A   1      53.054  27.264  21.592  1.00  0.00     0.131 A 
ATOM     75  C   UNL A   1      52.489  29.785  20.608  1.00  0.00     0.055 A 
ATOM     76  C   UNL A   1      53.243  27.535  20.235  1.00  0.00     0.041 A 
ATOM     77  F   UNL A   1      53.271  26.006  22.008  1.00  0.00    -0.206 F 
ATOM     78  C   UNL A   1      52.940  28.796  19.732  1.00  0.00     0.022 A 
BRANCH  75  79
ATOM     79  S   UNL A   1      51.838  31.347  19.951  1.00  0.00     0.124 S 
ATOM     80  O   UNL A   1      52.164  31.229  18.531  1.00  0.00    -0.237 OA
ATOM     81  O   UNL A   1      50.422  31.265  20.290  1.00  0.00    -0.237 OA
ATOM     82  O   UNL A   1      52.597  32.365  20.674  1.00  0.00    -0.744 OA
ENDBRANCH  75  79
ENDBRANCH  58  72
BRANCH  59  83
ATOM     83  C   UNL A   1      50.484  25.311  31.838  1.00  0.00     0.023 A 
ATOM     84  C   UNL A   1      50.832  24.008  32.229  1.00  0.00     0.031 A 
ATOM     85  C   UNL A   1      49.816  26.123  32.773  1.00  0.00     0.131 A 
ATOM     86  C   UNL A   1      50.482  23.547  33.508  1.00  0.00     0.055 A 
ATOM     87  C   UNL A   1      49.516  25.677  34.060  1.00  0.00     0.041 A 
ATOM     88  F   UNL A   1      49.459  27.377  32.450  1.00  0.00    -0.206 F 
ATOM     89  C   UNL A   1      49.842  24.377  34.431  1.00  0.00     0.022 A 
BRANCH  86  90
ATOM     90  S   UNL A   1      50.824  21.816  33.937  1.00  0.00     0.124 S 
ATOM     91  O   UNL A   1      49.574  21.417  34.575  1.00  0.00    -0.237 OA
ATOM     92  O   UNL A   1      51.093  21.228  32.629  1.00  0.00    -0.237 OA
ATOM     93  O   UNL A   1      51.980  21.907  34.827  1.00  0.00    -0.744 OA
ENDBRANCH  86  90
ENDBRANCH  59  83
BRANCH  71  94
ATOM     94  C   UNL A   1      56.307  27.623  28.732  1.00  0.00     0.023 A 
ATOM     95  C   UNL A   1      56.692  28.877  29.240  1.00  0.00     0.031 A 
ATOM     96  C   UNL A   1      57.279  26.606  28.692  1.00  0.00     0.131 A 
ATOM     97  C   UNL A   1      58.026  29.103  29.612  1.00  0.00     0.055 A 
ATOM     98  C   UNL A   1      58.586  26.815  29.136  1.00  0.00     0.041 A 
ATOM     99  F   UNL A   1      56.975  25.388  28.214  1.00  0.00    -0.206 F 
ATOM    100  C   UNL A   1      58.971  28.075  29.582  1.00  0.00     0.022 A 
BRANCH  97 101
ATOM    101  S   UNL A   1      58.545  30.797  30.006  1.00  0.00     0.124 S 
ATOM    102  O   UNL A   1      59.201  30.619  31.296  1.00  0.00    -0.237 OA
ATOM    103  O   UNL A   1      59.419  31.124  28.885  1.00  0.00    -0.237 OA
ATOM    104  O   UNL A   1      57.286  31.539  30.048  1.00  0.00    -0.744 OA
ENDBRANCH  97 101
ENDBRANCH  71  94
ENDBRANCH  45  46
ENDBRANCH  38  40
ENDBRANCH  37  38
ENDBRANCH  36  37
ENDBRANCH  35  36
ENDBRANCH  34  35
ENDBRANCH  33  34
ENDBRANCH  32  33
ENDBRANCH   1  32
TORSDOF 27
ENDMDL
