MODEL 1
REMARK VINA RESULT:      -6.4      0.000      0.000
REMARK SMILES Cc1ccc(-c2csc(NC(=O)[C@H]3[C@@H](C(=O)OCCOCCOCCOCCOC(=O)c4ccc(-c5c6nc(c(-c7cc(S(=O)(=O)[O-])ccc7F)c7ccc([nH]7)c(-c7cc(S(=O)(=O)[O-])ccc7F)c7nc(c(-c8cc(S(=O)(=O)[O-])ccc8F)c8ccc5[nH]8)C=C7)C=C6)cc4)[C@H]4C=C[C@@H]3C4)c2C(=O)NC2CC2)cc1
REMARK SMILES IDX 22 1 21 2 20 3 19 4 18 5 17 6 15 7 16 8 14 9 13 10 98 11
REMARK SMILES IDX 95 12 97 13 99 14 96 15 11 16 10 17 12 19 9 20 6 21 7 22
REMARK SMILES IDX 100 23 8 24 5 25 1 26 2 27 3 28 108 29 4 30 107 31 101 32
REMARK SMILES IDX 102 33 103 34 104 36 105 37 106 38 23 39 24 40 25 41 26 42
REMARK SMILES IDX 27 43 28 44 29 45 30 46 31 47 32 48 33 49 94 50 34 51 93 52
REMARK SMILES IDX 35 53 36 54 37 55 87 56 38 57 92 58 86 59 88 60 39 61 91 62
REMARK SMILES IDX 85 63 84 64 40 66 72 67 52 68 71 69 53 70 56 71 70 72 89 73
REMARK SMILES IDX 54 74 55 75 69 77 90 78 57 79 41 80 42 81 50 82 43 83 49 84
REMARK SMILES IDX 51 85 48 86 44 87 45 88 46 89 47 90 73 91 74 92 82 93 75 94
REMARK SMILES IDX 81 95 83 96 80 97 76 98 77 99 78 100 79 101 58 102 59 103
REMARK SMILES IDX 67 104 60 105 66 106 68 107 65 108 61 109 62 110 63 111
REMARK SMILES IDX 64 112
REMARK H PARENT 10 18 103 35 88 65 56 76
REMARK Flexibility Score: inf
ROOT
ATOM      1  C   UNL A   1      51.396  22.959  33.577  1.00  0.00     0.188 C 
ENDROOT
BRANCH   1   2
ATOM      2  C   UNL A   1      51.061  23.726  35.038  1.00  0.00     0.188 C 
BRANCH   2   3
ATOM      3  O   UNL A   1      50.914  25.353  35.632  1.00  0.00    -0.376 OA
BRANCH   3   4
ATOM      4  C   UNL A   1      51.736  26.886  35.381  1.00  0.00     0.202 C 
BRANCH   4   5
ATOM      5  C   UNL A   1      51.727  28.050  33.872  1.00  0.00     0.261 C 
BRANCH   5   6
ATOM      6  O   UNL A   1      50.247  28.715  33.041  1.00  0.00    -0.463 OA
BRANCH   6   7
ATOM      7  C   UNL A   1      49.624  29.743  32.155  1.00  0.00     0.310 C 
ATOM      8  O   UNL A   1      50.052  30.861  31.860  1.00  0.00    -0.252 OA
BRANCH   7   9
ATOM      9  C   UNL A   1      48.302  29.425  31.370  1.00  0.00     0.119 C 
ATOM     10  C   UNL A   1      47.088  30.488  31.271  1.00  0.00     0.100 C 
ATOM     11  C   UNL A   1      45.880  29.598  31.669  1.00  0.00     0.025 C 
ATOM     12  C   UNL A   1      47.568  28.154  31.876  1.00  0.00     0.027 C 
ATOM     13  C   UNL A   1      45.976  29.235  33.125  1.00  0.00    -0.027 C 
ATOM     14  C   UNL A   1      46.278  28.261  31.051  1.00  0.00     0.017 C 
ATOM     15  C   UNL A   1      46.984  28.363  33.245  1.00  0.00    -0.027 C 
BRANCH  10  16
ATOM     16  C   UNL A   1      47.044  31.831  32.010  1.00  0.00     0.229 C 
ATOM     17  N   UNL A   1      47.857  32.858  31.518  1.00  0.00    -0.317 N 
ATOM     18  H   UNL A   1      48.750  33.034  31.895  1.00  0.00     0.170 HD
ATOM     19  O   UNL A   1      46.381  32.072  33.015  1.00  0.00    -0.274 OA
BRANCH  17  20
ATOM     20  C   UNL A   1      47.345  33.618  30.473  1.00  0.00     0.108 A 
ATOM     21  C   UNL A   1      46.000  34.967  29.188  1.00  0.00     0.007 A 
ATOM     22  C   UNL A   1      46.663  34.192  28.245  1.00  0.00     0.076 A 
ATOM     23  C   UNL A   1      46.550  34.763  30.527  1.00  0.00     0.082 A 
ATOM     24  S   UNL A   1      47.930  33.281  28.923  1.00  0.00    -0.125 S 
BRANCH  21  25
ATOM     25  C   UNL A   1      45.004  35.888  28.653  1.00  0.00    -0.017 A 
ATOM     26  C   UNL A   1      41.906  38.195  26.773  1.00  0.00     0.044 C 
ATOM     27  C   UNL A   1      43.001  37.531  27.557  1.00  0.00    -0.051 A 
ATOM     28  C   UNL A   1      42.672  36.562  28.508  1.00  0.00     0.004 A 
ATOM     29  C   UNL A   1      44.351  37.751  27.245  1.00  0.00     0.004 A 
ATOM     30  C   UNL A   1      43.671  35.769  29.072  1.00  0.00     0.009 A 
ATOM     31  C   UNL A   1      45.352  36.932  27.790  1.00  0.00     0.009 A 
ENDBRANCH  21  25
BRANCH  23  32
ATOM     32  C   UNL A   1      46.393  35.427  31.839  1.00  0.00     0.255 C 
ATOM     33  O   UNL A   1      47.156  35.177  32.779  1.00  0.00    -0.269 OA
ATOM     34  N   UNL A   1      45.346  36.284  32.084  1.00  0.00    -0.349 N 
ATOM     35  H   UNL A   1      44.469  35.903  32.317  1.00  0.00     0.164 HD
BRANCH  34  36
ATOM     36  C   UNL A   1      45.483  37.721  32.013  1.00  0.00     0.082 C 
ATOM     37  C   UNL A   1      45.302  38.513  30.757  1.00  0.00     0.027 C 
ATOM     38  C   UNL A   1      44.231  38.518  31.811  1.00  0.00     0.027 C 
ENDBRANCH  34  36
ENDBRANCH  23  32
ENDBRANCH  17  20
ENDBRANCH  10  16
ENDBRANCH   7   9
ENDBRANCH   6   7
ENDBRANCH   5   6
ENDBRANCH   4   5
ENDBRANCH   3   4
ENDBRANCH   2   3
ENDBRANCH   1   2
BRANCH   1  39
ATOM     39  O   UNL A   1      51.082  23.223  32.201  1.00  0.00    -0.377 OA
BRANCH  39  40
ATOM     40  C   UNL A   1      51.036  24.448  31.487  1.00  0.00     0.188 C 
BRANCH  40  41
ATOM     41  C   UNL A   1      49.856  25.361  31.626  1.00  0.00     0.188 C 
BRANCH  41  42
ATOM     42  O   UNL A   1      49.908  26.306  30.573  1.00  0.00    -0.376 OA
BRANCH  42  43
ATOM     43  C   UNL A   1      50.303  25.743  29.340  1.00  0.00     0.202 C 
BRANCH  43  44
ATOM     44  C   UNL A   1      50.612  26.834  28.311  1.00  0.00     0.261 C 
BRANCH  44  45
ATOM     45  O   UNL A   1      49.425  27.632  28.097  1.00  0.00    -0.460 OA
BRANCH  45  46
ATOM     46  C   UNL A   1      49.027  27.775  26.796  1.00  0.00     0.338 C 
ATOM     47  O   UNL A   1      49.670  27.408  25.822  1.00  0.00    -0.246 OA
BRANCH  46  48
ATOM     48  C   UNL A   1      47.792  28.607  26.749  1.00  0.00     0.060 A 
ATOM     49  C   UNL A   1      47.503  29.648  27.621  1.00  0.00     0.016 A 
ATOM     50  C   UNL A   1      46.785  28.284  25.894  1.00  0.00     0.016 A 
ATOM     51  C   UNL A   1      46.134  29.997  27.929  1.00  0.00     0.010 A 
ATOM     52  C   UNL A   1      45.487  28.733  26.195  1.00  0.00     0.010 A 
ATOM     53  C   UNL A   1      45.032  29.259  27.470  1.00  0.00    -0.014 A 
BRANCH  53  54
ATOM     54  C   UNL A   1      43.441  29.004  28.406  1.00  0.00     0.031 A 
ATOM     55  C   UNL A   1      42.451  30.362  29.442  1.00  0.00     0.074 A 
ATOM     56  C   UNL A   1      43.196  27.604  28.426  1.00  0.00     0.049 A 
ATOM     57  N   UNL A   1      42.645  30.490  30.797  1.00  0.00    -0.248 NA
ATOM     58  C   UNL A   1      41.820  31.799  29.270  1.00  0.00     0.031 C 
ATOM     59  C   UNL A   1      42.152  26.755  29.004  1.00  0.00     0.029 A 
ATOM     60  N   UNL A   1      44.005  26.546  27.964  1.00  0.00    -0.354 N 
ATOM     61  C   UNL A   1      42.054  31.468  31.514  1.00  0.00     0.074 A 
ATOM     62  C   UNL A   1      41.751  32.402  30.487  1.00  0.00     0.031 C 
ATOM     63  C   UNL A   1      42.298  25.436  28.884  1.00  0.00     0.029 A 
ATOM     64  C   UNL A   1      43.661  25.320  28.553  1.00  0.00     0.049 A 
ATOM     65  H   UNL A   1      44.727  26.655  27.305  1.00  0.00     0.167 HD
ATOM     66  C   UNL A   1      41.751  31.332  32.851  1.00  0.00     0.034 A 
ATOM     67  C   UNL A   1      44.511  24.622  29.340  1.00  0.00     0.034 A 
ATOM     68  C   UNL A   1      41.725  29.930  33.372  1.00  0.00     0.049 A 
ATOM     69  C   UNL A   1      44.386  24.879  30.861  1.00  0.00     0.074 A 
ATOM     70  C   UNL A   1      40.660  29.050  33.541  1.00  0.00     0.029 A 
ATOM     71  N   UNL A   1      42.857  29.137  33.596  1.00  0.00    -0.354 N 
ATOM     72  N   UNL A   1      43.789  25.899  31.464  1.00  0.00    -0.248 NA
ATOM     73  C   UNL A   1      44.853  23.888  31.826  1.00  0.00     0.031 C 
ATOM     74  C   UNL A   1      41.161  27.714  33.569  1.00  0.00     0.029 A 
ATOM     75  C   UNL A   1      42.548  27.758  33.559  1.00  0.00     0.049 A 
ATOM     76  H   UNL A   1      43.760  29.496  33.760  1.00  0.00     0.167 HD
ATOM     77  C   UNL A   1      43.887  25.769  32.854  1.00  0.00     0.074 A 
ATOM     78  C   UNL A   1      44.484  24.440  32.995  1.00  0.00     0.031 C 
ATOM     79  C   UNL A   1      43.521  26.683  33.841  1.00  0.00     0.034 A 
BRANCH  66  80
ATOM     80  C   UNL A   1      41.028  32.484  33.508  1.00  0.00     0.023 A 
ATOM     81  C   UNL A   1      39.624  32.544  33.605  1.00  0.00     0.031 A 
ATOM     82  C   UNL A   1      41.740  33.597  34.001  1.00  0.00     0.131 A 
ATOM     83  C   UNL A   1      38.983  33.707  34.074  1.00  0.00     0.055 A 
ATOM     84  C   UNL A   1      41.102  34.762  34.444  1.00  0.00     0.041 A 
ATOM     85  F   UNL A   1      43.084  33.589  34.032  1.00  0.00    -0.206 F 
ATOM     86  C   UNL A   1      39.715  34.829  34.463  1.00  0.00     0.022 A 
BRANCH  83  87
ATOM     87  S   UNL A   1      37.167  33.750  34.165  1.00  0.00     0.124 S 
ATOM     88  O   UNL A   1      36.783  32.503  33.513  1.00  0.00    -0.237 OA
ATOM     89  O   UNL A   1      36.925  33.825  35.601  1.00  0.00    -0.237 OA
ATOM     90  O   UNL A   1      36.815  34.961  33.422  1.00  0.00    -0.744 OA
ENDBRANCH  83  87
ENDBRANCH  66  80
BRANCH  67  91
ATOM     91  C   UNL A   1      45.553  24.091  28.402  1.00  0.00     0.023 A 
ATOM     92  C   UNL A   1      45.024  23.210  27.401  1.00  0.00     0.031 A 
ATOM     93  C   UNL A   1      46.663  24.862  28.051  1.00  0.00     0.131 A 
ATOM     94  C   UNL A   1      45.364  23.392  26.052  1.00  0.00     0.055 A 
ATOM     95  C   UNL A   1      47.102  24.919  26.717  1.00  0.00     0.041 A 
ATOM     96  F   UNL A   1      47.196  25.722  28.929  1.00  0.00    -0.206 F 
ATOM     97  C   UNL A   1      46.405  24.248  25.703  1.00  0.00     0.022 A 
BRANCH  94  98
ATOM     98  S   UNL A   1      44.180  22.857  24.754  1.00  0.00     0.124 S 
ATOM     99  O   UNL A   1      43.038  23.727  25.005  1.00  0.00    -0.237 OA
ATOM    100  O   UNL A   1      44.912  23.106  23.516  1.00  0.00    -0.237 OA
ATOM    101  O   UNL A   1      43.982  21.439  25.053  1.00  0.00    -0.744 OA
ENDBRANCH  94  98
ENDBRANCH  67  91
BRANCH  79 102
ATOM    102  C   UNL A   1      43.942  26.567  35.322  1.00  0.00     0.023 A 
ATOM    103  C   UNL A   1      45.177  27.013  35.814  1.00  0.00     0.031 A 
ATOM    104  C   UNL A   1      43.050  26.083  36.322  1.00  0.00     0.131 A 
ATOM    105  C   UNL A   1      45.522  26.878  37.174  1.00  0.00     0.055 A 
ATOM    106  C   UNL A   1      43.351  26.062  37.689  1.00  0.00     0.041 A 
ATOM    107  F   UNL A   1      41.831  25.610  36.034  1.00  0.00    -0.206 F 
ATOM    108  C   UNL A   1      44.603  26.444  38.124  1.00  0.00     0.022 A 
BRANCH 105 109
ATOM    109  S   UNL A   1      47.236  27.200  37.654  1.00  0.00     0.124 S 
ATOM    110  O   UNL A   1      47.969  26.627  36.527  1.00  0.00    -0.237 OA
ATOM    111  O   UNL A   1      47.268  28.655  37.754  1.00  0.00    -0.237 OA
ATOM    112  O   UNL A   1      47.382  26.484  38.920  1.00  0.00    -0.744 OA
ENDBRANCH 105 109
ENDBRANCH  79 102
ENDBRANCH  53  54
ENDBRANCH  46  48
ENDBRANCH  45  46
ENDBRANCH  44  45
ENDBRANCH  43  44
ENDBRANCH  42  43
ENDBRANCH  41  42
ENDBRANCH  40  41
ENDBRANCH  39  40
ENDBRANCH   1  39
TORSDOF 28
ENDMDL
MODEL 2
REMARK VINA RESULT:      -6.2      1.916      2.665
REMARK SMILES Cc1ccc(-c2csc(NC(=O)[C@H]3[C@@H](C(=O)OCCOCCOCCOCCOC(=O)c4ccc(-c5c6nc(c(-c7cc(S(=O)(=O)[O-])ccc7F)c7ccc([nH]7)c(-c7cc(S(=O)(=O)[O-])ccc7F)c7nc(c(-c8cc(S(=O)(=O)[O-])ccc8F)c8ccc5[nH]8)C=C7)C=C6)cc4)[C@H]4C=C[C@@H]3C4)c2C(=O)NC2CC2)cc1
REMARK SMILES IDX 22 1 21 2 20 3 19 4 18 5 17 6 15 7 16 8 14 9 13 10 98 11
REMARK SMILES IDX 95 12 97 13 99 14 96 15 11 16 10 17 12 19 9 20 6 21 7 22
REMARK SMILES IDX 100 23 8 24 5 25 1 26 2 27 3 28 108 29 4 30 107 31 101 32
REMARK SMILES IDX 102 33 103 34 104 36 105 37 106 38 23 39 24 40 25 41 26 42
REMARK SMILES IDX 27 43 28 44 29 45 30 46 31 47 32 48 33 49 94 50 34 51 93 52
REMARK SMILES IDX 35 53 36 54 37 55 87 56 38 57 92 58 86 59 88 60 39 61 91 62
REMARK SMILES IDX 85 63 84 64 40 66 72 67 52 68 71 69 53 70 56 71 70 72 89 73
REMARK SMILES IDX 54 74 55 75 69 77 90 78 57 79 41 80 42 81 50 82 43 83 49 84
REMARK SMILES IDX 51 85 48 86 44 87 45 88 46 89 47 90 73 91 74 92 82 93 75 94
REMARK SMILES IDX 81 95 83 96 80 97 76 98 77 99 78 100 79 101 58 102 59 103
REMARK SMILES IDX 67 104 60 105 66 106 68 107 65 108 61 109 62 110 63 111
REMARK SMILES IDX 64 112
REMARK H PARENT 10 18 103 35 88 65 56 76
REMARK Flexibility Score: inf
ROOT
ATOM      1  C   UNL A   1      51.651  22.517  33.978  1.00  0.00     0.188 C 
ENDROOT
BRANCH   1   2
ATOM      2  C   UNL A   1      51.289  23.163  35.491  1.00  0.00     0.188 C 
BRANCH   2   3
ATOM      3  O   UNL A   1      51.202  24.733  36.232  1.00  0.00    -0.376 OA
BRANCH   3   4
ATOM      4  C   UNL A   1      52.112  26.234  36.159  1.00  0.00     0.202 C 
BRANCH   4   5
ATOM      5  C   UNL A   1      52.153  27.581  34.811  1.00  0.00     0.261 C 
BRANCH   5   6
ATOM      6  O   UNL A   1      50.701  28.348  34.019  1.00  0.00    -0.463 OA
BRANCH   6   7
ATOM      7  C   UNL A   1      50.110  29.475  33.238  1.00  0.00     0.310 C 
ATOM      8  O   UNL A   1      50.558  30.612  33.075  1.00  0.00    -0.252 OA
BRANCH   7   9
ATOM      9  C   UNL A   1      48.802  29.263  32.397  1.00  0.00     0.119 C 
ATOM     10  C   UNL A   1      47.713  30.440  32.193  1.00  0.00     0.100 C 
ATOM     11  C   UNL A   1      46.400  29.698  32.559  1.00  0.00     0.025 C 
ATOM     12  C   UNL A   1      47.914  28.097  32.910  1.00  0.00     0.027 C 
ATOM     13  C   UNL A   1      46.386  29.389  34.032  1.00  0.00    -0.027 C 
ATOM     14  C   UNL A   1      46.684  28.302  32.014  1.00  0.00     0.017 C 
ATOM     15  C   UNL A   1      47.289  28.423  34.237  1.00  0.00    -0.027 C 
BRANCH  10  16
ATOM     16  C   UNL A   1      47.775  31.811  32.879  1.00  0.00     0.229 C 
ATOM     17  N   UNL A   1      48.509  32.814  32.235  1.00  0.00    -0.317 N 
ATOM     18  H   UNL A   1      49.447  33.000  32.474  1.00  0.00     0.170 HD
ATOM     19  O   UNL A   1      47.263  32.094  33.958  1.00  0.00    -0.274 OA
BRANCH  17  20
ATOM     20  C   UNL A   1      47.852  33.536  31.246  1.00  0.00     0.108 A 
ATOM     21  C   UNL A   1      47.385  34.977  29.519  1.00  0.00     0.007 A 
ATOM     22  C   UNL A   1      46.184  34.918  30.215  1.00  0.00     0.076 A 
ATOM     23  C   UNL A   1      48.341  33.993  30.022  1.00  0.00     0.082 A 
ATOM     24  S   UNL A   1      46.177  33.699  31.402  1.00  0.00    -0.125 S 
BRANCH  21  25
ATOM     25  C   UNL A   1      47.407  35.894  28.385  1.00  0.00    -0.017 A 
ATOM     26  C   UNL A   1      47.249  38.954  25.375  1.00  0.00     0.044 C 
ATOM     27  C   UNL A   1      47.420  37.792  26.308  1.00  0.00    -0.051 A 
ATOM     28  C   UNL A   1      48.359  37.873  27.340  1.00  0.00     0.004 A 
ATOM     29  C   UNL A   1      46.552  36.690  26.260  1.00  0.00     0.004 A 
ATOM     30  C   UNL A   1      48.369  36.914  28.353  1.00  0.00     0.009 A 
ATOM     31  C   UNL A   1      46.543  35.743  27.296  1.00  0.00     0.009 A 
ENDBRANCH  21  25
BRANCH  23  32
ATOM     32  C   UNL A   1      49.650  33.475  29.570  1.00  0.00     0.255 C 
ATOM     33  O   UNL A   1      50.251  32.606  30.211  1.00  0.00    -0.269 OA
ATOM     34  N   UNL A   1      50.281  33.997  28.465  1.00  0.00    -0.349 N 
ATOM     35  H   UNL A   1      50.791  34.833  28.564  1.00  0.00     0.164 HD
BRANCH  34  36
ATOM     36  C   UNL A   1      50.225  33.367  27.165  1.00  0.00     0.082 C 
ATOM     37  C   UNL A   1      48.953  32.944  26.501  1.00  0.00     0.027 C 
ATOM     38  C   UNL A   1      49.672  34.179  26.035  1.00  0.00     0.027 C 
ENDBRANCH  34  36
ENDBRANCH  23  32
ENDBRANCH  17  20
ENDBRANCH  10  16
ENDBRANCH   7   9
ENDBRANCH   6   7
ENDBRANCH   5   6
ENDBRANCH   4   5
ENDBRANCH   3   4
ENDBRANCH   2   3
ENDBRANCH   1   2
BRANCH   1  39
ATOM     39  O   UNL A   1      51.325  22.868  32.625  1.00  0.00    -0.377 OA
BRANCH  39  40
ATOM     40  C   UNL A   1      51.242  24.138  31.999  1.00  0.00     0.188 C 
BRANCH  40  41
ATOM     41  C   UNL A   1      49.972  24.931  32.060  1.00  0.00     0.188 C 
BRANCH  41  42
ATOM     42  O   UNL A   1      50.098  26.028  31.173  1.00  0.00    -0.376 OA
BRANCH  42  43
ATOM     43  C   UNL A   1      50.853  25.725  30.019  1.00  0.00     0.202 C 
BRANCH  43  44
ATOM     44  C   UNL A   1      51.395  27.000  29.367  1.00  0.00     0.261 C 
BRANCH  44  45
ATOM     45  O   UNL A   1      50.300  27.916  29.138  1.00  0.00    -0.460 OA
BRANCH  45  46
ATOM     46  C   UNL A   1      50.102  28.298  27.839  1.00  0.00     0.338 C 
ATOM     47  O   UNL A   1      50.833  28.004  26.903  1.00  0.00    -0.246 OA
BRANCH  46  48
ATOM     48  C   UNL A   1      48.976  29.273  27.780  1.00  0.00     0.060 A 
ATOM     49  C   UNL A   1      48.583  30.095  28.828  1.00  0.00     0.016 A 
ATOM     50  C   UNL A   1      48.162  29.307  26.692  1.00  0.00     0.016 A 
ATOM     51  C   UNL A   1      47.211  30.535  28.948  1.00  0.00     0.010 A 
ATOM     52  C   UNL A   1      46.868  29.836  26.846  1.00  0.00     0.010 A 
ATOM     53  C   UNL A   1      46.184  30.086  28.102  1.00  0.00    -0.014 A 
BRANCH  53  54
ATOM     54  C   UNL A   1      44.410  29.822  28.609  1.00  0.00     0.031 A 
ATOM     55  C   UNL A   1      43.228  31.132  29.494  1.00  0.00     0.074 A 
ATOM     56  C   UNL A   1      44.140  28.435  28.449  1.00  0.00     0.049 A 
ATOM     57  N   UNL A   1      43.094  31.144  30.862  1.00  0.00    -0.248 NA
ATOM     58  C   UNL A   1      42.685  32.602  29.302  1.00  0.00     0.031 C 
ATOM     59  C   UNL A   1      42.972  27.586  28.688  1.00  0.00     0.029 A 
ATOM     60  N   UNL A   1      45.015  27.386  28.103  1.00  0.00    -0.354 N 
ATOM     61  C   UNL A   1      42.369  32.086  31.500  1.00  0.00     0.074 A 
ATOM     62  C   UNL A   1      42.338  33.109  30.516  1.00  0.00     0.031 C 
ATOM     63  C   UNL A   1      43.117  26.275  28.493  1.00  0.00     0.029 A 
ATOM     64  C   UNL A   1      44.517  26.131  28.486  1.00  0.00     0.049 A 
ATOM     65  H   UNL A   1      45.877  27.517  27.646  1.00  0.00     0.167 HD
ATOM     66  C   UNL A   1      41.751  31.857  32.711  1.00  0.00     0.034 A 
ATOM     67  C   UNL A   1      45.139  25.340  29.389  1.00  0.00     0.034 A 
ATOM     68  C   UNL A   1      41.574  30.420  33.088  1.00  0.00     0.049 A 
ATOM     69  C   UNL A   1      44.659  25.482  30.853  1.00  0.00     0.074 A 
ATOM     70  C   UNL A   1      40.483  29.572  32.923  1.00  0.00     0.029 A 
ATOM     71  N   UNL A   1      42.604  29.567  33.505  1.00  0.00    -0.354 N 
ATOM     72  N   UNL A   1      43.954  26.473  31.383  1.00  0.00    -0.248 NA
ATOM     73  C   UNL A   1      44.861  24.400  31.812  1.00  0.00     0.031 C 
ATOM     74  C   UNL A   1      40.936  28.220  32.953  1.00  0.00     0.029 A 
ATOM     75  C   UNL A   1      42.286  28.209  33.277  1.00  0.00     0.049 A 
ATOM     76  H   UNL A   1      43.448  29.876  33.908  1.00  0.00     0.167 HD
ATOM     77  C   UNL A   1      43.715  26.230  32.740  1.00  0.00     0.074 A 
ATOM     78  C   UNL A   1      44.234  24.872  32.903  1.00  0.00     0.031 C 
ATOM     79  C   UNL A   1      43.141  27.077  33.687  1.00  0.00     0.034 A 
BRANCH  66  80
ATOM     80  C   UNL A   1      40.915  32.981  33.275  1.00  0.00     0.023 A 
ATOM     81  C   UNL A   1      41.409  33.888  34.232  1.00  0.00     0.031 A 
ATOM     82  C   UNL A   1      39.562  33.130  32.908  1.00  0.00     0.131 A 
ATOM     83  C   UNL A   1      40.553  34.818  34.854  1.00  0.00     0.055 A 
ATOM     84  C   UNL A   1      38.706  34.037  33.543  1.00  0.00     0.041 A 
ATOM     85  F   UNL A   1      39.030  32.367  31.936  1.00  0.00    -0.206 F 
ATOM     86  C   UNL A   1      39.196  34.874  34.538  1.00  0.00     0.022 A 
BRANCH  83  87
ATOM     87  S   UNL A   1      41.228  35.958  36.100  1.00  0.00     0.124 S 
ATOM     88  O   UNL A   1      41.790  35.051  37.094  1.00  0.00    -0.237 OA
ATOM     89  O   UNL A   1      42.188  36.737  35.326  1.00  0.00    -0.237 OA
ATOM     90  O   UNL A   1      40.054  36.708  36.550  1.00  0.00    -0.744 OA
ENDBRANCH  83  87
ENDBRANCH  66  80
BRANCH  67  91
ATOM     91  C   UNL A   1      46.364  24.844  28.682  1.00  0.00     0.023 A 
ATOM     92  C   UNL A   1      46.092  23.816  27.720  1.00  0.00     0.031 A 
ATOM     93  C   UNL A   1      47.435  25.700  28.415  1.00  0.00     0.131 A 
ATOM     94  C   UNL A   1      46.624  23.904  26.425  1.00  0.00     0.055 A 
ATOM     95  C   UNL A   1      48.074  25.678  27.163  1.00  0.00     0.041 A 
ATOM     96  F   UNL A   1      47.733  26.697  29.259  1.00  0.00    -0.206 F 
ATOM     97  C   UNL A   1      47.618  24.836  26.140  1.00  0.00     0.022 A 
BRANCH  94  98
ATOM     98  S   UNL A   1      45.721  23.114  25.034  1.00  0.00     0.124 S 
ATOM     99  O   UNL A   1      46.221  21.746  25.083  1.00  0.00    -0.237 OA
ATOM    100  O   UNL A   1      44.321  23.295  25.405  1.00  0.00    -0.237 OA
ATOM    101  O   UNL A   1      46.138  23.908  23.878  1.00  0.00    -0.744 OA
ENDBRANCH  94  98
ENDBRANCH  67  91
BRANCH  79 102
ATOM    102  C   UNL A   1      43.192  26.828  35.210  1.00  0.00     0.023 A 
ATOM    103  C   UNL A   1      44.234  27.277  36.034  1.00  0.00     0.031 A 
ATOM    104  C   UNL A   1      42.119  26.202  35.907  1.00  0.00     0.131 A 
ATOM    105  C   UNL A   1      44.244  27.018  37.420  1.00  0.00     0.055 A 
ATOM    106  C   UNL A   1      42.076  26.053  37.298  1.00  0.00     0.041 A 
ATOM    107  F   UNL A   1      41.044  25.706  35.281  1.00  0.00    -0.206 F 
ATOM    108  C   UNL A   1      43.153  26.446  38.066  1.00  0.00     0.022 A 
BRANCH 105 109
ATOM    109  S   UNL A   1      45.761  27.368  38.341  1.00  0.00     0.124 S 
ATOM    110  O   UNL A   1      45.734  26.320  39.359  1.00  0.00    -0.237 OA
ATOM    111  O   UNL A   1      46.791  27.228  37.317  1.00  0.00    -0.237 OA
ATOM    112  O   UNL A   1      45.558  28.726  38.841  1.00  0.00    -0.744 OA
ENDBRANCH 105 109
ENDBRANCH  79 102
ENDBRANCH  53  54
ENDBRANCH  46  48
ENDBRANCH  45  46
ENDBRANCH  44  45
ENDBRANCH  43  44
ENDBRANCH  42  43
ENDBRANCH  41  42
ENDBRANCH  40  41
ENDBRANCH  39  40
ENDBRANCH   1  39
TORSDOF 28
ENDMDL
MODEL 3
REMARK VINA RESULT:      -5.9      4.174     11.735
REMARK SMILES Cc1ccc(-c2csc(NC(=O)[C@H]3[C@@H](C(=O)OCCOCCOCCOCCOC(=O)c4ccc(-c5c6nc(c(-c7cc(S(=O)(=O)[O-])ccc7F)c7ccc([nH]7)c(-c7cc(S(=O)(=O)[O-])ccc7F)c7nc(c(-c8cc(S(=O)(=O)[O-])ccc8F)c8ccc5[nH]8)C=C7)C=C6)cc4)[C@H]4C=C[C@@H]3C4)c2C(=O)NC2CC2)cc1
REMARK SMILES IDX 22 1 21 2 20 3 19 4 18 5 17 6 15 7 16 8 14 9 13 10 98 11
REMARK SMILES IDX 95 12 97 13 99 14 96 15 11 16 10 17 12 19 9 20 6 21 7 22
REMARK SMILES IDX 100 23 8 24 5 25 1 26 2 27 3 28 108 29 4 30 107 31 101 32
REMARK SMILES IDX 102 33 103 34 104 36 105 37 106 38 23 39 24 40 25 41 26 42
REMARK SMILES IDX 27 43 28 44 29 45 30 46 31 47 32 48 33 49 94 50 34 51 93 52
REMARK SMILES IDX 35 53 36 54 37 55 87 56 38 57 92 58 86 59 88 60 39 61 91 62
REMARK SMILES IDX 85 63 84 64 40 66 72 67 52 68 71 69 53 70 56 71 70 72 89 73
REMARK SMILES IDX 54 74 55 75 69 77 90 78 57 79 41 80 42 81 50 82 43 83 49 84
REMARK SMILES IDX 51 85 48 86 44 87 45 88 46 89 47 90 73 91 74 92 82 93 75 94
REMARK SMILES IDX 81 95 83 96 80 97 76 98 77 99 78 100 79 101 58 102 59 103
REMARK SMILES IDX 67 104 60 105 66 106 68 107 65 108 61 109 62 110 63 111
REMARK SMILES IDX 64 112
REMARK H PARENT 10 18 103 35 88 65 56 76
REMARK Flexibility Score: inf
ROOT
ATOM      1  C   UNL A   1      47.540  36.044  26.843  1.00  0.00     0.188 C 
ENDROOT
BRANCH   1   2
ATOM      2  C   UNL A   1      46.784  35.210  25.591  1.00  0.00     0.188 C 
BRANCH   2   3
ATOM      3  O   UNL A   1      45.416  34.156  25.389  1.00  0.00    -0.376 OA
BRANCH   3   4
ATOM      4  C   UNL A   1      44.963  32.536  25.897  1.00  0.00     0.202 C 
BRANCH   4   5
ATOM      5  C   UNL A   1      46.047  31.097  26.518  1.00  0.00     0.261 C 
BRANCH   5   6
ATOM      6  O   UNL A   1      47.770  31.227  27.098  1.00  0.00    -0.463 OA
BRANCH   6   7
ATOM      7  C   UNL A   1      49.100  30.588  27.327  1.00  0.00     0.310 C 
ATOM      8  O   UNL A   1      49.977  30.326  26.500  1.00  0.00    -0.252 OA
BRANCH   7   9
ATOM      9  C   UNL A   1      49.586  30.255  28.782  1.00  0.00     0.119 C 
ATOM     10  C   UNL A   1      49.214  28.861  29.512  1.00  0.00     0.100 C 
ATOM     11  C   UNL A   1      48.690  29.373  30.881  1.00  0.00     0.025 C 
ATOM     12  C   UNL A   1      49.135  31.296  29.841  1.00  0.00     0.027 C 
ATOM     13  C   UNL A   1      47.380  30.086  30.688  1.00  0.00    -0.027 C 
ATOM     14  C   UNL A   1      49.597  30.576  31.117  1.00  0.00     0.017 C 
ATOM     15  C   UNL A   1      47.652  31.243  30.072  1.00  0.00    -0.027 C 
BRANCH  10  16
ATOM     16  C   UNL A   1      48.274  27.798  28.931  1.00  0.00     0.229 C 
ATOM     17  N   UNL A   1      48.536  26.463  29.263  1.00  0.00    -0.317 N 
ATOM     18  H   UNL A   1      49.059  25.878  28.668  1.00  0.00     0.170 HD
ATOM     19  O   UNL A   1      47.332  28.014  28.174  1.00  0.00    -0.274 OA
BRANCH  17  20
ATOM     20  C   UNL A   1      48.021  26.005  30.470  1.00  0.00     0.108 A 
ATOM     21  C   UNL A   1      46.604  25.505  32.208  1.00  0.00     0.007 A 
ATOM     22  C   UNL A   1      47.836  25.648  32.835  1.00  0.00     0.076 A 
ATOM     23  C   UNL A   1      46.742  25.525  30.753  1.00  0.00     0.082 A 
ATOM     24  S   UNL A   1      49.123  25.759  31.728  1.00  0.00    -0.125 S 
BRANCH  21  25
ATOM     25  C   UNL A   1      45.476  25.249  33.095  1.00  0.00    -0.017 A 
ATOM     26  C   UNL A   1      41.988  24.139  35.344  1.00  0.00     0.044 C 
ATOM     27  C   UNL A   1      43.268  24.612  34.718  1.00  0.00    -0.051 A 
ATOM     28  C   UNL A   1      44.356  23.739  34.637  1.00  0.00     0.004 A 
ATOM     29  C   UNL A   1      43.342  25.857  34.075  1.00  0.00     0.004 A 
ATOM     30  C   UNL A   1      45.462  24.070  33.855  1.00  0.00     0.009 A 
ATOM     31  C   UNL A   1      44.443  26.176  33.264  1.00  0.00     0.009 A 
ENDBRANCH  21  25
BRANCH  23  32
ATOM     32  C   UNL A   1      45.851  25.232  29.610  1.00  0.00     0.255 C 
ATOM     33  O   UNL A   1      46.295  24.764  28.555  1.00  0.00    -0.269 OA
ATOM     34  N   UNL A   1      44.513  25.544  29.650  1.00  0.00    -0.349 N 
ATOM     35  H   UNL A   1      44.237  26.469  29.461  1.00  0.00     0.164 HD
BRANCH  34  36
ATOM     36  C   UNL A   1      43.494  24.565  29.960  1.00  0.00     0.082 C 
ATOM     37  C   UNL A   1      43.341  23.266  29.233  1.00  0.00     0.027 C 
ATOM     38  C   UNL A   1      43.943  23.293  30.610  1.00  0.00     0.027 C 
ENDBRANCH  34  36
ENDBRANCH  23  32
ENDBRANCH  17  20
ENDBRANCH  10  16
ENDBRANCH   7   9
ENDBRANCH   6   7
ENDBRANCH   5   6
ENDBRANCH   4   5
ENDBRANCH   3   4
ENDBRANCH   2   3
ENDBRANCH   1   2
BRANCH   1  39
ATOM     39  O   UNL A   1      48.036  37.380  27.013  1.00  0.00    -0.377 OA
BRANCH  39  40
ATOM     40  C   UNL A   1      47.599  38.603  26.441  1.00  0.00     0.188 C 
BRANCH  40  41
ATOM     41  C   UNL A   1      47.548  38.766  24.952  1.00  0.00     0.188 C 
BRANCH  41  42
ATOM     42  O   UNL A   1      46.460  39.619  24.644  1.00  0.00    -0.376 OA
BRANCH  42  43
ATOM     43  C   UNL A   1      46.853  40.950  24.384  1.00  0.00     0.202 C 
BRANCH  43  44
ATOM     44  C   UNL A   1      46.073  41.934  25.261  1.00  0.00     0.261 C 
BRANCH  44  45
ATOM     45  O   UNL A   1      45.882  41.351  26.571  1.00  0.00    -0.460 OA
BRANCH  45  46
ATOM     46  C   UNL A   1      44.744  41.725  27.232  1.00  0.00     0.338 C 
ATOM     47  O   UNL A   1      44.452  42.876  27.527  1.00  0.00    -0.246 OA
BRANCH  46  48
ATOM     48  C   UNL A   1      44.023  40.506  27.696  1.00  0.00     0.060 A 
ATOM     49  C   UNL A   1      43.381  40.383  28.921  1.00  0.00     0.016 A 
ATOM     50  C   UNL A   1      44.078  39.362  26.964  1.00  0.00     0.016 A 
ATOM     51  C   UNL A   1      43.246  39.092  29.559  1.00  0.00     0.010 A 
ATOM     52  C   UNL A   1      43.842  38.141  27.619  1.00  0.00     0.010 A 
ATOM     53  C   UNL A   1      43.834  37.921  29.055  1.00  0.00    -0.014 A 
BRANCH  53  54
ATOM     54  C   UNL A   1      44.498  36.519  30.086  1.00  0.00     0.031 A 
ATOM     55  C   UNL A   1      43.815  34.668  30.141  1.00  0.00     0.074 A 
ATOM     56  C   UNL A   1      45.436  37.084  30.993  1.00  0.00     0.049 A 
ATOM     57  N   UNL A   1      42.908  34.282  31.099  1.00  0.00    -0.248 NA
ATOM     58  C   UNL A   1      43.493  33.463  29.172  1.00  0.00     0.031 C 
ATOM     59  C   UNL A   1      46.276  36.547  32.064  1.00  0.00     0.029 A 
ATOM     60  N   UNL A   1      45.763  38.437  31.216  1.00  0.00    -0.354 N 
ATOM     61  C   UNL A   1      42.353  33.053  31.104  1.00  0.00     0.074 A 
ATOM     62  C   UNL A   1      42.557  32.665  29.753  1.00  0.00     0.031 C 
ATOM     63  C   UNL A   1      46.992  37.416  32.776  1.00  0.00     0.029 A 
ATOM     64  C   UNL A   1      46.366  38.638  32.467  1.00  0.00     0.049 A 
ATOM     65  H   UNL A   1      45.588  39.158  30.570  1.00  0.00     0.167 HD
ATOM     66  C   UNL A   1      41.921  32.435  32.258  1.00  0.00     0.034 A 
ATOM     67  C   UNL A   1      45.807  39.398  33.436  1.00  0.00     0.034 A 
ATOM     68  C   UNL A   1      42.457  32.998  33.536  1.00  0.00     0.049 A 
ATOM     69  C   UNL A   1      44.942  38.641  34.472  1.00  0.00     0.074 A 
ATOM     70  C   UNL A   1      43.543  32.602  34.311  1.00  0.00     0.029 A 
ATOM     71  N   UNL A   1      42.068  34.220  34.100  1.00  0.00    -0.354 N 
ATOM     72  N   UNL A   1      44.428  37.423  34.364  1.00  0.00    -0.248 NA
ATOM     73  C   UNL A   1      44.700  39.206  35.796  1.00  0.00     0.031 C 
ATOM     74  C   UNL A   1      43.966  33.701  35.115  1.00  0.00     0.029 A 
ATOM     75  C   UNL A   1      43.065  34.745  34.955  1.00  0.00     0.049 A 
ATOM     76  H   UNL A   1      41.206  34.661  33.922  1.00  0.00     0.167 HD
ATOM     77  C   UNL A   1      43.709  37.093  35.517  1.00  0.00     0.074 A 
ATOM     78  C   UNL A   1      44.008  38.223  36.397  1.00  0.00     0.031 C 
ATOM     79  C   UNL A   1      42.907  35.977  35.753  1.00  0.00     0.034 A 
BRANCH  66  80
ATOM     80  C   UNL A   1      41.383  31.031  32.120  1.00  0.00     0.023 A 
ATOM     81  C   UNL A   1      40.007  30.752  32.010  1.00  0.00     0.031 A 
ATOM     82  C   UNL A   1      42.248  29.918  32.164  1.00  0.00     0.131 A 
ATOM     83  C   UNL A   1      39.534  29.425  32.050  1.00  0.00     0.055 A 
ATOM     84  C   UNL A   1      41.777  28.602  32.229  1.00  0.00     0.041 A 
ATOM     85  F   UNL A   1      43.582  30.090  32.178  1.00  0.00    -0.206 F 
ATOM     86  C   UNL A   1      40.411  28.350  32.192  1.00  0.00     0.022 A 
BRANCH  83  87
ATOM     87  S   UNL A   1      37.747  29.110  31.925  1.00  0.00     0.124 S 
ATOM     88  O   UNL A   1      37.488  28.266  33.085  1.00  0.00    -0.237 OA
ATOM     89  O   UNL A   1      37.187  30.456  31.972  1.00  0.00    -0.237 OA
ATOM     90  O   UNL A   1      37.608  28.436  30.633  1.00  0.00    -0.744 OA
ENDBRANCH  83  87
ENDBRANCH  66  80
BRANCH  67  91
ATOM     91  C   UNL A   1      45.938  40.807  32.939  1.00  0.00     0.023 A 
ATOM     92  C   UNL A   1      44.717  41.341  32.408  1.00  0.00     0.031 A 
ATOM     93  C   UNL A   1      46.815  41.705  33.551  1.00  0.00     0.131 A 
ATOM     94  C   UNL A   1      44.268  42.607  32.812  1.00  0.00     0.055 A 
ATOM     95  C   UNL A   1      46.416  43.027  33.815  1.00  0.00     0.041 A 
ATOM     96  F   UNL A   1      47.963  41.272  34.088  1.00  0.00    -0.206 F 
ATOM     97  C   UNL A   1      45.116  43.457  33.518  1.00  0.00     0.022 A 
BRANCH  94  98
ATOM     98  S   UNL A   1      42.466  42.960  32.798  1.00  0.00     0.124 S 
ATOM     99  O   UNL A   1      42.433  44.371  32.435  1.00  0.00    -0.237 OA
ATOM    100  O   UNL A   1      41.956  42.031  31.794  1.00  0.00    -0.237 OA
ATOM    101  O   UNL A   1      42.058  42.640  34.166  1.00  0.00    -0.744 OA
ENDBRANCH  94  98
ENDBRANCH  67  91
BRANCH  79 102
ATOM    102  C   UNL A   1      41.927  35.854  36.940  1.00  0.00     0.023 A 
ATOM    103  C   UNL A   1      42.308  35.418  38.216  1.00  0.00     0.031 A 
ATOM    104  C   UNL A   1      40.569  36.276  36.842  1.00  0.00     0.131 A 
ATOM    105  C   UNL A   1      41.376  35.311  39.269  1.00  0.00     0.055 A 
ATOM    106  C   UNL A   1      39.677  36.281  37.920  1.00  0.00     0.041 A 
ATOM    107  F   UNL A   1      40.031  36.715  35.698  1.00  0.00    -0.206 F 
ATOM    108  C   UNL A   1      40.072  35.778  39.143  1.00  0.00     0.022 A 
BRANCH 105 109
ATOM    109  S   UNL A   1      41.891  34.460  40.779  1.00  0.00     0.124 S 
ATOM    110  O   UNL A   1      43.312  34.237  40.522  1.00  0.00    -0.237 OA
ATOM    111  O   UNL A   1      41.582  35.440  41.815  1.00  0.00    -0.237 OA
ATOM    112  O   UNL A   1      41.066  33.254  40.796  1.00  0.00    -0.744 OA
ENDBRANCH 105 109
ENDBRANCH  79 102
ENDBRANCH  53  54
ENDBRANCH  46  48
ENDBRANCH  45  46
ENDBRANCH  44  45
ENDBRANCH  43  44
ENDBRANCH  42  43
ENDBRANCH  41  42
ENDBRANCH  40  41
ENDBRANCH  39  40
ENDBRANCH   1  39
TORSDOF 28
ENDMDL
