MODEL 1
REMARK VINA RESULT:      -9.4      0.000      0.000
REMARK SMILES O=C(OCCOCCOCCOCCOC(=O)c1cccc(Br)c1O[C@@H]1CCOC2(CCC2)C1)c1ccc(-c2c3nc(c(-c4cc(S(=O)(=O)[O-])ccc4F)c4ccc([nH]4)c(-c4cc(S(=O)(=O)[O-])ccc4F)c4nc(c(-c5cc(S(=O)(=O)[O-])ccc5F)c5ccc2[nH]5)C=C4)C=C3)cc1
REMARK SMILES IDX 8 1 7 2 6 3 5 4 4 5 3 6 2 7 1 8 35 9 36 10 97 11 37 12 96 13
REMARK SMILES IDX 38 14 39 15 40 16 90 17 41 18 95 19 89 20 91 21 42 22 94 23
REMARK SMILES IDX 88 24 87 25 43 27 75 28 55 29 74 30 56 31 59 32 73 33 92 34
REMARK SMILES IDX 57 35 58 36 72 38 93 39 60 40 44 41 45 42 53 43 46 44 52 45
REMARK SMILES IDX 54 46 51 47 47 48 48 49 49 50 50 51 76 52 77 53 85 54 78 55
REMARK SMILES IDX 84 56 86 57 83 58 79 59 80 60 81 61 82 62 61 63 62 64 70 65
REMARK SMILES IDX 63 66 69 67 71 68 68 69 64 70 65 71 66 72 67 73 9 74 10 75
REMARK SMILES IDX 11 76 12 77 13 78 14 79 15 80 16 81 17 82 18 83 19 84 24 85
REMARK SMILES IDX 20 86 22 87 21 88 23 89 25 90 26 91 27 92 34 93 28 94 30 95
REMARK SMILES IDX 29 96 31 97 33 98 32 99
REMARK H PARENT 91 26 59 37
REMARK Flexibility Score: inf
ROOT
ATOM      1  C   UNL A   1      36.980  20.932  25.346  1.00  0.00     0.188 C 
ENDROOT
BRANCH   1   2
ATOM      2  C   UNL A   1      37.014  22.304  24.671  1.00  0.00     0.188 C 
BRANCH   2   3
ATOM      3  O   UNL A   1      37.362  23.322  25.610  1.00  0.00    -0.376 OA
BRANCH   3   4
ATOM      4  C   UNL A   1      38.629  23.181  26.247  1.00  0.00     0.202 C 
BRANCH   4   5
ATOM      5  C   UNL A   1      39.340  24.513  26.480  1.00  0.00     0.261 C 
BRANCH   5   6
ATOM      6  O   UNL A   1      40.735  24.336  26.749  1.00  0.00    -0.460 OA
BRANCH   6   7
ATOM      7  C   UNL A   1      41.763  25.124  26.343  1.00  0.00     0.338 C 
ATOM      8  O   UNL A   1      42.470  24.701  25.426  1.00  0.00    -0.246 OA
BRANCH   7   9
ATOM      9  C   UNL A   1      42.109  26.467  26.923  1.00  0.00     0.060 A 
ATOM     10  C   UNL A   1      43.061  26.727  27.916  1.00  0.00     0.016 A 
ATOM     11  C   UNL A   1      41.449  27.574  26.358  1.00  0.00     0.016 A 
ATOM     12  C   UNL A   1      43.342  28.017  28.349  1.00  0.00     0.010 A 
ATOM     13  C   UNL A   1      41.715  28.875  26.791  1.00  0.00     0.010 A 
ATOM     14  C   UNL A   1      42.654  29.092  27.804  1.00  0.00    -0.014 A 
BRANCH  14  15
ATOM     15  C   UNL A   1      42.790  30.403  28.458  1.00  0.00     0.031 A 
ATOM     16  C   UNL A   1      43.912  31.281  27.997  1.00  0.00     0.074 A 
ATOM     17  C   UNL A   1      41.869  30.820  29.344  1.00  0.00     0.049 A 
ATOM     18  N   UNL A   1      44.332  32.416  28.479  1.00  0.00    -0.248 NA
ATOM     19  C   UNL A   1      44.658  30.814  26.814  1.00  0.00     0.031 C 
ATOM     20  C   UNL A   1      40.658  30.080  29.712  1.00  0.00     0.029 A 
ATOM     21  N   UNL A   1      41.799  31.966  30.088  1.00  0.00    -0.354 N 
ATOM     22  C   UNL A   1      45.416  32.777  27.690  1.00  0.00     0.074 A 
ATOM     23  C   UNL A   1      45.583  31.752  26.688  1.00  0.00     0.031 C 
ATOM     24  C   UNL A   1      39.975  30.789  30.626  1.00  0.00     0.029 A 
ATOM     25  C   UNL A   1      40.738  31.986  30.965  1.00  0.00     0.049 A 
ATOM     26  H   UNL A   1      42.444  32.705  30.004  1.00  0.00     0.167 HD
ATOM     27  C   UNL A   1      46.210  33.865  27.822  1.00  0.00     0.034 A 
ATOM     28  C   UNL A   1      40.471  32.845  31.970  1.00  0.00     0.034 A 
ATOM     29  C   UNL A   1      46.002  34.849  28.852  1.00  0.00     0.049 A 
ATOM     30  C   UNL A   1      41.446  33.983  32.180  1.00  0.00     0.074 A 
ATOM     31  C   UNL A   1      46.748  35.973  29.142  1.00  0.00     0.029 A 
ATOM     32  N   UNL A   1      44.963  34.804  29.777  1.00  0.00    -0.354 N 
ATOM     33  N   UNL A   1      42.511  34.297  31.472  1.00  0.00    -0.248 NA
ATOM     34  C   UNL A   1      41.202  34.867  33.323  1.00  0.00     0.031 C 
ATOM     35  C   UNL A   1      46.205  36.564  30.288  1.00  0.00     0.029 A 
ATOM     36  C   UNL A   1      45.073  35.856  30.666  1.00  0.00     0.049 A 
ATOM     37  H   UNL A   1      44.252  34.123  29.794  1.00  0.00     0.167 HD
ATOM     38  C   UNL A   1      43.056  35.423  32.080  1.00  0.00     0.074 A 
ATOM     39  C   UNL A   1      42.185  35.747  33.194  1.00  0.00     0.031 C 
ATOM     40  C   UNL A   1      44.172  36.129  31.762  1.00  0.00     0.034 A 
BRANCH  27  41
ATOM     41  C   UNL A   1      47.418  33.950  26.924  1.00  0.00     0.023 A 
ATOM     42  C   UNL A   1      48.515  33.078  27.048  1.00  0.00     0.031 A 
ATOM     43  C   UNL A   1      47.506  34.987  25.978  1.00  0.00     0.131 A 
ATOM     44  C   UNL A   1      49.674  33.302  26.289  1.00  0.00     0.055 A 
ATOM     45  C   UNL A   1      48.632  35.160  25.173  1.00  0.00     0.041 A 
ATOM     46  F   UNL A   1      46.505  35.873  25.842  1.00  0.00    -0.206 F 
ATOM     47  C   UNL A   1      49.731  34.323  25.335  1.00  0.00     0.022 A 
BRANCH  44  48
ATOM     48  S   UNL A   1      51.163  32.334  26.663  1.00  0.00     0.124 S 
ATOM     49  O   UNL A   1      51.561  31.877  25.334  1.00  0.00    -0.237 OA
ATOM     50  O   UNL A   1      52.036  33.323  27.285  1.00  0.00    -0.237 OA
ATOM     51  O   UNL A   1      50.676  31.285  27.556  1.00  0.00    -0.744 OA
ENDBRANCH  44  48
ENDBRANCH  27  41
BRANCH  28  52
ATOM     52  C   UNL A   1      39.330  32.612  32.907  1.00  0.00     0.023 A 
ATOM     53  C   UNL A   1      38.055  33.146  32.663  1.00  0.00     0.031 A 
ATOM     54  C   UNL A   1      39.520  31.911  34.116  1.00  0.00     0.131 A 
ATOM     55  C   UNL A   1      37.040  33.017  33.628  1.00  0.00     0.055 A 
ATOM     56  C   UNL A   1      38.491  31.729  35.041  1.00  0.00     0.041 A 
ATOM     57  F   UNL A   1      40.719  31.391  34.421  1.00  0.00    -0.206 F 
ATOM     58  C   UNL A   1      37.245  32.298  34.808  1.00  0.00     0.022 A 
BRANCH  55  59
ATOM     59  S   UNL A   1      35.481  33.912  33.379  1.00  0.00     0.124 S 
ATOM     60  O   UNL A   1      35.684  35.099  34.204  1.00  0.00    -0.237 OA
ATOM     61  O   UNL A   1      35.480  34.124  31.936  1.00  0.00    -0.237 OA
ATOM     62  O   UNL A   1      34.469  32.978  33.871  1.00  0.00    -0.744 OA
ENDBRANCH  55  59
ENDBRANCH  28  52
BRANCH  40  63
ATOM     63  C   UNL A   1      44.480  37.327  32.618  1.00  0.00     0.023 A 
ATOM     64  C   UNL A   1      43.866  38.568  32.387  1.00  0.00     0.031 A 
ATOM     65  C   UNL A   1      45.375  37.211  33.696  1.00  0.00     0.131 A 
ATOM     66  C   UNL A   1      44.186  39.661  33.201  1.00  0.00     0.055 A 
ATOM     67  C   UNL A   1      45.641  38.286  34.541  1.00  0.00     0.041 A 
ATOM     68  F   UNL A   1      45.985  36.043  33.955  1.00  0.00    -0.206 F 
ATOM     69  C   UNL A   1      45.053  39.523  34.290  1.00  0.00     0.022 A 
BRANCH  66  70
ATOM     70  S   UNL A   1      43.503  41.286  32.782  1.00  0.00     0.124 S 
ATOM     71  O   UNL A   1      42.338  41.358  33.656  1.00  0.00    -0.237 OA
ATOM     72  O   UNL A   1      44.605  42.185  33.111  1.00  0.00    -0.237 OA
ATOM     73  O   UNL A   1      43.203  41.173  31.355  1.00  0.00    -0.744 OA
ENDBRANCH  66  70
ENDBRANCH  40  63
ENDBRANCH  14  15
ENDBRANCH   7   9
ENDBRANCH   6   7
ENDBRANCH   5   6
ENDBRANCH   4   5
ENDBRANCH   3   4
ENDBRANCH   2   3
ENDBRANCH   1   2
BRANCH   1  74
ATOM     74  O   UNL A   1      36.295  19.924  24.611  1.00  0.00    -0.377 OA
BRANCH  74  75
ATOM     75  C   UNL A   1      34.999  19.579  25.087  1.00  0.00     0.188 C 
BRANCH  75  76
ATOM     76  C   UNL A   1      33.749  20.023  24.291  1.00  0.00     0.188 C 
BRANCH  76  77
ATOM     77  O   UNL A   1      33.472  21.414  24.368  1.00  0.00    -0.376 OA
BRANCH  77  78
ATOM     78  C   UNL A   1      32.283  21.821  23.698  1.00  0.00     0.202 C 
BRANCH  78  79
ATOM     79  C   UNL A   1      32.557  22.682  22.463  1.00  0.00     0.261 C 
BRANCH  79  80
ATOM     80  O   UNL A   1      32.143  24.056  22.578  1.00  0.00    -0.460 OA
BRANCH  80  81
ATOM     81  C   UNL A   1      33.026  25.049  22.290  1.00  0.00     0.342 C 
ATOM     82  O   UNL A   1      33.393  25.414  21.200  1.00  0.00    -0.246 OA
BRANCH  81  83
ATOM     83  C   UNL A   1      33.412  25.647  23.598  1.00  0.00     0.103 A 
ATOM     84  C   UNL A   1      34.202  24.856  24.427  1.00  0.00     0.020 A 
ATOM     85  C   UNL A   1      32.937  26.918  24.035  1.00  0.00     0.148 A 
ATOM     86  C   UNL A   1      34.545  25.323  25.673  1.00  0.00     0.002 A 
ATOM     87  C   UNL A   1      33.294  27.551  25.317  1.00  0.00     0.060 A 
ATOM     88  C   UNL A   1      34.139  26.604  26.092  1.00  0.00     0.019 A 
ATOM     89  Br  UNL A   1      32.606  29.981  25.908  1.00  0.00    -0.047 Br
BRANCH  85  90
ATOM     90  O   UNL A   1      32.074  27.566  23.206  1.00  0.00    -0.488 OA
BRANCH  90  91
ATOM     91  C   UNL A   1      31.194  27.928  24.222  1.00  0.00     0.178 C 
ATOM     92  C   UNL A   1      29.992  26.406  24.269  1.00  0.00     0.074 C 
ATOM     93  C   UNL A   1      30.564  29.678  23.672  1.00  0.00     0.080 C 
ATOM     94  C   UNL A   1      28.196  26.680  23.648  1.00  0.00     0.165 C 
ATOM     95  C   UNL A   1      28.754  29.825  23.082  1.00  0.00     0.072 C 
ATOM     96  O   UNL A   1      27.658  28.373  23.200  1.00  0.00    -0.375 OA
ATOM     97  C   UNL A   1      27.919  31.078  23.634  1.00  0.00     0.036 C 
ATOM     98  C   UNL A   1      28.789  30.688  21.751  1.00  0.00     0.036 C 
ATOM     99  C   UNL A   1      27.463  31.308  22.177  1.00  0.00     0.006 C 
ENDBRANCH  90  91
ENDBRANCH  85  90
ENDBRANCH  81  83
ENDBRANCH  80  81
ENDBRANCH  79  80
ENDBRANCH  78  79
ENDBRANCH  77  78
ENDBRANCH  76  77
ENDBRANCH  75  76
ENDBRANCH  74  75
ENDBRANCH   1  74
TORSDOF 25
ENDMDL
MODEL 2
REMARK VINA RESULT:      -9.4      3.352      8.194
REMARK SMILES O=C(OCCOCCOCCOCCOC(=O)c1cccc(Br)c1O[C@@H]1CCOC2(CCC2)C1)c1ccc(-c2c3nc(c(-c4cc(S(=O)(=O)[O-])ccc4F)c4ccc([nH]4)c(-c4cc(S(=O)(=O)[O-])ccc4F)c4nc(c(-c5cc(S(=O)(=O)[O-])ccc5F)c5ccc2[nH]5)C=C4)C=C3)cc1
REMARK SMILES IDX 8 1 7 2 6 3 5 4 4 5 3 6 2 7 1 8 35 9 36 10 97 11 37 12 96 13
REMARK SMILES IDX 38 14 39 15 40 16 90 17 41 18 95 19 89 20 91 21 42 22 94 23
REMARK SMILES IDX 88 24 87 25 43 27 75 28 55 29 74 30 56 31 59 32 73 33 92 34
REMARK SMILES IDX 57 35 58 36 72 38 93 39 60 40 44 41 45 42 53 43 46 44 52 45
REMARK SMILES IDX 54 46 51 47 47 48 48 49 49 50 50 51 76 52 77 53 85 54 78 55
REMARK SMILES IDX 84 56 86 57 83 58 79 59 80 60 81 61 82 62 61 63 62 64 70 65
REMARK SMILES IDX 63 66 69 67 71 68 68 69 64 70 65 71 66 72 67 73 9 74 10 75
REMARK SMILES IDX 11 76 12 77 13 78 14 79 15 80 16 81 17 82 18 83 19 84 24 85
REMARK SMILES IDX 20 86 22 87 21 88 23 89 25 90 26 91 27 92 34 93 28 94 30 95
REMARK SMILES IDX 29 96 31 97 33 98 32 99
REMARK H PARENT 91 26 59 37
REMARK Flexibility Score: inf
ROOT
ATOM      1  C   UNL A   1      36.458  34.043  29.556  1.00  0.00     0.188 C 
ENDROOT
BRANCH   1   2
ATOM      2  C   UNL A   1      36.543  33.431  30.956  1.00  0.00     0.188 C 
BRANCH   2   3
ATOM      3  O   UNL A   1      36.740  32.019  30.881  1.00  0.00    -0.376 OA
BRANCH   3   4
ATOM      4  C   UNL A   1      35.900  31.224  31.714  1.00  0.00     0.202 C 
BRANCH   4   5
ATOM      5  C   UNL A   1      36.642  30.585  32.887  1.00  0.00     0.261 C 
BRANCH   5   6
ATOM      6  O   UNL A   1      37.131  29.278  32.564  1.00  0.00    -0.460 OA
BRANCH   6   7
ATOM      7  C   UNL A   1      38.416  28.910  32.330  1.00  0.00     0.338 C 
ATOM      8  O   UNL A   1      38.785  27.826  32.786  1.00  0.00    -0.246 OA
BRANCH   7   9
ATOM      9  C   UNL A   1      39.426  29.721  31.566  1.00  0.00     0.060 A 
ATOM     10  C   UNL A   1      39.416  29.984  30.191  1.00  0.00     0.016 A 
ATOM     11  C   UNL A   1      40.441  30.324  32.330  1.00  0.00     0.016 A 
ATOM     12  C   UNL A   1      40.373  30.790  29.588  1.00  0.00     0.010 A 
ATOM     13  C   UNL A   1      41.416  31.129  31.735  1.00  0.00     0.010 A 
ATOM     14  C   UNL A   1      41.388  31.347  30.354  1.00  0.00    -0.014 A 
BRANCH  14  15
ATOM     15  C   UNL A   1      42.518  31.977  29.653  1.00  0.00     0.031 A 
ATOM     16  C   UNL A   1      43.592  31.069  29.139  1.00  0.00     0.074 A 
ATOM     17  C   UNL A   1      42.507  33.297  29.394  1.00  0.00     0.049 A 
ATOM     18  N   UNL A   1      44.742  31.363  28.603  1.00  0.00    -0.248 NA
ATOM     19  C   UNL A   1      43.321  29.623  29.236  1.00  0.00     0.031 C 
ATOM     20  C   UNL A   1      41.409  34.210  29.721  1.00  0.00     0.029 A 
ATOM     21  N   UNL A   1      43.440  34.096  28.792  1.00  0.00    -0.354 N 
ATOM     22  C   UNL A   1      45.351  30.142  28.338  1.00  0.00     0.074 A 
ATOM     23  C   UNL A   1      44.441  29.104  28.758  1.00  0.00     0.031 C 
ATOM     24  C   UNL A   1      41.743  35.450  29.326  1.00  0.00     0.029 A 
ATOM     25  C   UNL A   1      43.103  35.430  28.798  1.00  0.00     0.049 A 
ATOM     26  H   UNL A   1      44.271  33.751  28.392  1.00  0.00     0.167 HD
ATOM     27  C   UNL A   1      46.579  29.926  27.813  1.00  0.00     0.034 A 
ATOM     28  C   UNL A   1      43.850  36.507  28.477  1.00  0.00     0.034 A 
ATOM     29  C   UNL A   1      47.450  31.005  27.425  1.00  0.00     0.049 A 
ATOM     30  C   UNL A   1      45.267  36.246  28.014  1.00  0.00     0.074 A 
ATOM     31  C   UNL A   1      48.735  30.946  26.925  1.00  0.00     0.029 A 
ATOM     32  N   UNL A   1      47.112  32.352  27.513  1.00  0.00    -0.354 N 
ATOM     33  N   UNL A   1      45.872  35.093  27.818  1.00  0.00    -0.248 NA
ATOM     34  C   UNL A   1      46.107  37.418  27.746  1.00  0.00     0.031 C 
ATOM     35  C   UNL A   1      49.201  32.258  26.786  1.00  0.00     0.029 A 
ATOM     36  C   UNL A   1      48.180  33.136  27.120  1.00  0.00     0.049 A 
ATOM     37  H   UNL A   1      46.239  32.697  27.811  1.00  0.00     0.167 HD
ATOM     38  C   UNL A   1      47.159  35.403  27.393  1.00  0.00     0.074 A 
ATOM     39  C   UNL A   1      47.232  36.851  27.334  1.00  0.00     0.031 C 
ATOM     40  C   UNL A   1      48.195  34.581  27.083  1.00  0.00     0.034 A 
BRANCH  27  41
ATOM     41  C   UNL A   1      47.069  28.502  27.765  1.00  0.00     0.023 A 
ATOM     42  C   UNL A   1      46.853  27.666  26.654  1.00  0.00     0.031 A 
ATOM     43  C   UNL A   1      47.691  27.945  28.897  1.00  0.00     0.131 A 
ATOM     44  C   UNL A   1      47.195  26.306  26.728  1.00  0.00     0.055 A 
ATOM     45  C   UNL A   1      48.095  26.610  28.936  1.00  0.00     0.041 A 
ATOM     46  F   UNL A   1      47.888  28.685  30.001  1.00  0.00    -0.206 F 
ATOM     47  C   UNL A   1      47.836  25.778  27.852  1.00  0.00     0.022 A 
BRANCH  44  48
ATOM     48  S   UNL A   1      46.661  25.198  25.393  1.00  0.00     0.124 S 
ATOM     49  O   UNL A   1      46.799  23.887  26.021  1.00  0.00    -0.237 OA
ATOM     50  O   UNL A   1      45.295  25.643  25.139  1.00  0.00    -0.237 OA
ATOM     51  O   UNL A   1      47.614  25.470  24.318  1.00  0.00    -0.744 OA
ENDBRANCH  44  48
ENDBRANCH  27  41
BRANCH  28  52
ATOM     52  C   UNL A   1      43.341  37.896  28.686  1.00  0.00     0.023 A 
ATOM     53  C   UNL A   1      43.563  38.589  29.886  1.00  0.00     0.031 A 
ATOM     54  C   UNL A   1      42.549  38.530  27.707  1.00  0.00     0.131 A 
ATOM     55  C   UNL A   1      42.962  39.843  30.099  1.00  0.00     0.055 A 
ATOM     56  C   UNL A   1      42.008  39.803  27.897  1.00  0.00     0.041 A 
ATOM     57  F   UNL A   1      42.281  37.916  26.544  1.00  0.00    -0.206 F 
ATOM     58  C   UNL A   1      42.199  40.461  29.105  1.00  0.00     0.022 A 
BRANCH  55  59
ATOM     59  S   UNL A   1      43.083  40.601  31.742  1.00  0.00     0.124 S 
ATOM     60  O   UNL A   1      43.052  39.431  32.614  1.00  0.00    -0.237 OA
ATOM     61  O   UNL A   1      44.358  41.305  31.658  1.00  0.00    -0.237 OA
ATOM     62  O   UNL A   1      41.902  41.460  31.810  1.00  0.00    -0.744 OA
ENDBRANCH  55  59
ENDBRANCH  28  52
BRANCH  40  63
ATOM     63  C   UNL A   1      49.468  35.240  26.628  1.00  0.00     0.023 A 
ATOM     64  C   UNL A   1      50.503  35.535  27.530  1.00  0.00     0.031 A 
ATOM     65  C   UNL A   1      49.655  35.546  25.268  1.00  0.00     0.131 A 
ATOM     66  C   UNL A   1      51.668  36.156  27.067  1.00  0.00     0.055 A 
ATOM     67  C   UNL A   1      50.842  36.107  24.804  1.00  0.00     0.041 A 
ATOM     68  F   UNL A   1      48.693  35.281  24.369  1.00  0.00    -0.206 F 
ATOM     69  C   UNL A   1      51.854  36.424  25.707  1.00  0.00     0.022 A 
BRANCH  66  70
ATOM     70  S   UNL A   1      52.917  36.670  28.275  1.00  0.00     0.124 S 
ATOM     71  O   UNL A   1      53.087  35.456  29.067  1.00  0.00    -0.237 OA
ATOM     72  O   UNL A   1      54.044  37.039  27.425  1.00  0.00    -0.237 OA
ATOM     73  O   UNL A   1      52.279  37.783  28.975  1.00  0.00    -0.744 OA
ENDBRANCH  66  70
ENDBRANCH  40  63
ENDBRANCH  14  15
ENDBRANCH   7   9
ENDBRANCH   6   7
ENDBRANCH   5   6
ENDBRANCH   4   5
ENDBRANCH   3   4
ENDBRANCH   2   3
ENDBRANCH   1   2
BRANCH   1  74
ATOM     74  O   UNL A   1      35.161  34.492  29.182  1.00  0.00    -0.377 OA
BRANCH  74  75
ATOM     75  C   UNL A   1      34.212  33.475  28.880  1.00  0.00     0.188 C 
BRANCH  75  76
ATOM     76  C   UNL A   1      34.559  32.394  27.829  1.00  0.00     0.188 C 
BRANCH  76  77
ATOM     77  O   UNL A   1      34.603  31.071  28.345  1.00  0.00    -0.376 OA
BRANCH  77  78
ATOM     78  C   UNL A   1      35.291  30.135  27.522  1.00  0.00     0.202 C 
BRANCH  78  79
ATOM     79  C   UNL A   1      34.537  28.813  27.361  1.00  0.00     0.261 C 
BRANCH  79  80
ATOM     80  O   UNL A   1      33.727  28.718  26.174  1.00  0.00    -0.460 OA
BRANCH  80  81
ATOM     81  C   UNL A   1      32.387  28.525  26.290  1.00  0.00     0.342 C 
ATOM     82  O   UNL A   1      31.741  28.439  27.305  1.00  0.00    -0.246 OA
BRANCH  81  83
ATOM     83  C   UNL A   1      31.854  28.500  24.899  1.00  0.00     0.103 A 
ATOM     84  C   UNL A   1      30.958  29.510  24.565  1.00  0.00     0.020 A 
ATOM     85  C   UNL A   1      32.160  27.458  23.975  1.00  0.00     0.148 A 
ATOM     86  C   UNL A   1      30.382  29.512  23.317  1.00  0.00     0.002 A 
ATOM     87  C   UNL A   1      31.659  27.391  22.591  1.00  0.00     0.060 A 
ATOM     88  C   UNL A   1      30.726  28.527  22.371  1.00  0.00     0.019 A 
ATOM     89  Br  UNL A   1      32.486  25.610  20.897  1.00  0.00    -0.047 Br
BRANCH  85  90
ATOM     90  O   UNL A   1      32.951  26.449  24.432  1.00  0.00    -0.488 OA
BRANCH  90  91
ATOM     91  C   UNL A   1      32.024  25.448  24.159  1.00  0.00     0.178 C 
ATOM     92  C   UNL A   1      31.078  25.309  25.847  1.00  0.00     0.074 C 
ATOM     93  C   UNL A   1      33.117  23.984  23.507  1.00  0.00     0.080 C 
ATOM     94  C   UNL A   1      31.358  23.719  26.887  1.00  0.00     0.165 C 
ATOM     95  C   UNL A   1      33.312  22.453  24.630  1.00  0.00     0.072 C 
ATOM     96  O   UNL A   1      32.357  22.357  26.179  1.00  0.00    -0.375 OA
ATOM     97  C   UNL A   1      33.182  21.021  23.920  1.00  0.00     0.036 C 
ATOM     98  C   UNL A   1      34.858  22.092  24.625  1.00  0.00     0.036 C 
ATOM     99  C   UNL A   1      34.464  20.620  24.681  1.00  0.00     0.006 C 
ENDBRANCH  90  91
ENDBRANCH  85  90
ENDBRANCH  81  83
ENDBRANCH  80  81
ENDBRANCH  79  80
ENDBRANCH  78  79
ENDBRANCH  77  78
ENDBRANCH  76  77
ENDBRANCH  75  76
ENDBRANCH  74  75
ENDBRANCH   1  74
TORSDOF 25
ENDMDL
MODEL 3
REMARK VINA RESULT:      -9.3      4.950      8.976
REMARK SMILES O=C(OCCOCCOCCOCCOC(=O)c1cccc(Br)c1O[C@@H]1CCOC2(CCC2)C1)c1ccc(-c2c3nc(c(-c4cc(S(=O)(=O)[O-])ccc4F)c4ccc([nH]4)c(-c4cc(S(=O)(=O)[O-])ccc4F)c4nc(c(-c5cc(S(=O)(=O)[O-])ccc5F)c5ccc2[nH]5)C=C4)C=C3)cc1
REMARK SMILES IDX 8 1 7 2 6 3 5 4 4 5 3 6 2 7 1 8 35 9 36 10 97 11 37 12 96 13
REMARK SMILES IDX 38 14 39 15 40 16 90 17 41 18 95 19 89 20 91 21 42 22 94 23
REMARK SMILES IDX 88 24 87 25 43 27 75 28 55 29 74 30 56 31 59 32 73 33 92 34
REMARK SMILES IDX 57 35 58 36 72 38 93 39 60 40 44 41 45 42 53 43 46 44 52 45
REMARK SMILES IDX 54 46 51 47 47 48 48 49 49 50 50 51 76 52 77 53 85 54 78 55
REMARK SMILES IDX 84 56 86 57 83 58 79 59 80 60 81 61 82 62 61 63 62 64 70 65
REMARK SMILES IDX 63 66 69 67 71 68 68 69 64 70 65 71 66 72 67 73 9 74 10 75
REMARK SMILES IDX 11 76 12 77 13 78 14 79 15 80 16 81 17 82 18 83 19 84 24 85
REMARK SMILES IDX 20 86 22 87 21 88 23 89 25 90 26 91 27 92 34 93 28 94 30 95
REMARK SMILES IDX 29 96 31 97 33 98 32 99
REMARK H PARENT 91 26 59 37
REMARK Flexibility Score: inf
ROOT
ATOM      1  C   UNL A   1      43.180  23.196  25.508  1.00  0.00     0.188 C 
ENDROOT
BRANCH   1   2
ATOM      2  C   UNL A   1      43.300  21.962  26.404  1.00  0.00     0.188 C 
BRANCH   2   3
ATOM      3  O   UNL A   1      42.562  22.139  27.613  1.00  0.00    -0.376 OA
BRANCH   3   4
ATOM      4  C   UNL A   1      41.347  21.402  27.721  1.00  0.00     0.202 C 
BRANCH   4   5
ATOM      5  C   UNL A   1      40.591  21.285  26.398  1.00  0.00     0.261 C 
BRANCH   5   6
ATOM      6  O   UNL A   1      39.240  21.746  26.510  1.00  0.00    -0.460 OA
BRANCH   6   7
ATOM      7  C   UNL A   1      38.765  22.989  26.246  1.00  0.00     0.338 C 
ATOM      8  O   UNL A   1      37.838  23.079  25.438  1.00  0.00    -0.246 OA
BRANCH   7   9
ATOM      9  C   UNL A   1      39.281  24.263  26.856  1.00  0.00     0.060 A 
ATOM     10  C   UNL A   1      39.184  24.644  28.199  1.00  0.00     0.016 A 
ATOM     11  C   UNL A   1      39.987  25.120  25.992  1.00  0.00     0.016 A 
ATOM     12  C   UNL A   1      39.741  25.825  28.672  1.00  0.00     0.010 A 
ATOM     13  C   UNL A   1      40.544  26.316  26.453  1.00  0.00     0.010 A 
ATOM     14  C   UNL A   1      40.403  26.675  27.797  1.00  0.00    -0.014 A 
BRANCH  14  15
ATOM     15  C   UNL A   1      40.753  28.023  28.273  1.00  0.00     0.031 A 
ATOM     16  C   UNL A   1      42.201  28.401  28.242  1.00  0.00     0.074 A 
ATOM     17  C   UNL A   1      39.788  28.898  28.606  1.00  0.00     0.049 A 
ATOM     18  N   UNL A   1      42.794  29.461  28.712  1.00  0.00    -0.248 NA
ATOM     19  C   UNL A   1      43.107  27.448  27.575  1.00  0.00     0.031 C 
ATOM     20  C   UNL A   1      38.349  28.647  28.498  1.00  0.00     0.029 A 
ATOM     21  N   UNL A   1      39.870  30.175  29.093  1.00  0.00    -0.354 N 
ATOM     22  C   UNL A   1      44.145  29.285  28.437  1.00  0.00     0.074 A 
ATOM     23  C   UNL A   1      44.285  28.024  27.748  1.00  0.00     0.031 C 
ATOM     24  C   UNL A   1      37.684  29.735  28.923  1.00  0.00     0.029 A 
ATOM     25  C   UNL A   1      38.646  30.719  29.407  1.00  0.00     0.049 A 
ATOM     26  H   UNL A   1      40.721  30.657  29.207  1.00  0.00     0.167 HD
ATOM     27  C   UNL A   1      45.170  30.105  28.765  1.00  0.00     0.034 A 
ATOM     28  C   UNL A   1      38.357  31.855  30.076  1.00  0.00     0.034 A 
ATOM     29  C   UNL A   1      44.968  31.346  29.466  1.00  0.00     0.049 A 
ATOM     30  C   UNL A   1      39.527  32.692  30.546  1.00  0.00     0.074 A 
ATOM     31  C   UNL A   1      45.907  32.256  29.908  1.00  0.00     0.029 A 
ATOM     32  N   UNL A   1      43.721  31.839  29.840  1.00  0.00    -0.354 N 
ATOM     33  N   UNL A   1      40.814  32.500  30.342  1.00  0.00    -0.248 NA
ATOM     34  C   UNL A   1      39.217  33.881  31.345  1.00  0.00     0.031 C 
ATOM     35  C   UNL A   1      45.234  33.256  30.616  1.00  0.00     0.029 A 
ATOM     36  C   UNL A   1      43.869  33.017  30.547  1.00  0.00     0.049 A 
ATOM     37  H   UNL A   1      42.859  31.411  29.631  1.00  0.00     0.167 HD
ATOM     38  C   UNL A   1      41.463  33.551  30.979  1.00  0.00     0.074 A 
ATOM     39  C   UNL A   1      40.425  34.388  31.548  1.00  0.00     0.031 C 
ATOM     40  C   UNL A   1      42.792  33.809  31.095  1.00  0.00     0.034 A 
BRANCH  27  41
ATOM     41  C   UNL A   1      46.565  29.611  28.483  1.00  0.00     0.023 A 
ATOM     42  C   UNL A   1      47.325  28.907  29.436  1.00  0.00     0.031 A 
ATOM     43  C   UNL A   1      47.179  29.930  27.258  1.00  0.00     0.131 A 
ATOM     44  C   UNL A   1      48.671  28.609  29.173  1.00  0.00     0.055 A 
ATOM     45  C   UNL A   1      48.494  29.564  26.974  1.00  0.00     0.041 A 
ATOM     46  F   UNL A   1      46.515  30.632  26.325  1.00  0.00    -0.206 F 
ATOM     47  C   UNL A   1      49.254  28.911  27.939  1.00  0.00     0.022 A 
BRANCH  44  48
ATOM     48  S   UNL A   1      49.697  27.948  30.517  1.00  0.00     0.124 S 
ATOM     49  O   UNL A   1      48.835  28.156  31.677  1.00  0.00    -0.237 OA
ATOM     50  O   UNL A   1      49.897  26.562  30.111  1.00  0.00    -0.237 OA
ATOM     51  O   UNL A   1      50.894  28.787  30.480  1.00  0.00    -0.744 OA
ENDBRANCH  44  48
ENDBRANCH  27  41
BRANCH  28  52
ATOM     52  C   UNL A   1      36.951  32.205  30.441  1.00  0.00     0.023 A 
ATOM     53  C   UNL A   1      36.087  32.832  29.529  1.00  0.00     0.031 A 
ATOM     54  C   UNL A   1      36.468  31.987  31.748  1.00  0.00     0.131 A 
ATOM     55  C   UNL A   1      34.815  33.263  29.945  1.00  0.00     0.055 A 
ATOM     56  C   UNL A   1      35.180  32.358  32.138  1.00  0.00     0.041 A 
ATOM     57  F   UNL A   1      37.249  31.409  32.675  1.00  0.00    -0.206 F 
ATOM     58  C   UNL A   1      34.350  33.016  31.239  1.00  0.00     0.022 A 
BRANCH  55  59
ATOM     59  S   UNL A   1      33.820  34.269  28.809  1.00  0.00     0.124 S 
ATOM     60  O   UNL A   1      33.359  33.268  27.851  1.00  0.00    -0.237 OA
ATOM     61  O   UNL A   1      32.805  34.819  29.700  1.00  0.00    -0.237 OA
ATOM     62  O   UNL A   1      34.778  35.239  28.282  1.00  0.00    -0.744 OA
ENDBRANCH  55  59
ENDBRANCH  28  52
BRANCH  40  63
ATOM     63  C   UNL A   1      43.174  35.060  31.839  1.00  0.00     0.023 A 
ATOM     64  C   UNL A   1      43.229  35.089  33.241  1.00  0.00     0.031 A 
ATOM     65  C   UNL A   1      43.516  36.224  31.129  1.00  0.00     0.131 A 
ATOM     66  C   UNL A   1      43.581  36.275  33.896  1.00  0.00     0.055 A 
ATOM     67  C   UNL A   1      43.927  37.383  31.785  1.00  0.00     0.041 A 
ATOM     68  F   UNL A   1      43.479  36.243  29.787  1.00  0.00    -0.206 F 
ATOM     69  C   UNL A   1      43.952  37.416  33.177  1.00  0.00     0.022 A 
BRANCH  66  70
ATOM     70  S   UNL A   1      43.488  36.329  35.704  1.00  0.00     0.124 S 
ATOM     71  O   UNL A   1      42.127  35.864  35.950  1.00  0.00    -0.237 OA
ATOM     72  O   UNL A   1      44.556  35.417  36.102  1.00  0.00    -0.237 OA
ATOM     73  O   UNL A   1      43.729  37.737  36.018  1.00  0.00    -0.744 OA
ENDBRANCH  66  70
ENDBRANCH  40  63
ENDBRANCH  14  15
ENDBRANCH   7   9
ENDBRANCH   6   7
ENDBRANCH   5   6
ENDBRANCH   4   5
ENDBRANCH   3   4
ENDBRANCH   2   3
ENDBRANCH   1   2
BRANCH   1  74
ATOM     74  O   UNL A   1      44.114  24.230  25.794  1.00  0.00    -0.377 OA
BRANCH  74  75
ATOM     75  C   UNL A   1      45.229  23.859  26.597  1.00  0.00     0.188 C 
BRANCH  75  76
ATOM     76  C   UNL A   1      45.901  24.915  27.506  1.00  0.00     0.188 C 
BRANCH  76  77
ATOM     77  O   UNL A   1      45.944  24.558  28.881  1.00  0.00    -0.376 OA
BRANCH  77  78
ATOM     78  C   UNL A   1      46.709  25.437  29.699  1.00  0.00     0.202 C 
BRANCH  78  79
ATOM     79  C   UNL A   1      46.046  25.730  31.046  1.00  0.00     0.261 C 
BRANCH  79  80
ATOM     80  O   UNL A   1      46.666  25.093  32.179  1.00  0.00    -0.460 OA
BRANCH  80  81
ATOM     81  C   UNL A   1      46.442  25.579  33.428  1.00  0.00     0.342 C 
ATOM     82  O   UNL A   1      47.061  26.439  34.005  1.00  0.00    -0.246 OA
BRANCH  81  83
ATOM     83  C   UNL A   1      45.229  24.875  33.931  1.00  0.00     0.103 A 
ATOM     84  C   UNL A   1      45.106  23.535  33.580  1.00  0.00     0.020 A 
ATOM     85  C   UNL A   1      44.197  25.540  34.656  1.00  0.00     0.148 A 
ATOM     86  C   UNL A   1      43.982  22.841  33.959  1.00  0.00     0.002 A 
ATOM     87  C   UNL A   1      42.983  24.887  35.175  1.00  0.00     0.060 A 
ATOM     88  C   UNL A   1      42.985  23.467  34.733  1.00  0.00     0.019 A 
ATOM     89  Br  UNL A   1      41.295  26.111  36.717  1.00  0.00    -0.047 Br
BRANCH  85  90
ATOM     90  O   UNL A   1      44.352  26.879  34.850  1.00  0.00    -0.488 OA
BRANCH  90  91
ATOM     91  C   UNL A   1      43.766  27.234  33.638  1.00  0.00     0.178 C 
ATOM     92  C   UNL A   1      45.049  28.508  32.933  1.00  0.00     0.074 C 
ATOM     93  C   UNL A   1      41.980  27.798  34.147  1.00  0.00     0.080 C 
ATOM     94  C   UNL A   1      44.517  30.351  32.866  1.00  0.00     0.165 C 
ATOM     95  C   UNL A   1      41.569  29.658  34.029  1.00  0.00     0.072 C 
ATOM     96  O   UNL A   1      42.796  30.798  33.309  1.00  0.00    -0.375 OA
ATOM     97  C   UNL A   1      40.152  30.041  33.383  1.00  0.00     0.036 C 
ATOM     98  C   UNL A   1      40.830  30.036  35.381  1.00  0.00     0.036 C 
ATOM     99  C   UNL A   1      39.960  30.997  34.578  1.00  0.00     0.006 C 
ENDBRANCH  90  91
ENDBRANCH  85  90
ENDBRANCH  81  83
ENDBRANCH  80  81
ENDBRANCH  79  80
ENDBRANCH  78  79
ENDBRANCH  77  78
ENDBRANCH  76  77
ENDBRANCH  75  76
ENDBRANCH  74  75
ENDBRANCH   1  74
TORSDOF 25
ENDMDL
