MODEL 1
REMARK VINA RESULT:      -7.9      0.000      0.000
REMARK SMILES CC[C@@H](C)[C@H](NC(=O)NCc1ccc(C)cc1)C(=O)OCCOCCOCCOCCOC(=O)c1ccc(-c2c3nc(c(-c4cc(S(=O)(=O)[O-])ccc4F)c4ccc([nH]4)c(-c4cc(S(=O)(=O)[O-])ccc4F)c4nc(c(-c5cc(S(=O)(=O)[O-])ccc5F)c5ccc2[nH]5)C=C4)C=C3)cc1
REMARK SMILES IDX 26 1 25 2 24 3 23 4 22 5 21 6 20 7 18 8 19 9 5 10 3 11 4 12
REMARK SMILES IDX 2 13 1 14 6 15 7 16 8 18 9 19 10 21 11 22 12 23 17 24 13 25
REMARK SMILES IDX 16 26 14 27 15 28 27 29 28 30 29 31 30 32 31 33 32 34 33 35
REMARK SMILES IDX 34 36 35 37 36 38 97 39 37 40 96 41 38 42 39 43 40 44 90 45
REMARK SMILES IDX 41 46 95 47 89 48 91 49 42 50 94 51 88 52 87 53 43 55 75 56
REMARK SMILES IDX 55 57 74 58 56 59 59 60 73 61 92 62 57 63 58 64 72 66 93 67
REMARK SMILES IDX 60 68 44 69 45 70 53 71 46 72 52 73 54 74 51 75 47 76 48 77
REMARK SMILES IDX 49 78 50 79 76 80 77 81 85 82 78 83 84 84 86 85 83 86 79 87
REMARK SMILES IDX 80 88 81 89 82 90 61 91 62 92 70 93 63 94 69 95 71 96 68 97
REMARK SMILES IDX 64 98 65 99 66 100 67 101
REMARK H PARENT 6 17 9 20 91 54 59 65
REMARK Flexibility Score: inf
ROOT
ATOM      1  O   UNL A   1      46.484  20.390  34.451  1.00  0.00    -0.377 OA
ENDROOT
BRANCH   1   2
ATOM      2  C   UNL A   1      46.877  20.001  35.752  1.00  0.00     0.188 C 
BRANCH   2   3
ATOM      3  C   UNL A   1      45.786  19.385  36.632  1.00  0.00     0.188 C 
BRANCH   3   4
ATOM      4  O   UNL A   1      46.163  18.867  37.899  1.00  0.00    -0.376 OA
BRANCH   4   5
ATOM      5  C   UNL A   1      46.616  19.854  38.820  1.00  0.00     0.202 C 
BRANCH   5   6
ATOM      6  C   UNL A   1      47.814  19.482  39.685  1.00  0.00     0.261 C 
BRANCH   6   7
ATOM      7  O   UNL A   1      47.513  19.755  41.065  1.00  0.00    -0.462 OA
BRANCH   7   8
ATOM      8  C   UNL A   1      47.859  18.822  41.966  1.00  0.00     0.329 C 
ATOM      9  O   UNL A   1      49.004  18.458  42.217  1.00  0.00    -0.250 OA
BRANCH   8  10
ATOM     10  C   UNL A   1      46.646  18.284  42.727  1.00  0.00     0.196 C 
BRANCH  10  11
ATOM     11  C   UNL A   1      45.957  17.090  42.026  1.00  0.00     0.019 C 
ATOM     12  C   UNL A   1      46.880  16.217  41.172  1.00  0.00     0.010 C 
BRANCH  11  13
ATOM     13  C   UNL A   1      44.791  17.698  41.212  1.00  0.00     0.002 C 
ATOM     14  C   UNL A   1      44.347  16.891  40.015  1.00  0.00     0.004 C 
ENDBRANCH  11  13
ENDBRANCH  10  11
BRANCH  10  15
ATOM     15  N   UNL A   1      45.723  19.259  43.319  1.00  0.00    -0.324 N 
ATOM     16  C   UNL A   1      44.773  19.106  44.270  1.00  0.00     0.315 C 
ATOM     17  H   UNL A   1      45.809  20.173  42.967  1.00  0.00     0.166 HD
ATOM     18  O   UNL A   1      43.779  19.826  44.280  1.00  0.00    -0.249 OA
ATOM     19  N   UNL A   1      44.888  18.173  45.245  1.00  0.00    -0.334 N 
ATOM     20  H   UNL A   1      44.106  18.066  45.833  1.00  0.00     0.165 HD
BRANCH  19  21
ATOM     21  C   UNL A   1      46.007  17.324  45.525  1.00  0.00     0.153 C 
BRANCH  21  22
ATOM     22  C   UNL A   1      45.921  15.847  45.310  1.00  0.00    -0.029 A 
ATOM     23  C   UNL A   1      44.637  15.385  44.959  1.00  0.00     0.006 A 
ATOM     24  C   UNL A   1      46.983  14.948  45.335  1.00  0.00     0.006 A 
ATOM     25  C   UNL A   1      44.405  14.047  44.687  1.00  0.00     0.004 A 
ATOM     26  C   UNL A   1      46.746  13.593  45.067  1.00  0.00     0.004 A 
ATOM     27  C   UNL A   1      45.456  13.135  44.760  1.00  0.00    -0.051 A 
ATOM     28  C   UNL A   1      45.167  11.689  44.503  1.00  0.00     0.044 C 
ENDBRANCH  21  22
ENDBRANCH  19  21
ENDBRANCH  10  15
ENDBRANCH   8  10
ENDBRANCH   7   8
ENDBRANCH   6   7
ENDBRANCH   5   6
ENDBRANCH   4   5
ENDBRANCH   3   4
ENDBRANCH   2   3
ENDBRANCH   1   2
BRANCH   1  29
ATOM     29  C   UNL A   1      45.539  21.449  34.310  1.00  0.00     0.188 C 
BRANCH  29  30
ATOM     30  C   UNL A   1      46.027  22.843  33.959  1.00  0.00     0.188 C 
BRANCH  30  31
ATOM     31  O   UNL A   1      45.478  23.751  34.927  1.00  0.00    -0.376 OA
BRANCH  31  32
ATOM     32  C   UNL A   1      44.719  23.139  35.958  1.00  0.00     0.202 C 
BRANCH  32  33
ATOM     33  C   UNL A   1      45.265  23.452  37.351  1.00  0.00     0.261 C 
BRANCH  33  34
ATOM     34  O   UNL A   1      44.412  24.430  37.985  1.00  0.00    -0.460 OA
BRANCH  34  35
ATOM     35  C   UNL A   1      44.912  25.701  37.999  1.00  0.00     0.338 C 
ATOM     36  O   UNL A   1      46.026  26.001  38.354  1.00  0.00    -0.246 OA
BRANCH  35  37
ATOM     37  C   UNL A   1      43.846  26.679  37.614  1.00  0.00     0.060 A 
ATOM     38  C   UNL A   1      42.622  26.221  37.094  1.00  0.00     0.016 A 
ATOM     39  C   UNL A   1      44.170  28.026  37.518  1.00  0.00     0.016 A 
ATOM     40  C   UNL A   1      41.811  27.081  36.335  1.00  0.00     0.010 A 
ATOM     41  C   UNL A   1      43.435  28.825  36.668  1.00  0.00     0.010 A 
ATOM     42  C   UNL A   1      42.267  28.364  36.037  1.00  0.00    -0.014 A 
BRANCH  42  43
ATOM     43  C   UNL A   1      41.779  29.229  34.937  1.00  0.00     0.031 A 
ATOM     44  C   UNL A   1      42.090  28.844  33.520  1.00  0.00     0.074 A 
ATOM     45  C   UNL A   1      40.729  30.031  35.237  1.00  0.00     0.049 A 
ATOM     46  N   UNL A   1      41.527  29.296  32.453  1.00  0.00    -0.248 NA
ATOM     47  C   UNL A   1      43.105  27.842  33.204  1.00  0.00     0.031 C 
ATOM     48  C   UNL A   1      39.594  30.358  34.380  1.00  0.00     0.029 A 
ATOM     49  N   UNL A   1      40.369  30.621  36.432  1.00  0.00    -0.354 N 
ATOM     50  C   UNL A   1      41.888  28.506  31.366  1.00  0.00     0.074 A 
ATOM     51  C   UNL A   1      42.913  27.645  31.896  1.00  0.00     0.031 C 
ATOM     52  C   UNL A   1      38.680  31.072  35.052  1.00  0.00     0.029 A 
ATOM     53  C   UNL A   1      39.332  31.541  36.233  1.00  0.00     0.049 A 
ATOM     54  H   UNL A   1      40.784  30.424  37.304  1.00  0.00     0.167 HD
ATOM     55  C   UNL A   1      41.201  28.623  30.180  1.00  0.00     0.034 A 
ATOM     56  C   UNL A   1      39.586  32.872  36.399  1.00  0.00     0.034 A 
ATOM     57  C   UNL A   1      40.329  29.824  30.201  1.00  0.00     0.049 A 
ATOM     58  C   UNL A   1      39.841  33.541  35.012  1.00  0.00     0.074 A 
ATOM     59  C   UNL A   1      38.996  30.089  29.924  1.00  0.00     0.029 A 
ATOM     60  N   UNL A   1      40.823  31.008  30.766  1.00  0.00    -0.354 N 
ATOM     61  N   UNL A   1      40.165  32.881  33.908  1.00  0.00    -0.248 NA
ATOM     62  C   UNL A   1      39.519  34.934  34.696  1.00  0.00     0.031 C 
ATOM     63  C   UNL A   1      38.667  31.351  30.515  1.00  0.00     0.029 A 
ATOM     64  C   UNL A   1      39.819  31.907  31.060  1.00  0.00     0.049 A 
ATOM     65  H   UNL A   1      41.778  31.179  30.934  1.00  0.00     0.167 HD
ATOM     66  C   UNL A   1      40.018  33.666  32.789  1.00  0.00     0.074 A 
ATOM     67  C   UNL A   1      39.626  34.952  33.352  1.00  0.00     0.031 C 
ATOM     68  C   UNL A   1      40.156  33.267  31.475  1.00  0.00     0.034 A 
BRANCH  55  69
ATOM     69  C   UNL A   1      41.160  27.583  29.029  1.00  0.00     0.023 A 
ATOM     70  C   UNL A   1      42.131  27.636  27.993  1.00  0.00     0.031 A 
ATOM     71  C   UNL A   1      40.175  26.588  28.820  1.00  0.00     0.131 A 
ATOM     72  C   UNL A   1      42.075  26.801  26.847  1.00  0.00     0.055 A 
ATOM     73  C   UNL A   1      40.147  25.725  27.707  1.00  0.00     0.041 A 
ATOM     74  F   UNL A   1      39.156  26.391  29.658  1.00  0.00    -0.206 F 
ATOM     75  C   UNL A   1      41.090  25.833  26.705  1.00  0.00     0.022 A 
BRANCH  72  76
ATOM     76  S   UNL A   1      43.296  27.005  25.512  1.00  0.00     0.124 S 
ATOM     77  O   UNL A   1      43.433  25.641  25.012  1.00  0.00    -0.237 OA
ATOM     78  O   UNL A   1      42.637  27.957  24.626  1.00  0.00    -0.237 OA
ATOM     79  O   UNL A   1      44.475  27.527  26.204  1.00  0.00    -0.744 OA
ENDBRANCH  72  76
ENDBRANCH  55  69
BRANCH  56  80
ATOM     80  C   UNL A   1      40.071  33.031  37.830  1.00  0.00     0.023 A 
ATOM     81  C   UNL A   1      41.232  33.872  37.918  1.00  0.00     0.031 A 
ATOM     82  C   UNL A   1      39.134  33.160  38.872  1.00  0.00     0.131 A 
ATOM     83  C   UNL A   1      41.234  35.005  38.762  1.00  0.00     0.055 A 
ATOM     84  C   UNL A   1      39.187  34.250  39.768  1.00  0.00     0.041 A 
ATOM     85  F   UNL A   1      38.033  32.394  38.895  1.00  0.00    -0.206 F 
ATOM     86  C   UNL A   1      40.190  35.217  39.661  1.00  0.00     0.022 A 
BRANCH  83  87
ATOM     87  S   UNL A   1      42.401  36.379  38.421  1.00  0.00     0.124 S 
ATOM     88  O   UNL A   1      42.636  36.234  36.990  1.00  0.00    -0.237 OA
ATOM     89  O   UNL A   1      41.639  37.550  38.830  1.00  0.00    -0.237 OA
ATOM     90  O   UNL A   1      43.543  36.077  39.283  1.00  0.00    -0.744 OA
ENDBRANCH  83  87
ENDBRANCH  56  80
BRANCH  68  91
ATOM     91  C   UNL A   1      40.638  34.190  30.360  1.00  0.00     0.023 A 
ATOM     92  C   UNL A   1      41.986  34.281  30.020  1.00  0.00     0.031 A 
ATOM     93  C   UNL A   1      39.748  34.879  29.487  1.00  0.00     0.131 A 
ATOM     94  C   UNL A   1      42.420  35.077  28.951  1.00  0.00     0.055 A 
ATOM     95  C   UNL A   1      40.174  35.588  28.360  1.00  0.00     0.041 A 
ATOM     96  F   UNL A   1      38.418  34.875  29.655  1.00  0.00    -0.206 F 
ATOM     97  C   UNL A   1      41.525  35.705  28.093  1.00  0.00     0.022 A 
BRANCH  94  98
ATOM     98  S   UNL A   1      44.199  35.313  28.785  1.00  0.00     0.124 S 
ATOM     99  O   UNL A   1      44.286  36.763  28.624  1.00  0.00    -0.237 OA
ATOM    100  O   UNL A   1      44.704  34.788  30.049  1.00  0.00    -0.237 OA
ATOM    101  O   UNL A   1      44.541  34.532  27.601  1.00  0.00    -0.744 OA
ENDBRANCH  94  98
ENDBRANCH  68  91
ENDBRANCH  42  43
ENDBRANCH  35  37
ENDBRANCH  34  35
ENDBRANCH  33  34
ENDBRANCH  32  33
ENDBRANCH  31  32
ENDBRANCH  30  31
ENDBRANCH  29  30
ENDBRANCH   1  29
TORSDOF 28
ENDMDL
MODEL 2
REMARK VINA RESULT:      -7.4      8.998     15.396
REMARK SMILES CC[C@@H](C)[C@H](NC(=O)NCc1ccc(C)cc1)C(=O)OCCOCCOCCOCCOC(=O)c1ccc(-c2c3nc(c(-c4cc(S(=O)(=O)[O-])ccc4F)c4ccc([nH]4)c(-c4cc(S(=O)(=O)[O-])ccc4F)c4nc(c(-c5cc(S(=O)(=O)[O-])ccc5F)c5ccc2[nH]5)C=C4)C=C3)cc1
REMARK SMILES IDX 26 1 25 2 24 3 23 4 22 5 21 6 20 7 18 8 19 9 5 10 3 11 4 12
REMARK SMILES IDX 2 13 1 14 6 15 7 16 8 18 9 19 10 21 11 22 12 23 17 24 13 25
REMARK SMILES IDX 16 26 14 27 15 28 27 29 28 30 29 31 30 32 31 33 32 34 33 35
REMARK SMILES IDX 34 36 35 37 36 38 97 39 37 40 96 41 38 42 39 43 40 44 90 45
REMARK SMILES IDX 41 46 95 47 89 48 91 49 42 50 94 51 88 52 87 53 43 55 75 56
REMARK SMILES IDX 55 57 74 58 56 59 59 60 73 61 92 62 57 63 58 64 72 66 93 67
REMARK SMILES IDX 60 68 44 69 45 70 53 71 46 72 52 73 54 74 51 75 47 76 48 77
REMARK SMILES IDX 49 78 50 79 76 80 77 81 85 82 78 83 84 84 86 85 83 86 79 87
REMARK SMILES IDX 80 88 81 89 82 90 61 91 62 92 70 93 63 94 69 95 71 96 68 97
REMARK SMILES IDX 64 98 65 99 66 100 67 101
REMARK H PARENT 6 17 9 20 91 54 59 65
REMARK Flexibility Score: inf
ROOT
ATOM      1  O   UNL A   1      44.414  38.902  38.106  1.00  0.00    -0.377 OA
ENDROOT
BRANCH   1   2
ATOM      2  C   UNL A   1      45.396  39.152  39.093  1.00  0.00     0.188 C 
BRANCH   2   3
ATOM      3  C   UNL A   1      46.811  39.434  38.583  1.00  0.00     0.188 C 
BRANCH   3   4
ATOM      4  O   UNL A   1      47.006  40.557  37.737  1.00  0.00    -0.376 OA
BRANCH   4   5
ATOM      5  C   UNL A   1      47.262  41.772  38.434  1.00  0.00     0.202 C 
BRANCH   5   6
ATOM      6  C   UNL A   1      46.195  42.855  38.334  1.00  0.00     0.261 C 
BRANCH   6   7
ATOM      7  O   UNL A   1      45.519  42.748  37.068  1.00  0.00    -0.462 OA
BRANCH   7   8
ATOM      8  C   UNL A   1      45.951  43.535  36.071  1.00  0.00     0.329 C 
ATOM      9  O   UNL A   1      46.919  44.288  36.121  1.00  0.00    -0.250 OA
BRANCH   8  10
ATOM     10  C   UNL A   1      45.130  43.346  34.794  1.00  0.00     0.196 C 
BRANCH  10  11
ATOM     11  C   UNL A   1      45.877  42.562  33.689  1.00  0.00     0.019 C 
ATOM     12  C   UNL A   1      46.678  41.354  34.179  1.00  0.00     0.010 C 
BRANCH  11  13
ATOM     13  C   UNL A   1      46.756  43.604  32.959  1.00  0.00     0.002 C 
ATOM     14  C   UNL A   1      47.628  43.055  31.854  1.00  0.00     0.004 C 
ENDBRANCH  11  13
ENDBRANCH  10  11
BRANCH  10  15
ATOM     15  N   UNL A   1      44.348  44.489  34.308  1.00  0.00    -0.324 N 
ATOM     16  C   UNL A   1      43.372  44.553  33.375  1.00  0.00     0.315 C 
ATOM     17  H   UNL A   1      44.570  45.349  34.732  1.00  0.00     0.166 HD
ATOM     18  O   UNL A   1      43.197  45.580  32.725  1.00  0.00    -0.249 OA
ATOM     19  N   UNL A   1      42.550  43.504  33.134  1.00  0.00    -0.334 N 
ATOM     20  H   UNL A   1      41.935  43.605  32.371  1.00  0.00     0.165 HD
BRANCH  19  21
ATOM     21  C   UNL A   1      42.464  42.268  33.851  1.00  0.00     0.153 C 
BRANCH  21  22
ATOM     22  C   UNL A   1      42.898  40.984  33.220  1.00  0.00    -0.029 A 
ATOM     23  C   UNL A   1      43.058  41.049  31.822  1.00  0.00     0.006 A 
ATOM     24  C   UNL A   1      43.234  39.810  33.887  1.00  0.00     0.006 A 
ATOM     25  C   UNL A   1      43.496  39.953  31.097  1.00  0.00     0.004 A 
ATOM     26  C   UNL A   1      43.669  38.699  33.153  1.00  0.00     0.004 A 
ATOM     27  C   UNL A   1      43.784  38.760  31.756  1.00  0.00    -0.051 A 
ATOM     28  C   UNL A   1      44.214  37.579  30.942  1.00  0.00     0.044 C 
ENDBRANCH  21  22
ENDBRANCH  19  21
ENDBRANCH  10  15
ENDBRANCH   8  10
ENDBRANCH   7   8
ENDBRANCH   6   7
ENDBRANCH   5   6
ENDBRANCH   4   5
ENDBRANCH   3   4
ENDBRANCH   2   3
ENDBRANCH   1   2
BRANCH   1  29
ATOM     29  C   UNL A   1      43.683  37.678  38.166  1.00  0.00     0.188 C 
BRANCH  29  30
ATOM     30  C   UNL A   1      42.523  37.549  39.138  1.00  0.00     0.188 C 
BRANCH  30  31
ATOM     31  O   UNL A   1      41.953  36.243  38.961  1.00  0.00    -0.376 OA
BRANCH  31  32
ATOM     32  C   UNL A   1      40.614  36.109  39.412  1.00  0.00     0.202 C 
BRANCH  32  33
ATOM     33  C   UNL A   1      39.594  36.396  38.310  1.00  0.00     0.261 C 
BRANCH  33  34
ATOM     34  O   UNL A   1      39.438  35.217  37.490  1.00  0.00    -0.460 OA
BRANCH  34  35
ATOM     35  C   UNL A   1      39.529  35.441  36.145  1.00  0.00     0.338 C 
ATOM     36  O   UNL A   1      39.864  36.484  35.640  1.00  0.00    -0.246 OA
BRANCH  35  37
ATOM     37  C   UNL A   1      39.052  34.240  35.390  1.00  0.00     0.060 A 
ATOM     38  C   UNL A   1      39.456  32.951  35.783  1.00  0.00     0.016 A 
ATOM     39  C   UNL A   1      38.441  34.419  34.155  1.00  0.00     0.016 A 
ATOM     40  C   UNL A   1      39.399  31.883  34.872  1.00  0.00     0.010 A 
ATOM     41  C   UNL A   1      38.507  33.399  33.230  1.00  0.00     0.010 A 
ATOM     42  C   UNL A   1      39.013  32.130  33.555  1.00  0.00    -0.014 A 
BRANCH  42  43
ATOM     43  C   UNL A   1      39.295  31.262  32.388  1.00  0.00     0.031 A 
ATOM     44  C   UNL A   1      38.144  30.651  31.644  1.00  0.00     0.074 A 
ATOM     45  C   UNL A   1      40.503  31.437  31.799  1.00  0.00     0.049 A 
ATOM     46  N   UNL A   1      38.173  30.120  30.470  1.00  0.00    -0.248 NA
ATOM     47  C   UNL A   1      36.796  30.622  32.208  1.00  0.00     0.031 C 
ATOM     48  C   UNL A   1      40.803  31.406  30.371  1.00  0.00     0.029 A 
ATOM     49  N   UNL A   1      41.713  31.826  32.341  1.00  0.00    -0.354 N 
ATOM     50  C   UNL A   1      36.873  29.920  30.017  1.00  0.00     0.074 A 
ATOM     51  C   UNL A   1      36.062  30.211  31.170  1.00  0.00     0.031 C 
ATOM     52  C   UNL A   1      42.078  31.751  30.145  1.00  0.00     0.029 A 
ATOM     53  C   UNL A   1      42.743  31.665  31.406  1.00  0.00     0.049 A 
ATOM     54  H   UNL A   1      41.834  32.167  33.256  1.00  0.00     0.167 HD
ATOM     55  C   UNL A   1      36.650  29.625  28.692  1.00  0.00     0.034 A 
ATOM     56  C   UNL A   1      43.692  30.708  31.623  1.00  0.00     0.034 A 
ATOM     57  C   UNL A   1      37.928  29.294  28.012  1.00  0.00     0.049 A 
ATOM     58  C   UNL A   1      43.353  29.428  30.796  1.00  0.00     0.074 A 
ATOM     59  C   UNL A   1      38.570  29.700  26.851  1.00  0.00     0.029 A 
ATOM     60  N   UNL A   1      38.869  28.504  28.688  1.00  0.00    -0.354 N 
ATOM     61  N   UNL A   1      42.155  29.152  30.297  1.00  0.00    -0.248 NA
ATOM     62  C   UNL A   1      44.353  28.502  30.262  1.00  0.00     0.031 C 
ATOM     63  C   UNL A   1      39.946  29.316  26.953  1.00  0.00     0.029 A 
ATOM     64  C   UNL A   1      40.124  28.586  28.122  1.00  0.00     0.049 A 
ATOM     65  H   UNL A   1      38.657  27.954  29.476  1.00  0.00     0.167 HD
ATOM     66  C   UNL A   1      42.218  28.144  29.365  1.00  0.00     0.074 A 
ATOM     67  C   UNL A   1      43.625  27.764  29.400  1.00  0.00     0.031 C 
ATOM     68  C   UNL A   1      41.186  27.688  28.570  1.00  0.00     0.034 A 
BRANCH  55  69
ATOM     69  C   UNL A   1      35.312  29.781  27.922  1.00  0.00     0.023 A 
ATOM     70  C   UNL A   1      34.866  28.740  27.063  1.00  0.00     0.031 A 
ATOM     71  C   UNL A   1      34.477  30.923  27.895  1.00  0.00     0.131 A 
ATOM     72  C   UNL A   1      33.723  28.870  26.233  1.00  0.00     0.055 A 
ATOM     73  C   UNL A   1      33.314  31.034  27.108  1.00  0.00     0.041 A 
ATOM     74  F   UNL A   1      34.734  32.024  28.604  1.00  0.00    -0.206 F 
ATOM     75  C   UNL A   1      32.934  30.012  26.261  1.00  0.00     0.022 A 
BRANCH  72  76
ATOM     76  S   UNL A   1      33.278  27.531  25.082  1.00  0.00     0.124 S 
ATOM     77  O   UNL A   1      33.884  27.987  23.835  1.00  0.00    -0.237 OA
ATOM     78  O   UNL A   1      33.885  26.363  25.708  1.00  0.00    -0.237 OA
ATOM     79  O   UNL A   1      31.814  27.542  25.093  1.00  0.00    -0.744 OA
ENDBRANCH  72  76
ENDBRANCH  55  69
BRANCH  56  80
ATOM     80  C   UNL A   1      44.332  31.048  32.958  1.00  0.00     0.023 A 
ATOM     81  C   UNL A   1      44.368  32.464  33.197  1.00  0.00     0.031 A 
ATOM     82  C   UNL A   1      44.073  30.238  34.079  1.00  0.00     0.131 A 
ATOM     83  C   UNL A   1      43.801  33.007  34.372  1.00  0.00     0.055 A 
ATOM     84  C   UNL A   1      43.584  30.794  35.282  1.00  0.00     0.041 A 
ATOM     85  F   UNL A   1      44.052  28.902  33.963  1.00  0.00    -0.206 F 
ATOM     86  C   UNL A   1      43.370  32.170  35.400  1.00  0.00     0.022 A 
BRANCH  83  87
ATOM     87  S   UNL A   1      43.288  34.769  34.391  1.00  0.00     0.124 S 
ATOM     88  O   UNL A   1      44.447  35.431  33.805  1.00  0.00    -0.237 OA
ATOM     89  O   UNL A   1      42.079  34.755  33.580  1.00  0.00    -0.237 OA
ATOM     90  O   UNL A   1      43.055  35.039  35.809  1.00  0.00    -0.744 OA
ENDBRANCH  83  87
ENDBRANCH  56  80
BRANCH  68  91
ATOM     91  C   UNL A   1      41.073  26.247  28.081  1.00  0.00     0.023 A 
ATOM     92  C   UNL A   1      42.056  25.670  27.278  1.00  0.00     0.031 A 
ATOM     93  C   UNL A   1      40.066  25.350  28.540  1.00  0.00     0.131 A 
ATOM     94  C   UNL A   1      41.985  24.326  26.885  1.00  0.00     0.055 A 
ATOM     95  C   UNL A   1      40.054  23.986  28.231  1.00  0.00     0.041 A 
ATOM     96  F   UNL A   1      39.061  25.734  29.339  1.00  0.00    -0.206 F 
ATOM     97  C   UNL A   1      41.013  23.466  27.381  1.00  0.00     0.022 A 
BRANCH  94  98
ATOM     98  S   UNL A   1      43.170  23.782  25.641  1.00  0.00     0.124 S 
ATOM     99  O   UNL A   1      43.262  24.966  24.789  1.00  0.00    -0.237 OA
ATOM    100  O   UNL A   1      44.353  23.488  26.442  1.00  0.00    -0.237 OA
ATOM    101  O   UNL A   1      42.522  22.624  25.033  1.00  0.00    -0.744 OA
ENDBRANCH  94  98
ENDBRANCH  68  91
ENDBRANCH  42  43
ENDBRANCH  35  37
ENDBRANCH  34  35
ENDBRANCH  33  34
ENDBRANCH  32  33
ENDBRANCH  31  32
ENDBRANCH  30  31
ENDBRANCH  29  30
ENDBRANCH   1  29
TORSDOF 28
ENDMDL
MODEL 3
REMARK VINA RESULT:      -7.3      6.994     15.269
REMARK SMILES CC[C@@H](C)[C@H](NC(=O)NCc1ccc(C)cc1)C(=O)OCCOCCOCCOCCOC(=O)c1ccc(-c2c3nc(c(-c4cc(S(=O)(=O)[O-])ccc4F)c4ccc([nH]4)c(-c4cc(S(=O)(=O)[O-])ccc4F)c4nc(c(-c5cc(S(=O)(=O)[O-])ccc5F)c5ccc2[nH]5)C=C4)C=C3)cc1
REMARK SMILES IDX 26 1 25 2 24 3 23 4 22 5 21 6 20 7 18 8 19 9 5 10 3 11 4 12
REMARK SMILES IDX 2 13 1 14 6 15 7 16 8 18 9 19 10 21 11 22 12 23 17 24 13 25
REMARK SMILES IDX 16 26 14 27 15 28 27 29 28 30 29 31 30 32 31 33 32 34 33 35
REMARK SMILES IDX 34 36 35 37 36 38 97 39 37 40 96 41 38 42 39 43 40 44 90 45
REMARK SMILES IDX 41 46 95 47 89 48 91 49 42 50 94 51 88 52 87 53 43 55 75 56
REMARK SMILES IDX 55 57 74 58 56 59 59 60 73 61 92 62 57 63 58 64 72 66 93 67
REMARK SMILES IDX 60 68 44 69 45 70 53 71 46 72 52 73 54 74 51 75 47 76 48 77
REMARK SMILES IDX 49 78 50 79 76 80 77 81 85 82 78 83 84 84 86 85 83 86 79 87
REMARK SMILES IDX 80 88 81 89 82 90 61 91 62 92 70 93 63 94 69 95 71 96 68 97
REMARK SMILES IDX 64 98 65 99 66 100 67 101
REMARK H PARENT 6 17 9 20 91 54 59 65
REMARK Flexibility Score: inf
ROOT
ATOM      1  O   UNL A   1      42.990  42.229  30.643  1.00  0.00    -0.377 OA
ENDROOT
BRANCH   1   2
ATOM      2  C   UNL A   1      42.653  42.443  31.999  1.00  0.00     0.188 C 
BRANCH   2   3
ATOM      3  C   UNL A   1      43.510  41.710  33.033  1.00  0.00     0.188 C 
BRANCH   3   4
ATOM      4  O   UNL A   1      44.588  40.914  32.565  1.00  0.00    -0.376 OA
BRANCH   4   5
ATOM      5  C   UNL A   1      44.622  39.600  33.112  1.00  0.00     0.202 C 
BRANCH   5   6
ATOM      6  C   UNL A   1      43.397  39.158  33.903  1.00  0.00     0.261 C 
BRANCH   6   7
ATOM      7  O   UNL A   1      43.154  37.758  33.670  1.00  0.00    -0.462 OA
BRANCH   7   8
ATOM      8  C   UNL A   1      43.504  36.903  34.643  1.00  0.00     0.329 C 
ATOM      9  O   UNL A   1      43.552  37.161  35.841  1.00  0.00    -0.250 OA
BRANCH   8  10
ATOM     10  C   UNL A   1      43.786  35.501  34.099  1.00  0.00     0.196 C 
BRANCH  10  11
ATOM     11  C   UNL A   1      44.495  34.575  35.114  1.00  0.00     0.019 C 
ATOM     12  C   UNL A   1      46.024  34.621  35.077  1.00  0.00     0.010 C 
BRANCH  11  13
ATOM     13  C   UNL A   1      43.935  33.158  34.850  1.00  0.00     0.002 C 
ATOM     14  C   UNL A   1      43.005  32.621  35.913  1.00  0.00     0.004 C 
ENDBRANCH  11  13
ENDBRANCH  10  11
BRANCH  10  15
ATOM     15  N   UNL A   1      44.281  35.389  32.721  1.00  0.00    -0.324 N 
ATOM     16  C   UNL A   1      43.840  34.639  31.687  1.00  0.00     0.315 C 
ATOM     17  H   UNL A   1      45.062  35.953  32.518  1.00  0.00     0.166 HD
ATOM     18  O   UNL A   1      44.618  34.258  30.816  1.00  0.00    -0.249 OA
ATOM     19  N   UNL A   1      42.536  34.295  31.564  1.00  0.00    -0.334 N 
ATOM     20  H   UNL A   1      42.323  33.667  30.837  1.00  0.00     0.165 HD
BRANCH  19  21
ATOM     21  C   UNL A   1      41.430  34.733  32.361  1.00  0.00     0.153 C 
BRANCH  21  22
ATOM     22  C   UNL A   1      40.559  33.747  33.070  1.00  0.00    -0.029 A 
ATOM     23  C   UNL A   1      40.979  32.408  32.949  1.00  0.00     0.006 A 
ATOM     24  C   UNL A   1      39.469  34.045  33.883  1.00  0.00     0.006 A 
ATOM     25  C   UNL A   1      40.299  31.381  33.584  1.00  0.00     0.004 A 
ATOM     26  C   UNL A   1      38.778  33.006  34.519  1.00  0.00     0.004 A 
ATOM     27  C   UNL A   1      39.178  31.671  34.358  1.00  0.00    -0.051 A 
ATOM     28  C   UNL A   1      38.438  30.537  34.997  1.00  0.00     0.044 C 
ENDBRANCH  21  22
ENDBRANCH  19  21
ENDBRANCH  10  15
ENDBRANCH   8  10
ENDBRANCH   7   8
ENDBRANCH   6   7
ENDBRANCH   5   6
ENDBRANCH   4   5
ENDBRANCH   3   4
ENDBRANCH   2   3
ENDBRANCH   1   2
BRANCH   1  29
ATOM     29  C   UNL A   1      42.923  40.901  30.124  1.00  0.00     0.188 C 
BRANCH  29  30
ATOM     30  C   UNL A   1      43.722  40.544  28.883  1.00  0.00     0.188 C 
BRANCH  30  31
ATOM     31  O   UNL A   1      43.040  39.465  28.225  1.00  0.00    -0.376 OA
BRANCH  31  32
ATOM     32  C   UNL A   1      43.642  38.190  28.387  1.00  0.00     0.202 C 
BRANCH  32  33
ATOM     33  C   UNL A   1      44.525  37.805  27.200  1.00  0.00     0.261 C 
BRANCH  33  34
ATOM     34  O   UNL A   1      44.851  36.401  27.287  1.00  0.00    -0.460 OA
BRANCH  34  35
ATOM     35  C   UNL A   1      45.863  35.997  26.464  1.00  0.00     0.338 C 
ATOM     36  O   UNL A   1      46.647  36.736  25.919  1.00  0.00    -0.246 OA
BRANCH  35  37
ATOM     37  C   UNL A   1      45.794  34.517  26.250  1.00  0.00     0.060 A 
ATOM     38  C   UNL A   1      44.673  33.945  25.623  1.00  0.00     0.016 A 
ATOM     39  C   UNL A   1      46.703  33.698  26.908  1.00  0.00     0.016 A 
ATOM     40  C   UNL A   1      44.380  32.583  25.802  1.00  0.00     0.010 A 
ATOM     41  C   UNL A   1      46.342  32.396  27.184  1.00  0.00     0.010 A 
ATOM     42  C   UNL A   1      45.166  31.825  26.669  1.00  0.00    -0.014 A 
BRANCH  42  43
ATOM     43  C   UNL A   1      44.777  30.542  27.301  1.00  0.00     0.031 A 
ATOM     44  C   UNL A   1      43.700  30.547  28.347  1.00  0.00     0.074 A 
ATOM     45  C   UNL A   1      45.074  29.422  26.599  1.00  0.00     0.049 A 
ATOM     46  N   UNL A   1      43.045  29.530  28.790  1.00  0.00    -0.248 NA
ATOM     47  C   UNL A   1      43.253  31.786  28.980  1.00  0.00     0.031 C 
ATOM     48  C   UNL A   1      44.259  28.218  26.469  1.00  0.00     0.029 A 
ATOM     49  N   UNL A   1      46.111  29.166  25.723  1.00  0.00    -0.354 N 
ATOM     50  C   UNL A   1      41.956  29.967  29.538  1.00  0.00     0.074 A 
ATOM     51  C   UNL A   1      42.173  31.385  29.657  1.00  0.00     0.031 C 
ATOM     52  C   UNL A   1      44.805  27.367  25.591  1.00  0.00     0.029 A 
ATOM     53  C   UNL A   1      46.150  27.805  25.394  1.00  0.00     0.049 A 
ATOM     54  H   UNL A   1      46.736  29.845  25.379  1.00  0.00     0.167 HD
ATOM     55  C   UNL A   1      40.962  29.079  29.879  1.00  0.00     0.034 A 
ATOM     56  C   UNL A   1      47.195  27.047  25.834  1.00  0.00     0.034 A 
ATOM     57  C   UNL A   1      41.391  27.686  29.596  1.00  0.00     0.049 A 
ATOM     58  C   UNL A   1      46.778  26.262  27.118  1.00  0.00     0.074 A 
ATOM     59  C   UNL A   1      40.852  26.597  28.928  1.00  0.00     0.029 A 
ATOM     60  N   UNL A   1      42.708  27.310  29.899  1.00  0.00    -0.354 N 
ATOM     61  N   UNL A   1      45.746  26.577  27.888  1.00  0.00    -0.248 NA
ATOM     62  C   UNL A   1      47.314  24.953  27.494  1.00  0.00     0.031 C 
ATOM     63  C   UNL A   1      41.914  25.674  28.664  1.00  0.00     0.029 A 
ATOM     64  C   UNL A   1      43.079  26.146  29.259  1.00  0.00     0.049 A 
ATOM     65  H   UNL A   1      43.299  27.819  30.499  1.00  0.00     0.167 HD
ATOM     66  C   UNL A   1      45.427  25.553  28.747  1.00  0.00     0.074 A 
ATOM     67  C   UNL A   1      46.461  24.565  28.464  1.00  0.00     0.031 C 
ATOM     68  C   UNL A   1      44.343  25.498  29.600  1.00  0.00     0.034 A 
BRANCH  55  69
ATOM     69  C   UNL A   1      39.517  29.434  30.320  1.00  0.00     0.023 A 
ATOM     70  C   UNL A   1      38.833  30.512  29.697  1.00  0.00     0.031 A 
ATOM     71  C   UNL A   1      38.785  28.846  31.378  1.00  0.00     0.131 A 
ATOM     72  C   UNL A   1      37.565  30.971  30.137  1.00  0.00     0.055 A 
ATOM     73  C   UNL A   1      37.504  29.268  31.785  1.00  0.00     0.041 A 
ATOM     74  F   UNL A   1      39.260  27.839  32.115  1.00  0.00    -0.206 F 
ATOM     75  C   UNL A   1      36.889  30.343  31.175  1.00  0.00     0.022 A 
BRANCH  72  76
ATOM     76  S   UNL A   1      36.802  32.427  29.355  1.00  0.00     0.124 S 
ATOM     77  O   UNL A   1      36.229  31.857  28.140  1.00  0.00    -0.237 OA
ATOM     78  O   UNL A   1      35.856  32.871  30.372  1.00  0.00    -0.237 OA
ATOM     79  O   UNL A   1      37.934  33.329  29.136  1.00  0.00    -0.744 OA
ENDBRANCH  72  76
ENDBRANCH  55  69
BRANCH  56  80
ATOM     80  C   UNL A   1      48.449  27.692  25.268  1.00  0.00     0.023 A 
ATOM     81  C   UNL A   1      49.583  27.524  26.134  1.00  0.00     0.031 A 
ATOM     82  C   UNL A   1      48.709  27.614  23.888  1.00  0.00     0.131 A 
ATOM     83  C   UNL A   1      50.774  26.938  25.650  1.00  0.00     0.055 A 
ATOM     84  C   UNL A   1      49.935  27.106  23.405  1.00  0.00     0.041 A 
ATOM     85  F   UNL A   1      47.721  27.791  22.998  1.00  0.00    -0.206 F 
ATOM     86  C   UNL A   1      50.936  26.690  24.288  1.00  0.00     0.022 A 
BRANCH  83  87
ATOM     87  S   UNL A   1      51.943  26.166  26.835  1.00  0.00     0.124 S 
ATOM     88  O   UNL A   1      53.069  25.822  25.976  1.00  0.00    -0.237 OA
ATOM     89  O   UNL A   1      52.172  27.236  27.795  1.00  0.00    -0.237 OA
ATOM     90  O   UNL A   1      51.185  25.034  27.369  1.00  0.00    -0.744 OA
ENDBRANCH  83  87
ENDBRANCH  56  80
BRANCH  68  91
ATOM     91  C   UNL A   1      44.357  24.755  30.933  1.00  0.00     0.023 A 
ATOM     92  C   UNL A   1      44.690  25.398  32.124  1.00  0.00     0.031 A 
ATOM     93  C   UNL A   1      43.874  23.423  31.082  1.00  0.00     0.131 A 
ATOM     94  C   UNL A   1      44.636  24.732  33.356  1.00  0.00     0.055 A 
ATOM     95  C   UNL A   1      43.724  22.795  32.323  1.00  0.00     0.041 A 
ATOM     96  F   UNL A   1      43.488  22.670  30.043  1.00  0.00    -0.206 F 
ATOM     97  C   UNL A   1      44.122  23.446  33.474  1.00  0.00     0.022 A 
BRANCH  94  98
ATOM     98  S   UNL A   1      45.339  25.593  34.774  1.00  0.00     0.124 S 
ATOM     99  O   UNL A   1      46.726  25.771  34.349  1.00  0.00    -0.237 OA
ATOM    100  O   UNL A   1      44.536  26.811  34.832  1.00  0.00    -0.237 OA
ATOM    101  O   UNL A   1      45.139  24.659  35.878  1.00  0.00    -0.744 OA
ENDBRANCH  94  98
ENDBRANCH  68  91
ENDBRANCH  42  43
ENDBRANCH  35  37
ENDBRANCH  34  35
ENDBRANCH  33  34
ENDBRANCH  32  33
ENDBRANCH  31  32
ENDBRANCH  30  31
ENDBRANCH  29  30
ENDBRANCH   1  29
TORSDOF 28
ENDMDL
