MODEL 1
REMARK VINA RESULT:      -9.7      0.000      0.000
REMARK SMILES Cc1ccc(-c2nc(NC(=O)[C@H]3[C@@H](C(=O)OCCOCCOCCOCCOC(=O)c4ccc(-c5c6nc(c(-c7cc(S(=O)(=O)[O-])ccc7F)c7ccc([nH]7)c(-c7cc(S(=O)(=O)[O-])ccc7F)c7nc(c(-c8cc(S(=O)(=O)[O-])ccc8F)c8ccc5[nH]8)C=C7)C=C6)cc4)[C@@H]4CC[C@H]3O4)sc2C)cc1
REMARK SMILES IDX 22 1 21 2 20 3 19 4 18 5 17 6 16 7 14 8 15 9 13 10 12 11
REMARK SMILES IDX 97 12 94 13 96 14 98 15 95 16 10 17 9 18 11 20 8 21 6 22
REMARK SMILES IDX 7 23 100 24 99 25 101 26 5 27 1 28 2 29 3 30 103 31 4 32
REMARK SMILES IDX 102 33 23 34 24 35 25 36 26 37 27 38 28 39 29 40 30 41 31 42
REMARK SMILES IDX 32 43 93 44 33 45 92 46 34 47 35 48 36 49 86 50 37 51 91 52
REMARK SMILES IDX 85 53 87 54 38 55 90 56 84 57 83 58 39 60 71 61 51 62 70 63
REMARK SMILES IDX 52 64 55 65 69 66 88 67 53 68 54 69 68 71 89 72 56 73 40 74
REMARK SMILES IDX 41 75 49 76 42 77 48 78 50 79 47 80 43 81 44 82 45 83 46 84
REMARK SMILES IDX 72 85 73 86 81 87 74 88 80 89 82 90 79 91 75 92 76 93 77 94
REMARK SMILES IDX 78 95 57 96 58 97 66 98 59 99 65 100 67 101 64 102 60 103
REMARK SMILES IDX 61 104 62 105 63 106
REMARK H PARENT 9 19 87 59 55 70
REMARK Flexibility Score: inf
ROOT
ATOM      1  O   UNL A   1      41.688  23.407  26.632  1.00  0.00    -0.377 OA
ENDROOT
BRANCH   1   2
ATOM      2  C   UNL A   1      40.401  24.026  26.538  1.00  0.00     0.188 C 
BRANCH   2   3
ATOM      3  C   UNL A   1      39.129  23.227  26.930  1.00  0.00     0.188 C 
BRANCH   3   4
ATOM      4  O   UNL A   1      38.131  23.012  25.935  1.00  0.00    -0.376 OA
BRANCH   4   5
ATOM      5  C   UNL A   1      37.146  24.000  25.869  1.00  0.00     0.202 C 
BRANCH   5   6
ATOM      6  C   UNL A   1      35.740  23.643  26.147  1.00  0.00     0.261 C 
BRANCH   6   7
ATOM      7  O   UNL A   1      34.826  24.660  25.780  1.00  0.00    -0.463 OA
BRANCH   7   8
ATOM      8  C   UNL A   1      34.106  24.767  24.663  1.00  0.00     0.312 C 
ATOM      9  O   UNL A   1      34.023  23.771  23.934  1.00  0.00    -0.252 OA
BRANCH   8  10
ATOM     10  C   UNL A   1      33.542  26.072  24.140  1.00  0.00     0.143 C 
ATOM     11  C   UNL A   1      32.368  26.856  24.703  1.00  0.00     0.124 C 
ATOM     12  C   UNL A   1      31.208  26.357  23.747  1.00  0.00     0.132 C 
ATOM     13  C   UNL A   1      33.027  25.749  22.731  1.00  0.00     0.133 C 
ATOM     14  C   UNL A   1      31.172  27.232  22.495  1.00  0.00     0.035 C 
ATOM     15  O   UNL A   1      31.762  25.178  23.093  1.00  0.00    -0.373 OA
ATOM     16  C   UNL A   1      32.598  27.014  21.968  1.00  0.00     0.036 C 
BRANCH  11  17
ATOM     17  C   UNL A   1      31.996  27.012  26.164  1.00  0.00     0.232 C 
ATOM     18  N   UNL A   1      32.406  27.921  27.079  1.00  0.00    -0.302 N 
ATOM     19  H   UNL A   1      31.876  27.873  27.908  1.00  0.00     0.172 HD
ATOM     20  O   UNL A   1      31.169  26.214  26.617  1.00  0.00    -0.274 OA
BRANCH  18  21
ATOM     21  C   UNL A   1      33.367  28.889  27.144  1.00  0.00     0.190 A 
ATOM     22  C   UNL A   1      34.277  30.881  27.948  1.00  0.00     0.086 A 
ATOM     23  N   UNL A   1      33.164  30.080  27.670  1.00  0.00    -0.220 NA
ATOM     24  C   UNL A   1      35.417  29.809  27.726  1.00  0.00     0.031 A 
ATOM     25  S   UNL A   1      34.863  28.626  26.519  1.00  0.00    -0.101 S 
ATOM     26  C   UNL A   1      36.910  29.459  28.029  1.00  0.00     0.059 C 
BRANCH  22  27
ATOM     27  C   UNL A   1      34.196  32.709  28.498  1.00  0.00     0.001 A 
ATOM     28  C   UNL A   1      32.694  36.131  31.034  1.00  0.00     0.044 C 
ATOM     29  C   UNL A   1      33.353  35.227  30.047  1.00  0.00    -0.051 A 
ATOM     30  C   UNL A   1      32.945  34.969  28.757  1.00  0.00     0.004 A 
ATOM     31  C   UNL A   1      34.428  34.496  30.434  1.00  0.00     0.004 A 
ATOM     32  C   UNL A   1      33.424  33.812  28.009  1.00  0.00     0.010 A 
ATOM     33  C   UNL A   1      34.816  33.355  29.688  1.00  0.00     0.010 A 
ENDBRANCH  22  27
ENDBRANCH  18  21
ENDBRANCH  11  17
ENDBRANCH   8  10
ENDBRANCH   7   8
ENDBRANCH   6   7
ENDBRANCH   5   6
ENDBRANCH   4   5
ENDBRANCH   3   4
ENDBRANCH   2   3
ENDBRANCH   1   2
BRANCH   1  34
ATOM     34  C   UNL A   1      41.760  21.977  26.531  1.00  0.00     0.188 C 
BRANCH  34  35
ATOM     35  C   UNL A   1      42.994  21.519  25.765  1.00  0.00     0.188 C 
BRANCH  35  36
ATOM     36  O   UNL A   1      43.228  22.331  24.617  1.00  0.00    -0.376 OA
BRANCH  36  37
ATOM     37  C   UNL A   1      44.589  22.666  24.422  1.00  0.00     0.202 C 
BRANCH  37  38
ATOM     38  C   UNL A   1      44.938  23.653  25.530  1.00  0.00     0.261 C 
BRANCH  38  39
ATOM     39  O   UNL A   1      44.401  24.956  25.093  1.00  0.00    -0.460 OA
BRANCH  39  40
ATOM     40  C   UNL A   1      45.212  26.061  25.112  1.00  0.00     0.338 C 
ATOM     41  O   UNL A   1      46.312  26.099  24.574  1.00  0.00    -0.246 OA
BRANCH  40  42
ATOM     42  C   UNL A   1      44.680  27.210  25.963  1.00  0.00     0.060 A 
ATOM     43  C   UNL A   1      45.528  28.256  26.374  1.00  0.00     0.016 A 
ATOM     44  C   UNL A   1      43.413  27.161  26.542  1.00  0.00     0.016 A 
ATOM     45  C   UNL A   1      45.168  29.104  27.453  1.00  0.00     0.010 A 
ATOM     46  C   UNL A   1      43.078  27.981  27.633  1.00  0.00     0.010 A 
ATOM     47  C   UNL A   1      43.983  28.882  28.194  1.00  0.00    -0.014 A 
BRANCH  47  48
ATOM     48  C   UNL A   1      43.760  29.406  29.605  1.00  0.00     0.031 A 
ATOM     49  C   UNL A   1      44.240  28.454  30.964  1.00  0.00     0.074 A 
ATOM     50  C   UNL A   1      43.283  30.705  29.714  1.00  0.00     0.049 A 
ATOM     51  N   UNL A   1      44.800  28.789  32.112  1.00  0.00    -0.248 NA
ATOM     52  C   UNL A   1      43.967  27.020  31.059  1.00  0.00     0.031 C 
ATOM     53  C   UNL A   1      42.406  31.124  30.747  1.00  0.00     0.029 A 
ATOM     54  N   UNL A   1      43.495  31.970  29.044  1.00  0.00    -0.354 N 
ATOM     55  C   UNL A   1      44.456  27.894  33.245  1.00  0.00     0.074 A 
ATOM     56  C   UNL A   1      44.212  26.713  32.361  1.00  0.00     0.031 C 
ATOM     57  C   UNL A   1      42.514  32.413  30.905  1.00  0.00     0.029 A 
ATOM     58  C   UNL A   1      43.125  33.076  29.860  1.00  0.00     0.049 A 
ATOM     59  H   UNL A   1      43.853  32.056  28.131  1.00  0.00     0.167 HD
ATOM     60  C   UNL A   1      44.078  28.219  34.735  1.00  0.00     0.034 A 
ATOM     61  C   UNL A   1      43.124  34.446  30.001  1.00  0.00     0.034 A 
ATOM     62  C   UNL A   1      43.829  29.839  35.566  1.00  0.00     0.049 A 
ATOM     63  C   UNL A   1      42.540  34.947  31.569  1.00  0.00     0.074 A 
ATOM     64  C   UNL A   1      44.311  30.584  36.684  1.00  0.00     0.029 A 
ATOM     65  N   UNL A   1      42.948  31.079  35.118  1.00  0.00    -0.354 N 
ATOM     66  N   UNL A   1      41.836  34.171  32.431  1.00  0.00    -0.248 NA
ATOM     67  C   UNL A   1      42.874  36.141  32.367  1.00  0.00     0.031 C 
ATOM     68  C   UNL A   1      43.917  32.085  36.637  1.00  0.00     0.029 A 
ATOM     69  C   UNL A   1      43.132  32.389  35.528  1.00  0.00     0.049 A 
ATOM     70  H   UNL A   1      42.208  30.904  34.494  1.00  0.00     0.167 HD
ATOM     71  C   UNL A   1      42.426  34.253  33.733  1.00  0.00     0.074 A 
ATOM     72  C   UNL A   1      42.709  35.698  33.651  1.00  0.00     0.031 C 
ATOM     73  C   UNL A   1      42.130  33.460  34.878  1.00  0.00     0.034 A 
BRANCH  60  74
ATOM     74  C   UNL A   1      43.952  26.960  35.694  1.00  0.00     0.023 A 
ATOM     75  C   UNL A   1      44.769  26.967  36.827  1.00  0.00     0.031 A 
ATOM     76  C   UNL A   1      43.214  25.750  35.574  1.00  0.00     0.131 A 
ATOM     77  C   UNL A   1      44.933  25.845  37.666  1.00  0.00     0.055 A 
ATOM     78  C   UNL A   1      43.347  24.635  36.424  1.00  0.00     0.041 A 
ATOM     79  F   UNL A   1      42.272  25.522  34.670  1.00  0.00    -0.206 F 
ATOM     80  C   UNL A   1      44.233  24.668  37.472  1.00  0.00     0.022 A 
BRANCH  77  81
ATOM     81  S   UNL A   1      46.197  25.956  38.946  1.00  0.00     0.124 S 
ATOM     82  O   UNL A   1      47.017  27.057  38.453  1.00  0.00    -0.237 OA
ATOM     83  O   UNL A   1      45.397  26.227  40.134  1.00  0.00    -0.237 OA
ATOM     84  O   UNL A   1      46.833  24.641  38.907  1.00  0.00    -0.744 OA
ENDBRANCH  77  81
ENDBRANCH  60  74
BRANCH  61  85
ATOM     85  C   UNL A   1      43.670  35.065  28.683  1.00  0.00     0.023 A 
ATOM     86  C   UNL A   1      44.524  34.419  27.730  1.00  0.00     0.031 A 
ATOM     87  C   UNL A   1      42.682  35.905  28.087  1.00  0.00     0.131 A 
ATOM     88  C   UNL A   1      44.205  34.419  26.326  1.00  0.00     0.055 A 
ATOM     89  C   UNL A   1      42.300  35.797  26.738  1.00  0.00     0.041 A 
ATOM     90  F   UNL A   1      41.863  36.625  28.872  1.00  0.00    -0.206 F 
ATOM     91  C   UNL A   1      43.030  35.011  25.866  1.00  0.00     0.022 A 
BRANCH  88  92
ATOM     92  S   UNL A   1      45.215  33.589  25.012  1.00  0.00     0.124 S 
ATOM     93  O   UNL A   1      45.438  32.263  25.597  1.00  0.00    -0.237 OA
ATOM     94  O   UNL A   1      44.393  33.627  23.824  1.00  0.00    -0.237 OA
ATOM     95  O   UNL A   1      46.415  34.431  24.938  1.00  0.00    -0.744 OA
ENDBRANCH  88  92
ENDBRANCH  61  85
BRANCH  73  96
ATOM     96  C   UNL A   1      40.625  33.184  35.162  1.00  0.00     0.023 A 
ATOM     97  C   UNL A   1      39.820  32.547  34.207  1.00  0.00     0.031 A 
ATOM     98  C   UNL A   1      39.920  33.725  36.272  1.00  0.00     0.131 A 
ATOM     99  C   UNL A   1      38.415  32.594  34.299  1.00  0.00     0.055 A 
ATOM    100  C   UNL A   1      38.532  33.644  36.430  1.00  0.00     0.041 A 
ATOM    101  F   UNL A   1      40.526  34.437  37.229  1.00  0.00    -0.206 F 
ATOM    102  C   UNL A   1      37.762  33.114  35.413  1.00  0.00     0.022 A 
BRANCH  99 103
ATOM    103  S   UNL A   1      37.496  32.283  32.768  1.00  0.00     0.124 S 
ATOM    104  O   UNL A   1      37.553  33.584  32.113  1.00  0.00    -0.237 OA
ATOM    105  O   UNL A   1      38.250  31.213  32.147  1.00  0.00    -0.237 OA
ATOM    106  O   UNL A   1      36.153  31.905  33.250  1.00  0.00    -0.744 OA
ENDBRANCH  99 103
ENDBRANCH  73  96
ENDBRANCH  47  48
ENDBRANCH  40  42
ENDBRANCH  39  40
ENDBRANCH  38  39
ENDBRANCH  37  38
ENDBRANCH  36  37
ENDBRANCH  35  36
ENDBRANCH  34  35
ENDBRANCH   1  34
TORSDOF 26
ENDMDL
MODEL 2
REMARK VINA RESULT:      -9.6      4.957      8.777
REMARK SMILES Cc1ccc(-c2nc(NC(=O)[C@H]3[C@@H](C(=O)OCCOCCOCCOCCOC(=O)c4ccc(-c5c6nc(c(-c7cc(S(=O)(=O)[O-])ccc7F)c7ccc([nH]7)c(-c7cc(S(=O)(=O)[O-])ccc7F)c7nc(c(-c8cc(S(=O)(=O)[O-])ccc8F)c8ccc5[nH]8)C=C7)C=C6)cc4)[C@@H]4CC[C@H]3O4)sc2C)cc1
REMARK SMILES IDX 22 1 21 2 20 3 19 4 18 5 17 6 16 7 14 8 15 9 13 10 12 11
REMARK SMILES IDX 97 12 94 13 96 14 98 15 95 16 10 17 9 18 11 20 8 21 6 22
REMARK SMILES IDX 7 23 100 24 99 25 101 26 5 27 1 28 2 29 3 30 103 31 4 32
REMARK SMILES IDX 102 33 23 34 24 35 25 36 26 37 27 38 28 39 29 40 30 41 31 42
REMARK SMILES IDX 32 43 93 44 33 45 92 46 34 47 35 48 36 49 86 50 37 51 91 52
REMARK SMILES IDX 85 53 87 54 38 55 90 56 84 57 83 58 39 60 71 61 51 62 70 63
REMARK SMILES IDX 52 64 55 65 69 66 88 67 53 68 54 69 68 71 89 72 56 73 40 74
REMARK SMILES IDX 41 75 49 76 42 77 48 78 50 79 47 80 43 81 44 82 45 83 46 84
REMARK SMILES IDX 72 85 73 86 81 87 74 88 80 89 82 90 79 91 75 92 76 93 77 94
REMARK SMILES IDX 78 95 57 96 58 97 66 98 59 99 65 100 67 101 64 102 60 103
REMARK SMILES IDX 61 104 62 105 63 106
REMARK H PARENT 9 19 87 59 55 70
REMARK Flexibility Score: inf
ROOT
ATOM      1  O   UNL A   1      39.163  26.607  28.077  1.00  0.00    -0.377 OA
ENDROOT
BRANCH   1   2
ATOM      2  C   UNL A   1      39.967  25.777  27.233  1.00  0.00     0.188 C 
BRANCH   2   3
ATOM      3  C   UNL A   1      40.315  24.331  27.678  1.00  0.00     0.188 C 
BRANCH   3   4
ATOM      4  O   UNL A   1      39.493  23.263  27.214  1.00  0.00    -0.376 OA
BRANCH   4   5
ATOM      5  C   UNL A   1      38.449  23.650  26.370  1.00  0.00     0.202 C 
BRANCH   5   6
ATOM      6  C   UNL A   1      37.752  22.630  25.562  1.00  0.00     0.261 C 
BRANCH   6   7
ATOM      7  O   UNL A   1      36.503  23.075  25.063  1.00  0.00    -0.463 OA
BRANCH   7   8
ATOM      8  C   UNL A   1      35.916  22.772  23.905  1.00  0.00     0.312 C 
ATOM      9  O   UNL A   1      36.465  23.151  22.864  1.00  0.00    -0.252 OA
BRANCH   8  10
ATOM     10  C   UNL A   1      34.535  22.159  23.790  1.00  0.00     0.143 C 
ATOM     11  C   UNL A   1      33.270  22.833  23.287  1.00  0.00     0.124 C 
ATOM     12  C   UNL A   1      32.605  23.254  24.661  1.00  0.00     0.132 C 
ATOM     13  C   UNL A   1      34.129  21.817  25.230  1.00  0.00     0.133 C 
ATOM     14  C   UNL A   1      31.759  22.096  25.190  1.00  0.00     0.035 C 
ATOM     15  O   UNL A   1      33.678  23.116  25.638  1.00  0.00    -0.373 OA
ATOM     16  C   UNL A   1      32.828  20.998  25.285  1.00  0.00     0.036 C 
BRANCH  11  17
ATOM     17  C   UNL A   1      33.166  23.849  22.166  1.00  0.00     0.232 C 
ATOM     18  N   UNL A   1      32.797  25.150  22.196  1.00  0.00    -0.302 N 
ATOM     19  H   UNL A   1      32.975  25.604  21.341  1.00  0.00     0.172 HD
ATOM     20  O   UNL A   1      33.488  23.467  21.036  1.00  0.00    -0.274 OA
BRANCH  18  21
ATOM     21  C   UNL A   1      32.239  25.995  23.114  1.00  0.00     0.190 A 
ATOM     22  C   UNL A   1      32.308  27.739  24.662  1.00  0.00     0.086 A 
ATOM     23  N   UNL A   1      32.946  26.702  23.973  1.00  0.00    -0.220 NA
ATOM     24  C   UNL A   1      30.953  27.782  23.848  1.00  0.00     0.031 A 
ATOM     25  S   UNL A   1      30.608  26.153  23.225  1.00  0.00    -0.101 S 
ATOM     26  C   UNL A   1      29.705  28.657  23.502  1.00  0.00     0.059 C 
BRANCH  22  27
ATOM     27  C   UNL A   1      33.080  28.733  26.099  1.00  0.00     0.001 A 
ATOM     28  C   UNL A   1      35.470  32.130  27.873  1.00  0.00     0.044 C 
ATOM     29  C   UNL A   1      34.659  30.911  27.588  1.00  0.00    -0.051 A 
ATOM     30  C   UNL A   1      35.125  29.624  27.428  1.00  0.00     0.004 A 
ATOM     31  C   UNL A   1      33.325  31.037  27.375  1.00  0.00     0.004 A 
ATOM     32  C   UNL A   1      34.325  28.583  26.793  1.00  0.00     0.010 A 
ATOM     33  C   UNL A   1      32.613  30.007  26.712  1.00  0.00     0.010 A 
ENDBRANCH  22  27
ENDBRANCH  18  21
ENDBRANCH  11  17
ENDBRANCH   8  10
ENDBRANCH   7   8
ENDBRANCH   6   7
ENDBRANCH   5   6
ENDBRANCH   4   5
ENDBRANCH   3   4
ENDBRANCH   2   3
ENDBRANCH   1   2
BRANCH   1  34
ATOM     34  C   UNL A   1      39.630  27.934  28.365  1.00  0.00     0.188 C 
BRANCH  34  35
ATOM     35  C   UNL A   1      38.914  28.545  29.561  1.00  0.00     0.188 C 
BRANCH  35  36
ATOM     36  O   UNL A   1      38.217  29.734  29.201  1.00  0.00    -0.376 OA
BRANCH  36  37
ATOM     37  C   UNL A   1      37.929  30.582  30.298  1.00  0.00     0.202 C 
BRANCH  37  38
ATOM     38  C   UNL A   1      36.576  30.126  30.833  1.00  0.00     0.261 C 
BRANCH  38  39
ATOM     39  O   UNL A   1      36.549  30.527  32.253  1.00  0.00    -0.460 OA
BRANCH  39  40
ATOM     40  C   UNL A   1      37.345  29.869  33.156  1.00  0.00     0.338 C 
ATOM     41  O   UNL A   1      37.481  28.652  33.172  1.00  0.00    -0.246 OA
BRANCH  40  42
ATOM     42  C   UNL A   1      37.961  30.773  34.218  1.00  0.00     0.060 A 
ATOM     43  C   UNL A   1      37.352  31.994  34.566  1.00  0.00     0.016 A 
ATOM     44  C   UNL A   1      39.241  30.542  34.719  1.00  0.00     0.016 A 
ATOM     45  C   UNL A   1      38.081  33.006  35.244  1.00  0.00     0.010 A 
ATOM     46  C   UNL A   1      39.968  31.561  35.359  1.00  0.00     0.010 A 
ATOM     47  C   UNL A   1      39.458  32.848  35.526  1.00  0.00    -0.014 A 
BRANCH  47  48
ATOM     48  C   UNL A   1      40.402  34.011  35.797  1.00  0.00     0.031 A 
ATOM     49  C   UNL A   1      40.572  34.627  37.402  1.00  0.00     0.074 A 
ATOM     50  C   UNL A   1      41.179  34.438  34.730  1.00  0.00     0.049 A 
ATOM     51  N   UNL A   1      41.632  35.050  38.068  1.00  0.00    -0.248 NA
ATOM     52  C   UNL A   1      39.428  34.872  38.279  1.00  0.00     0.031 C 
ATOM     53  C   UNL A   1      41.550  35.794  34.534  1.00  0.00     0.029 A 
ATOM     54  N   UNL A   1      41.899  33.827  33.633  1.00  0.00    -0.354 N 
ATOM     55  C   UNL A   1      41.338  36.086  39.089  1.00  0.00     0.074 A 
ATOM     56  C   UNL A   1      39.934  35.618  39.296  1.00  0.00     0.031 C 
ATOM     57  C   UNL A   1      42.626  35.843  33.803  1.00  0.00     0.029 A 
ATOM     58  C   UNL A   1      42.920  34.678  33.123  1.00  0.00     0.049 A 
ATOM     59  H   UNL A   1      41.706  32.928  33.281  1.00  0.00     0.167 HD
ATOM     60  C   UNL A   1      42.097  37.413  39.456  1.00  0.00     0.034 A 
ATOM     61  C   UNL A   1      43.995  34.793  32.271  1.00  0.00     0.034 A 
ATOM     62  C   UNL A   1      43.561  38.194  38.667  1.00  0.00     0.049 A 
ATOM     63  C   UNL A   1      44.820  36.322  32.452  1.00  0.00     0.074 A 
ATOM     64  C   UNL A   1      44.871  38.655  39.001  1.00  0.00     0.029 A 
ATOM     65  N   UNL A   1      43.838  38.511  37.139  1.00  0.00    -0.354 N 
ATOM     66  N   UNL A   1      44.313  37.422  33.064  1.00  0.00    -0.248 NA
ATOM     67  C   UNL A   1      46.237  36.664  32.237  1.00  0.00     0.031 C 
ATOM     68  C   UNL A   1      45.764  38.915  37.759  1.00  0.00     0.029 A 
ATOM     69  C   UNL A   1      45.085  38.685  36.564  1.00  0.00     0.049 A 
ATOM     70  H   UNL A   1      43.056  38.588  36.546  1.00  0.00     0.167 HD
ATOM     71  C   UNL A   1      45.273  37.929  33.997  1.00  0.00     0.074 A 
ATOM     72  C   UNL A   1      46.436  37.686  33.125  1.00  0.00     0.031 C 
ATOM     73  C   UNL A   1      45.084  38.941  34.981  1.00  0.00     0.034 A 
BRANCH  60  74
ATOM     74  C   UNL A   1      41.559  38.168  40.744  1.00  0.00     0.023 A 
ATOM     75  C   UNL A   1      41.144  39.489  40.552  1.00  0.00     0.031 A 
ATOM     76  C   UNL A   1      41.498  37.782  42.111  1.00  0.00     0.131 A 
ATOM     77  C   UNL A   1      40.837  40.362  41.616  1.00  0.00     0.055 A 
ATOM     78  C   UNL A   1      41.162  38.637  43.178  1.00  0.00     0.041 A 
ATOM     79  F   UNL A   1      41.711  36.555  42.563  1.00  0.00    -0.206 F 
ATOM     80  C   UNL A   1      40.849  39.952  42.937  1.00  0.00     0.022 A 
BRANCH  77  81
ATOM     81  S   UNL A   1      40.544  42.091  41.199  1.00  0.00     0.124 S 
ATOM     82  O   UNL A   1      39.126  42.231  41.515  1.00  0.00    -0.237 OA
ATOM     83  O   UNL A   1      41.474  42.776  42.089  1.00  0.00    -0.237 OA
ATOM     84  O   UNL A   1      40.874  42.158  39.778  1.00  0.00    -0.744 OA
ENDBRANCH  77  81
ENDBRANCH  60  74
BRANCH  61  85
ATOM     85  C   UNL A   1      44.096  33.479  31.444  1.00  0.00     0.023 A 
ATOM     86  C   UNL A   1      44.137  32.145  31.968  1.00  0.00     0.031 A 
ATOM     87  C   UNL A   1      43.338  33.596  30.239  1.00  0.00     0.131 A 
ATOM     88  C   UNL A   1      43.261  31.121  31.462  1.00  0.00     0.055 A 
ATOM     89  C   UNL A   1      42.395  32.636  29.833  1.00  0.00     0.041 A 
ATOM     90  F   UNL A   1      43.279  34.780  29.606  1.00  0.00    -0.206 F 
ATOM     91  C   UNL A   1      42.318  31.416  30.479  1.00  0.00     0.022 A 
BRANCH  88  92
ATOM     92  S   UNL A   1      43.203  29.376  32.086  1.00  0.00     0.124 S 
ATOM     93  O   UNL A   1      44.076  29.449  33.262  1.00  0.00    -0.237 OA
ATOM     94  O   UNL A   1      41.807  29.116  32.349  1.00  0.00    -0.237 OA
ATOM     95  O   UNL A   1      43.756  28.607  30.965  1.00  0.00    -0.744 OA
ENDBRANCH  88  92
ENDBRANCH  61  85
BRANCH  73  96
ATOM     96  C   UNL A   1      44.284  40.201  34.537  1.00  0.00     0.023 A 
ATOM     97  C   UNL A   1      43.504  40.182  33.373  1.00  0.00     0.031 A 
ATOM     98  C   UNL A   1      44.445  41.485  35.127  1.00  0.00     0.131 A 
ATOM     99  C   UNL A   1      43.060  41.381  32.781  1.00  0.00     0.055 A 
ATOM    100  C   UNL A   1      43.880  42.657  34.613  1.00  0.00     0.041 A 
ATOM    101  F   UNL A   1      45.227  41.692  36.193  1.00  0.00    -0.206 F 
ATOM    102  C   UNL A   1      43.217  42.617  33.401  1.00  0.00     0.022 A 
BRANCH  99 103
ATOM    103  S   UNL A   1      42.599  41.293  31.030  1.00  0.00     0.124 S 
ATOM    104  O   UNL A   1      43.231  42.491  30.492  1.00  0.00    -0.237 OA
ATOM    105  O   UNL A   1      43.157  40.023  30.609  1.00  0.00    -0.237 OA
ATOM    106  O   UNL A   1      41.124  41.349  31.065  1.00  0.00    -0.744 OA
ENDBRANCH  99 103
ENDBRANCH  73  96
ENDBRANCH  47  48
ENDBRANCH  40  42
ENDBRANCH  39  40
ENDBRANCH  38  39
ENDBRANCH  37  38
ENDBRANCH  36  37
ENDBRANCH  35  36
ENDBRANCH  34  35
ENDBRANCH   1  34
TORSDOF 26
ENDMDL
MODEL 3
REMARK VINA RESULT:      -9.5      4.670      9.372
REMARK SMILES Cc1ccc(-c2nc(NC(=O)[C@H]3[C@@H](C(=O)OCCOCCOCCOCCOC(=O)c4ccc(-c5c6nc(c(-c7cc(S(=O)(=O)[O-])ccc7F)c7ccc([nH]7)c(-c7cc(S(=O)(=O)[O-])ccc7F)c7nc(c(-c8cc(S(=O)(=O)[O-])ccc8F)c8ccc5[nH]8)C=C7)C=C6)cc4)[C@@H]4CC[C@H]3O4)sc2C)cc1
REMARK SMILES IDX 22 1 21 2 20 3 19 4 18 5 17 6 16 7 14 8 15 9 13 10 12 11
REMARK SMILES IDX 97 12 94 13 96 14 98 15 95 16 10 17 9 18 11 20 8 21 6 22
REMARK SMILES IDX 7 23 100 24 99 25 101 26 5 27 1 28 2 29 3 30 103 31 4 32
REMARK SMILES IDX 102 33 23 34 24 35 25 36 26 37 27 38 28 39 29 40 30 41 31 42
REMARK SMILES IDX 32 43 93 44 33 45 92 46 34 47 35 48 36 49 86 50 37 51 91 52
REMARK SMILES IDX 85 53 87 54 38 55 90 56 84 57 83 58 39 60 71 61 51 62 70 63
REMARK SMILES IDX 52 64 55 65 69 66 88 67 53 68 54 69 68 71 89 72 56 73 40 74
REMARK SMILES IDX 41 75 49 76 42 77 48 78 50 79 47 80 43 81 44 82 45 83 46 84
REMARK SMILES IDX 72 85 73 86 81 87 74 88 80 89 82 90 79 91 75 92 76 93 77 94
REMARK SMILES IDX 78 95 57 96 58 97 66 98 59 99 65 100 67 101 64 102 60 103
REMARK SMILES IDX 61 104 62 105 63 106
REMARK H PARENT 9 19 87 59 55 70
REMARK Flexibility Score: inf
ROOT
ATOM      1  O   UNL A   1      39.198  26.315  29.237  1.00  0.00    -0.377 OA
ENDROOT
BRANCH   1   2
ATOM      2  C   UNL A   1      39.655  25.998  27.918  1.00  0.00     0.188 C 
BRANCH   2   3
ATOM      3  C   UNL A   1      40.486  24.709  27.678  1.00  0.00     0.188 C 
BRANCH   3   4
ATOM      4  O   UNL A   1      39.817  23.555  27.176  1.00  0.00    -0.376 OA
BRANCH   4   5
ATOM      5  C   UNL A   1      38.560  23.802  26.617  1.00  0.00     0.202 C 
BRANCH   5   6
ATOM      6  C   UNL A   1      37.862  22.722  25.893  1.00  0.00     0.261 C 
BRANCH   6   7
ATOM      7  O   UNL A   1      36.465  22.932  25.792  1.00  0.00    -0.463 OA
BRANCH   7   8
ATOM      8  C   UNL A   1      35.727  23.099  24.695  1.00  0.00     0.312 C 
ATOM      9  O   UNL A   1      36.009  24.043  23.948  1.00  0.00    -0.252 OA
BRANCH   8  10
ATOM     10  C   UNL A   1      34.459  22.324  24.402  1.00  0.00     0.143 C 
ATOM     11  C   UNL A   1      33.224  22.824  23.670  1.00  0.00     0.124 C 
ATOM     12  C   UNL A   1      32.304  23.216  24.897  1.00  0.00     0.132 C 
ATOM     13  C   UNL A   1      33.865  21.993  25.777  1.00  0.00     0.133 C 
ATOM     14  C   UNL A   1      31.517  21.988  25.353  1.00  0.00     0.035 C 
ATOM     15  O   UNL A   1      33.215  23.244  26.036  1.00  0.00    -0.373 OA
ATOM     16  C   UNL A   1      32.671  21.028  25.676  1.00  0.00     0.036 C 
BRANCH  11  17
ATOM     17  C   UNL A   1      33.191  23.776  22.490  1.00  0.00     0.232 C 
ATOM     18  N   UNL A   1      32.904  25.098  22.441  1.00  0.00    -0.302 N 
ATOM     19  H   UNL A   1      33.116  25.488  21.562  1.00  0.00     0.172 HD
ATOM     20  O   UNL A   1      33.496  23.309  21.388  1.00  0.00    -0.274 OA
BRANCH  18  21
ATOM     21  C   UNL A   1      32.395  26.028  23.302  1.00  0.00     0.190 A 
ATOM     22  C   UNL A   1      32.571  27.818  24.788  1.00  0.00     0.086 A 
ATOM     23  N   UNL A   1      33.132  26.697  24.166  1.00  0.00    -0.220 NA
ATOM     24  C   UNL A   1      31.262  27.959  23.913  1.00  0.00     0.031 A 
ATOM     25  S   UNL A   1      30.785  26.348  23.333  1.00  0.00    -0.101 S 
ATOM     26  C   UNL A   1      30.122  28.937  23.480  1.00  0.00     0.059 C 
BRANCH  22  27
ATOM     27  C   UNL A   1      33.378  28.788  26.222  1.00  0.00     0.001 A 
ATOM     28  C   UNL A   1      35.703  32.225  28.008  1.00  0.00     0.044 C 
ATOM     29  C   UNL A   1      34.936  30.979  27.715  1.00  0.00    -0.051 A 
ATOM     30  C   UNL A   1      35.452  29.725  27.472  1.00  0.00     0.004 A 
ATOM     31  C   UNL A   1      33.587  31.047  27.583  1.00  0.00     0.004 A 
ATOM     32  C   UNL A   1      34.667  28.672  26.838  1.00  0.00     0.010 A 
ATOM     33  C   UNL A   1      32.887  30.011  26.916  1.00  0.00     0.010 A 
ENDBRANCH  22  27
ENDBRANCH  18  21
ENDBRANCH  11  17
ENDBRANCH   8  10
ENDBRANCH   7   8
ENDBRANCH   6   7
ENDBRANCH   5   6
ENDBRANCH   4   5
ENDBRANCH   3   4
ENDBRANCH   2   3
ENDBRANCH   1   2
BRANCH   1  34
ATOM     34  C   UNL A   1      39.432  27.641  29.733  1.00  0.00     0.188 C 
BRANCH  34  35
ATOM     35  C   UNL A   1      38.260  28.158  30.557  1.00  0.00     0.188 C 
BRANCH  35  36
ATOM     36  O   UNL A   1      38.304  29.575  30.697  1.00  0.00    -0.376 OA
BRANCH  36  37
ATOM     37  C   UNL A   1      38.990  30.014  31.855  1.00  0.00     0.202 C 
BRANCH  37  38
ATOM     38  C   UNL A   1      38.250  29.398  33.037  1.00  0.00     0.261 C 
BRANCH  38  39
ATOM     39  O   UNL A   1      38.874  29.970  34.245  1.00  0.00    -0.460 OA
BRANCH  39  40
ATOM     40  C   UNL A   1      40.217  29.790  34.460  1.00  0.00     0.338 C 
ATOM     41  O   UNL A   1      40.721  28.699  34.697  1.00  0.00    -0.246 OA
BRANCH  40  42
ATOM     42  C   UNL A   1      41.021  31.086  34.496  1.00  0.00     0.060 A 
ATOM     43  C   UNL A   1      40.374  32.333  34.589  1.00  0.00     0.016 A 
ATOM     44  C   UNL A   1      42.387  31.104  34.220  1.00  0.00     0.016 A 
ATOM     45  C   UNL A   1      41.048  33.532  34.242  1.00  0.00     0.010 A 
ATOM     46  C   UNL A   1      43.039  32.291  33.844  1.00  0.00     0.010 A 
ATOM     47  C   UNL A   1      42.365  33.506  33.725  1.00  0.00    -0.014 A 
BRANCH  47  48
ATOM     48  C   UNL A   1      42.971  34.635  32.904  1.00  0.00     0.031 A 
ATOM     49  C   UNL A   1      43.413  36.117  33.672  1.00  0.00     0.074 A 
ATOM     50  C   UNL A   1      43.249  34.352  31.574  1.00  0.00     0.049 A 
ATOM     51  N   UNL A   1      44.452  36.916  33.499  1.00  0.00    -0.248 NA
ATOM     52  C   UNL A   1      42.551  36.792  34.642  1.00  0.00     0.031 C 
ATOM     53  C   UNL A   1      43.142  35.315  30.537  1.00  0.00     0.029 A 
ATOM     54  N   UNL A   1      43.765  33.233  30.816  1.00  0.00    -0.354 N 
ATOM     55  C   UNL A   1      44.181  38.344  33.796  1.00  0.00     0.074 A 
ATOM     56  C   UNL A   1      43.093  38.032  34.773  1.00  0.00     0.031 C 
ATOM     57  C   UNL A   1      43.899  34.958  29.540  1.00  0.00     0.029 A 
ATOM     58  C   UNL A   1      44.306  33.639  29.562  1.00  0.00     0.049 A 
ATOM     59  H   UNL A   1      43.745  32.300  31.129  1.00  0.00     0.167 HD
ATOM     60  C   UNL A   1      44.599  39.651  33.030  1.00  0.00     0.034 A 
ATOM     61  C   UNL A   1      45.008  33.259  28.441  1.00  0.00     0.034 A 
ATOM     62  C   UNL A   1      45.484  39.854  31.433  1.00  0.00     0.049 A 
ATOM     63  C   UNL A   1      45.375  34.614  27.402  1.00  0.00     0.074 A 
ATOM     64  C   UNL A   1      46.644  40.490  30.895  1.00  0.00     0.029 A 
ATOM     65  N   UNL A   1      45.204  39.174  30.029  1.00  0.00    -0.354 N 
ATOM     66  N   UNL A   1      44.773  35.829  27.451  1.00  0.00    -0.248 NA
ATOM     67  C   UNL A   1      46.508  34.824  26.484  1.00  0.00     0.031 C 
ATOM     68  C   UNL A   1      47.026  39.974  29.482  1.00  0.00     0.029 A 
ATOM     69  C   UNL A   1      46.126  39.021  29.008  1.00  0.00     0.049 A 
ATOM     70  H   UNL A   1      44.296  38.829  29.869  1.00  0.00     0.167 HD
ATOM     71  C   UNL A   1      45.773  36.853  27.468  1.00  0.00     0.074 A 
ATOM     72  C   UNL A   1      46.653  36.185  26.493  1.00  0.00     0.031 C 
ATOM     73  C   UNL A   1      45.594  38.245  27.709  1.00  0.00     0.034 A 
BRANCH  60  74
ATOM     74  C   UNL A   1      44.263  41.012  33.777  1.00  0.00     0.023 A 
ATOM     75  C   UNL A   1      45.332  41.639  34.420  1.00  0.00     0.031 A 
ATOM     76  C   UNL A   1      43.033  41.689  34.000  1.00  0.00     0.131 A 
ATOM     77  C   UNL A   1      45.171  42.733  35.294  1.00  0.00     0.055 A 
ATOM     78  C   UNL A   1      42.865  42.802  34.846  1.00  0.00     0.041 A 
ATOM     79  F   UNL A   1      41.883  41.390  33.411  1.00  0.00    -0.206 F 
ATOM     80  C   UNL A   1      43.940  43.322  35.524  1.00  0.00     0.022 A 
BRANCH  77  81
ATOM     81  S   UNL A   1      46.625  43.271  36.214  1.00  0.00     0.124 S 
ATOM     82  O   UNL A   1      47.189  41.995  36.640  1.00  0.00    -0.237 OA
ATOM     83  O   UNL A   1      47.371  44.000  35.194  1.00  0.00    -0.237 OA
ATOM     84  O   UNL A   1      46.064  44.093  37.284  1.00  0.00    -0.744 OA
ENDBRANCH  77  81
ENDBRANCH  60  74
BRANCH  61  85
ATOM     85  C   UNL A   1      45.238  31.723  28.515  1.00  0.00     0.023 A 
ATOM     86  C   UNL A   1      45.044  30.781  27.452  1.00  0.00     0.031 A 
ATOM     87  C   UNL A   1      46.373  31.434  29.333  1.00  0.00     0.131 A 
ATOM     88  C   UNL A   1      46.066  29.827  27.108  1.00  0.00     0.055 A 
ATOM     89  C   UNL A   1      47.420  30.593  28.918  1.00  0.00     0.041 A 
ATOM     90  F   UNL A   1      46.627  32.199  30.408  1.00  0.00    -0.206 F 
ATOM     91  C   UNL A   1      47.290  29.827  27.774  1.00  0.00     0.022 A 
BRANCH  88  92
ATOM     92  S   UNL A   1      45.937  28.588  25.734  1.00  0.00     0.124 S 
ATOM     93  O   UNL A   1      44.489  28.364  25.667  1.00  0.00    -0.237 OA
ATOM     94  O   UNL A   1      46.532  29.235  24.588  1.00  0.00    -0.237 OA
ATOM     95  O   UNL A   1      46.706  27.448  26.247  1.00  0.00    -0.744 OA
ENDBRANCH  88  92
ENDBRANCH  61  85
BRANCH  73  96
ATOM     96  C   UNL A   1      44.373  38.920  27.017  1.00  0.00     0.023 A 
ATOM     97  C   UNL A   1      44.558  39.924  26.057  1.00  0.00     0.031 A 
ATOM     98  C   UNL A   1      43.028  38.737  27.439  1.00  0.00     0.131 A 
ATOM     99  C   UNL A   1      43.495  40.766  25.678  1.00  0.00     0.055 A 
ATOM    100  C   UNL A   1      41.949  39.484  26.953  1.00  0.00     0.041 A 
ATOM    101  F   UNL A   1      42.690  37.880  28.409  1.00  0.00    -0.206 F 
ATOM    102  C   UNL A   1      42.185  40.542  26.097  1.00  0.00     0.022 A 
BRANCH  99 103
ATOM    103  S   UNL A   1      43.950  42.350  24.923  1.00  0.00     0.124 S 
ATOM    104  O   UNL A   1      44.301  43.150  26.090  1.00  0.00    -0.237 OA
ATOM    105  O   UNL A   1      45.037  41.988  24.036  1.00  0.00    -0.237 OA
ATOM    106  O   UNL A   1      42.706  42.774  24.250  1.00  0.00    -0.744 OA
ENDBRANCH  99 103
ENDBRANCH  73  96
ENDBRANCH  47  48
ENDBRANCH  40  42
ENDBRANCH  39  40
ENDBRANCH  38  39
ENDBRANCH  37  38
ENDBRANCH  36  37
ENDBRANCH  35  36
ENDBRANCH  34  35
ENDBRANCH   1  34
TORSDOF 26
ENDMDL
