MODEL 1
REMARK VINA RESULT:      -6.0      0.000      0.000
REMARK SMILES CCCCSc1ccccc1C(=O)OCCOCCOCCOCCOC(=O)c1ccc(-c2c3nc(c(-c4cc(S(=O)(=O)[O-])ccc4F)c4ccc([nH]4)c(-c4cc(S(=O)(=O)[O-])ccc4F)c4nc(c(-c5cc(S(=O)(=O)[O-])ccc5F)c5ccc2[nH]5)C=C4)C=C3)cc1
REMARK SMILES IDX 19 1 18 2 17 3 16 4 15 5 14 6 12 7 13 8 11 9 6 10 7 11 8 12
REMARK SMILES IDX 10 13 9 14 5 15 4 16 3 17 2 18 1 19 20 20 21 21 22 22 23 23
REMARK SMILES IDX 24 24 25 25 26 26 27 27 28 28 29 29 30 30 91 31 31 32 90 33
REMARK SMILES IDX 32 34 33 35 34 36 84 37 35 38 89 39 83 40 85 41 36 42 88 43
REMARK SMILES IDX 82 44 81 45 37 47 69 48 49 49 68 50 50 51 53 52 67 53 86 54
REMARK SMILES IDX 51 55 52 56 66 58 87 59 54 60 38 61 39 62 47 63 40 64 46 65
REMARK SMILES IDX 48 66 45 67 41 68 42 69 43 70 44 71 70 72 71 73 79 74 72 75
REMARK SMILES IDX 78 76 80 77 77 78 73 79 74 80 75 81 76 82 55 83 56 84 64 85
REMARK SMILES IDX 57 86 63 87 65 88 62 89 58 90 59 91 60 92 61 93
REMARK H PARENT 85 46 53 57
REMARK Flexibility Score: inf
ROOT
ATOM      1  C   UNL A   1      43.368  26.744  36.474  1.00  0.00     0.188 C 
ENDROOT
BRANCH   1   2
ATOM      2  C   UNL A   1      42.025  27.163  35.835  1.00  0.00     0.188 C 
BRANCH   2   3
ATOM      3  O   UNL A   1      42.011  28.435  35.224  1.00  0.00    -0.376 OA
BRANCH   3   4
ATOM      4  C   UNL A   1      41.928  28.595  33.820  1.00  0.00     0.202 C 
BRANCH   4   5
ATOM      5  C   UNL A   1      40.700  28.218  32.979  1.00  0.00     0.261 C 
BRANCH   5   6
ATOM      6  O   UNL A   1      39.498  28.907  33.301  1.00  0.00    -0.460 OA
BRANCH   6   7
ATOM      7  C   UNL A   1      38.393  28.609  32.591  1.00  0.00     0.339 C 
ATOM      8  O   UNL A   1      37.283  28.369  33.040  1.00  0.00    -0.246 OA
BRANCH   7   9
ATOM      9  C   UNL A   1      38.655  28.847  31.148  1.00  0.00     0.073 A 
ATOM     10  C   UNL A   1      38.668  30.117  30.540  1.00  0.00     0.022 A 
ATOM     11  C   UNL A   1      38.917  30.195  29.161  1.00  0.00     0.016 A 
ATOM     12  C   UNL A   1      39.166  29.044  28.405  1.00  0.00     0.001 A 
ATOM     13  C   UNL A   1      38.905  27.693  30.380  1.00  0.00     0.017 A 
ATOM     14  C   UNL A   1      39.153  27.792  29.014  1.00  0.00     0.001 A 
BRANCH  10  15
ATOM     15  S   UNL A   1      38.321  31.641  31.405  1.00  0.00    -0.125 SA
BRANCH  15  16
ATOM     16  C   UNL A   1      38.561  32.898  30.109  1.00  0.00     0.075 C 
BRANCH  16  17
ATOM     17  C   UNL A   1      39.915  33.613  30.103  1.00  0.00     0.011 C 
BRANCH  17  18
ATOM     18  C   UNL A   1      40.038  34.921  29.315  1.00  0.00    -0.003 C 
ATOM     19  C   UNL A   1      41.450  35.324  28.926  1.00  0.00     0.004 C 
ENDBRANCH  17  18
ENDBRANCH  16  17
ENDBRANCH  15  16
ENDBRANCH  10  15
ENDBRANCH   7   9
ENDBRANCH   6   7
ENDBRANCH   5   6
ENDBRANCH   4   5
ENDBRANCH   3   4
ENDBRANCH   2   3
ENDBRANCH   1   2
BRANCH   1  20
ATOM     20  O   UNL A   1      44.466  26.408  35.645  1.00  0.00    -0.377 OA
BRANCH  20  21
ATOM     21  C   UNL A   1      44.536  25.127  35.032  1.00  0.00     0.188 C 
BRANCH  21  22
ATOM     22  C   UNL A   1      44.186  24.919  33.541  1.00  0.00     0.188 C 
BRANCH  22  23
ATOM     23  O   UNL A   1      45.298  24.766  32.672  1.00  0.00    -0.376 OA
BRANCH  23  24
ATOM     24  C   UNL A   1      45.271  25.469  31.442  1.00  0.00     0.202 C 
BRANCH  24  25
ATOM     25  C   UNL A   1      44.190  25.065  30.426  1.00  0.00     0.261 C 
BRANCH  25  26
ATOM     26  O   UNL A   1      43.406  26.138  29.886  1.00  0.00    -0.460 OA
BRANCH  26  27
ATOM     27  C   UNL A   1      43.820  26.656  28.710  1.00  0.00     0.338 C 
ATOM     28  O   UNL A   1      43.932  26.058  27.650  1.00  0.00    -0.246 OA
BRANCH  27  29
ATOM     29  C   UNL A   1      43.925  28.119  28.861  1.00  0.00     0.060 A 
ATOM     30  C   UNL A   1      45.012  28.643  29.569  1.00  0.00     0.016 A 
ATOM     31  C   UNL A   1      42.958  28.969  28.315  1.00  0.00     0.016 A 
ATOM     32  C   UNL A   1      45.111  30.016  29.775  1.00  0.00     0.010 A 
ATOM     33  C   UNL A   1      43.049  30.347  28.539  1.00  0.00     0.010 A 
ATOM     34  C   UNL A   1      44.105  30.872  29.306  1.00  0.00    -0.014 A 
BRANCH  34  35
ATOM     35  C   UNL A   1      44.087  32.276  29.789  1.00  0.00     0.031 A 
ATOM     36  C   UNL A   1      43.319  32.594  31.044  1.00  0.00     0.074 A 
ATOM     37  C   UNL A   1      44.818  33.226  29.181  1.00  0.00     0.049 A 
ATOM     38  N   UNL A   1      43.224  33.723  31.700  1.00  0.00    -0.248 NA
ATOM     39  C   UNL A   1      42.555  31.487  31.641  1.00  0.00     0.031 C 
ATOM     40  C   UNL A   1      45.633  33.025  27.983  1.00  0.00     0.029 A 
ATOM     41  N   UNL A   1      45.008  34.549  29.498  1.00  0.00    -0.354 N 
ATOM     42  C   UNL A   1      42.400  33.462  32.789  1.00  0.00     0.074 A 
ATOM     43  C   UNL A   1      41.979  32.081  32.674  1.00  0.00     0.031 C 
ATOM     44  C   UNL A   1      46.247  34.181  27.675  1.00  0.00     0.029 A 
ATOM     45  C   UNL A   1      45.845  35.211  28.631  1.00  0.00     0.049 A 
ATOM     46  H   UNL A   1      44.585  34.982  30.275  1.00  0.00     0.167 HD
ATOM     47  C   UNL A   1      42.038  34.291  33.799  1.00  0.00     0.034 A 
ATOM     48  C   UNL A   1      46.233  36.503  28.607  1.00  0.00     0.034 A 
ATOM     49  C   UNL A   1      42.452  35.671  33.888  1.00  0.00     0.049 A 
ATOM     50  C   UNL A   1      45.749  37.428  29.699  1.00  0.00     0.074 A 
ATOM     51  C   UNL A   1      42.148  36.600  34.867  1.00  0.00     0.029 A 
ATOM     52  N   UNL A   1      43.244  36.328  32.954  1.00  0.00    -0.354 N 
ATOM     53  N   UNL A   1      44.983  37.165  30.733  1.00  0.00    -0.248 NA
ATOM     54  C   UNL A   1      46.203  38.823  29.627  1.00  0.00     0.031 C 
ATOM     55  C   UNL A   1      42.684  37.835  34.484  1.00  0.00     0.029 A 
ATOM     56  C   UNL A   1      43.408  37.658  33.316  1.00  0.00     0.049 A 
ATOM     57  H   UNL A   1      43.634  35.911  32.152  1.00  0.00     0.167 HD
ATOM     58  C   UNL A   1      44.892  38.356  31.453  1.00  0.00     0.074 A 
ATOM     59  C   UNL A   1      45.704  39.325  30.745  1.00  0.00     0.031 C 
ATOM     60  C   UNL A   1      44.202  38.625  32.593  1.00  0.00     0.034 A 
BRANCH  47  61
ATOM     61  C   UNL A   1      41.106  33.737  34.853  1.00  0.00     0.023 A 
ATOM     62  C   UNL A   1      39.719  33.635  34.642  1.00  0.00     0.031 A 
ATOM     63  C   UNL A   1      41.611  33.334  36.102  1.00  0.00     0.131 A 
ATOM     64  C   UNL A   1      38.881  33.211  35.685  1.00  0.00     0.055 A 
ATOM     65  C   UNL A   1      40.780  32.831  37.105  1.00  0.00     0.041 A 
ATOM     66  F   UNL A   1      42.921  33.433  36.375  1.00  0.00    -0.206 F 
ATOM     67  C   UNL A   1      39.404  32.781  36.906  1.00  0.00     0.022 A 
BRANCH  64  68
ATOM     68  S   UNL A   1      37.085  33.372  35.477  1.00  0.00     0.124 S 
ATOM     69  O   UNL A   1      36.982  34.659  34.794  1.00  0.00    -0.237 OA
ATOM     70  O   UNL A   1      36.752  32.197  34.681  1.00  0.00    -0.237 OA
ATOM     71  O   UNL A   1      36.579  33.362  36.849  1.00  0.00    -0.744 OA
ENDBRANCH  64  68
ENDBRANCH  47  61
BRANCH  48  72
ATOM     72  C   UNL A   1      47.100  37.014  27.505  1.00  0.00     0.023 A 
ATOM     73  C   UNL A   1      48.500  36.915  27.566  1.00  0.00     0.031 A 
ATOM     74  C   UNL A   1      46.537  37.676  26.398  1.00  0.00     0.131 A 
ATOM     75  C   UNL A   1      49.288  37.511  26.569  1.00  0.00     0.055 A 
ATOM     76  C   UNL A   1      47.323  38.212  25.378  1.00  0.00     0.041 A 
ATOM     77  F   UNL A   1      45.204  37.809  26.291  1.00  0.00    -0.206 F 
ATOM     78  C   UNL A   1      48.709  38.145  25.467  1.00  0.00     0.022 A 
BRANCH  75  79
ATOM     79  S   UNL A   1      51.090  37.536  26.782  1.00  0.00     0.124 S 
ATOM     80  O   UNL A   1      51.550  37.126  25.460  1.00  0.00    -0.237 OA
ATOM     81  O   UNL A   1      51.334  38.928  27.143  1.00  0.00    -0.237 OA
ATOM     82  O   UNL A   1      51.321  36.568  27.852  1.00  0.00    -0.744 OA
ENDBRANCH  75  79
ENDBRANCH  48  72
BRANCH  60  83
ATOM     83  C   UNL A   1      44.341  40.021  33.164  1.00  0.00     0.023 A 
ATOM     84  C   UNL A   1      45.347  40.346  34.091  1.00  0.00     0.031 A 
ATOM     85  C   UNL A   1      43.419  41.026  32.816  1.00  0.00     0.131 A 
ATOM     86  C   UNL A   1      45.351  41.607  34.707  1.00  0.00     0.055 A 
ATOM     87  C   UNL A   1      43.482  42.306  33.369  1.00  0.00     0.041 A 
ATOM     88  F   UNL A   1      42.435  40.778  31.939  1.00  0.00    -0.206 F 
ATOM     89  C   UNL A   1      44.437  42.595  34.338  1.00  0.00     0.022 A 
BRANCH  86  90
ATOM     90  S   UNL A   1      46.465  41.881  36.113  1.00  0.00     0.124 S 
ATOM     91  O   UNL A   1      47.576  42.590  35.484  1.00  0.00    -0.237 OA
ATOM     92  O   UNL A   1      45.637  42.672  37.018  1.00  0.00    -0.237 OA
ATOM     93  O   UNL A   1      46.773  40.530  36.575  1.00  0.00    -0.744 OA
ENDBRANCH  86  90
ENDBRANCH  60  83
ENDBRANCH  34  35
ENDBRANCH  27  29
ENDBRANCH  26  27
ENDBRANCH  25  26
ENDBRANCH  24  25
ENDBRANCH  23  24
ENDBRANCH  22  23
ENDBRANCH  21  22
ENDBRANCH  20  21
ENDBRANCH   1  20
TORSDOF 27
ENDMDL
MODEL 2
REMARK VINA RESULT:      -5.6      9.182     15.173
REMARK SMILES CCCCSc1ccccc1C(=O)OCCOCCOCCOCCOC(=O)c1ccc(-c2c3nc(c(-c4cc(S(=O)(=O)[O-])ccc4F)c4ccc([nH]4)c(-c4cc(S(=O)(=O)[O-])ccc4F)c4nc(c(-c5cc(S(=O)(=O)[O-])ccc5F)c5ccc2[nH]5)C=C4)C=C3)cc1
REMARK SMILES IDX 19 1 18 2 17 3 16 4 15 5 14 6 12 7 13 8 11 9 6 10 7 11 8 12
REMARK SMILES IDX 10 13 9 14 5 15 4 16 3 17 2 18 1 19 20 20 21 21 22 22 23 23
REMARK SMILES IDX 24 24 25 25 26 26 27 27 28 28 29 29 30 30 91 31 31 32 90 33
REMARK SMILES IDX 32 34 33 35 34 36 84 37 35 38 89 39 83 40 85 41 36 42 88 43
REMARK SMILES IDX 82 44 81 45 37 47 69 48 49 49 68 50 50 51 53 52 67 53 86 54
REMARK SMILES IDX 51 55 52 56 66 58 87 59 54 60 38 61 39 62 47 63 40 64 46 65
REMARK SMILES IDX 48 66 45 67 41 68 42 69 43 70 44 71 70 72 71 73 79 74 72 75
REMARK SMILES IDX 78 76 80 77 77 78 73 79 74 80 75 81 76 82 55 83 56 84 64 85
REMARK SMILES IDX 57 86 63 87 65 88 62 89 58 90 59 91 60 92 61 93
REMARK H PARENT 85 46 53 57
REMARK Flexibility Score: inf
ROOT
ATOM      1  C   UNL A   1      54.189  22.770  36.560  1.00  0.00     0.188 C 
ENDROOT
BRANCH   1   2
ATOM      2  C   UNL A   1      53.206  21.866  35.786  1.00  0.00     0.188 C 
BRANCH   2   3
ATOM      3  O   UNL A   1      51.908  21.768  36.332  1.00  0.00    -0.376 OA
BRANCH   3   4
ATOM      4  C   UNL A   1      50.937  22.781  36.148  1.00  0.00     0.202 C 
BRANCH   4   5
ATOM      5  C   UNL A   1      49.519  22.531  35.611  1.00  0.00     0.261 C 
BRANCH   5   6
ATOM      6  O   UNL A   1      49.335  21.312  34.904  1.00  0.00    -0.460 OA
BRANCH   6   7
ATOM      7  C   UNL A   1      48.216  20.603  35.152  1.00  0.00     0.339 C 
ATOM      8  O   UNL A   1      47.478  20.094  34.324  1.00  0.00    -0.246 OA
BRANCH   7   9
ATOM      9  C   UNL A   1      48.127  20.319  36.608  1.00  0.00     0.073 A 
ATOM     10  C   UNL A   1      47.061  20.726  37.435  1.00  0.00     0.022 A 
ATOM     11  C   UNL A   1      47.113  20.400  38.800  1.00  0.00     0.016 A 
ATOM     12  C   UNL A   1      48.185  19.673  39.329  1.00  0.00     0.001 A 
ATOM     13  C   UNL A   1      49.203  19.589  37.150  1.00  0.00     0.017 A 
ATOM     14  C   UNL A   1      49.233  19.274  38.505  1.00  0.00     0.001 A 
BRANCH  10  15
ATOM     15  S   UNL A   1      45.671  21.693  36.867  1.00  0.00    -0.125 SA
BRANCH  15  16
ATOM     16  C   UNL A   1      46.337  23.387  36.872  1.00  0.00     0.075 C 
BRANCH  16  17
ATOM     17  C   UNL A   1      46.151  24.184  38.167  1.00  0.00     0.011 C 
BRANCH  17  18
ATOM     18  C   UNL A   1      44.811  24.892  38.394  1.00  0.00    -0.003 C 
ATOM     19  C   UNL A   1      44.767  26.358  37.998  1.00  0.00     0.004 C 
ENDBRANCH  17  18
ENDBRANCH  16  17
ENDBRANCH  15  16
ENDBRANCH  10  15
ENDBRANCH   7   9
ENDBRANCH   6   7
ENDBRANCH   5   6
ENDBRANCH   4   5
ENDBRANCH   3   4
ENDBRANCH   2   3
ENDBRANCH   1   2
BRANCH   1  20
ATOM     20  O   UNL A   1      53.860  24.127  36.795  1.00  0.00    -0.377 OA
BRANCH  20  21
ATOM     21  C   UNL A   1      54.200  24.744  38.031  1.00  0.00     0.188 C 
BRANCH  21  22
ATOM     22  C   UNL A   1      53.399  24.470  39.324  1.00  0.00     0.188 C 
BRANCH  22  23
ATOM     23  O   UNL A   1      53.012  25.623  40.055  1.00  0.00    -0.376 OA
BRANCH  23  24
ATOM     24  C   UNL A   1      53.941  26.691  40.136  1.00  0.00     0.202 C 
BRANCH  24  25
ATOM     25  C   UNL A   1      53.493  28.053  39.583  1.00  0.00     0.261 C 
BRANCH  25  26
ATOM     26  O   UNL A   1      52.652  28.012  38.421  1.00  0.00    -0.460 OA
BRANCH  26  27
ATOM     27  C   UNL A   1      52.925  28.904  37.446  1.00  0.00     0.338 C 
ATOM     28  O   UNL A   1      53.702  29.845  37.517  1.00  0.00    -0.246 OA
BRANCH  27  29
ATOM     29  C   UNL A   1      52.284  28.440  36.202  1.00  0.00     0.060 A 
ATOM     30  C   UNL A   1      51.628  29.378  35.397  1.00  0.00     0.016 A 
ATOM     31  C   UNL A   1      52.322  27.092  35.834  1.00  0.00     0.016 A 
ATOM     32  C   UNL A   1      50.966  28.963  34.245  1.00  0.00     0.010 A 
ATOM     33  C   UNL A   1      51.640  26.674  34.685  1.00  0.00     0.010 A 
ATOM     34  C   UNL A   1      50.925  27.603  33.908  1.00  0.00    -0.014 A 
BRANCH  34  35
ATOM     35  C   UNL A   1      49.978  27.163  32.852  1.00  0.00     0.031 A 
ATOM     36  C   UNL A   1      50.466  27.099  31.430  1.00  0.00     0.074 A 
ATOM     37  C   UNL A   1      48.742  26.736  33.167  1.00  0.00     0.049 A 
ATOM     38  N   UNL A   1      49.852  26.671  30.356  1.00  0.00    -0.248 NA
ATOM     39  C   UNL A   1      51.834  27.581  31.186  1.00  0.00     0.031 C 
ATOM     40  C   UNL A   1      48.175  26.715  34.514  1.00  0.00     0.029 A 
ATOM     41  N   UNL A   1      47.746  26.221  32.374  1.00  0.00    -0.354 N 
ATOM     42  C   UNL A   1      50.759  26.824  29.313  1.00  0.00     0.074 A 
ATOM     43  C   UNL A   1      51.945  27.433  29.875  1.00  0.00     0.031 C 
ATOM     44  C   UNL A   1      46.936  26.199  34.457  1.00  0.00     0.029 A 
ATOM     45  C   UNL A   1      46.607  25.884  33.067  1.00  0.00     0.049 A 
ATOM     46  H   UNL A   1      47.839  26.104  31.401  1.00  0.00     0.167 HD
ATOM     47  C   UNL A   1      50.621  26.476  28.010  1.00  0.00     0.034 A 
ATOM     48  C   UNL A   1      45.432  25.387  32.629  1.00  0.00     0.034 A 
ATOM     49  C   UNL A   1      49.423  25.885  27.462  1.00  0.00     0.049 A 
ATOM     50  C   UNL A   1      45.275  25.084  31.157  1.00  0.00     0.074 A 
ATOM     51  C   UNL A   1      49.176  25.490  26.159  1.00  0.00     0.029 A 
ATOM     52  N   UNL A   1      48.263  25.621  28.180  1.00  0.00    -0.354 N 
ATOM     53  N   UNL A   1      46.146  25.217  30.183  1.00  0.00    -0.248 NA
ATOM     54  C   UNL A   1      43.978  24.543  30.733  1.00  0.00     0.031 C 
ATOM     55  C   UNL A   1      47.845  25.068  26.072  1.00  0.00     0.029 A 
ATOM     56  C   UNL A   1      47.287  25.103  27.340  1.00  0.00     0.049 A 
ATOM     57  H   UNL A   1      48.150  25.777  29.146  1.00  0.00     0.167 HD
ATOM     58  C   UNL A   1      45.510  24.744  29.036  1.00  0.00     0.074 A 
ATOM     59  C   UNL A   1      44.195  24.299  29.450  1.00  0.00     0.031 C 
ATOM     60  C   UNL A   1      45.969  24.681  27.758  1.00  0.00     0.034 A 
BRANCH  47  61
ATOM     61  C   UNL A   1      51.777  26.779  27.084  1.00  0.00     0.023 A 
ATOM     62  C   UNL A   1      52.893  25.928  26.982  1.00  0.00     0.031 A 
ATOM     63  C   UNL A   1      51.776  27.955  26.312  1.00  0.00     0.131 A 
ATOM     64  C   UNL A   1      53.988  26.301  26.186  1.00  0.00     0.055 A 
ATOM     65  C   UNL A   1      52.832  28.276  25.457  1.00  0.00     0.041 A 
ATOM     66  F   UNL A   1      50.754  28.821  26.387  1.00  0.00    -0.206 F 
ATOM     67  C   UNL A   1      53.953  27.455  25.401  1.00  0.00     0.022 A 
BRANCH  64  68
ATOM     68  S   UNL A   1      55.520  25.336  26.309  1.00  0.00     0.124 S 
ATOM     69  O   UNL A   1      55.221  24.450  27.431  1.00  0.00    -0.237 OA
ATOM     70  O   UNL A   1      55.601  24.703  24.998  1.00  0.00    -0.237 OA
ATOM     71  O   UNL A   1      56.541  26.347  26.578  1.00  0.00    -0.744 OA
ENDBRANCH  64  68
ENDBRANCH  47  61
BRANCH  48  72
ATOM     72  C   UNL A   1      44.299  25.169  33.576  1.00  0.00     0.023 A 
ATOM     73  C   UNL A   1      43.552  26.244  34.085  1.00  0.00     0.031 A 
ATOM     74  C   UNL A   1      43.991  23.877  34.040  1.00  0.00     0.131 A 
ATOM     75  C   UNL A   1      42.571  26.013  35.063  1.00  0.00     0.055 A 
ATOM     76  C   UNL A   1      42.972  23.647  34.966  1.00  0.00     0.041 A 
ATOM     77  F   UNL A   1      44.679  22.813  33.594  1.00  0.00    -0.206 F 
ATOM     78  C   UNL A   1      42.265  24.721  35.495  1.00  0.00     0.022 A 
BRANCH  75  79
ATOM     79  S   UNL A   1      41.764  27.440  35.842  1.00  0.00     0.124 S 
ATOM     80  O   UNL A   1      41.121  26.824  36.996  1.00  0.00    -0.237 OA
ATOM     81  O   UNL A   1      42.899  28.312  36.127  1.00  0.00    -0.237 OA
ATOM     82  O   UNL A   1      40.855  27.926  34.805  1.00  0.00    -0.744 OA
ENDBRANCH  75  79
ENDBRANCH  48  72
BRANCH  60  83
ATOM     83  C   UNL A   1      45.046  24.065  26.728  1.00  0.00     0.023 A 
ATOM     84  C   UNL A   1      45.081  22.691  26.429  1.00  0.00     0.031 A 
ATOM     85  C   UNL A   1      44.155  24.873  25.997  1.00  0.00     0.131 A 
ATOM     86  C   UNL A   1      44.316  22.186  25.366  1.00  0.00     0.055 A 
ATOM     87  C   UNL A   1      43.333  24.348  24.999  1.00  0.00     0.041 A 
ATOM     88  F   UNL A   1      44.076  26.192  26.234  1.00  0.00    -0.206 F 
ATOM     89  C   UNL A   1      43.428  23.001  24.662  1.00  0.00     0.022 A 
BRANCH  86  90
ATOM     90  S   UNL A   1      44.618  20.484  24.812  1.00  0.00     0.124 S 
ATOM     91  O   UNL A   1      45.896  20.182  25.449  1.00  0.00    -0.237 OA
ATOM     92  O   UNL A   1      43.459  19.774  25.343  1.00  0.00    -0.237 OA
ATOM     93  O   UNL A   1      44.662  20.600  23.357  1.00  0.00    -0.744 OA
ENDBRANCH  86  90
ENDBRANCH  60  83
ENDBRANCH  34  35
ENDBRANCH  27  29
ENDBRANCH  26  27
ENDBRANCH  25  26
ENDBRANCH  24  25
ENDBRANCH  23  24
ENDBRANCH  22  23
ENDBRANCH  21  22
ENDBRANCH  20  21
ENDBRANCH   1  20
TORSDOF 27
ENDMDL
MODEL 3
REMARK VINA RESULT:      -5.6      7.461     12.584
REMARK SMILES CCCCSc1ccccc1C(=O)OCCOCCOCCOCCOC(=O)c1ccc(-c2c3nc(c(-c4cc(S(=O)(=O)[O-])ccc4F)c4ccc([nH]4)c(-c4cc(S(=O)(=O)[O-])ccc4F)c4nc(c(-c5cc(S(=O)(=O)[O-])ccc5F)c5ccc2[nH]5)C=C4)C=C3)cc1
REMARK SMILES IDX 19 1 18 2 17 3 16 4 15 5 14 6 12 7 13 8 11 9 6 10 7 11 8 12
REMARK SMILES IDX 10 13 9 14 5 15 4 16 3 17 2 18 1 19 20 20 21 21 22 22 23 23
REMARK SMILES IDX 24 24 25 25 26 26 27 27 28 28 29 29 30 30 91 31 31 32 90 33
REMARK SMILES IDX 32 34 33 35 34 36 84 37 35 38 89 39 83 40 85 41 36 42 88 43
REMARK SMILES IDX 82 44 81 45 37 47 69 48 49 49 68 50 50 51 53 52 67 53 86 54
REMARK SMILES IDX 51 55 52 56 66 58 87 59 54 60 38 61 39 62 47 63 40 64 46 65
REMARK SMILES IDX 48 66 45 67 41 68 42 69 43 70 44 71 70 72 71 73 79 74 72 75
REMARK SMILES IDX 78 76 80 77 77 78 73 79 74 80 75 81 76 82 55 83 56 84 64 85
REMARK SMILES IDX 57 86 63 87 65 88 62 89 58 90 59 91 60 92 61 93
REMARK H PARENT 85 46 53 57
REMARK Flexibility Score: inf
ROOT
ATOM      1  C   UNL A   1      49.742  21.127  37.820  1.00  0.00     0.188 C 
ENDROOT
BRANCH   1   2
ATOM      2  C   UNL A   1      48.332  20.849  38.386  1.00  0.00     0.188 C 
BRANCH   2   3
ATOM      3  O   UNL A   1      48.294  20.297  39.684  1.00  0.00    -0.376 OA
BRANCH   3   4
ATOM      4  C   UNL A   1      48.631  18.946  39.937  1.00  0.00     0.202 C 
BRANCH   4   5
ATOM      5  C   UNL A   1      48.384  18.229  41.273  1.00  0.00     0.261 C 
BRANCH   5   6
ATOM      6  O   UNL A   1      47.021  17.996  41.604  1.00  0.00    -0.460 OA
BRANCH   6   7
ATOM      7  C   UNL A   1      46.590  16.720  41.631  1.00  0.00     0.339 C 
ATOM      8  O   UNL A   1      47.012  15.824  42.344  1.00  0.00    -0.246 OA
BRANCH   7   9
ATOM      9  C   UNL A   1      45.345  16.604  40.826  1.00  0.00     0.073 A 
ATOM     10  C   UNL A   1      44.043  16.710  41.354  1.00  0.00     0.022 A 
ATOM     11  C   UNL A   1      42.955  16.567  40.479  1.00  0.00     0.016 A 
ATOM     12  C   UNL A   1      43.151  16.342  39.112  1.00  0.00     0.001 A 
ATOM     13  C   UNL A   1      45.534  16.377  39.450  1.00  0.00     0.017 A 
ATOM     14  C   UNL A   1      44.441  16.240  38.598  1.00  0.00     0.001 A 
BRANCH  10  15
ATOM     15  S   UNL A   1      43.685  16.952  43.087  1.00  0.00    -0.125 SA
BRANCH  15  16
ATOM     16  C   UNL A   1      43.668  15.249  43.730  1.00  0.00     0.075 C 
BRANCH  16  17
ATOM     17  C   UNL A   1      42.635  14.302  43.111  1.00  0.00     0.011 C 
BRANCH  17  18
ATOM     18  C   UNL A   1      42.643  12.835  43.552  1.00  0.00    -0.003 C 
ATOM     19  C   UNL A   1      41.535  11.969  42.977  1.00  0.00     0.004 C 
ENDBRANCH  17  18
ENDBRANCH  16  17
ENDBRANCH  15  16
ENDBRANCH  10  15
ENDBRANCH   7   9
ENDBRANCH   6   7
ENDBRANCH   5   6
ENDBRANCH   4   5
ENDBRANCH   3   4
ENDBRANCH   2   3
ENDBRANCH   1   2
BRANCH   1  20
ATOM     20  O   UNL A   1      50.440  20.102  37.136  1.00  0.00    -0.377 OA
BRANCH  20  21
ATOM     21  C   UNL A   1      49.933  19.584  35.912  1.00  0.00     0.188 C 
BRANCH  21  22
ATOM     22  C   UNL A   1      50.614  19.887  34.558  1.00  0.00     0.188 C 
BRANCH  22  23
ATOM     23  O   UNL A   1      51.953  20.349  34.641  1.00  0.00    -0.376 OA
BRANCH  23  24
ATOM     24  C   UNL A   1      52.836  19.995  33.590  1.00  0.00     0.202 C 
BRANCH  24  25
ATOM     25  C   UNL A   1      53.566  21.141  32.872  1.00  0.00     0.261 C 
BRANCH  25  26
ATOM     26  O   UNL A   1      52.728  22.126  32.250  1.00  0.00    -0.460 OA
BRANCH  26  27
ATOM     27  C   UNL A   1      52.969  23.414  32.576  1.00  0.00     0.338 C 
ATOM     28  O   UNL A   1      54.045  23.991  32.520  1.00  0.00    -0.246 OA
BRANCH  27  29
ATOM     29  C   UNL A   1      51.675  24.078  32.819  1.00  0.00     0.060 A 
ATOM     30  C   UNL A   1      50.623  23.321  33.345  1.00  0.00     0.016 A 
ATOM     31  C   UNL A   1      51.497  25.433  32.525  1.00  0.00     0.016 A 
ATOM     32  C   UNL A   1      49.373  23.906  33.535  1.00  0.00     0.010 A 
ATOM     33  C   UNL A   1      50.235  26.014  32.699  1.00  0.00     0.010 A 
ATOM     34  C   UNL A   1      49.158  25.241  33.167  1.00  0.00    -0.014 A 
BRANCH  34  35
ATOM     35  C   UNL A   1      47.761  25.742  33.106  1.00  0.00     0.031 A 
ATOM     36  C   UNL A   1      47.116  26.228  34.377  1.00  0.00     0.074 A 
ATOM     37  C   UNL A   1      47.117  25.854  31.931  1.00  0.00     0.049 A 
ATOM     38  N   UNL A   1      45.944  26.782  34.557  1.00  0.00    -0.248 NA
ATOM     39  C   UNL A   1      47.902  26.071  35.610  1.00  0.00     0.031 C 
ATOM     40  C   UNL A   1      47.658  25.453  30.633  1.00  0.00     0.029 A 
ATOM     41  N   UNL A   1      45.874  26.356  31.638  1.00  0.00    -0.354 N 
ATOM     42  C   UNL A   1      45.854  27.046  35.920  1.00  0.00     0.074 A 
ATOM     43  C   UNL A   1      47.069  26.543  36.525  1.00  0.00     0.031 C 
ATOM     44  C   UNL A   1      46.755  25.738  29.679  1.00  0.00     0.029 A 
ATOM     45  C   UNL A   1      45.560  26.310  30.300  1.00  0.00     0.049 A 
ATOM     46  H   UNL A   1      45.263  26.715  32.322  1.00  0.00     0.167 HD
ATOM     47  C   UNL A   1      44.858  27.663  36.602  1.00  0.00     0.034 A 
ATOM     48  C   UNL A   1      44.436  26.678  29.652  1.00  0.00     0.034 A 
ATOM     49  C   UNL A   1      43.644  28.142  35.985  1.00  0.00     0.049 A 
ATOM     50  C   UNL A   1      43.305  27.289  30.447  1.00  0.00     0.074 A 
ATOM     51  C   UNL A   1      42.571  28.785  36.578  1.00  0.00     0.029 A 
ATOM     52  N   UNL A   1      43.330  28.017  34.637  1.00  0.00    -0.354 N 
ATOM     53  N   UNL A   1      43.239  27.548  31.734  1.00  0.00    -0.248 NA
ATOM     54  C   UNL A   1      42.105  27.674  29.694  1.00  0.00     0.031 C 
ATOM     55  C   UNL A   1      41.579  28.971  35.610  1.00  0.00     0.029 A 
ATOM     56  C   UNL A   1      42.067  28.537  34.388  1.00  0.00     0.049 A 
ATOM     57  H   UNL A   1      43.919  27.619  33.956  1.00  0.00     0.167 HD
ATOM     58  C   UNL A   1      42.002  28.159  31.935  1.00  0.00     0.074 A 
ATOM     59  C   UNL A   1      41.372  28.250  30.634  1.00  0.00     0.031 C 
ATOM     60  C   UNL A   1      41.437  28.604  33.089  1.00  0.00     0.034 A 
BRANCH  47  61
ATOM     61  C   UNL A   1      45.021  27.800  38.098  1.00  0.00     0.023 A 
ATOM     62  C   UNL A   1      45.480  28.991  38.692  1.00  0.00     0.031 A 
ATOM     63  C   UNL A   1      44.743  26.711  38.943  1.00  0.00     0.131 A 
ATOM     64  C   UNL A   1      45.714  29.040  40.075  1.00  0.00     0.055 A 
ATOM     65  C   UNL A   1      44.897  26.795  40.329  1.00  0.00     0.041 A 
ATOM     66  F   UNL A   1      44.330  25.540  38.436  1.00  0.00    -0.206 F 
ATOM     67  C   UNL A   1      45.398  27.959  40.902  1.00  0.00     0.022 A 
BRANCH  64  68
ATOM     68  S   UNL A   1      46.579  30.480  40.761  1.00  0.00     0.124 S 
ATOM     69  O   UNL A   1      45.601  31.542  40.542  1.00  0.00    -0.237 OA
ATOM     70  O   UNL A   1      46.797  30.087  42.147  1.00  0.00    -0.237 OA
ATOM     71  O   UNL A   1      47.786  30.577  39.941  1.00  0.00    -0.744 OA
ENDBRANCH  64  68
ENDBRANCH  47  61
BRANCH  48  72
ATOM     72  C   UNL A   1      44.299  26.458  28.182  1.00  0.00     0.023 A 
ATOM     73  C   UNL A   1      43.923  25.210  27.658  1.00  0.00     0.031 A 
ATOM     74  C   UNL A   1      44.613  27.484  27.272  1.00  0.00     0.131 A 
ATOM     75  C   UNL A   1      43.919  25.007  26.269  1.00  0.00     0.055 A 
ATOM     76  C   UNL A   1      44.547  27.294  25.891  1.00  0.00     0.041 A 
ATOM     77  F   UNL A   1      44.988  28.695  27.716  1.00  0.00    -0.206 F 
ATOM     78  C   UNL A   1      44.213  26.044  25.382  1.00  0.00     0.022 A 
BRANCH  75  79
ATOM     79  S   UNL A   1      43.620  23.332  25.635  1.00  0.00     0.124 S 
ATOM     80  O   UNL A   1      43.740  23.535  24.195  1.00  0.00    -0.237 OA
ATOM     81  O   UNL A   1      44.693  22.573  26.268  1.00  0.00    -0.237 OA
ATOM     82  O   UNL A   1      42.275  23.022  26.112  1.00  0.00    -0.744 OA
ENDBRANCH  75  79
ENDBRANCH  48  72
BRANCH  60  83
ATOM     83  C   UNL A   1      40.083  29.272  32.976  1.00  0.00     0.023 A 
ATOM     84  C   UNL A   1      39.928  30.663  33.120  1.00  0.00     0.031 A 
ATOM     85  C   UNL A   1      38.924  28.500  32.773  1.00  0.00     0.131 A 
ATOM     86  C   UNL A   1      38.641  31.223  33.155  1.00  0.00     0.055 A 
ATOM     87  C   UNL A   1      37.654  29.076  32.723  1.00  0.00     0.041 A 
ATOM     88  F   UNL A   1      39.006  27.168  32.630  1.00  0.00    -0.206 F 
ATOM     89  C   UNL A   1      37.505  30.443  32.939  1.00  0.00     0.022 A 
BRANCH  86  90
ATOM     90  S   UNL A   1      38.467  32.961  33.650  1.00  0.00     0.124 S 
ATOM     91  O   UNL A   1      37.308  32.908  34.536  1.00  0.00    -0.237 OA
ATOM     92  O   UNL A   1      39.749  33.232  34.293  1.00  0.00    -0.237 OA
ATOM     93  O   UNL A   1      38.249  33.657  32.384  1.00  0.00    -0.744 OA
ENDBRANCH  86  90
ENDBRANCH  60  83
ENDBRANCH  34  35
ENDBRANCH  27  29
ENDBRANCH  26  27
ENDBRANCH  25  26
ENDBRANCH  24  25
ENDBRANCH  23  24
ENDBRANCH  22  23
ENDBRANCH  21  22
ENDBRANCH  20  21
ENDBRANCH   1  20
TORSDOF 27
ENDMDL
