MODEL 1
REMARK VINA RESULT:      -7.1      0.000      0.000
REMARK SMILES CC(C)C[N@@H+](C1CC1)[C@@H](C)c1ccc(C(=O)OCCOCCOCCOCCOC(=O)c2ccc(-c3c4nc(c(-c5cc(S(=O)(=O)[O-])ccc5F)c5ccc([nH]5)c(-c5cc(S(=O)(=O)[O-])ccc5F)c5nc(c(-c6cc(S(=O)(=O)[O-])ccc6F)c6ccc3[nH]6)C=C5)C=C4)cc2)o1
REMARK SMILES IDX 22 1 21 2 20 3 19 4 18 5 17 6 15 7 16 8 14 9 11 10 12 11
REMARK SMILES IDX 95 12 13 13 9 14 10 15 5 16 4 18 2 19 1 20 3 21 6 22 7 23
REMARK SMILES IDX 8 24 23 25 24 26 25 27 26 28 27 29 28 30 29 31 30 32 31 33
REMARK SMILES IDX 32 34 33 35 94 36 34 37 93 38 35 39 36 40 37 41 87 42 38 43
REMARK SMILES IDX 92 44 86 45 88 46 39 47 91 48 85 49 84 50 40 52 72 53 52 54
REMARK SMILES IDX 71 55 53 56 56 57 70 58 89 59 54 60 55 61 69 63 90 64 57 65
REMARK SMILES IDX 41 66 42 67 50 68 43 69 49 70 51 71 48 72 44 73 45 74 46 75
REMARK SMILES IDX 47 76 73 77 74 78 82 79 75 80 81 81 83 82 80 83 76 84 77 85
REMARK SMILES IDX 78 86 79 87 58 88 59 89 67 90 60 91 66 92 68 93 65 94 61 95
REMARK SMILES IDX 62 96 63 97 64 98
REMARK H PARENT 5 17 88 51 56 62
REMARK Flexibility Score: inf
ROOT
ATOM      1  C   UNL A   1      38.624  30.374  34.257  1.00  0.00     0.188 C 
ENDROOT
BRANCH   1   2
ATOM      2  C   UNL A   1      37.779  29.883  33.068  1.00  0.00     0.188 C 
BRANCH   2   3
ATOM      3  O   UNL A   1      37.456  28.500  33.122  1.00  0.00    -0.376 OA
BRANCH   3   4
ATOM      4  C   UNL A   1      38.321  27.627  32.408  1.00  0.00     0.202 C 
BRANCH   4   5
ATOM      5  C   UNL A   1      38.946  28.270  31.167  1.00  0.00     0.261 C 
BRANCH   5   6
ATOM      6  O   UNL A   1      38.202  28.081  29.951  1.00  0.00    -0.457 OA
BRANCH   6   7
ATOM      7  C   UNL A   1      38.367  28.973  28.934  1.00  0.00     0.374 C 
ATOM      8  O   UNL A   1      39.378  29.067  28.248  1.00  0.00    -0.242 OA
BRANCH   7   9
ATOM      9  C   UNL A   1      37.121  29.684  28.756  1.00  0.00     0.212 A 
ATOM     10  C   UNL A   1      35.613  31.256  29.178  1.00  0.00     0.162 A 
ATOM     11  C   UNL A   1      35.235  30.638  27.999  1.00  0.00     0.053 A 
ATOM     12  O   UNL A   1      36.735  30.635  29.670  1.00  0.00    -0.448 OA
ATOM     13  C   UNL A   1      36.202  29.648  27.724  1.00  0.00     0.059 A 
BRANCH  10  14
ATOM     14  C   UNL A   1      34.974  32.351  30.001  1.00  0.00     0.248 C 
ATOM     15  C   UNL A   1      34.292  33.430  29.140  1.00  0.00     0.084 C 
BRANCH  14  16
ATOM     16  N   UNL A   1      35.790  32.912  31.111  1.00  0.00    -0.324 N 
ATOM     17  H   UNL A   1      36.370  32.109  31.355  1.00  0.00     0.348 HD
BRANCH  16  18
ATOM     18  C   UNL A   1      36.769  33.983  30.814  1.00  0.00     0.265 C 
BRANCH  18  19
ATOM     19  C   UNL A   1      38.276  33.669  30.670  1.00  0.00     0.038 C 
ATOM     20  C   UNL A   1      39.055  34.780  29.960  1.00  0.00     0.013 C 
ATOM     21  C   UNL A   1      38.899  33.460  32.062  1.00  0.00     0.013 C 
ENDBRANCH  18  19
ENDBRANCH  16  18
BRANCH  16  22
ATOM     22  C   UNL A   1      34.911  33.379  32.223  1.00  0.00     0.185 C 
ATOM     23  C   UNL A   1      35.251  33.095  33.660  1.00  0.00     0.071 C 
ATOM     24  C   UNL A   1      35.384  34.488  33.123  1.00  0.00     0.071 C 
ENDBRANCH  16  22
ENDBRANCH  14  16
ENDBRANCH  10  14
ENDBRANCH   7   9
ENDBRANCH   6   7
ENDBRANCH   5   6
ENDBRANCH   4   5
ENDBRANCH   3   4
ENDBRANCH   2   3
ENDBRANCH   1   2
BRANCH   1  25
ATOM     25  O   UNL A   1      38.096  30.401  35.573  1.00  0.00    -0.377 OA
BRANCH  25  26
ATOM     26  C   UNL A   1      38.272  31.555  36.376  1.00  0.00     0.188 C 
BRANCH  26  27
ATOM     27  C   UNL A   1      37.727  31.567  37.816  1.00  0.00     0.188 C 
BRANCH  27  28
ATOM     28  O   UNL A   1      37.342  32.851  38.300  1.00  0.00    -0.376 OA
BRANCH  28  29
ATOM     29  C   UNL A   1      37.701  33.130  39.646  1.00  0.00     0.202 C 
BRANCH  29  30
ATOM     30  C   UNL A   1      39.122  33.691  39.754  1.00  0.00     0.261 C 
BRANCH  30  31
ATOM     31  O   UNL A   1      39.307  34.947  39.086  1.00  0.00    -0.460 OA
BRANCH  31  32
ATOM     32  C   UNL A   1      40.586  35.354  38.925  1.00  0.00     0.338 C 
ATOM     33  O   UNL A   1      41.289  35.909  39.750  1.00  0.00    -0.246 OA
BRANCH  32  34
ATOM     34  C   UNL A   1      41.057  34.848  37.623  1.00  0.00     0.060 A 
ATOM     35  C   UNL A   1      40.131  34.709  36.582  1.00  0.00     0.016 A 
ATOM     36  C   UNL A   1      42.405  34.532  37.429  1.00  0.00     0.016 A 
ATOM     37  C   UNL A   1      40.553  34.242  35.339  1.00  0.00     0.010 A 
ATOM     38  C   UNL A   1      42.821  34.039  36.193  1.00  0.00     0.010 A 
ATOM     39  C   UNL A   1      41.892  33.868  35.152  1.00  0.00    -0.014 A 
BRANCH  39  40
ATOM     40  C   UNL A   1      42.279  33.101  33.947  1.00  0.00     0.031 A 
ATOM     41  C   UNL A   1      42.465  31.617  34.092  1.00  0.00     0.074 A 
ATOM     42  C   UNL A   1      42.463  33.705  32.761  1.00  0.00     0.049 A 
ATOM     43  N   UNL A   1      42.826  30.732  33.202  1.00  0.00    -0.248 NA
ATOM     44  C   UNL A   1      42.214  31.062  35.432  1.00  0.00     0.031 C 
ATOM     45  C   UNL A   1      42.283  35.131  32.501  1.00  0.00     0.029 A 
ATOM     46  N   UNL A   1      42.853  33.186  31.553  1.00  0.00    -0.354 N 
ATOM     47  C   UNL A   1      42.834  29.512  33.869  1.00  0.00     0.074 A 
ATOM     48  C   UNL A   1      42.488  29.781  35.248  1.00  0.00     0.031 C 
ATOM     49  C   UNL A   1      42.576  35.377  31.211  1.00  0.00     0.029 A 
ATOM     50  C   UNL A   1      42.990  34.131  30.565  1.00  0.00     0.049 A 
ATOM     51  H   UNL A   1      43.019  32.226  31.408  1.00  0.00     0.167 HD
ATOM     52  C   UNL A   1      43.098  28.278  33.374  1.00  0.00     0.034 A 
ATOM     53  C   UNL A   1      43.422  34.003  29.295  1.00  0.00     0.034 A 
ATOM     54  C   UNL A   1      43.485  28.033  32.007  1.00  0.00     0.049 A 
ATOM     55  C   UNL A   1      43.811  32.634  28.789  1.00  0.00     0.074 A 
ATOM     56  C   UNL A   1      43.776  26.828  31.393  1.00  0.00     0.029 A 
ATOM     57  N   UNL A   1      43.662  29.021  31.046  1.00  0.00    -0.354 N 
ATOM     58  N   UNL A   1      43.790  31.481  29.419  1.00  0.00    -0.248 NA
ATOM     59  C   UNL A   1      44.277  32.549  27.399  1.00  0.00     0.031 C 
ATOM     60  C   UNL A   1      44.195  27.095  30.084  1.00  0.00     0.029 A 
ATOM     61  C   UNL A   1      44.092  28.458  29.856  1.00  0.00     0.049 A 
ATOM     62  H   UNL A   1      43.504  29.983  31.189  1.00  0.00     0.167 HD
ATOM     63  C   UNL A   1      44.212  30.531  28.491  1.00  0.00     0.074 A 
ATOM     64  C   UNL A   1      44.471  31.246  27.257  1.00  0.00     0.031 C 
ATOM     65  C   UNL A   1      44.362  29.189  28.638  1.00  0.00     0.034 A 
BRANCH  52  66
ATOM     66  C   UNL A   1      43.030  27.126  34.345  1.00  0.00     0.023 A 
ATOM     67  C   UNL A   1      44.193  26.555  34.892  1.00  0.00     0.031 A 
ATOM     68  C   UNL A   1      41.794  26.546  34.674  1.00  0.00     0.131 A 
ATOM     69  C   UNL A   1      44.102  25.388  35.668  1.00  0.00     0.055 A 
ATOM     70  C   UNL A   1      41.703  25.435  35.514  1.00  0.00     0.041 A 
ATOM     71  F   UNL A   1      40.652  27.032  34.161  1.00  0.00    -0.206 F 
ATOM     72  C   UNL A   1      42.862  24.838  36.001  1.00  0.00     0.022 A 
BRANCH  69  73
ATOM     73  S   UNL A   1      45.632  24.510  36.093  1.00  0.00     0.124 S 
ATOM     74  O   UNL A   1      46.479  25.601  36.566  1.00  0.00    -0.237 OA
ATOM     75  O   UNL A   1      45.180  23.563  37.106  1.00  0.00    -0.237 OA
ATOM     76  O   UNL A   1      46.048  23.914  34.824  1.00  0.00    -0.744 OA
ENDBRANCH  69  73
ENDBRANCH  52  66
BRANCH  53  77
ATOM     77  C   UNL A   1      43.549  35.199  28.414  1.00  0.00     0.023 A 
ATOM     78  C   UNL A   1      44.777  35.862  28.262  1.00  0.00     0.031 A 
ATOM     79  C   UNL A   1      42.427  35.727  27.751  1.00  0.00     0.131 A 
ATOM     80  C   UNL A   1      44.846  37.039  27.497  1.00  0.00     0.055 A 
ATOM     81  C   UNL A   1      42.510  36.871  26.956  1.00  0.00     0.041 A 
ATOM     82  F   UNL A   1      41.229  35.131  27.865  1.00  0.00    -0.206 F 
ATOM     83  C   UNL A   1      43.723  37.540  26.835  1.00  0.00     0.022 A 
BRANCH  80  84
ATOM     84  S   UNL A   1      46.415  37.947  27.437  1.00  0.00     0.124 S 
ATOM     85  O   UNL A   1      45.959  39.332  27.469  1.00  0.00    -0.237 OA
ATOM     86  O   UNL A   1      47.091  37.464  28.637  1.00  0.00    -0.237 OA
ATOM     87  O   UNL A   1      47.010  37.513  26.174  1.00  0.00    -0.744 OA
ENDBRANCH  80  84
ENDBRANCH  53  77
BRANCH  65  88
ATOM     88  C   UNL A   1      44.787  28.407  27.420  1.00  0.00     0.023 A 
ATOM     89  C   UNL A   1      46.136  28.103  27.165  1.00  0.00     0.031 A 
ATOM     90  C   UNL A   1      43.822  27.959  26.499  1.00  0.00     0.131 A 
ATOM     91  C   UNL A   1      46.487  27.417  25.993  1.00  0.00     0.055 A 
ATOM     92  C   UNL A   1      44.173  27.228  25.363  1.00  0.00     0.041 A 
ATOM     93  F   UNL A   1      42.520  28.222  26.692  1.00  0.00    -0.206 F 
ATOM     94  C   UNL A   1      45.513  26.963  25.098  1.00  0.00     0.022 A 
BRANCH  91  95
ATOM     95  S   UNL A   1      48.246  27.194  25.605  1.00  0.00     0.124 S 
ATOM     96  O   UNL A   1      48.740  26.534  26.809  1.00  0.00    -0.237 OA
ATOM     97  O   UNL A   1      48.199  26.372  24.401  1.00  0.00    -0.237 OA
ATOM     98  O   UNL A   1      48.729  28.559  25.404  1.00  0.00    -0.744 OA
ENDBRANCH  91  95
ENDBRANCH  65  88
ENDBRANCH  39  40
ENDBRANCH  32  34
ENDBRANCH  31  32
ENDBRANCH  30  31
ENDBRANCH  29  30
ENDBRANCH  28  29
ENDBRANCH  27  28
ENDBRANCH  26  27
ENDBRANCH  25  26
ENDBRANCH   1  25
TORSDOF 28
ENDMDL
MODEL 2
REMARK VINA RESULT:      -7.0      5.499      9.203
REMARK SMILES CC(C)C[N@@H+](C1CC1)[C@@H](C)c1ccc(C(=O)OCCOCCOCCOCCOC(=O)c2ccc(-c3c4nc(c(-c5cc(S(=O)(=O)[O-])ccc5F)c5ccc([nH]5)c(-c5cc(S(=O)(=O)[O-])ccc5F)c5nc(c(-c6cc(S(=O)(=O)[O-])ccc6F)c6ccc3[nH]6)C=C5)C=C4)cc2)o1
REMARK SMILES IDX 22 1 21 2 20 3 19 4 18 5 17 6 15 7 16 8 14 9 11 10 12 11
REMARK SMILES IDX 95 12 13 13 9 14 10 15 5 16 4 18 2 19 1 20 3 21 6 22 7 23
REMARK SMILES IDX 8 24 23 25 24 26 25 27 26 28 27 29 28 30 29 31 30 32 31 33
REMARK SMILES IDX 32 34 33 35 94 36 34 37 93 38 35 39 36 40 37 41 87 42 38 43
REMARK SMILES IDX 92 44 86 45 88 46 39 47 91 48 85 49 84 50 40 52 72 53 52 54
REMARK SMILES IDX 71 55 53 56 56 57 70 58 89 59 54 60 55 61 69 63 90 64 57 65
REMARK SMILES IDX 41 66 42 67 50 68 43 69 49 70 51 71 48 72 44 73 45 74 46 75
REMARK SMILES IDX 47 76 73 77 74 78 82 79 75 80 81 81 83 82 80 83 76 84 77 85
REMARK SMILES IDX 78 86 79 87 58 88 59 89 67 90 60 91 66 92 68 93 65 94 61 95
REMARK SMILES IDX 62 96 63 97 64 98
REMARK H PARENT 5 17 88 51 56 62
REMARK Flexibility Score: inf
ROOT
ATOM      1  C   UNL A   1      39.563  25.928  27.869  1.00  0.00     0.188 C 
ENDROOT
BRANCH   1   2
ATOM      2  C   UNL A   1      39.387  24.413  27.663  1.00  0.00     0.188 C 
BRANCH   2   3
ATOM      3  O   UNL A   1      39.143  24.040  26.313  1.00  0.00    -0.376 OA
BRANCH   3   4
ATOM      4  C   UNL A   1      37.781  23.855  25.953  1.00  0.00     0.202 C 
BRANCH   4   5
ATOM      5  C   UNL A   1      37.505  22.502  25.290  1.00  0.00     0.261 C 
BRANCH   5   6
ATOM      6  O   UNL A   1      36.272  22.431  24.555  1.00  0.00    -0.457 OA
BRANCH   6   7
ATOM      7  C   UNL A   1      35.449  21.362  24.753  1.00  0.00     0.374 C 
ATOM      8  O   UNL A   1      35.832  20.231  25.026  1.00  0.00    -0.242 OA
BRANCH   7   9
ATOM      9  C   UNL A   1      34.083  21.831  24.690  1.00  0.00     0.212 A 
ATOM     10  C   UNL A   1      32.454  23.333  24.812  1.00  0.00     0.162 A 
ATOM     11  C   UNL A   1      31.911  22.191  24.250  1.00  0.00     0.053 A 
ATOM     12  O   UNL A   1      33.768  23.093  25.133  1.00  0.00    -0.448 OA
ATOM     13  C   UNL A   1      32.950  21.241  24.161  1.00  0.00     0.059 A 
BRANCH  10  14
ATOM     14  C   UNL A   1      31.847  24.663  25.196  1.00  0.00     0.248 C 
ATOM     15  C   UNL A   1      30.577  24.519  26.053  1.00  0.00     0.084 C 
BRANCH  14  16
ATOM     16  N   UNL A   1      31.715  25.672  24.112  1.00  0.00    -0.324 N 
ATOM     17  H   UNL A   1      31.228  25.132  23.397  1.00  0.00     0.348 HD
BRANCH  16  18
ATOM     18  C   UNL A   1      30.843  26.850  24.327  1.00  0.00     0.265 C 
BRANCH  18  19
ATOM     19  C   UNL A   1      29.660  27.152  23.378  1.00  0.00     0.038 C 
ATOM     20  C   UNL A   1      28.310  26.689  23.935  1.00  0.00     0.013 C 
ATOM     21  C   UNL A   1      29.578  28.665  23.113  1.00  0.00     0.013 C 
ENDBRANCH  18  19
ENDBRANCH  16  18
BRANCH  16  22
ATOM     22  C   UNL A   1      33.060  26.161  23.685  1.00  0.00     0.185 C 
ATOM     23  C   UNL A   1      33.570  25.923  22.289  1.00  0.00     0.071 C 
ATOM     24  C   UNL A   1      33.156  27.301  22.709  1.00  0.00     0.071 C 
ENDBRANCH  16  22
ENDBRANCH  14  16
ENDBRANCH  10  14
ENDBRANCH   7   9
ENDBRANCH   6   7
ENDBRANCH   5   6
ENDBRANCH   4   5
ENDBRANCH   3   4
ENDBRANCH   2   3
ENDBRANCH   1   2
BRANCH   1  25
ATOM     25  O   UNL A   1      40.290  26.717  26.942  1.00  0.00    -0.377 OA
BRANCH  25  26
ATOM     26  C   UNL A   1      40.101  28.120  26.913  1.00  0.00     0.188 C 
BRANCH  26  27
ATOM     27  C   UNL A   1      40.381  28.949  28.180  1.00  0.00     0.188 C 
BRANCH  27  28
ATOM     28  O   UNL A   1      39.305  29.785  28.599  1.00  0.00    -0.376 OA
BRANCH  28  29
ATOM     29  C   UNL A   1      38.049  29.136  28.748  1.00  0.00     0.202 C 
BRANCH  29  30
ATOM     30  C   UNL A   1      37.018  30.039  29.431  1.00  0.00     0.261 C 
BRANCH  30  31
ATOM     31  O   UNL A   1      37.513  30.722  30.590  1.00  0.00    -0.460 OA
BRANCH  31  32
ATOM     32  C   UNL A   1      37.413  30.057  31.763  1.00  0.00     0.338 C 
ATOM     33  O   UNL A   1      36.393  29.814  32.383  1.00  0.00    -0.246 OA
BRANCH  32  34
ATOM     34  C   UNL A   1      38.743  29.510  32.085  1.00  0.00     0.060 A 
ATOM     35  C   UNL A   1      39.831  30.389  32.157  1.00  0.00     0.016 A 
ATOM     36  C   UNL A   1      38.909  28.144  32.330  1.00  0.00     0.016 A 
ATOM     37  C   UNL A   1      41.097  29.897  32.468  1.00  0.00     0.010 A 
ATOM     38  C   UNL A   1      40.181  27.649  32.614  1.00  0.00     0.010 A 
ATOM     39  C   UNL A   1      41.282  28.520  32.659  1.00  0.00    -0.014 A 
BRANCH  39  40
ATOM     40  C   UNL A   1      42.653  27.962  32.692  1.00  0.00     0.031 A 
ATOM     41  C   UNL A   1      43.299  27.769  34.035  1.00  0.00     0.074 A 
ATOM     42  C   UNL A   1      43.306  27.641  31.562  1.00  0.00     0.049 A 
ATOM     43  N   UNL A   1      44.492  27.327  34.330  1.00  0.00    -0.248 NA
ATOM     44  C   UNL A   1      42.481  28.133  35.203  1.00  0.00     0.031 C 
ATOM     45  C   UNL A   1      42.766  27.761  30.210  1.00  0.00     0.029 A 
ATOM     46  N   UNL A   1      44.574  27.154  31.380  1.00  0.00    -0.354 N 
ATOM     47  C   UNL A   1      44.566  27.348  35.718  1.00  0.00     0.074 A 
ATOM     48  C   UNL A   1      43.315  27.891  36.201  1.00  0.00     0.031 C 
ATOM     49  C   UNL A   1      43.707  27.369  29.332  1.00  0.00     0.029 A 
ATOM     50  C   UNL A   1      44.921  26.999  30.059  1.00  0.00     0.049 A 
ATOM     51  H   UNL A   1      45.181  26.937  32.124  1.00  0.00     0.167 HD
ATOM     52  C   UNL A   1      45.583  26.943  36.518  1.00  0.00     0.034 A 
ATOM     53  C   UNL A   1      46.091  26.622  29.506  1.00  0.00     0.034 A 
ATOM     54  C   UNL A   1      46.840  26.446  36.018  1.00  0.00     0.049 A 
ATOM     55  C   UNL A   1      47.249  26.273  30.412  1.00  0.00     0.074 A 
ATOM     56  C   UNL A   1      47.941  26.006  36.732  1.00  0.00     0.029 A 
ATOM     57  N   UNL A   1      47.175  26.348  34.673  1.00  0.00    -0.354 N 
ATOM     58  N   UNL A   1      47.302  26.269  31.725  1.00  0.00    -0.248 NA
ATOM     59  C   UNL A   1      48.503  25.871  29.761  1.00  0.00     0.031 C 
ATOM     60  C   UNL A   1      48.962  25.710  35.821  1.00  0.00     0.029 A 
ATOM     61  C   UNL A   1      48.475  25.890  34.536  1.00  0.00     0.049 A 
ATOM     62  H   UNL A   1      46.574  26.571  33.924  1.00  0.00     0.167 HD
ATOM     63  C   UNL A   1      48.585  25.837  32.054  1.00  0.00     0.074 A 
ATOM     64  C   UNL A   1      49.268  25.581  30.802  1.00  0.00     0.031 C 
ATOM     65  C   UNL A   1      49.146  25.656  33.278  1.00  0.00     0.034 A 
BRANCH  52  66
ATOM     66  C   UNL A   1      45.377  27.086  38.005  1.00  0.00     0.023 A 
ATOM     67  C   UNL A   1      45.847  28.210  38.708  1.00  0.00     0.031 A 
ATOM     68  C   UNL A   1      44.768  26.056  38.741  1.00  0.00     0.131 A 
ATOM     69  C   UNL A   1      45.778  28.238  40.110  1.00  0.00     0.055 A 
ATOM     70  C   UNL A   1      44.628  26.127  40.128  1.00  0.00     0.041 A 
ATOM     71  F   UNL A   1      44.325  24.947  38.127  1.00  0.00    -0.206 F 
ATOM     72  C   UNL A   1      45.150  27.214  40.823  1.00  0.00     0.022 A 
BRANCH  69  73
ATOM     73  S   UNL A   1      46.666  29.550  40.994  1.00  0.00     0.124 S 
ATOM     74  O   UNL A   1      46.079  29.459  42.328  1.00  0.00    -0.237 OA
ATOM     75  O   UNL A   1      48.056  29.124  40.876  1.00  0.00    -0.237 OA
ATOM     76  O   UNL A   1      46.319  30.760  40.250  1.00  0.00    -0.744 OA
ENDBRANCH  69  73
ENDBRANCH  52  66
BRANCH  53  77
ATOM     77  C   UNL A   1      46.253  26.588  28.024  1.00  0.00     0.023 A 
ATOM     78  C   UNL A   1      45.972  25.426  27.290  1.00  0.00     0.031 A 
ATOM     79  C   UNL A   1      46.742  27.707  27.329  1.00  0.00     0.131 A 
ATOM     80  C   UNL A   1      46.220  25.396  25.907  1.00  0.00     0.055 A 
ATOM     81  C   UNL A   1      46.944  27.688  25.948  1.00  0.00     0.041 A 
ATOM     82  F   UNL A   1      47.027  28.843  27.985  1.00  0.00    -0.206 F 
ATOM     83  C   UNL A   1      46.693  26.523  25.230  1.00  0.00     0.022 A 
BRANCH  80  84
ATOM     84  S   UNL A   1      45.979  23.836  25.013  1.00  0.00     0.124 S 
ATOM     85  O   UNL A   1      46.377  22.854  26.015  1.00  0.00    -0.237 OA
ATOM     86  O   UNL A   1      44.557  23.888  24.691  1.00  0.00    -0.237 OA
ATOM     87  O   UNL A   1      46.879  23.959  23.867  1.00  0.00    -0.744 OA
ENDBRANCH  80  84
ENDBRANCH  53  77
BRANCH  65  88
ATOM     88  C   UNL A   1      50.556  25.118  33.315  1.00  0.00     0.023 A 
ATOM     89  C   UNL A   1      50.829  23.742  33.226  1.00  0.00     0.031 A 
ATOM     90  C   UNL A   1      51.644  26.001  33.442  1.00  0.00     0.131 A 
ATOM     91  C   UNL A   1      52.152  23.285  33.316  1.00  0.00     0.055 A 
ATOM     92  C   UNL A   1      52.962  25.544  33.474  1.00  0.00     0.041 A 
ATOM     93  F   UNL A   1      51.441  27.325  33.532  1.00  0.00    -0.206 F 
ATOM     94  C   UNL A   1      53.222  24.178  33.423  1.00  0.00     0.022 A 
BRANCH  91  95
ATOM     95  S   UNL A   1      52.457  21.497  33.374  1.00  0.00     0.124 S 
ATOM     96  O   UNL A   1      53.900  21.442  33.578  1.00  0.00    -0.237 OA
ATOM     97  O   UNL A   1      51.637  21.077  34.505  1.00  0.00    -0.237 OA
ATOM     98  O   UNL A   1      51.997  21.027  32.068  1.00  0.00    -0.744 OA
ENDBRANCH  91  95
ENDBRANCH  65  88
ENDBRANCH  39  40
ENDBRANCH  32  34
ENDBRANCH  31  32
ENDBRANCH  30  31
ENDBRANCH  29  30
ENDBRANCH  28  29
ENDBRANCH  27  28
ENDBRANCH  26  27
ENDBRANCH  25  26
ENDBRANCH   1  25
TORSDOF 28
ENDMDL
MODEL 3
REMARK VINA RESULT:      -6.9      3.112     11.628
REMARK SMILES CC(C)C[N@@H+](C1CC1)[C@@H](C)c1ccc(C(=O)OCCOCCOCCOCCOC(=O)c2ccc(-c3c4nc(c(-c5cc(S(=O)(=O)[O-])ccc5F)c5ccc([nH]5)c(-c5cc(S(=O)(=O)[O-])ccc5F)c5nc(c(-c6cc(S(=O)(=O)[O-])ccc6F)c6ccc3[nH]6)C=C5)C=C4)cc2)o1
REMARK SMILES IDX 22 1 21 2 20 3 19 4 18 5 17 6 15 7 16 8 14 9 11 10 12 11
REMARK SMILES IDX 95 12 13 13 9 14 10 15 5 16 4 18 2 19 1 20 3 21 6 22 7 23
REMARK SMILES IDX 8 24 23 25 24 26 25 27 26 28 27 29 28 30 29 31 30 32 31 33
REMARK SMILES IDX 32 34 33 35 94 36 34 37 93 38 35 39 36 40 37 41 87 42 38 43
REMARK SMILES IDX 92 44 86 45 88 46 39 47 91 48 85 49 84 50 40 52 72 53 52 54
REMARK SMILES IDX 71 55 53 56 56 57 70 58 89 59 54 60 55 61 69 63 90 64 57 65
REMARK SMILES IDX 41 66 42 67 50 68 43 69 49 70 51 71 48 72 44 73 45 74 46 75
REMARK SMILES IDX 47 76 73 77 74 78 82 79 75 80 81 81 83 82 80 83 76 84 77 85
REMARK SMILES IDX 78 86 79 87 58 88 59 89 67 90 60 91 66 92 68 93 65 94 61 95
REMARK SMILES IDX 62 96 63 97 64 98
REMARK H PARENT 5 17 88 51 56 62
REMARK Flexibility Score: inf
ROOT
ATOM      1  C   UNL A   1      41.714  20.609  26.194  1.00  0.00     0.188 C 
ENDROOT
BRANCH   1   2
ATOM      2  C   UNL A   1      40.425  21.036  26.919  1.00  0.00     0.188 C 
BRANCH   2   3
ATOM      3  O   UNL A   1      39.821  22.205  26.380  1.00  0.00    -0.376 OA
BRANCH   3   4
ATOM      4  C   UNL A   1      39.716  23.316  27.260  1.00  0.00     0.202 C 
BRANCH   4   5
ATOM      5  C   UNL A   1      40.001  24.659  26.582  1.00  0.00     0.261 C 
BRANCH   5   6
ATOM      6  O   UNL A   1      39.441  25.802  27.248  1.00  0.00    -0.457 OA
BRANCH   6   7
ATOM      7  C   UNL A   1      40.142  26.380  28.264  1.00  0.00     0.374 C 
ATOM      8  O   UNL A   1      41.114  25.876  28.813  1.00  0.00    -0.242 OA
BRANCH   7   9
ATOM      9  C   UNL A   1      39.603  27.704  28.484  1.00  0.00     0.212 A 
ATOM     10  C   UNL A   1      39.609  29.788  29.246  1.00  0.00     0.162 A 
ATOM     11  C   UNL A   1      38.533  29.674  28.384  1.00  0.00     0.053 A 
ATOM     12  O   UNL A   1      40.230  28.567  29.350  1.00  0.00    -0.448 OA
ATOM     13  C   UNL A   1      38.537  28.353  27.889  1.00  0.00     0.059 A 
BRANCH  10  14
ATOM     14  C   UNL A   1      40.106  30.927  30.106  1.00  0.00     0.248 C 
ATOM     15  C   UNL A   1      40.950  30.452  31.303  1.00  0.00     0.084 C 
BRANCH  14  16
ATOM     16  N   UNL A   1      39.112  31.973  30.464  1.00  0.00    -0.324 N 
ATOM     17  H   UNL A   1      38.632  32.102  29.574  1.00  0.00     0.348 HD
BRANCH  16  18
ATOM     18  C   UNL A   1      38.024  31.639  31.412  1.00  0.00     0.265 C 
BRANCH  18  19
ATOM     19  C   UNL A   1      36.554  31.550  30.941  1.00  0.00     0.038 C 
ATOM     20  C   UNL A   1      35.558  32.062  31.985  1.00  0.00     0.013 C 
ATOM     21  C   UNL A   1      36.370  32.374  29.655  1.00  0.00     0.013 C 
ENDBRANCH  18  19
ENDBRANCH  16  18
BRANCH  16  22
ATOM     22  C   UNL A   1      39.801  33.202  30.960  1.00  0.00     0.185 C 
ATOM     23  C   UNL A   1      39.331  34.575  30.564  1.00  0.00     0.071 C 
ATOM     24  C   UNL A   1      39.107  34.084  31.962  1.00  0.00     0.071 C 
ENDBRANCH  16  22
ENDBRANCH  14  16
ENDBRANCH  10  14
ENDBRANCH   7   9
ENDBRANCH   6   7
ENDBRANCH   5   6
ENDBRANCH   4   5
ENDBRANCH   3   4
ENDBRANCH   2   3
ENDBRANCH   1   2
BRANCH   1  25
ATOM     25  O   UNL A   1      41.874  19.292  25.694  1.00  0.00    -0.377 OA
BRANCH  25  26
ATOM     26  C   UNL A   1      43.158  18.842  25.298  1.00  0.00     0.188 C 
BRANCH  26  27
ATOM     27  C   UNL A   1      44.370  19.779  25.452  1.00  0.00     0.188 C 
BRANCH  27  28
ATOM     28  O   UNL A   1      44.699  20.529  24.285  1.00  0.00    -0.376 OA
BRANCH  28  29
ATOM     29  C   UNL A   1      45.351  21.770  24.519  1.00  0.00     0.202 C 
BRANCH  29  30
ATOM     30  C   UNL A   1      44.625  22.933  23.838  1.00  0.00     0.261 C 
BRANCH  30  31
ATOM     31  O   UNL A   1      44.476  24.094  24.666  1.00  0.00    -0.460 OA
BRANCH  31  32
ATOM     32  C   UNL A   1      45.591  24.832  24.867  1.00  0.00     0.338 C 
ATOM     33  O   UNL A   1      46.634  24.770  24.241  1.00  0.00    -0.246 OA
BRANCH  32  34
ATOM     34  C   UNL A   1      45.272  25.863  25.871  1.00  0.00     0.060 A 
ATOM     35  C   UNL A   1      46.308  26.372  26.663  1.00  0.00     0.016 A 
ATOM     36  C   UNL A   1      43.964  26.334  26.014  1.00  0.00     0.016 A 
ATOM     37  C   UNL A   1      46.033  27.354  27.613  1.00  0.00     0.010 A 
ATOM     38  C   UNL A   1      43.685  27.296  26.983  1.00  0.00     0.010 A 
ATOM     39  C   UNL A   1      44.714  27.791  27.802  1.00  0.00    -0.014 A 
BRANCH  39  40
ATOM     40  C   UNL A   1      44.373  28.600  28.994  1.00  0.00     0.031 A 
ATOM     41  C   UNL A   1      44.289  30.091  28.827  1.00  0.00     0.074 A 
ATOM     42  C   UNL A   1      44.150  28.028  30.189  1.00  0.00     0.049 A 
ATOM     43  N   UNL A   1      44.037  31.015  29.715  1.00  0.00    -0.248 NA
ATOM     44  C   UNL A   1      44.530  30.604  27.470  1.00  0.00     0.031 C 
ATOM     45  C   UNL A   1      44.178  26.592  30.458  1.00  0.00     0.029 A 
ATOM     46  N   UNL A   1      43.862  28.595  31.404  1.00  0.00    -0.354 N 
ATOM     47  C   UNL A   1      44.077  32.220  29.022  1.00  0.00     0.074 A 
ATOM     48  C   UNL A   1      44.424  31.910  27.652  1.00  0.00     0.031 C 
ATOM     49  C   UNL A   1      43.930  26.391  31.765  1.00  0.00     0.029 A 
ATOM     50  C   UNL A   1      43.755  27.683  32.427  1.00  0.00     0.049 A 
ATOM     51  H   UNL A   1      43.745  29.564  31.531  1.00  0.00     0.167 HD
ATOM     52  C   UNL A   1      43.837  33.472  29.485  1.00  0.00     0.034 A 
ATOM     53  C   UNL A   1      43.559  27.878  33.746  1.00  0.00     0.034 A 
ATOM     54  C   UNL A   1      43.537  33.768  30.864  1.00  0.00     0.049 A 
ATOM     55  C   UNL A   1      43.397  29.289  34.261  1.00  0.00     0.074 A 
ATOM     56  C   UNL A   1      43.275  34.994  31.447  1.00  0.00     0.029 A 
ATOM     57  N   UNL A   1      43.484  32.824  31.883  1.00  0.00    -0.354 N 
ATOM     58  N   UNL A   1      43.409  30.421  33.595  1.00  0.00    -0.248 NA
ATOM     59  C   UNL A   1      43.188  29.446  35.707  1.00  0.00     0.031 C 
ATOM     60  C   UNL A   1      43.134  34.800  32.826  1.00  0.00     0.029 A 
ATOM     61  C   UNL A   1      43.230  33.444  33.095  1.00  0.00     0.049 A 
ATOM     62  H   UNL A   1      43.608  31.854  31.760  1.00  0.00     0.167 HD
ATOM     63  C   UNL A   1      43.180  31.422  34.537  1.00  0.00     0.074 A 
ATOM     64  C   UNL A   1      43.025  30.756  35.816  1.00  0.00     0.031 C 
ATOM     65  C   UNL A   1      43.095  32.766  34.364  1.00  0.00     0.034 A 
BRANCH  52  66
ATOM     66  C   UNL A   1      43.956  34.599  28.491  1.00  0.00     0.023 A 
ATOM     67  C   UNL A   1      45.207  35.124  28.118  1.00  0.00     0.031 A 
ATOM     68  C   UNL A   1      42.804  35.205  27.963  1.00  0.00     0.131 A 
ATOM     69  C   UNL A   1      45.273  36.272  27.313  1.00  0.00     0.055 A 
ATOM     70  C   UNL A   1      42.879  36.297  27.096  1.00  0.00     0.041 A 
ATOM     71  F   UNL A   1      41.582  34.765  28.304  1.00  0.00    -0.206 F 
ATOM     72  C   UNL A   1      44.117  36.848  26.781  1.00  0.00     0.022 A 
BRANCH  69  73
ATOM     73  S   UNL A   1      46.877  37.096  27.111  1.00  0.00     0.124 S 
ATOM     74  O   UNL A   1      46.994  37.164  25.657  1.00  0.00    -0.237 OA
ATOM     75  O   UNL A   1      46.668  38.365  27.797  1.00  0.00    -0.237 OA
ATOM     76  O   UNL A   1      47.815  36.182  27.761  1.00  0.00    -0.744 OA
ENDBRANCH  69  73
ENDBRANCH  52  66
BRANCH  53  77
ATOM     77  C   UNL A   1      43.541  26.722  34.687  1.00  0.00     0.023 A 
ATOM     78  C   UNL A   1      44.733  26.134  35.139  1.00  0.00     0.031 A 
ATOM     79  C   UNL A   1      42.325  26.156  35.108  1.00  0.00     0.131 A 
ATOM     80  C   UNL A   1      44.683  24.990  35.953  1.00  0.00     0.055 A 
ATOM     81  C   UNL A   1      42.280  25.047  35.953  1.00  0.00     0.041 A 
ATOM     82  F   UNL A   1      41.156  26.680  34.703  1.00  0.00    -0.206 F 
ATOM     83  C   UNL A   1      43.465  24.450  36.372  1.00  0.00     0.022 A 
BRANCH  80  84
ATOM     84  S   UNL A   1      46.240  24.174  36.403  1.00  0.00     0.124 S 
ATOM     85  O   UNL A   1      45.777  23.134  37.316  1.00  0.00    -0.237 OA
ATOM     86  O   UNL A   1      46.729  23.720  35.106  1.00  0.00    -0.237 OA
ATOM     87  O   UNL A   1      47.019  25.246  37.020  1.00  0.00    -0.744 OA
ENDBRANCH  80  84
ENDBRANCH  53  77
BRANCH  65  88
ATOM     88  C   UNL A   1      42.779  33.597  35.583  1.00  0.00     0.023 A 
ATOM     89  C   UNL A   1      41.471  34.018  35.878  1.00  0.00     0.031 A 
ATOM     90  C   UNL A   1      43.810  33.975  36.464  1.00  0.00     0.131 A 
ATOM     91  C   UNL A   1      41.234  34.832  36.995  1.00  0.00     0.055 A 
ATOM     92  C   UNL A   1      43.559  34.738  37.605  1.00  0.00     0.041 A 
ATOM     93  F   UNL A   1      45.078  33.603  36.230  1.00  0.00    -0.206 F 
ATOM     94  C   UNL A   1      42.267  35.182  37.870  1.00  0.00     0.022 A 
BRANCH  91  95
ATOM     95  S   UNL A   1      39.567  35.502  37.251  1.00  0.00     0.124 S 
ATOM     96  O   UNL A   1      38.972  35.347  35.928  1.00  0.00    -0.237 OA
ATOM     97  O   UNL A   1      39.037  34.630  38.294  1.00  0.00    -0.237 OA
ATOM     98  O   UNL A   1      39.811  36.883  37.663  1.00  0.00    -0.744 OA
ENDBRANCH  91  95
ENDBRANCH  65  88
ENDBRANCH  39  40
ENDBRANCH  32  34
ENDBRANCH  31  32
ENDBRANCH  30  31
ENDBRANCH  29  30
ENDBRANCH  28  29
ENDBRANCH  27  28
ENDBRANCH  26  27
ENDBRANCH  25  26
ENDBRANCH   1  25
TORSDOF 28
ENDMDL
