MODEL 1
REMARK VINA RESULT:      -9.7      0.000      0.000
REMARK SMILES Cc1c(Cl)cc2c(c1C)O[C@@H](C(F)(F)F)C(C(=O)OCCOCCOCCOCCOC(=O)c1ccc(-c3c4nc(c(-c5cc(S(=O)(=O)[O-])ccc5F)c5ccc([nH]5)c(-c5cc(S(=O)(=O)[O-])ccc5F)c5nc(c(-c6cc(S(=O)(=O)[O-])ccc6F)c6ccc3[nH]6)C=C5)C=C4)cc1)=C2
REMARK SMILES IDX 26 1 25 2 24 3 23 4 22 5 21 6 20 7 19 8 17 9 18 10 16 11
REMARK SMILES IDX 1 12 2 13 3 14 8 15 4 16 5 17 7 18 9 19 6 20 10 21 97 22
REMARK SMILES IDX 11 23 12 24 13 25 14 26 15 27 27 28 28 29 29 30 30 31 31 32
REMARK SMILES IDX 32 33 33 34 34 35 35 36 96 37 36 38 95 39 37 40 38 41 39 42
REMARK SMILES IDX 89 43 40 44 94 45 88 46 90 47 41 48 93 49 87 50 86 51 42 53
REMARK SMILES IDX 74 54 54 55 73 56 55 57 58 58 72 59 91 60 56 61 57 62 71 64
REMARK SMILES IDX 92 65 59 66 43 67 44 68 52 69 45 70 51 71 53 72 50 73 46 74
REMARK SMILES IDX 47 75 48 76 49 77 75 78 76 79 84 80 77 81 83 82 85 83 82 84
REMARK SMILES IDX 78 85 79 86 80 87 81 88 60 89 61 90 69 91 62 92 68 93 70 94
REMARK SMILES IDX 67 95 63 96 64 97 65 98 66 99
REMARK H PARENT 90 52 58 63
REMARK Flexibility Score: inf
ROOT
ATOM      1  C   UNL A   1      35.443  30.665  27.617  1.00  0.00     0.188 C 
ENDROOT
BRANCH   1   2
ATOM      2  O   UNL A   1      34.299  29.811  27.601  1.00  0.00    -0.377 OA
BRANCH   2   3
ATOM      3  C   UNL A   1      33.706  29.458  26.364  1.00  0.00     0.188 C 
BRANCH   3   4
ATOM      4  C   UNL A   1      32.333  30.061  26.036  1.00  0.00     0.188 C 
BRANCH   4   5
ATOM      5  O   UNL A   1      31.351  29.085  25.726  1.00  0.00    -0.376 OA
BRANCH   5   6
ATOM      6  C   UNL A   1      31.803  27.748  25.584  1.00  0.00     0.202 C 
BRANCH   6   7
ATOM      7  C   UNL A   1      30.812  26.628  25.943  1.00  0.00     0.261 C 
BRANCH   7   8
ATOM      8  O   UNL A   1      31.318  25.289  25.816  1.00  0.00    -0.460 OA
BRANCH   8   9
ATOM      9  C   UNL A   1      31.076  24.642  24.666  1.00  0.00     0.338 C 
ATOM     10  O   UNL A   1      30.237  24.938  23.830  1.00  0.00    -0.246 OA
BRANCH   9  11
ATOM     11  C   UNL A   1      32.085  23.584  24.476  1.00  0.00     0.087 C 
ATOM     12  C   UNL A   1      35.396  17.967  24.684  1.00  0.00     0.046 C 
ATOM     13  C   UNL A   1      34.427  19.111  24.515  1.00  0.00    -0.026 A 
ATOM     14  C   UNL A   1      33.066  18.879  24.231  1.00  0.00     0.045 A 
ATOM     15  C   UNL A   1      34.860  20.449  24.719  1.00  0.00    -0.004 A 
ATOM     16  Cl  UNL A   1      32.420  17.287  24.011  1.00  0.00    -0.084 Cl
ATOM     17  C   UNL A   1      32.158  19.936  24.145  1.00  0.00     0.032 A 
ATOM     18  C   UNL A   1      33.926  21.505  24.630  1.00  0.00     0.131 A 
ATOM     19  C   UNL A   1      36.304  20.793  24.994  1.00  0.00     0.049 C 
ATOM     20  C   UNL A   1      32.580  21.247  24.360  1.00  0.00     0.019 A 
ATOM     21  O   UNL A   1      34.377  22.772  24.913  1.00  0.00    -0.475 OA
ATOM     22  C   UNL A   1      31.614  22.330  24.409  1.00  0.00     0.027 C 
ATOM     23  C   UNL A   1      33.555  23.907  24.494  1.00  0.00     0.316 C 
BRANCH  23  24
ATOM     24  C   UNL A   1      34.148  24.488  23.196  1.00  0.00     0.430 C 
ATOM     25  F   UNL A   1      34.230  25.836  23.231  1.00  0.00    -0.167 F 
ATOM     26  F   UNL A   1      35.365  23.981  22.913  1.00  0.00    -0.167 F 
ATOM     27  F   UNL A   1      33.353  24.170  22.138  1.00  0.00    -0.167 F 
ENDBRANCH  23  24
ENDBRANCH   9  11
ENDBRANCH   8   9
ENDBRANCH   7   8
ENDBRANCH   6   7
ENDBRANCH   5   6
ENDBRANCH   4   5
ENDBRANCH   3   4
ENDBRANCH   2   3
ENDBRANCH   1   2
BRANCH   1  28
ATOM     28  C   UNL A   1      35.334  32.144  28.055  1.00  0.00     0.188 C 
BRANCH  28  29
ATOM     29  O   UNL A   1      34.021  32.582  28.384  1.00  0.00    -0.376 OA
BRANCH  29  30
ATOM     30  C   UNL A   1      33.572  33.757  27.721  1.00  0.00     0.202 C 
BRANCH  30  31
ATOM     31  C   UNL A   1      33.098  34.872  28.662  1.00  0.00     0.261 C 
BRANCH  31  32
ATOM     32  O   UNL A   1      32.838  34.452  30.011  1.00  0.00    -0.460 OA
BRANCH  32  33
ATOM     33  C   UNL A   1      33.589  35.011  30.984  1.00  0.00     0.338 C 
ATOM     34  O   UNL A   1      33.301  35.965  31.686  1.00  0.00    -0.246 OA
BRANCH  33  35
ATOM     35  C   UNL A   1      34.775  34.159  31.174  1.00  0.00     0.060 A 
ATOM     36  C   UNL A   1      34.642  32.957  31.878  1.00  0.00     0.016 A 
ATOM     37  C   UNL A   1      36.013  34.569  30.678  1.00  0.00     0.016 A 
ATOM     38  C   UNL A   1      35.770  32.173  32.123  1.00  0.00     0.010 A 
ATOM     39  C   UNL A   1      37.143  33.796  30.943  1.00  0.00     0.010 A 
ATOM     40  C   UNL A   1      37.030  32.616  31.697  1.00  0.00    -0.014 A 
BRANCH  40  41
ATOM     41  C   UNL A   1      38.250  31.974  32.234  1.00  0.00     0.031 A 
ATOM     42  C   UNL A   1      38.894  30.891  31.413  1.00  0.00     0.074 A 
ATOM     43  C   UNL A   1      38.786  32.356  33.406  1.00  0.00     0.049 A 
ATOM     44  N   UNL A   1      39.922  30.135  31.694  1.00  0.00    -0.248 NA
ATOM     45  C   UNL A   1      38.293  30.626  30.094  1.00  0.00     0.031 C 
ATOM     46  C   UNL A   1      38.287  33.438  34.252  1.00  0.00     0.029 A 
ATOM     47  N   UNL A   1      39.877  31.873  34.083  1.00  0.00    -0.354 N 
ATOM     48  C   UNL A   1      40.098  29.313  30.587  1.00  0.00     0.074 A 
ATOM     49  C   UNL A   1      39.050  29.638  29.644  1.00  0.00     0.031 C 
ATOM     50  C   UNL A   1      39.072  33.536  35.340  1.00  0.00     0.029 A 
ATOM     51  C   UNL A   1      40.104  32.501  35.284  1.00  0.00     0.049 A 
ATOM     52  H   UNL A   1      40.444  31.144  33.741  1.00  0.00     0.167 HD
ATOM     53  C   UNL A   1      41.053  28.378  30.373  1.00  0.00     0.034 A 
ATOM     54  C   UNL A   1      41.027  32.251  36.235  1.00  0.00     0.034 A 
ATOM     55  C   UNL A   1      42.076  28.046  31.328  1.00  0.00     0.049 A 
ATOM     56  C   UNL A   1      42.008  31.123  36.026  1.00  0.00     0.074 A 
ATOM     57  C   UNL A   1      43.078  27.099  31.223  1.00  0.00     0.029 A 
ATOM     58  N   UNL A   1      42.224  28.650  32.570  1.00  0.00    -0.354 N 
ATOM     59  N   UNL A   1      42.137  30.321  34.995  1.00  0.00    -0.248 NA
ATOM     60  C   UNL A   1      42.962  30.863  37.114  1.00  0.00     0.031 C 
ATOM     61  C   UNL A   1      43.795  27.089  32.423  1.00  0.00     0.029 A 
ATOM     62  C   UNL A   1      43.284  28.075  33.251  1.00  0.00     0.049 A 
ATOM     63  H   UNL A   1      41.659  29.378  32.916  1.00  0.00     0.167 HD
ATOM     64  C   UNL A   1      43.199  29.475  35.302  1.00  0.00     0.074 A 
ATOM     65  C   UNL A   1      43.679  29.867  36.611  1.00  0.00     0.031 C 
ATOM     66  C   UNL A   1      43.734  28.467  34.565  1.00  0.00     0.034 A 
BRANCH  53  67
ATOM     67  C   UNL A   1      40.998  27.623  29.073  1.00  0.00     0.023 A 
ATOM     68  C   UNL A   1      41.861  27.931  28.008  1.00  0.00     0.031 A 
ATOM     69  C   UNL A   1      40.065  26.587  28.894  1.00  0.00     0.131 A 
ATOM     70  C   UNL A   1      41.745  27.239  26.794  1.00  0.00     0.055 A 
ATOM     71  C   UNL A   1      39.996  25.860  27.705  1.00  0.00     0.041 A 
ATOM     72  F   UNL A   1      39.201  26.269  29.872  1.00  0.00    -0.206 F 
ATOM     73  C   UNL A   1      40.834  26.190  26.643  1.00  0.00     0.022 A 
BRANCH  70  74
ATOM     74  S   UNL A   1      42.745  27.782  25.383  1.00  0.00     0.124 S 
ATOM     75  O   UNL A   1      42.883  26.542  24.624  1.00  0.00    -0.237 OA
ATOM     76  O   UNL A   1      41.908  28.811  24.777  1.00  0.00    -0.237 OA
ATOM     77  O   UNL A   1      43.977  28.267  26.002  1.00  0.00    -0.744 OA
ENDBRANCH  70  74
ENDBRANCH  53  67
BRANCH  54  78
ATOM     78  C   UNL A   1      41.048  33.053  37.489  1.00  0.00     0.023 A 
ATOM     79  C   UNL A   1      40.281  32.675  38.602  1.00  0.00     0.031 A 
ATOM     80  C   UNL A   1      41.821  34.225  37.582  1.00  0.00     0.131 A 
ATOM     81  C   UNL A   1      40.287  33.474  39.756  1.00  0.00     0.055 A 
ATOM     82  C   UNL A   1      41.850  34.996  38.744  1.00  0.00     0.041 A 
ATOM     83  F   UNL A   1      42.571  34.628  36.544  1.00  0.00    -0.206 F 
ATOM     84  C   UNL A   1      41.075  34.626  39.839  1.00  0.00     0.022 A 
BRANCH  81  85
ATOM     85  S   UNL A   1      39.223  33.004  41.148  1.00  0.00     0.124 S 
ATOM     86  O   UNL A   1      39.745  33.846  42.218  1.00  0.00    -0.237 OA
ATOM     87  O   UNL A   1      37.897  33.348  40.648  1.00  0.00    -0.237 OA
ATOM     88  O   UNL A   1      39.475  31.572  41.299  1.00  0.00    -0.744 OA
ENDBRANCH  81  85
ENDBRANCH  54  78
BRANCH  66  89
ATOM     89  C   UNL A   1      44.915  27.735  35.146  1.00  0.00     0.023 A 
ATOM     90  C   UNL A   1      44.747  26.675  36.053  1.00  0.00     0.031 A 
ATOM     91  C   UNL A   1      46.221  28.074  34.751  1.00  0.00     0.131 A 
ATOM     92  C   UNL A   1      45.872  26.010  36.561  1.00  0.00     0.055 A 
ATOM     93  C   UNL A   1      47.333  27.378  35.223  1.00  0.00     0.041 A 
ATOM     94  F   UNL A   1      46.432  29.077  33.884  1.00  0.00    -0.206 F 
ATOM     95  C   UNL A   1      47.162  26.342  36.138  1.00  0.00     0.022 A 
BRANCH  92  96
ATOM     96  S   UNL A   1      45.632  24.723  37.817  1.00  0.00     0.124 S 
ATOM     97  O   UNL A   1      44.373  25.133  38.431  1.00  0.00    -0.237 OA
ATOM     98  O   UNL A   1      45.582  23.505  37.014  1.00  0.00    -0.237 OA
ATOM     99  O   UNL A   1      46.811  24.852  38.670  1.00  0.00    -0.744 OA
ENDBRANCH  92  96
ENDBRANCH  66  89
ENDBRANCH  40  41
ENDBRANCH  33  35
ENDBRANCH  32  33
ENDBRANCH  31  32
ENDBRANCH  30  31
ENDBRANCH  29  30
ENDBRANCH  28  29
ENDBRANCH   1  28
TORSDOF 24
ENDMDL
MODEL 2
REMARK VINA RESULT:      -9.7      1.310      7.598
REMARK SMILES Cc1c(Cl)cc2c(c1C)O[C@@H](C(F)(F)F)C(C(=O)OCCOCCOCCOCCOC(=O)c1ccc(-c3c4nc(c(-c5cc(S(=O)(=O)[O-])ccc5F)c5ccc([nH]5)c(-c5cc(S(=O)(=O)[O-])ccc5F)c5nc(c(-c6cc(S(=O)(=O)[O-])ccc6F)c6ccc3[nH]6)C=C5)C=C4)cc1)=C2
REMARK SMILES IDX 26 1 25 2 24 3 23 4 22 5 21 6 20 7 19 8 17 9 18 10 16 11
REMARK SMILES IDX 1 12 2 13 3 14 8 15 4 16 5 17 7 18 9 19 6 20 10 21 97 22
REMARK SMILES IDX 11 23 12 24 13 25 14 26 15 27 27 28 28 29 29 30 30 31 31 32
REMARK SMILES IDX 32 33 33 34 34 35 35 36 96 37 36 38 95 39 37 40 38 41 39 42
REMARK SMILES IDX 89 43 40 44 94 45 88 46 90 47 41 48 93 49 87 50 86 51 42 53
REMARK SMILES IDX 74 54 54 55 73 56 55 57 58 58 72 59 91 60 56 61 57 62 71 64
REMARK SMILES IDX 92 65 59 66 43 67 44 68 52 69 45 70 51 71 53 72 50 73 46 74
REMARK SMILES IDX 47 75 48 76 49 77 75 78 76 79 84 80 77 81 83 82 85 83 82 84
REMARK SMILES IDX 78 85 79 86 80 87 81 88 60 89 61 90 69 91 62 92 68 93 70 94
REMARK SMILES IDX 67 95 63 96 64 97 65 98 66 99
REMARK H PARENT 90 52 58 63
REMARK Flexibility Score: inf
ROOT
ATOM      1  C   UNL A   1      34.922  31.131  27.918  1.00  0.00     0.188 C 
ENDROOT
BRANCH   1   2
ATOM      2  O   UNL A   1      33.639  30.597  27.591  1.00  0.00    -0.377 OA
BRANCH   2   3
ATOM      3  C   UNL A   1      33.542  29.519  26.676  1.00  0.00     0.188 C 
BRANCH   3   4
ATOM      4  C   UNL A   1      32.571  29.672  25.497  1.00  0.00     0.188 C 
BRANCH   4   5
ATOM      5  O   UNL A   1      31.442  28.818  25.584  1.00  0.00    -0.376 OA
BRANCH   5   6
ATOM      6  C   UNL A   1      31.634  27.572  26.236  1.00  0.00     0.202 C 
BRANCH   6   7
ATOM      7  C   UNL A   1      30.676  26.428  25.865  1.00  0.00     0.261 C 
BRANCH   7   8
ATOM      8  O   UNL A   1      31.279  25.131  25.738  1.00  0.00    -0.460 OA
BRANCH   8   9
ATOM      9  C   UNL A   1      31.093  24.471  24.584  1.00  0.00     0.338 C 
ATOM     10  O   UNL A   1      30.284  24.747  23.714  1.00  0.00    -0.246 OA
BRANCH   9  11
ATOM     11  C   UNL A   1      32.127  23.429  24.443  1.00  0.00     0.087 C 
ATOM     12  C   UNL A   1      35.487  17.846  24.759  1.00  0.00     0.046 C 
ATOM     13  C   UNL A   1      34.518  18.983  24.548  1.00  0.00    -0.026 A 
ATOM     14  C   UNL A   1      33.183  18.742  24.163  1.00  0.00     0.045 A 
ATOM     15  C   UNL A   1      34.918  20.321  24.812  1.00  0.00    -0.004 A 
ATOM     16  Cl  UNL A   1      32.574  17.149  23.862  1.00  0.00    -0.084 Cl
ATOM     17  C   UNL A   1      32.269  19.791  24.037  1.00  0.00     0.032 A 
ATOM     18  C   UNL A   1      33.979  21.368  24.680  1.00  0.00     0.131 A 
ATOM     19  C   UNL A   1      36.335  20.674  25.195  1.00  0.00     0.049 C 
ATOM     20  C   UNL A   1      32.659  21.101  24.310  1.00  0.00     0.019 A 
ATOM     21  O   UNL A   1      34.393  22.633  25.022  1.00  0.00    -0.475 OA
ATOM     22  C   UNL A   1      31.678  22.172  24.315  1.00  0.00     0.027 C 
ATOM     23  C   UNL A   1      33.588  23.768  24.572  1.00  0.00     0.316 C 
BRANCH  23  24
ATOM     24  C   UNL A   1      34.263  24.385  23.332  1.00  0.00     0.430 C 
ATOM     25  F   UNL A   1      34.125  25.729  23.292  1.00  0.00    -0.167 F 
ATOM     26  F   UNL A   1      35.573  24.076  23.251  1.00  0.00    -0.167 F 
ATOM     27  F   UNL A   1      33.691  23.897  22.198  1.00  0.00    -0.167 F 
ENDBRANCH  23  24
ENDBRANCH   9  11
ENDBRANCH   8   9
ENDBRANCH   7   8
ENDBRANCH   6   7
ENDBRANCH   5   6
ENDBRANCH   4   5
ENDBRANCH   3   4
ENDBRANCH   2   3
ENDBRANCH   1   2
BRANCH   1  28
ATOM     28  C   UNL A   1      35.077  32.572  28.457  1.00  0.00     0.188 C 
BRANCH  28  29
ATOM     29  O   UNL A   1      33.862  33.293  28.614  1.00  0.00    -0.376 OA
BRANCH  29  30
ATOM     30  C   UNL A   1      33.896  34.662  28.228  1.00  0.00     0.202 C 
BRANCH  30  31
ATOM     31  C   UNL A   1      33.193  35.612  29.207  1.00  0.00     0.261 C 
BRANCH  31  32
ATOM     32  O   UNL A   1      32.610  34.972  30.354  1.00  0.00    -0.460 OA
BRANCH  32  33
ATOM     33  C   UNL A   1      32.741  35.601  31.541  1.00  0.00     0.338 C 
ATOM     34  O   UNL A   1      32.001  36.444  32.017  1.00  0.00    -0.246 OA
BRANCH  33  35
ATOM     35  C   UNL A   1      33.861  34.969  32.257  1.00  0.00     0.060 A 
ATOM     36  C   UNL A   1      35.116  35.591  32.240  1.00  0.00     0.016 A 
ATOM     37  C   UNL A   1      33.669  33.755  32.917  1.00  0.00     0.016 A 
ATOM     38  C   UNL A   1      36.201  34.970  32.857  1.00  0.00     0.010 A 
ATOM     39  C   UNL A   1      34.761  33.124  33.514  1.00  0.00     0.010 A 
ATOM     40  C   UNL A   1      36.036  33.712  33.454  1.00  0.00    -0.014 A 
BRANCH  40  41
ATOM     41  C   UNL A   1      37.226  32.908  33.808  1.00  0.00     0.031 A 
ATOM     42  C   UNL A   1      37.964  33.264  35.070  1.00  0.00     0.074 A 
ATOM     43  C   UNL A   1      37.629  31.878  33.045  1.00  0.00     0.049 A 
ATOM     44  N   UNL A   1      39.066  32.759  35.557  1.00  0.00    -0.248 NA
ATOM     45  C   UNL A   1      37.376  34.335  35.892  1.00  0.00     0.031 C 
ATOM     46  C   UNL A   1      36.954  31.403  31.839  1.00  0.00     0.029 A 
ATOM     47  N   UNL A   1      38.709  31.042  33.179  1.00  0.00    -0.354 N 
ATOM     48  C   UNL A   1      39.299  33.442  36.746  1.00  0.00     0.074 A 
ATOM     49  C   UNL A   1      38.244  34.421  36.888  1.00  0.00     0.031 C 
ATOM     50  C   UNL A   1      37.637  30.356  31.342  1.00  0.00     0.029 A 
ATOM     51  C   UNL A   1      38.817  30.114  32.172  1.00  0.00     0.049 A 
ATOM     52  H   UNL A   1      39.347  31.103  33.926  1.00  0.00     0.167 HD
ATOM     53  C   UNL A   1      40.298  33.263  37.640  1.00  0.00     0.034 A 
ATOM     54  C   UNL A   1      39.771  29.190  31.940  1.00  0.00     0.034 A 
ATOM     55  C   UNL A   1      41.357  32.302  37.477  1.00  0.00     0.049 A 
ATOM     56  C   UNL A   1      40.940  29.089  32.890  1.00  0.00     0.074 A 
ATOM     57  C   UNL A   1      42.432  32.055  38.310  1.00  0.00     0.029 A 
ATOM     58  N   UNL A   1      41.476  31.433  36.401  1.00  0.00    -0.354 N 
ATOM     59  N   UNL A   1      41.175  29.771  33.986  1.00  0.00    -0.248 NA
ATOM     60  C   UNL A   1      41.976  28.098  32.564  1.00  0.00     0.031 C 
ATOM     61  C   UNL A   1      43.232  31.077  37.711  1.00  0.00     0.029 A 
ATOM     62  C   UNL A   1      42.622  30.667  36.536  1.00  0.00     0.049 A 
ATOM     63  H   UNL A   1      40.841  31.371  35.651  1.00  0.00     0.167 HD
ATOM     64  C   UNL A   1      42.375  29.279  34.491  1.00  0.00     0.074 A 
ATOM     65  C   UNL A   1      42.812  28.238  33.584  1.00  0.00     0.031 C 
ATOM     66  C   UNL A   1      43.051  29.648  35.609  1.00  0.00     0.034 A 
BRANCH  53  67
ATOM     67  C   UNL A   1      40.309  34.159  38.849  1.00  0.00     0.023 A 
ATOM     68  C   UNL A   1      39.461  33.925  39.944  1.00  0.00     0.031 A 
ATOM     69  C   UNL A   1      41.174  35.266  38.902  1.00  0.00     0.131 A 
ATOM     70  C   UNL A   1      39.463  34.812  41.030  1.00  0.00     0.055 A 
ATOM     71  C   UNL A   1      41.215  36.110  40.012  1.00  0.00     0.041 A 
ATOM     72  F   UNL A   1      41.986  35.548  37.871  1.00  0.00    -0.206 F 
ATOM     73  C   UNL A   1      40.351  35.890  41.081  1.00  0.00     0.022 A 
BRANCH  70  74
ATOM     74  S   UNL A   1      38.232  34.588  42.341  1.00  0.00     0.124 S 
ATOM     75  O   UNL A   1      36.996  34.486  41.570  1.00  0.00    -0.237 OA
ATOM     76  O   UNL A   1      38.680  33.362  42.992  1.00  0.00    -0.237 OA
ATOM     77  O   UNL A   1      38.360  35.803  43.144  1.00  0.00    -0.744 OA
ENDBRANCH  70  74
ENDBRANCH  53  67
BRANCH  54  78
ATOM     78  C   UNL A   1      39.689  28.311  30.741  1.00  0.00     0.023 A 
ATOM     79  C   UNL A   1      40.350  28.650  29.550  1.00  0.00     0.031 A 
ATOM     80  C   UNL A   1      38.927  27.130  30.764  1.00  0.00     0.131 A 
ATOM     81  C   UNL A   1      40.221  27.825  28.422  1.00  0.00     0.055 A 
ATOM     82  C   UNL A   1      38.830  26.295  29.650  1.00  0.00     0.041 A 
ATOM     83  F   UNL A   1      38.276  26.763  31.879  1.00  0.00    -0.206 F 
ATOM     84  C   UNL A   1      39.474  26.644  28.467  1.00  0.00     0.022 A 
BRANCH  81  85
ATOM     85  S   UNL A   1      41.020  28.332  26.874  1.00  0.00     0.124 S 
ATOM     86  O   UNL A   1      41.109  27.065  26.157  1.00  0.00    -0.237 OA
ATOM     87  O   UNL A   1      40.071  29.305  26.345  1.00  0.00    -0.237 OA
ATOM     88  O   UNL A   1      42.295  28.890  27.318  1.00  0.00    -0.744 OA
ENDBRANCH  81  85
ENDBRANCH  54  78
BRANCH  66  89
ATOM     89  C   UNL A   1      44.323  28.907  35.927  1.00  0.00     0.023 A 
ATOM     90  C   UNL A   1      44.329  27.795  36.786  1.00  0.00     0.031 A 
ATOM     91  C   UNL A   1      45.535  29.293  35.327  1.00  0.00     0.131 A 
ATOM     92  C   UNL A   1      45.533  27.124  37.045  1.00  0.00     0.055 A 
ATOM     93  C   UNL A   1      46.720  28.593  35.552  1.00  0.00     0.041 A 
ATOM     94  F   UNL A   1      45.579  30.347  34.496  1.00  0.00    -0.206 F 
ATOM     95  C   UNL A   1      46.724  27.504  36.421  1.00  0.00     0.022 A 
BRANCH  92  96
ATOM     96  S   UNL A   1      45.533  25.765  38.246  1.00  0.00     0.124 S 
ATOM     97  O   UNL A   1      44.585  24.832  37.645  1.00  0.00    -0.237 OA
ATOM     98  O   UNL A   1      46.930  25.342  38.243  1.00  0.00    -0.237 OA
ATOM     99  O   UNL A   1      45.082  26.398  39.483  1.00  0.00    -0.744 OA
ENDBRANCH  92  96
ENDBRANCH  66  89
ENDBRANCH  40  41
ENDBRANCH  33  35
ENDBRANCH  32  33
ENDBRANCH  31  32
ENDBRANCH  30  31
ENDBRANCH  29  30
ENDBRANCH  28  29
ENDBRANCH   1  28
TORSDOF 24
ENDMDL
MODEL 3
REMARK VINA RESULT:      -9.1      5.796      8.796
REMARK SMILES Cc1c(Cl)cc2c(c1C)O[C@@H](C(F)(F)F)C(C(=O)OCCOCCOCCOCCOC(=O)c1ccc(-c3c4nc(c(-c5cc(S(=O)(=O)[O-])ccc5F)c5ccc([nH]5)c(-c5cc(S(=O)(=O)[O-])ccc5F)c5nc(c(-c6cc(S(=O)(=O)[O-])ccc6F)c6ccc3[nH]6)C=C5)C=C4)cc1)=C2
REMARK SMILES IDX 26 1 25 2 24 3 23 4 22 5 21 6 20 7 19 8 17 9 18 10 16 11
REMARK SMILES IDX 1 12 2 13 3 14 8 15 4 16 5 17 7 18 9 19 6 20 10 21 97 22
REMARK SMILES IDX 11 23 12 24 13 25 14 26 15 27 27 28 28 29 29 30 30 31 31 32
REMARK SMILES IDX 32 33 33 34 34 35 35 36 96 37 36 38 95 39 37 40 38 41 39 42
REMARK SMILES IDX 89 43 40 44 94 45 88 46 90 47 41 48 93 49 87 50 86 51 42 53
REMARK SMILES IDX 74 54 54 55 73 56 55 57 58 58 72 59 91 60 56 61 57 62 71 64
REMARK SMILES IDX 92 65 59 66 43 67 44 68 52 69 45 70 51 71 53 72 50 73 46 74
REMARK SMILES IDX 47 75 48 76 49 77 75 78 76 79 84 80 77 81 83 82 85 83 82 84
REMARK SMILES IDX 78 85 79 86 80 87 81 88 60 89 61 90 69 91 62 92 68 93 70 94
REMARK SMILES IDX 67 95 63 96 64 97 65 98 66 99
REMARK H PARENT 90 52 58 63
REMARK Flexibility Score: inf
ROOT
ATOM      1  C   UNL A   1      38.237  29.568  28.347  1.00  0.00     0.188 C 
ENDROOT
BRANCH   1   2
ATOM      2  O   UNL A   1      36.985  29.664  27.667  1.00  0.00    -0.377 OA
BRANCH   2   3
ATOM      3  C   UNL A   1      35.844  30.134  28.365  1.00  0.00     0.188 C 
BRANCH   3   4
ATOM      4  C   UNL A   1      34.936  31.141  27.644  1.00  0.00     0.188 C 
BRANCH   4   5
ATOM      5  O   UNL A   1      33.677  30.598  27.277  1.00  0.00    -0.376 OA
BRANCH   5   6
ATOM      6  C   UNL A   1      33.696  29.388  26.535  1.00  0.00     0.202 C 
BRANCH   6   7
ATOM      7  C   UNL A   1      32.841  29.332  25.258  1.00  0.00     0.261 C 
BRANCH   7   8
ATOM      8  O   UNL A   1      33.273  28.390  24.264  1.00  0.00    -0.460 OA
BRANCH   8   9
ATOM      9  C   UNL A   1      32.347  27.573  23.740  1.00  0.00     0.338 C 
ATOM     10  O   UNL A   1      31.497  27.873  22.918  1.00  0.00    -0.246 OA
BRANCH   9  11
ATOM     11  C   UNL A   1      32.597  26.193  24.196  1.00  0.00     0.087 C 
ATOM     12  C   UNL A   1      34.877  20.113  24.825  1.00  0.00     0.046 C 
ATOM     13  C   UNL A   1      34.618  21.596  24.725  1.00  0.00    -0.026 A 
ATOM     14  C   UNL A   1      35.677  22.513  24.562  1.00  0.00     0.045 A 
ATOM     15  C   UNL A   1      33.285  22.089  24.715  1.00  0.00    -0.004 A 
ATOM     16  Cl  UNL A   1      37.336  22.019  24.512  1.00  0.00    -0.084 Cl
ATOM     17  C   UNL A   1      35.429  23.878  24.399  1.00  0.00     0.032 A 
ATOM     18  C   UNL A   1      33.055  23.472  24.547  1.00  0.00     0.131 A 
ATOM     19  C   UNL A   1      32.093  21.185  24.917  1.00  0.00     0.049 C 
ATOM     20  C   UNL A   1      34.121  24.358  24.375  1.00  0.00     0.019 A 
ATOM     21  O   UNL A   1      31.748  23.889  24.466  1.00  0.00    -0.475 OA
ATOM     22  C   UNL A   1      33.857  25.753  24.067  1.00  0.00     0.027 C 
ATOM     23  C   UNL A   1      31.464  25.312  24.649  1.00  0.00     0.316 C 
BRANCH  23  24
ATOM     24  C   UNL A   1      30.956  25.529  26.088  1.00  0.00     0.430 C 
ATOM     25  F   UNL A   1      31.606  26.535  26.712  1.00  0.00    -0.167 F 
ATOM     26  F   UNL A   1      29.630  25.766  26.136  1.00  0.00    -0.167 F 
ATOM     27  F   UNL A   1      31.164  24.407  26.829  1.00  0.00    -0.167 F 
ENDBRANCH  23  24
ENDBRANCH   9  11
ENDBRANCH   8   9
ENDBRANCH   7   8
ENDBRANCH   6   7
ENDBRANCH   5   6
ENDBRANCH   4   5
ENDBRANCH   3   4
ENDBRANCH   2   3
ENDBRANCH   1   2
BRANCH   1  28
ATOM     28  C   UNL A   1      38.770  28.210  28.857  1.00  0.00     0.188 C 
BRANCH  28  29
ATOM     29  O   UNL A   1      38.955  27.217  27.855  1.00  0.00    -0.376 OA
BRANCH  29  30
ATOM     30  C   UNL A   1      39.873  26.177  28.171  1.00  0.00     0.202 C 
BRANCH  30  31
ATOM     31  C   UNL A   1      40.458  25.459  26.948  1.00  0.00     0.261 C 
BRANCH  31  32
ATOM     32  O   UNL A   1      41.893  25.410  26.907  1.00  0.00    -0.460 OA
BRANCH  32  33
ATOM     33  C   UNL A   1      42.506  26.130  25.944  1.00  0.00     0.338 C 
ATOM     34  O   UNL A   1      42.636  25.834  24.769  1.00  0.00    -0.246 OA
BRANCH  33  35
ATOM     35  C   UNL A   1      42.857  27.437  26.523  1.00  0.00     0.060 A 
ATOM     36  C   UNL A   1      43.773  27.488  27.580  1.00  0.00     0.016 A 
ATOM     37  C   UNL A   1      42.260  28.599  26.033  1.00  0.00     0.016 A 
ATOM     38  C   UNL A   1      44.064  28.712  28.182  1.00  0.00     0.010 A 
ATOM     39  C   UNL A   1      42.534  29.819  26.650  1.00  0.00     0.010 A 
ATOM     40  C   UNL A   1      43.408  29.873  27.749  1.00  0.00    -0.014 A 
BRANCH  40  41
ATOM     41  C   UNL A   1      43.455  31.094  28.583  1.00  0.00     0.031 A 
ATOM     42  C   UNL A   1      44.498  32.129  28.257  1.00  0.00     0.074 A 
ATOM     43  C   UNL A   1      42.585  31.291  29.588  1.00  0.00     0.049 A 
ATOM     44  N   UNL A   1      44.785  33.243  28.876  1.00  0.00    -0.248 NA
ATOM     45  C   UNL A   1      45.328  31.868  27.068  1.00  0.00     0.031 C 
ATOM     46  C   UNL A   1      41.494  30.390  29.951  1.00  0.00     0.029 A 
ATOM     47  N   UNL A   1      42.484  32.324  30.486  1.00  0.00    -0.354 N 
ATOM     48  C   UNL A   1      45.819  33.821  28.150  1.00  0.00     0.074 A 
ATOM     49  C   UNL A   1      46.134  32.918  27.064  1.00  0.00     0.031 C 
ATOM     50  C   UNL A   1      40.830  30.910  30.999  1.00  0.00     0.029 A 
ATOM     51  C   UNL A   1      41.475  32.160  31.404  1.00  0.00     0.049 A 
ATOM     52  H   UNL A   1      43.079  33.108  30.474  1.00  0.00     0.167 HD
ATOM     53  C   UNL A   1      46.445  35.001  28.365  1.00  0.00     0.034 A 
ATOM     54  C   UNL A   1      41.127  32.924  32.459  1.00  0.00     0.034 A 
ATOM     55  C   UNL A   1      46.140  35.880  29.462  1.00  0.00     0.049 A 
ATOM     56  C   UNL A   1      41.917  34.177  32.749  1.00  0.00     0.074 A 
ATOM     57  C   UNL A   1      46.729  37.088  29.787  1.00  0.00     0.029 A 
ATOM     58  N   UNL A   1      45.164  35.640  30.419  1.00  0.00    -0.354 N 
ATOM     59  N   UNL A   1      42.924  34.691  32.082  1.00  0.00    -0.248 NA
ATOM     60  C   UNL A   1      41.527  34.947  33.939  1.00  0.00     0.031 C 
ATOM     61  C   UNL A   1      46.149  37.551  30.972  1.00  0.00     0.029 A 
ATOM     62  C   UNL A   1      45.153  36.665  31.351  1.00  0.00     0.049 A 
ATOM     63  H   UNL A   1      44.568  34.857  30.435  1.00  0.00     0.167 HD
ATOM     64  C   UNL A   1      43.275  35.855  32.761  1.00  0.00     0.074 A 
ATOM     65  C   UNL A   1      42.369  35.971  33.885  1.00  0.00     0.031 C 
ATOM     66  C   UNL A   1      44.254  36.752  32.476  1.00  0.00     0.034 A 
BRANCH  53  67
ATOM     67  C   UNL A   1      47.549  35.379  27.415  1.00  0.00     0.023 A 
ATOM     68  C   UNL A   1      48.865  34.920  27.599  1.00  0.00     0.031 A 
ATOM     69  C   UNL A   1      47.284  36.214  26.316  1.00  0.00     0.131 A 
ATOM     70  C   UNL A   1      49.877  35.335  26.722  1.00  0.00     0.055 A 
ATOM     71  C   UNL A   1      48.284  36.573  25.411  1.00  0.00     0.041 A 
ATOM     72  F   UNL A   1      46.049  36.699  26.109  1.00  0.00    -0.206 F 
ATOM     73  C   UNL A   1      49.590  36.140  25.616  1.00  0.00     0.022 A 
BRANCH  70  74
ATOM     74  S   UNL A   1      51.592  34.877  27.092  1.00  0.00     0.124 S 
ATOM     75  O   UNL A   1      51.995  34.219  25.852  1.00  0.00    -0.237 OA
ATOM     76  O   UNL A   1      52.214  36.167  27.360  1.00  0.00    -0.237 OA
ATOM     77  O   UNL A   1      51.468  33.991  28.248  1.00  0.00    -0.744 OA
ENDBRANCH  70  74
ENDBRANCH  53  67
BRANCH  54  78
ATOM     78  C   UNL A   1      40.005  32.511  33.347  1.00  0.00     0.023 A 
ATOM     79  C   UNL A   1      38.747  33.127  33.255  1.00  0.00     0.031 A 
ATOM     80  C   UNL A   1      40.184  31.508  34.316  1.00  0.00     0.131 A 
ATOM     81  C   UNL A   1      37.720  32.748  34.134  1.00  0.00     0.055 A 
ATOM     82  C   UNL A   1      39.150  31.111  35.164  1.00  0.00     0.041 A 
ATOM     83  F   UNL A   1      41.370  30.890  34.442  1.00  0.00    -0.206 F 
ATOM     84  C   UNL A   1      37.910  31.736  35.080  1.00  0.00     0.022 A 
BRANCH  81  85
ATOM     85  S   UNL A   1      36.131  33.618  34.046  1.00  0.00     0.124 S 
ATOM     86  O   UNL A   1      35.341  32.711  33.221  1.00  0.00    -0.237 OA
ATOM     87  O   UNL A   1      35.751  33.702  35.452  1.00  0.00    -0.237 OA
ATOM     88  O   UNL A   1      36.476  34.893  33.421  1.00  0.00    -0.744 OA
ENDBRANCH  81  85
ENDBRANCH  54  78
BRANCH  66  89
ATOM     89  C   UNL A   1      44.382  37.950  33.381  1.00  0.00     0.023 A 
ATOM     90  C   UNL A   1      43.737  39.162  33.087  1.00  0.00     0.031 A 
ATOM     91  C   UNL A   1      45.122  37.859  34.573  1.00  0.00     0.131 A 
ATOM     92  C   UNL A   1      43.870  40.250  33.962  1.00  0.00     0.055 A 
ATOM     93  C   UNL A   1      45.211  38.929  35.463  1.00  0.00     0.041 A 
ATOM     94  F   UNL A   1      45.753  36.720  34.899  1.00  0.00    -0.206 F 
ATOM     95  C   UNL A   1      44.587  40.136  35.156  1.00  0.00     0.022 A 
BRANCH  92  96
ATOM     96  S   UNL A   1      43.122  41.838  33.501  1.00  0.00     0.124 S 
ATOM     97  O   UNL A   1      43.752  42.753  34.447  1.00  0.00    -0.237 OA
ATOM     98  O   UNL A   1      43.529  41.984  32.107  1.00  0.00    -0.237 OA
ATOM     99  O   UNL A   1      41.693  41.617  33.707  1.00  0.00    -0.744 OA
ENDBRANCH  92  96
ENDBRANCH  66  89
ENDBRANCH  40  41
ENDBRANCH  33  35
ENDBRANCH  32  33
ENDBRANCH  31  32
ENDBRANCH  30  31
ENDBRANCH  29  30
ENDBRANCH  28  29
ENDBRANCH   1  28
TORSDOF 24
ENDMDL
