MODEL 1
REMARK VINA RESULT:      -7.7      0.000      0.000
REMARK SMILES CCOC(=O)c1c(-c2cccs2)csc1NC(=O)[C@@H]1CC=CC[C@@H]1C(=O)OCCOCCOCCOCCOC(=O)c1ccc(-c2c3nc(c(-c4cc(S(=O)(=O)[O-])ccc4F)c4ccc([nH]4)c(-c4cc(S(=O)(=O)[O-])ccc4F)c4nc(c(-c5cc(S(=O)(=O)[O-])ccc5F)c5ccc2[nH]5)C=C4)C=C3)cc1
REMARK SMILES IDX 32 1 31 2 30 3 29 4 28 5 27 6 25 7 26 8 24 9 19 10 20 11
REMARK SMILES IDX 21 12 23 13 22 14 17 15 16 16 18 18 15 19 6 20 7 21 13 22
REMARK SMILES IDX 14 23 4 24 5 25 3 26 2 27 1 28 8 29 9 30 12 31 10 32 11 33
REMARK SMILES IDX 33 34 34 35 35 36 36 37 37 38 38 39 39 40 40 41 41 42 42 43
REMARK SMILES IDX 43 44 104 45 44 46 103 47 45 48 46 49 47 50 97 51 48 52
REMARK SMILES IDX 102 53 96 54 98 55 49 56 101 57 95 58 94 59 50 61 82 62
REMARK SMILES IDX 62 63 81 64 63 65 66 66 80 67 99 68 64 69 65 70 79 72 100 73
REMARK SMILES IDX 67 74 51 75 52 76 60 77 53 78 59 79 61 80 58 81 54 82 55 83
REMARK SMILES IDX 56 84 57 85 83 86 84 87 92 88 85 89 91 90 93 91 90 92 86 93
REMARK SMILES IDX 87 94 88 95 89 96 68 97 69 98 77 99 70 100 76 101 78 102
REMARK SMILES IDX 75 103 71 104 72 105 73 106 74 107
REMARK H PARENT 16 17 98 60 66 71
REMARK Flexibility Score: inf
ROOT
ATOM      1  C   UNL A   1      41.859  39.923  28.211  1.00  0.00     0.188 C 
ENDROOT
BRANCH   1   2
ATOM      2  C   UNL A   1      41.255  40.005  26.809  1.00  0.00     0.188 C 
BRANCH   2   3
ATOM      3  O   UNL A   1      42.211  40.344  25.830  1.00  0.00    -0.376 OA
BRANCH   3   4
ATOM      4  C   UNL A   1      43.030  41.492  25.939  1.00  0.00     0.202 C 
BRANCH   4   5
ATOM      5  C   UNL A   1      43.850  42.143  24.805  1.00  0.00     0.261 C 
BRANCH   5   6
ATOM      6  O   UNL A   1      45.165  42.661  25.055  1.00  0.00    -0.463 OA
BRANCH   6   7
ATOM      7  C   UNL A   1      46.110  42.500  24.104  1.00  0.00     0.310 C 
ATOM      8  O   UNL A   1      46.893  41.559  24.095  1.00  0.00    -0.252 OA
BRANCH   7   9
ATOM      9  C   UNL A   1      46.175  43.725  23.186  1.00  0.00     0.116 C 
ATOM     10  C   UNL A   1      47.173  43.818  21.992  1.00  0.00     0.097 C 
ATOM     11  C   UNL A   1      48.642  43.967  22.514  1.00  0.00     0.041 C 
ATOM     12  C   UNL A   1      48.811  44.650  23.834  1.00  0.00    -0.030 C 
ATOM     13  C   UNL A   1      46.367  44.975  24.078  1.00  0.00     0.043 C 
ATOM     14  C   UNL A   1      47.782  45.131  24.540  1.00  0.00    -0.030 C 
BRANCH  10  15
ATOM     15  C   UNL A   1      47.222  42.870  20.758  1.00  0.00     0.229 C 
ATOM     16  N   UNL A   1      46.702  43.102  19.525  1.00  0.00    -0.317 N 
ATOM     17  H   UNL A   1      46.550  42.294  18.983  1.00  0.00     0.170 HD
ATOM     18  O   UNL A   1      47.777  41.766  20.892  1.00  0.00    -0.274 OA
BRANCH  16  19
ATOM     19  C   UNL A   1      46.353  44.276  18.912  1.00  0.00     0.110 A 
ATOM     20  C   UNL A   1      45.108  44.717  18.487  1.00  0.00     0.103 A 
ATOM     21  C   UNL A   1      45.196  46.111  18.113  1.00  0.00     0.019 A 
ATOM     22  C   UNL A   1      46.509  46.518  17.992  1.00  0.00     0.077 A 
ATOM     23  S   UNL A   1      47.598  45.238  18.257  1.00  0.00    -0.125 S 
BRANCH  20  24
ATOM     24  C   UNL A   1      43.902  43.895  18.463  1.00  0.00     0.341 C 
ATOM     25  O   UNL A   1      43.188  43.758  17.474  1.00  0.00    -0.246 OA
BRANCH  24  26
ATOM     26  O   UNL A   1      43.646  43.379  19.696  1.00  0.00    -0.462 OA
BRANCH  26  27
ATOM     27  C   UNL A   1      42.285  43.082  20.050  1.00  0.00     0.230 C 
ATOM     28  C   UNL A   1      42.014  43.406  21.505  1.00  0.00     0.049 C 
ENDBRANCH  26  27
ENDBRANCH  24  26
ENDBRANCH  20  24
BRANCH  21  29
ATOM     29  C   UNL A   1      44.058  47.070  17.867  1.00  0.00     0.036 A 
ATOM     30  C   UNL A   1      43.880  48.244  18.570  1.00  0.00     0.020 A 
ATOM     31  S   UNL A   1      42.803  46.835  16.728  1.00  0.00    -0.144 S 
ATOM     32  C   UNL A   1      42.769  48.998  18.096  1.00  0.00     0.012 A 
ATOM     33  C   UNL A   1      42.097  48.348  17.087  1.00  0.00     0.065 A 
ENDBRANCH  21  29
ENDBRANCH  16  19
ENDBRANCH  10  15
ENDBRANCH   7   9
ENDBRANCH   6   7
ENDBRANCH   5   6
ENDBRANCH   4   5
ENDBRANCH   3   4
ENDBRANCH   2   3
ENDBRANCH   1   2
BRANCH   1  34
ATOM     34  O   UNL A   1      42.501  38.747  28.641  1.00  0.00    -0.377 OA
BRANCH  34  35
ATOM     35  C   UNL A   1      43.476  38.928  29.635  1.00  0.00     0.188 C 
BRANCH  35  36
ATOM     36  C   UNL A   1      43.646  40.403  30.028  1.00  0.00     0.188 C 
BRANCH  36  37
ATOM     37  O   UNL A   1      44.909  40.994  30.338  1.00  0.00    -0.376 OA
BRANCH  37  38
ATOM     38  C   UNL A   1      45.235  41.503  31.621  1.00  0.00     0.202 C 
BRANCH  38  39
ATOM     39  C   UNL A   1      46.517  41.051  32.340  1.00  0.00     0.261 C 
BRANCH  39  40
ATOM     40  O   UNL A   1      46.381  39.987  33.281  1.00  0.00    -0.460 OA
BRANCH  40  41
ATOM     41  C   UNL A   1      46.252  38.762  32.726  1.00  0.00     0.338 C 
ATOM     42  O   UNL A   1      46.931  38.281  31.835  1.00  0.00    -0.246 OA
BRANCH  41  43
ATOM     43  C   UNL A   1      45.241  37.999  33.483  1.00  0.00     0.060 A 
ATOM     44  C   UNL A   1      43.975  38.576  33.628  1.00  0.00     0.016 A 
ATOM     45  C   UNL A   1      45.527  36.752  34.049  1.00  0.00     0.016 A 
ATOM     46  C   UNL A   1      42.996  37.925  34.364  1.00  0.00     0.010 A 
ATOM     47  C   UNL A   1      44.555  36.118  34.829  1.00  0.00     0.010 A 
ATOM     48  C   UNL A   1      43.302  36.727  35.019  1.00  0.00    -0.014 A 
BRANCH  48  49
ATOM     49  C   UNL A   1      42.379  36.294  36.090  1.00  0.00     0.031 A 
ATOM     50  C   UNL A   1      41.191  35.463  35.693  1.00  0.00     0.074 A 
ATOM     51  C   UNL A   1      42.679  36.503  37.382  1.00  0.00     0.049 A 
ATOM     52  N   UNL A   1      40.315  34.848  36.444  1.00  0.00    -0.248 NA
ATOM     53  C   UNL A   1      40.971  35.294  34.247  1.00  0.00     0.031 C 
ATOM     54  C   UNL A   1      43.852  37.228  37.867  1.00  0.00     0.029 A 
ATOM     55  N   UNL A   1      42.039  36.091  38.521  1.00  0.00    -0.354 N 
ATOM     56  C   UNL A   1      39.451  34.206  35.563  1.00  0.00     0.074 A 
ATOM     57  C   UNL A   1      39.875  34.555  34.224  1.00  0.00     0.031 C 
ATOM     58  C   UNL A   1      43.857  37.195  39.211  1.00  0.00     0.029 A 
ATOM     59  C   UNL A   1      42.676  36.469  39.678  1.00  0.00     0.049 A 
ATOM     60  H   UNL A   1      41.203  35.573  38.512  1.00  0.00     0.167 HD
ATOM     61  C   UNL A   1      38.409  33.387  35.846  1.00  0.00     0.034 A 
ATOM     62  C   UNL A   1      42.339  36.250  40.964  1.00  0.00     0.034 A 
ATOM     63  C   UNL A   1      37.987  33.079  37.191  1.00  0.00     0.049 A 
ATOM     64  C   UNL A   1      41.110  35.423  41.259  1.00  0.00     0.074 A 
ATOM     65  C   UNL A   1      36.929  32.292  37.608  1.00  0.00     0.029 A 
ATOM     66  N   UNL A   1      38.599  33.561  38.344  1.00  0.00    -0.354 N 
ATOM     67  N   UNL A   1      40.289  34.830  40.421  1.00  0.00    -0.248 NA
ATOM     68  C   UNL A   1      40.776  35.221  42.673  1.00  0.00     0.031 C 
ATOM     69  C   UNL A   1      36.854  32.362  39.004  1.00  0.00     0.029 A 
ATOM     70  C   UNL A   1      37.921  33.115  39.468  1.00  0.00     0.049 A 
ATOM     71  H   UNL A   1      39.398  34.136  38.359  1.00  0.00     0.167 HD
ATOM     72  C   UNL A   1      39.362  34.153  41.211  1.00  0.00     0.074 A 
ATOM     73  C   UNL A   1      39.739  34.402  42.588  1.00  0.00     0.031 C 
ATOM     74  C   UNL A   1      38.301  33.388  40.836  1.00  0.00     0.034 A 
BRANCH  61  75
ATOM     75  C   UNL A   1      37.627  32.839  34.674  1.00  0.00     0.023 A 
ATOM     76  C   UNL A   1      36.568  33.556  34.085  1.00  0.00     0.031 A 
ATOM     77  C   UNL A   1      37.896  31.549  34.184  1.00  0.00     0.131 A 
ATOM     78  C   UNL A   1      35.766  32.947  33.108  1.00  0.00     0.055 A 
ATOM     79  C   UNL A   1      37.151  30.983  33.147  1.00  0.00     0.041 A 
ATOM     80  F   UNL A   1      38.872  30.802  34.723  1.00  0.00    -0.206 F 
ATOM     81  C   UNL A   1      36.067  31.675  32.616  1.00  0.00     0.022 A 
BRANCH  78  82
ATOM     82  S   UNL A   1      34.222  33.765  32.617  1.00  0.00     0.124 S 
ATOM     83  O   UNL A   1      33.233  33.006  33.378  1.00  0.00    -0.237 OA
ATOM     84  O   UNL A   1      34.445  35.141  33.047  1.00  0.00    -0.237 OA
ATOM     85  O   UNL A   1      34.173  33.562  31.170  1.00  0.00    -0.744 OA
ENDBRANCH  78  82
ENDBRANCH  61  75
BRANCH  62  86
ATOM     86  C   UNL A   1      43.159  36.830  42.067  1.00  0.00     0.023 A 
ATOM     87  C   UNL A   1      42.957  38.144  42.517  1.00  0.00     0.031 A 
ATOM     88  C   UNL A   1      44.192  36.082  42.660  1.00  0.00     0.131 A 
ATOM     89  C   UNL A   1      43.803  38.683  43.500  1.00  0.00     0.055 A 
ATOM     90  C   UNL A   1      44.997  36.605  43.673  1.00  0.00     0.041 A 
ATOM     91  F   UNL A   1      44.429  34.819  42.270  1.00  0.00    -0.206 F 
ATOM     92  C   UNL A   1      44.811  37.919  44.090  1.00  0.00     0.022 A 
BRANCH  89  93
ATOM     93  S   UNL A   1      43.615  40.432  43.949  1.00  0.00     0.124 S 
ATOM     94  O   UNL A   1      44.977  40.927  43.790  1.00  0.00    -0.237 OA
ATOM     95  O   UNL A   1      42.643  40.893  42.964  1.00  0.00    -0.237 OA
ATOM     96  O   UNL A   1      43.125  40.376  45.325  1.00  0.00    -0.744 OA
ENDBRANCH  89  93
ENDBRANCH  62  86
BRANCH  74  97
ATOM     97  C   UNL A   1      37.508  32.729  41.941  1.00  0.00     0.023 A 
ATOM     98  C   UNL A   1      36.391  33.350  42.529  1.00  0.00     0.031 A 
ATOM     99  C   UNL A   1      37.898  31.470  42.437  1.00  0.00     0.131 A 
ATOM    100  C   UNL A   1      35.755  32.751  43.627  1.00  0.00     0.055 A 
ATOM    101  C   UNL A   1      37.212  30.843  43.477  1.00  0.00     0.041 A 
ATOM    102  F   UNL A   1      38.957  30.829  41.917  1.00  0.00    -0.206 F 
ATOM    103  C   UNL A   1      36.146  31.492  44.092  1.00  0.00     0.022 A 
BRANCH 100 104
ATOM    104  S   UNL A   1      34.497  33.700  44.525  1.00  0.00     0.124 S 
ATOM    105  O   UNL A   1      34.947  35.072  44.317  1.00  0.00    -0.237 OA
ATOM    106  O   UNL A   1      33.269  33.320  43.834  1.00  0.00    -0.237 OA
ATOM    107  O   UNL A   1      34.613  33.211  45.897  1.00  0.00    -0.744 OA
ENDBRANCH 100 104
ENDBRANCH  74  97
ENDBRANCH  48  49
ENDBRANCH  41  43
ENDBRANCH  40  41
ENDBRANCH  39  40
ENDBRANCH  38  39
ENDBRANCH  37  38
ENDBRANCH  36  37
ENDBRANCH  35  36
ENDBRANCH  34  35
ENDBRANCH   1  34
TORSDOF 29
ENDMDL
MODEL 2
REMARK VINA RESULT:      -7.0      6.129     10.943
REMARK SMILES CCOC(=O)c1c(-c2cccs2)csc1NC(=O)[C@@H]1CC=CC[C@@H]1C(=O)OCCOCCOCCOCCOC(=O)c1ccc(-c2c3nc(c(-c4cc(S(=O)(=O)[O-])ccc4F)c4ccc([nH]4)c(-c4cc(S(=O)(=O)[O-])ccc4F)c4nc(c(-c5cc(S(=O)(=O)[O-])ccc5F)c5ccc2[nH]5)C=C4)C=C3)cc1
REMARK SMILES IDX 32 1 31 2 30 3 29 4 28 5 27 6 25 7 26 8 24 9 19 10 20 11
REMARK SMILES IDX 21 12 23 13 22 14 17 15 16 16 18 18 15 19 6 20 7 21 13 22
REMARK SMILES IDX 14 23 4 24 5 25 3 26 2 27 1 28 8 29 9 30 12 31 10 32 11 33
REMARK SMILES IDX 33 34 34 35 35 36 36 37 37 38 38 39 39 40 40 41 41 42 42 43
REMARK SMILES IDX 43 44 104 45 44 46 103 47 45 48 46 49 47 50 97 51 48 52
REMARK SMILES IDX 102 53 96 54 98 55 49 56 101 57 95 58 94 59 50 61 82 62
REMARK SMILES IDX 62 63 81 64 63 65 66 66 80 67 99 68 64 69 65 70 79 72 100 73
REMARK SMILES IDX 67 74 51 75 52 76 60 77 53 78 59 79 61 80 58 81 54 82 55 83
REMARK SMILES IDX 56 84 57 85 83 86 84 87 92 88 85 89 91 90 93 91 90 92 86 93
REMARK SMILES IDX 87 94 88 95 89 96 68 97 69 98 77 99 70 100 76 101 78 102
REMARK SMILES IDX 75 103 71 104 72 105 73 106 74 107
REMARK H PARENT 16 17 98 60 66 71
REMARK Flexibility Score: inf
ROOT
ATOM      1  C   UNL A   1      50.225  32.970  26.445  1.00  0.00     0.188 C 
ENDROOT
BRANCH   1   2
ATOM      2  C   UNL A   1      49.858  31.707  27.225  1.00  0.00     0.188 C 
BRANCH   2   3
ATOM      3  O   UNL A   1      50.087  31.843  28.609  1.00  0.00    -0.376 OA
BRANCH   3   4
ATOM      4  C   UNL A   1      49.128  31.462  29.575  1.00  0.00     0.202 C 
BRANCH   4   5
ATOM      5  C   UNL A   1      49.139  31.832  31.074  1.00  0.00     0.261 C 
BRANCH   5   6
ATOM      6  O   UNL A   1      49.629  33.108  31.511  1.00  0.00    -0.463 OA
BRANCH   6   7
ATOM      7  C   UNL A   1      48.955  33.756  32.485  1.00  0.00     0.310 C 
ATOM      8  O   UNL A   1      48.244  33.181  33.299  1.00  0.00    -0.252 OA
BRANCH   7   9
ATOM      9  C   UNL A   1      49.059  35.274  32.305  1.00  0.00     0.116 C 
ATOM     10  C   UNL A   1      47.990  36.255  32.874  1.00  0.00     0.097 C 
ATOM     11  C   UNL A   1      46.644  36.120  32.084  1.00  0.00     0.041 C 
ATOM     12  C   UNL A   1      46.755  35.701  30.652  1.00  0.00    -0.030 C 
ATOM     13  C   UNL A   1      49.224  35.560  30.793  1.00  0.00     0.043 C 
ATOM     14  C   UNL A   1      47.926  35.467  30.052  1.00  0.00    -0.030 C 
BRANCH  10  15
ATOM     15  C   UNL A   1      47.619  36.442  34.374  1.00  0.00     0.229 C 
ATOM     16  N   UNL A   1      46.664  37.261  34.887  1.00  0.00    -0.317 N 
ATOM     17  H   UNL A   1      46.780  37.484  35.839  1.00  0.00     0.170 HD
ATOM     18  O   UNL A   1      48.262  35.796  35.220  1.00  0.00    -0.274 OA
BRANCH  16  19
ATOM     19  C   UNL A   1      45.567  37.829  34.296  1.00  0.00     0.110 A 
ATOM     20  C   UNL A   1      45.467  38.993  33.547  1.00  0.00     0.103 A 
ATOM     21  C   UNL A   1      44.158  39.060  32.939  1.00  0.00     0.019 A 
ATOM     22  C   UNL A   1      43.294  38.139  33.499  1.00  0.00     0.077 A 
ATOM     23  S   UNL A   1      44.027  37.269  34.764  1.00  0.00    -0.125 S 
BRANCH  20  24
ATOM     24  C   UNL A   1      46.541  39.967  33.384  1.00  0.00     0.341 C 
ATOM     25  O   UNL A   1      46.498  41.112  33.823  1.00  0.00    -0.246 OA
BRANCH  24  26
ATOM     26  O   UNL A   1      47.544  39.455  32.618  1.00  0.00    -0.462 OA
BRANCH  26  27
ATOM     27  C   UNL A   1      48.210  40.322  31.686  1.00  0.00     0.230 C 
ATOM     28  C   UNL A   1      48.514  39.601  30.389  1.00  0.00     0.049 C 
ENDBRANCH  26  27
ENDBRANCH  24  26
ENDBRANCH  20  24
BRANCH  21  29
ATOM     29  C   UNL A   1      43.704  39.980  31.834  1.00  0.00     0.036 A 
ATOM     30  C   UNL A   1      42.736  40.952  31.995  1.00  0.00     0.020 A 
ATOM     31  S   UNL A   1      44.272  39.936  30.221  1.00  0.00    -0.144 S 
ATOM     32  C   UNL A   1      42.541  41.726  30.816  1.00  0.00     0.012 A 
ATOM     33  C   UNL A   1      43.323  41.283  29.773  1.00  0.00     0.065 A 
ENDBRANCH  21  29
ENDBRANCH  16  19
ENDBRANCH  10  15
ENDBRANCH   7   9
ENDBRANCH   6   7
ENDBRANCH   5   6
ENDBRANCH   4   5
ENDBRANCH   3   4
ENDBRANCH   2   3
ENDBRANCH   1   2
BRANCH   1  34
ATOM     34  O   UNL A   1      49.350  34.072  26.423  1.00  0.00    -0.377 OA
BRANCH  34  35
ATOM     35  C   UNL A   1      49.655  35.058  25.470  1.00  0.00     0.188 C 
BRANCH  35  36
ATOM     36  C   UNL A   1      49.312  36.473  25.960  1.00  0.00     0.188 C 
BRANCH  36  37
ATOM     37  O   UNL A   1      48.412  37.345  25.275  1.00  0.00    -0.376 OA
BRANCH  37  38
ATOM     38  C   UNL A   1      47.152  37.731  25.799  1.00  0.00     0.202 C 
BRANCH  38  39
ATOM     39  C   UNL A   1      46.381  36.801  26.749  1.00  0.00     0.261 C 
BRANCH  39  40
ATOM     40  O   UNL A   1      44.956  36.876  26.701  1.00  0.00    -0.460 OA
BRANCH  40  41
ATOM     41  C   UNL A   1      44.331  35.679  26.730  1.00  0.00     0.338 C 
ATOM     42  O   UNL A   1      44.207  34.890  25.809  1.00  0.00    -0.246 OA
BRANCH  41  43
ATOM     43  C   UNL A   1      43.946  35.375  28.122  1.00  0.00     0.060 A 
ATOM     44  C   UNL A   1      43.866  34.027  28.489  1.00  0.00     0.016 A 
ATOM     45  C   UNL A   1      43.657  36.385  29.046  1.00  0.00     0.016 A 
ATOM     46  C   UNL A   1      43.469  33.680  29.770  1.00  0.00     0.010 A 
ATOM     47  C   UNL A   1      43.213  36.033  30.324  1.00  0.00     0.010 A 
ATOM     48  C   UNL A   1      43.081  34.677  30.671  1.00  0.00    -0.014 A 
BRANCH  48  49
ATOM     49  C   UNL A   1      42.302  34.247  31.853  1.00  0.00     0.031 A 
ATOM     50  C   UNL A   1      43.062  33.920  33.108  1.00  0.00     0.074 A 
ATOM     51  C   UNL A   1      40.960  34.300  31.848  1.00  0.00     0.049 A 
ATOM     52  N   UNL A   1      42.616  33.655  34.308  1.00  0.00    -0.248 NA
ATOM     53  C   UNL A   1      44.530  33.905  32.993  1.00  0.00     0.031 C 
ATOM     54  C   UNL A   1      40.137  34.684  30.702  1.00  0.00     0.029 A 
ATOM     55  N   UNL A   1      40.058  34.066  32.852  1.00  0.00    -0.354 N 
ATOM     56  C   UNL A   1      43.747  33.457  35.093  1.00  0.00     0.074 A 
ATOM     57  C   UNL A   1      44.894  33.577  34.220  1.00  0.00     0.031 C 
ATOM     58  C   UNL A   1      38.845  34.675  31.075  1.00  0.00     0.029 A 
ATOM     59  C   UNL A   1      38.751  34.262  32.474  1.00  0.00     0.049 A 
ATOM     60  H   UNL A   1      40.320  33.785  33.757  1.00  0.00     0.167 HD
ATOM     61  C   UNL A   1      43.820  33.214  36.424  1.00  0.00     0.034 A 
ATOM     62  C   UNL A   1      37.615  34.123  33.184  1.00  0.00     0.034 A 
ATOM     63  C   UNL A   1      42.658  33.069  37.268  1.00  0.00     0.049 A 
ATOM     64  C   UNL A   1      37.714  33.746  34.643  1.00  0.00     0.074 A 
ATOM     65  C   UNL A   1      42.601  32.790  38.621  1.00  0.00     0.029 A 
ATOM     66  N   UNL A   1      41.342  33.177  36.830  1.00  0.00    -0.354 N 
ATOM     67  N   UNL A   1      38.786  33.546  35.377  1.00  0.00    -0.248 NA
ATOM     68  C   UNL A   1      36.450  33.594  35.372  1.00  0.00     0.031 C 
ATOM     69  C   UNL A   1      41.256  32.652  38.983  1.00  0.00     0.029 A 
ATOM     70  C   UNL A   1      40.468  32.938  37.879  1.00  0.00     0.049 A 
ATOM     71  H   UNL A   1      41.072  33.393  35.908  1.00  0.00     0.167 HD
ATOM     72  C   UNL A   1      38.323  33.283  36.665  1.00  0.00     0.074 A 
ATOM     73  C   UNL A   1      36.878  33.365  36.604  1.00  0.00     0.031 C 
ATOM     74  C   UNL A   1      39.026  33.007  37.796  1.00  0.00     0.034 A 
BRANCH  61  75
ATOM     75  C   UNL A   1      45.200  33.023  37.013  1.00  0.00     0.023 A 
ATOM     76  C   UNL A   1      45.765  31.745  37.184  1.00  0.00     0.031 A 
ATOM     77  C   UNL A   1      45.932  34.130  37.477  1.00  0.00     0.131 A 
ATOM     78  C   UNL A   1      46.976  31.601  37.880  1.00  0.00     0.055 A 
ATOM     79  C   UNL A   1      47.179  33.986  38.088  1.00  0.00     0.041 A 
ATOM     80  F   UNL A   1      45.434  35.372  37.371  1.00  0.00    -0.206 F 
ATOM     81  C   UNL A   1      47.700  32.715  38.309  1.00  0.00     0.022 A 
BRANCH  78  82
ATOM     82  S   UNL A   1      47.501  29.935  38.373  1.00  0.00     0.124 S 
ATOM     83  O   UNL A   1      48.864  30.182  38.837  1.00  0.00    -0.237 OA
ATOM     84  O   UNL A   1      46.526  29.588  39.400  1.00  0.00    -0.237 OA
ATOM     85  O   UNL A   1      47.404  29.165  37.134  1.00  0.00    -0.744 OA
ENDBRANCH  78  82
ENDBRANCH  61  75
BRANCH  62  86
ATOM     86  C   UNL A   1      36.289  34.324  32.530  1.00  0.00     0.023 A 
ATOM     87  C   UNL A   1      35.543  35.496  32.729  1.00  0.00     0.031 A 
ATOM     88  C   UNL A   1      35.729  33.316  31.724  1.00  0.00     0.131 A 
ATOM     89  C   UNL A   1      34.263  35.614  32.164  1.00  0.00     0.055 A 
ATOM     90  C   UNL A   1      34.478  33.460  31.122  1.00  0.00     0.041 A 
ATOM     91  F   UNL A   1      36.399  32.175  31.498  1.00  0.00    -0.206 F 
ATOM     92  C   UNL A   1      33.732  34.611  31.351  1.00  0.00     0.022 A 
BRANCH  89  93
ATOM     93  S   UNL A   1      33.263  37.074  32.567  1.00  0.00     0.124 S 
ATOM     94  O   UNL A   1      33.078  37.679  31.253  1.00  0.00    -0.237 OA
ATOM     95  O   UNL A   1      32.079  36.471  33.171  1.00  0.00    -0.237 OA
ATOM     96  O   UNL A   1      34.115  37.823  33.488  1.00  0.00    -0.744 OA
ENDBRANCH  89  93
ENDBRANCH  62  86
BRANCH  74  97
ATOM     97  C   UNL A   1      38.230  32.823  39.068  1.00  0.00     0.023 A 
ATOM     98  C   UNL A   1      38.378  33.682  40.171  1.00  0.00     0.031 A 
ATOM     99  C   UNL A   1      37.328  31.748  39.188  1.00  0.00     0.131 A 
ATOM    100  C   UNL A   1      37.702  33.406  41.369  1.00  0.00     0.055 A 
ATOM    101  C   UNL A   1      36.598  31.526  40.356  1.00  0.00     0.041 A 
ATOM    102  F   UNL A   1      37.144  30.893  38.169  1.00  0.00    -0.206 F 
ATOM    103  C   UNL A   1      36.798  32.345  41.462  1.00  0.00     0.022 A 
BRANCH 100 104
ATOM    104  S   UNL A   1      38.121  34.373  42.845  1.00  0.00     0.124 S 
ATOM    105  O   UNL A   1      39.358  35.030  42.435  1.00  0.00    -0.237 OA
ATOM    106  O   UNL A   1      36.957  35.239  42.992  1.00  0.00    -0.237 OA
ATOM    107  O   UNL A   1      38.275  33.359  43.887  1.00  0.00    -0.744 OA
ENDBRANCH 100 104
ENDBRANCH  74  97
ENDBRANCH  48  49
ENDBRANCH  41  43
ENDBRANCH  40  41
ENDBRANCH  39  40
ENDBRANCH  38  39
ENDBRANCH  37  38
ENDBRANCH  36  37
ENDBRANCH  35  36
ENDBRANCH  34  35
ENDBRANCH   1  34
TORSDOF 29
ENDMDL
MODEL 3
REMARK VINA RESULT:      -6.9      9.603     18.612
REMARK SMILES CCOC(=O)c1c(-c2cccs2)csc1NC(=O)[C@@H]1CC=CC[C@@H]1C(=O)OCCOCCOCCOCCOC(=O)c1ccc(-c2c3nc(c(-c4cc(S(=O)(=O)[O-])ccc4F)c4ccc([nH]4)c(-c4cc(S(=O)(=O)[O-])ccc4F)c4nc(c(-c5cc(S(=O)(=O)[O-])ccc5F)c5ccc2[nH]5)C=C4)C=C3)cc1
REMARK SMILES IDX 32 1 31 2 30 3 29 4 28 5 27 6 25 7 26 8 24 9 19 10 20 11
REMARK SMILES IDX 21 12 23 13 22 14 17 15 16 16 18 18 15 19 6 20 7 21 13 22
REMARK SMILES IDX 14 23 4 24 5 25 3 26 2 27 1 28 8 29 9 30 12 31 10 32 11 33
REMARK SMILES IDX 33 34 34 35 35 36 36 37 37 38 38 39 39 40 40 41 41 42 42 43
REMARK SMILES IDX 43 44 104 45 44 46 103 47 45 48 46 49 47 50 97 51 48 52
REMARK SMILES IDX 102 53 96 54 98 55 49 56 101 57 95 58 94 59 50 61 82 62
REMARK SMILES IDX 62 63 81 64 63 65 66 66 80 67 99 68 64 69 65 70 79 72 100 73
REMARK SMILES IDX 67 74 51 75 52 76 60 77 53 78 59 79 61 80 58 81 54 82 55 83
REMARK SMILES IDX 56 84 57 85 83 86 84 87 92 88 85 89 91 90 93 91 90 92 86 93
REMARK SMILES IDX 87 94 88 95 89 96 68 97 69 98 77 99 70 100 76 101 78 102
REMARK SMILES IDX 75 103 71 104 72 105 73 106 74 107
REMARK H PARENT 16 17 98 60 66 71
REMARK Flexibility Score: inf
ROOT
ATOM      1  C   UNL A   1      40.838  29.862  34.259  1.00  0.00     0.188 C 
ENDROOT
BRANCH   1   2
ATOM      2  C   UNL A   1      41.388  28.488  34.640  1.00  0.00     0.188 C 
BRANCH   2   3
ATOM      3  O   UNL A   1      41.114  28.152  35.982  1.00  0.00    -0.376 OA
BRANCH   3   4
ATOM      4  C   UNL A   1      41.731  27.056  36.628  1.00  0.00     0.202 C 
BRANCH   4   5
ATOM      5  C   UNL A   1      42.315  25.801  35.946  1.00  0.00     0.261 C 
BRANCH   5   6
ATOM      6  O   UNL A   1      43.727  25.675  35.726  1.00  0.00    -0.463 OA
BRANCH   6   7
ATOM      7  C   UNL A   1      44.429  24.840  36.522  1.00  0.00     0.310 C 
ATOM      8  O   UNL A   1      44.300  24.813  37.739  1.00  0.00    -0.252 OA
BRANCH   7   9
ATOM      9  C   UNL A   1      45.505  24.099  35.721  1.00  0.00     0.116 C 
ATOM     10  C   UNL A   1      46.047  24.635  34.361  1.00  0.00     0.097 C 
ATOM     11  C   UNL A   1      44.951  24.520  33.249  1.00  0.00     0.041 C 
ATOM     12  C   UNL A   1      43.962  23.408  33.404  1.00  0.00    -0.030 C 
ATOM     13  C   UNL A   1      45.020  22.645  35.510  1.00  0.00     0.043 C 
ATOM     14  C   UNL A   1      44.002  22.538  34.418  1.00  0.00    -0.030 C 
BRANCH  10  15
ATOM     15  C   UNL A   1      46.785  25.987  34.134  1.00  0.00     0.229 C 
ATOM     16  N   UNL A   1      48.118  26.173  33.952  1.00  0.00    -0.317 N 
ATOM     17  H   UNL A   1      48.437  27.086  34.138  1.00  0.00     0.170 HD
ATOM     18  O   UNL A   1      46.107  27.030  34.131  1.00  0.00    -0.274 OA
BRANCH  16  19
ATOM     19  C   UNL A   1      49.094  25.296  33.555  1.00  0.00     0.110 A 
ATOM     20  C   UNL A   1      49.831  24.392  34.305  1.00  0.00     0.103 A 
ATOM     21  C   UNL A   1      50.571  23.524  33.416  1.00  0.00     0.019 A 
ATOM     22  C   UNL A   1      50.580  24.015  32.126  1.00  0.00     0.077 A 
ATOM     23  S   UNL A   1      49.777  25.509  32.008  1.00  0.00    -0.125 S 
BRANCH  20  24
ATOM     24  C   UNL A   1      49.821  24.323  35.762  1.00  0.00     0.341 C 
ATOM     25  O   UNL A   1      48.845  23.986  36.424  1.00  0.00    -0.246 OA
BRANCH  24  26
ATOM     26  O   UNL A   1      51.006  24.758  36.273  1.00  0.00    -0.462 OA
BRANCH  26  27
ATOM     27  C   UNL A   1      51.230  26.173  36.384  1.00  0.00     0.230 C 
ATOM     28  C   UNL A   1      52.521  26.578  35.701  1.00  0.00     0.049 C 
ENDBRANCH  26  27
ENDBRANCH  24  26
ENDBRANCH  20  24
BRANCH  21  29
ATOM     29  C   UNL A   1      51.271  22.235  33.763  1.00  0.00     0.036 A 
ATOM     30  C   UNL A   1      52.594  22.162  34.151  1.00  0.00     0.020 A 
ATOM     31  S   UNL A   1      50.563  20.679  33.689  1.00  0.00    -0.144 S 
ATOM     32  C   UNL A   1      52.990  20.836  34.486  1.00  0.00     0.012 A 
ATOM     33  C   UNL A   1      51.975  19.928  34.286  1.00  0.00     0.065 A 
ENDBRANCH  21  29
ENDBRANCH  16  19
ENDBRANCH  10  15
ENDBRANCH   7   9
ENDBRANCH   6   7
ENDBRANCH   5   6
ENDBRANCH   4   5
ENDBRANCH   3   4
ENDBRANCH   2   3
ENDBRANCH   1   2
BRANCH   1  34
ATOM     34  O   UNL A   1      40.542  30.812  35.255  1.00  0.00    -0.377 OA
BRANCH  34  35
ATOM     35  C   UNL A   1      39.549  31.745  34.915  1.00  0.00     0.188 C 
BRANCH  35  36
ATOM     36  C   UNL A   1      38.443  31.839  35.977  1.00  0.00     0.188 C 
BRANCH  36  37
ATOM     37  O   UNL A   1      37.122  32.303  35.696  1.00  0.00    -0.376 OA
BRANCH  37  38
ATOM     38  C   UNL A   1      36.848  33.573  35.128  1.00  0.00     0.202 C 
BRANCH  38  39
ATOM     39  C   UNL A   1      35.443  33.908  34.602  1.00  0.00     0.261 C 
BRANCH  39  40
ATOM     40  O   UNL A   1      35.337  34.217  33.212  1.00  0.00    -0.460 OA
BRANCH  40  41
ATOM     41  C   UNL A   1      34.999  33.168  32.430  1.00  0.00     0.338 C 
ATOM     42  O   UNL A   1      33.880  32.733  32.226  1.00  0.00    -0.246 OA
BRANCH  41  43
ATOM     43  C   UNL A   1      36.199  32.707  31.706  1.00  0.00     0.060 A 
ATOM     44  C   UNL A   1      36.894  31.616  32.239  1.00  0.00     0.016 A 
ATOM     45  C   UNL A   1      36.643  33.334  30.537  1.00  0.00     0.016 A 
ATOM     46  C   UNL A   1      38.052  31.164  31.626  1.00  0.00     0.010 A 
ATOM     47  C   UNL A   1      37.835  32.906  29.944  1.00  0.00     0.010 A 
ATOM     48  C   UNL A   1      38.560  31.846  30.515  1.00  0.00    -0.014 A 
BRANCH  48  49
ATOM     49  C   UNL A   1      39.970  31.581  30.153  1.00  0.00     0.031 A 
ATOM     50  C   UNL A   1      41.011  32.540  30.660  1.00  0.00     0.074 A 
ATOM     51  C   UNL A   1      40.318  30.444  29.531  1.00  0.00     0.049 A 
ATOM     52  N   UNL A   1      42.315  32.462  30.602  1.00  0.00    -0.248 NA
ATOM     53  C   UNL A   1      40.508  33.747  31.337  1.00  0.00     0.031 C 
ATOM     54  C   UNL A   1      39.385  29.415  29.074  1.00  0.00     0.029 A 
ATOM     55  N   UNL A   1      41.554  29.948  29.211  1.00  0.00    -0.354 N 
ATOM     56  C   UNL A   1      42.787  33.599  31.248  1.00  0.00     0.074 A 
ATOM     57  C   UNL A   1      41.631  34.376  31.638  1.00  0.00     0.031 C 
ATOM     58  C   UNL A   1      40.087  28.398  28.545  1.00  0.00     0.029 A 
ATOM     59  C   UNL A   1      41.513  28.716  28.605  1.00  0.00     0.049 A 
ATOM     60  H   UNL A   1      42.392  30.429  29.398  1.00  0.00     0.167 HD
ATOM     61  C   UNL A   1      44.070  33.954  31.507  1.00  0.00     0.034 A 
ATOM     62  C   UNL A   1      42.517  27.939  28.154  1.00  0.00     0.034 A 
ATOM     63  C   UNL A   1      45.208  33.175  31.081  1.00  0.00     0.049 A 
ATOM     64  C   UNL A   1      43.940  28.404  28.357  1.00  0.00     0.074 A 
ATOM     65  C   UNL A   1      46.553  33.444  31.252  1.00  0.00     0.029 A 
ATOM     66  N   UNL A   1      45.130  31.977  30.379  1.00  0.00    -0.354 N 
ATOM     67  N   UNL A   1      44.380  29.488  28.956  1.00  0.00    -0.248 NA
ATOM     68  C   UNL A   1      44.999  27.531  27.838  1.00  0.00     0.031 C 
ATOM     69  C   UNL A   1      47.286  32.453  30.588  1.00  0.00     0.029 A 
ATOM     70  C   UNL A   1      46.402  31.512  30.083  1.00  0.00     0.049 A 
ATOM     71  H   UNL A   1      44.293  31.523  30.130  1.00  0.00     0.167 HD
ATOM     72  C   UNL A   1      45.771  29.405  28.919  1.00  0.00     0.074 A 
ATOM     73  C   UNL A   1      46.089  28.159  28.252  1.00  0.00     0.031 C 
ATOM     74  C   UNL A   1      46.702  30.274  29.400  1.00  0.00     0.034 A 
BRANCH  61  75
ATOM     75  C   UNL A   1      44.289  35.269  32.220  1.00  0.00     0.023 A 
ATOM     76  C   UNL A   1      44.433  36.481  31.518  1.00  0.00     0.031 A 
ATOM     77  C   UNL A   1      44.429  35.302  33.618  1.00  0.00     0.131 A 
ATOM     78  C   UNL A   1      44.794  37.651  32.204  1.00  0.00     0.055 A 
ATOM     79  C   UNL A   1      44.699  36.488  34.305  1.00  0.00     0.041 A 
ATOM     80  F   UNL A   1      44.334  34.176  34.342  1.00  0.00    -0.206 F 
ATOM     81  C   UNL A   1      44.902  37.668  33.596  1.00  0.00     0.022 A 
BRANCH  78  82
ATOM     82  S   UNL A   1      45.296  39.104  31.239  1.00  0.00     0.124 S 
ATOM     83  O   UNL A   1      45.023  38.660  29.875  1.00  0.00    -0.237 OA
ATOM     84  O   UNL A   1      44.419  40.146  31.761  1.00  0.00    -0.237 OA
ATOM     85  O   UNL A   1      46.712  39.258  31.565  1.00  0.00    -0.744 OA
ENDBRANCH  78  82
ENDBRANCH  61  75
BRANCH  62  86
ATOM     86  C   UNL A   1      42.220  26.655  27.454  1.00  0.00     0.023 A 
ATOM     87  C   UNL A   1      42.281  25.423  28.126  1.00  0.00     0.031 A 
ATOM     88  C   UNL A   1      41.911  26.642  26.082  1.00  0.00     0.131 A 
ATOM     89  C   UNL A   1      42.076  24.230  27.415  1.00  0.00     0.055 A 
ATOM     90  C   UNL A   1      41.657  25.456  25.392  1.00  0.00     0.041 A 
ATOM     91  F   UNL A   1      41.838  27.791  25.390  1.00  0.00    -0.206 F 
ATOM     92  C   UNL A   1      41.751  24.239  26.057  1.00  0.00     0.022 A 
BRANCH  89  93
ATOM     93  S   UNL A   1      42.313  22.650  28.276  1.00  0.00     0.124 S 
ATOM     94  O   UNL A   1      43.341  22.018  27.459  1.00  0.00    -0.237 OA
ATOM     95  O   UNL A   1      42.726  23.090  29.605  1.00  0.00    -0.237 OA
ATOM     96  O   UNL A   1      40.992  22.029  28.213  1.00  0.00    -0.744 OA
ENDBRANCH  89  93
ENDBRANCH  62  86
BRANCH  74  97
ATOM     97  C   UNL A   1      48.151  29.870  29.257  1.00  0.00     0.023 A 
ATOM     98  C   UNL A   1      48.859  30.045  28.054  1.00  0.00     0.031 A 
ATOM     99  C   UNL A   1      48.827  29.271  30.337  1.00  0.00     0.131 A 
ATOM    100  C   UNL A   1      50.167  29.553  27.935  1.00  0.00     0.055 A 
ATOM    101  C   UNL A   1      50.155  28.855  30.236  1.00  0.00     0.041 A 
ATOM    102  F   UNL A   1      48.204  29.076  31.510  1.00  0.00    -0.206 F 
ATOM    103  C   UNL A   1      50.827  28.977  29.024  1.00  0.00     0.022 A 
BRANCH 100 104
ATOM    104  S   UNL A   1      50.949  29.554  26.298  1.00  0.00     0.124 S 
ATOM    105  O   UNL A   1      52.208  28.866  26.564  1.00  0.00    -0.237 OA
ATOM    106  O   UNL A   1      49.981  28.821  25.490  1.00  0.00    -0.237 OA
ATOM    107  O   UNL A   1      51.074  30.975  25.978  1.00  0.00    -0.744 OA
ENDBRANCH 100 104
ENDBRANCH  74  97
ENDBRANCH  48  49
ENDBRANCH  41  43
ENDBRANCH  40  41
ENDBRANCH  39  40
ENDBRANCH  38  39
ENDBRANCH  37  38
ENDBRANCH  36  37
ENDBRANCH  35  36
ENDBRANCH  34  35
ENDBRANCH   1  34
TORSDOF 29
ENDMDL
