MODEL 1
REMARK VINA RESULT:      -6.6      0.000      0.000
REMARK SMILES CC(C)(C(=O)OCCOCCOCCOCCOC(=O)c1ccc(-c2c3nc(c(-c4cc(S(=O)(=O)[O-])ccc4F)c4ccc([nH]4)c(-c4cc(S(=O)(=O)[O-])ccc4F)c4nc(c(-c5cc(S(=O)(=O)[O-])ccc5F)c5ccc2[nH]5)C=C4)C=C3)cc1)c1ccc(C(=O)CCCCl)cc1
REMARK SMILES IDX 11 1 10 2 9 3 8 4 7 5 6 6 4 7 5 8 2 9 1 10 3 11 84 12 85 13
REMARK SMILES IDX 95 14 86 15 94 16 87 17 88 18 89 19 90 20 91 21 92 22 93 23
REMARK SMILES IDX 12 24 13 25 14 26 15 27 16 28 17 29 18 30 19 31 20 32 21 33
REMARK SMILES IDX 22 34 83 35 23 36 82 37 24 38 25 39 26 40 76 41 27 42 81 43
REMARK SMILES IDX 75 44 77 45 28 46 80 47 74 48 73 49 29 51 61 52 41 53 60 54
REMARK SMILES IDX 42 55 45 56 59 57 78 58 43 59 44 60 58 62 79 63 46 64 30 65
REMARK SMILES IDX 31 66 39 67 32 68 38 69 40 70 37 71 33 72 34 73 35 74 36 75
REMARK SMILES IDX 62 76 63 77 71 78 64 79 70 80 72 81 69 82 65 83 66 84 67 85
REMARK SMILES IDX 68 86 47 87 48 88 56 89 49 90 55 91 57 92 54 93 50 94 51 95
REMARK SMILES IDX 52 96 53 97
REMARK H PARENT 77 50 45 61
REMARK Flexibility Score: inf
ROOT
ATOM      1  C   UNL A   1      49.339  25.898  26.857  1.00  0.00     0.188 C 
ENDROOT
BRANCH   1   2
ATOM      2  C   UNL A   1      48.035  26.460  26.281  1.00  0.00     0.188 C 
BRANCH   2   3
ATOM      3  O   UNL A   1      47.510  27.554  26.999  1.00  0.00    -0.376 OA
BRANCH   3   4
ATOM      4  C   UNL A   1      46.326  28.193  26.549  1.00  0.00     0.202 C 
BRANCH   4   5
ATOM      5  C   UNL A   1      45.113  28.513  27.449  1.00  0.00     0.261 C 
BRANCH   5   6
ATOM      6  O   UNL A   1      43.865  28.797  26.802  1.00  0.00    -0.463 OA
BRANCH   6   7
ATOM      7  C   UNL A   1      42.799  29.117  27.569  1.00  0.00     0.316 C 
ATOM      8  O   UNL A   1      42.776  30.093  28.315  1.00  0.00    -0.251 OA
BRANCH   7   9
ATOM      9  C   UNL A   1      41.587  28.163  27.365  1.00  0.00     0.087 C 
ATOM     10  C   UNL A   1      40.663  28.018  28.609  1.00  0.00     0.028 C 
ATOM     11  C   UNL A   1      40.737  28.863  26.282  1.00  0.00     0.028 C 
BRANCH   9  12
ATOM     12  C   UNL A   1      42.015  26.764  26.852  1.00  0.00    -0.031 A 
ATOM     13  C   UNL A   1      42.516  26.541  25.557  1.00  0.00     0.005 A 
ATOM     14  C   UNL A   1      41.906  25.642  27.689  1.00  0.00     0.005 A 
ATOM     15  C   UNL A   1      42.964  25.281  25.145  1.00  0.00     0.012 A 
ATOM     16  C   UNL A   1      42.288  24.367  27.254  1.00  0.00     0.012 A 
ATOM     17  C   UNL A   1      42.866  24.182  25.997  1.00  0.00     0.018 A 
BRANCH  17  18
ATOM     18  C   UNL A   1      43.405  22.870  25.532  1.00  0.00     0.162 C 
ATOM     19  O   UNL A   1      42.900  22.322  24.551  1.00  0.00    -0.294 OA
BRANCH  18  20
ATOM     20  C   UNL A   1      44.601  22.240  26.222  1.00  0.00     0.082 C 
BRANCH  20  21
ATOM     21  C   UNL A   1      45.776  23.209  26.376  1.00  0.00     0.024 C 
BRANCH  21  22
ATOM     22  C   UNL A   1      45.895  23.917  27.722  1.00  0.00     0.110 C 
ATOM     23  Cl  UNL A   1      44.858  23.166  28.960  1.00  0.00    -0.127 Cl
ENDBRANCH  21  22
ENDBRANCH  20  21
ENDBRANCH  18  20
ENDBRANCH  17  18
ENDBRANCH   9  12
ENDBRANCH   7   9
ENDBRANCH   6   7
ENDBRANCH   5   6
ENDBRANCH   4   5
ENDBRANCH   3   4
ENDBRANCH   2   3
ENDBRANCH   1   2
BRANCH   1  24
ATOM     24  O   UNL A   1      49.843  26.548  28.009  1.00  0.00    -0.377 OA
BRANCH  24  25
ATOM     25  C   UNL A   1      51.036  26.052  28.615  1.00  0.00     0.188 C 
BRANCH  25  26
ATOM     26  C   UNL A   1      52.434  26.306  28.001  1.00  0.00     0.188 C 
BRANCH  26  27
ATOM     27  O   UNL A   1      53.090  27.484  28.447  1.00  0.00    -0.376 OA
BRANCH  27  28
ATOM     28  C   UNL A   1      53.621  28.364  27.469  1.00  0.00     0.202 C 
BRANCH  28  29
ATOM     29  C   UNL A   1      52.658  29.386  26.842  1.00  0.00     0.261 C 
BRANCH  29  30
ATOM     30  O   UNL A   1      52.722  30.725  27.360  1.00  0.00    -0.460 OA
BRANCH  30  31
ATOM     31  C   UNL A   1      52.491  30.896  28.680  1.00  0.00     0.338 C 
ATOM     32  O   UNL A   1      53.326  30.917  29.570  1.00  0.00    -0.246 OA
BRANCH  31  33
ATOM     33  C   UNL A   1      51.070  31.268  28.847  1.00  0.00     0.060 A 
ATOM     34  C   UNL A   1      50.644  31.781  30.080  1.00  0.00     0.016 A 
ATOM     35  C   UNL A   1      50.166  31.122  27.793  1.00  0.00     0.016 A 
ATOM     36  C   UNL A   1      49.304  32.118  30.271  1.00  0.00     0.010 A 
ATOM     37  C   UNL A   1      48.818  31.435  27.996  1.00  0.00     0.010 A 
ATOM     38  C   UNL A   1      48.376  31.903  29.246  1.00  0.00    -0.014 A 
BRANCH  38  39
ATOM     39  C   UNL A   1      46.924  31.978  29.554  1.00  0.00     0.031 A 
ATOM     40  C   UNL A   1      46.275  30.791  30.216  1.00  0.00     0.074 A 
ATOM     41  C   UNL A   1      46.210  33.089  29.298  1.00  0.00     0.049 A 
ATOM     42  N   UNL A   1      45.026  30.606  30.550  1.00  0.00    -0.248 NA
ATOM     43  C   UNL A   1      47.161  29.663  30.544  1.00  0.00     0.031 C 
ATOM     44  C   UNL A   1      46.742  34.320  28.715  1.00  0.00     0.029 A 
ATOM     45  N   UNL A   1      44.878  33.360  29.499  1.00  0.00    -0.354 N 
ATOM     46  C   UNL A   1      44.973  29.341  31.129  1.00  0.00     0.074 A 
ATOM     47  C   UNL A   1      46.309  28.790  31.061  1.00  0.00     0.031 C 
ATOM     48  C   UNL A   1      45.743  35.213  28.598  1.00  0.00     0.029 A 
ATOM     49  C   UNL A   1      44.494  34.605  29.056  1.00  0.00     0.049 A 
ATOM     50  H   UNL A   1      44.257  32.723  29.920  1.00  0.00     0.167 HD
ATOM     51  C   UNL A   1      43.909  28.704  31.676  1.00  0.00     0.034 A 
ATOM     52  C   UNL A   1      43.272  35.173  29.001  1.00  0.00     0.034 A 
ATOM     53  C   UNL A   1      42.579  29.260  31.724  1.00  0.00     0.049 A 
ATOM     54  C   UNL A   1      42.081  34.395  29.521  1.00  0.00     0.074 A 
ATOM     55  C   UNL A   1      41.431  28.700  32.255  1.00  0.00     0.029 A 
ATOM     56  N   UNL A   1      42.215  30.499  31.212  1.00  0.00    -0.354 N 
ATOM     57  N   UNL A   1      42.045  33.202  30.069  1.00  0.00    -0.248 NA
ATOM     58  C   UNL A   1      40.769  35.049  29.423  1.00  0.00     0.031 C 
ATOM     59  C   UNL A   1      40.360  29.560  31.992  1.00  0.00     0.029 A 
ATOM     60  C   UNL A   1      40.854  30.702  31.382  1.00  0.00     0.049 A 
ATOM     61  H   UNL A   1      42.833  31.139  30.790  1.00  0.00     0.167 HD
ATOM     62  C   UNL A   1      40.711  32.982  30.412  1.00  0.00     0.074 A 
ATOM     63  C   UNL A   1      39.984  34.173  30.031  1.00  0.00     0.031 C 
ATOM     64  C   UNL A   1      40.137  31.893  30.989  1.00  0.00     0.034 A 
BRANCH  51  65
ATOM     65  C   UNL A   1      44.132  27.313  32.217  1.00  0.00     0.023 A 
ATOM     66  C   UNL A   1      44.335  27.073  33.588  1.00  0.00     0.031 A 
ATOM     67  C   UNL A   1      44.148  26.208  31.346  1.00  0.00     0.131 A 
ATOM     68  C   UNL A   1      44.602  25.771  34.039  1.00  0.00     0.055 A 
ATOM     69  C   UNL A   1      44.334  24.906  31.812  1.00  0.00     0.041 A 
ATOM     70  F   UNL A   1      43.989  26.379  30.025  1.00  0.00    -0.206 F 
ATOM     71  C   UNL A   1      44.574  24.682  33.164  1.00  0.00     0.022 A 
BRANCH  68  72
ATOM     72  S   UNL A   1      45.113  25.536  35.762  1.00  0.00     0.124 S 
ATOM     73  O   UNL A   1      46.367  24.803  35.601  1.00  0.00    -0.237 OA
ATOM     74  O   UNL A   1      45.232  26.907  36.246  1.00  0.00    -0.237 OA
ATOM     75  O   UNL A   1      44.017  24.763  36.343  1.00  0.00    -0.744 OA
ENDBRANCH  68  72
ENDBRANCH  51  65
BRANCH  52  76
ATOM     76  C   UNL A   1      43.080  36.523  28.390  1.00  0.00     0.023 A 
ATOM     77  C   UNL A   1      43.332  37.696  29.120  1.00  0.00     0.031 A 
ATOM     78  C   UNL A   1      42.548  36.659  27.094  1.00  0.00     0.131 A 
ATOM     79  C   UNL A   1      42.993  38.946  28.576  1.00  0.00     0.055 A 
ATOM     80  C   UNL A   1      42.278  37.908  26.532  1.00  0.00     0.041 A 
ATOM     81  F   UNL A   1      42.277  35.573  26.353  1.00  0.00    -0.206 F 
ATOM     82  C   UNL A   1      42.482  39.061  27.282  1.00  0.00     0.022 A 
BRANCH  79  83
ATOM     83  S   UNL A   1      43.107  40.414  29.638  1.00  0.00     0.124 S 
ATOM     84  O   UNL A   1      41.706  40.655  29.960  1.00  0.00    -0.237 OA
ATOM     85  O   UNL A   1      43.943  39.931  30.732  1.00  0.00    -0.237 OA
ATOM     86  O   UNL A   1      43.731  41.412  28.772  1.00  0.00    -0.744 OA
ENDBRANCH  79  83
ENDBRANCH  52  76
BRANCH  64  87
ATOM     87  C   UNL A   1      38.657  31.970  31.289  1.00  0.00     0.023 A 
ATOM     88  C   UNL A   1      38.159  32.707  32.378  1.00  0.00     0.031 A 
ATOM     89  C   UNL A   1      37.734  31.275  30.487  1.00  0.00     0.131 A 
ATOM     90  C   UNL A   1      36.789  32.674  32.677  1.00  0.00     0.055 A 
ATOM     91  C   UNL A   1      36.363  31.308  30.745  1.00  0.00     0.041 A 
ATOM     92  F   UNL A   1      38.150  30.551  29.436  1.00  0.00    -0.206 F 
ATOM     93  C   UNL A   1      35.885  31.995  31.856  1.00  0.00     0.022 A 
BRANCH  90  94
ATOM     94  S   UNL A   1      36.219  33.426  34.226  1.00  0.00     0.124 S 
ATOM     95  O   UNL A   1      36.675  34.805  34.079  1.00  0.00    -0.237 OA
ATOM     96  O   UNL A   1      34.776  33.223  34.159  1.00  0.00    -0.237 OA
ATOM     97  O   UNL A   1      36.907  32.651  35.258  1.00  0.00    -0.744 OA
ENDBRANCH  90  94
ENDBRANCH  64  87
ENDBRANCH  38  39
ENDBRANCH  31  33
ENDBRANCH  30  31
ENDBRANCH  29  30
ENDBRANCH  28  29
ENDBRANCH  27  28
ENDBRANCH  26  27
ENDBRANCH  25  26
ENDBRANCH  24  25
ENDBRANCH   1  24
TORSDOF 28
ENDMDL
MODEL 2
REMARK VINA RESULT:      -6.3      4.719      8.670
REMARK SMILES CC(C)(C(=O)OCCOCCOCCOCCOC(=O)c1ccc(-c2c3nc(c(-c4cc(S(=O)(=O)[O-])ccc4F)c4ccc([nH]4)c(-c4cc(S(=O)(=O)[O-])ccc4F)c4nc(c(-c5cc(S(=O)(=O)[O-])ccc5F)c5ccc2[nH]5)C=C4)C=C3)cc1)c1ccc(C(=O)CCCCl)cc1
REMARK SMILES IDX 11 1 10 2 9 3 8 4 7 5 6 6 4 7 5 8 2 9 1 10 3 11 84 12 85 13
REMARK SMILES IDX 95 14 86 15 94 16 87 17 88 18 89 19 90 20 91 21 92 22 93 23
REMARK SMILES IDX 12 24 13 25 14 26 15 27 16 28 17 29 18 30 19 31 20 32 21 33
REMARK SMILES IDX 22 34 83 35 23 36 82 37 24 38 25 39 26 40 76 41 27 42 81 43
REMARK SMILES IDX 75 44 77 45 28 46 80 47 74 48 73 49 29 51 61 52 41 53 60 54
REMARK SMILES IDX 42 55 45 56 59 57 78 58 43 59 44 60 58 62 79 63 46 64 30 65
REMARK SMILES IDX 31 66 39 67 32 68 38 69 40 70 37 71 33 72 34 73 35 74 36 75
REMARK SMILES IDX 62 76 63 77 71 78 64 79 70 80 72 81 69 82 65 83 66 84 67 85
REMARK SMILES IDX 68 86 47 87 48 88 56 89 49 90 55 91 57 92 54 93 50 94 51 95
REMARK SMILES IDX 52 96 53 97
REMARK H PARENT 77 50 45 61
REMARK Flexibility Score: inf
ROOT
ATOM      1  C   UNL A   1      45.327  27.510  36.312  1.00  0.00     0.188 C 
ENDROOT
BRANCH   1   2
ATOM      2  C   UNL A   1      44.539  28.294  35.258  1.00  0.00     0.188 C 
BRANCH   2   3
ATOM      3  O   UNL A   1      43.236  27.804  35.027  1.00  0.00    -0.376 OA
BRANCH   3   4
ATOM      4  C   UNL A   1      42.365  28.497  34.149  1.00  0.00     0.202 C 
BRANCH   4   5
ATOM      5  C   UNL A   1      41.173  29.364  34.608  1.00  0.00     0.261 C 
BRANCH   5   6
ATOM      6  O   UNL A   1      40.296  29.875  33.595  1.00  0.00    -0.463 OA
BRANCH   6   7
ATOM      7  C   UNL A   1      39.636  28.995  32.810  1.00  0.00     0.316 C 
ATOM      8  O   UNL A   1      39.086  27.986  33.244  1.00  0.00    -0.251 OA
BRANCH   7   9
ATOM      9  C   UNL A   1      39.590  29.422  31.315  1.00  0.00     0.087 C 
ATOM     10  C   UNL A   1      38.223  30.008  30.852  1.00  0.00     0.028 C 
ATOM     11  C   UNL A   1      40.604  30.583  31.225  1.00  0.00     0.028 C 
BRANCH   9  12
ATOM     12  C   UNL A   1      40.032  28.283  30.360  1.00  0.00    -0.031 A 
ATOM     13  C   UNL A   1      39.124  27.417  29.725  1.00  0.00     0.005 A 
ATOM     14  C   UNL A   1      41.395  28.073  30.097  1.00  0.00     0.005 A 
ATOM     15  C   UNL A   1      39.546  26.446  28.810  1.00  0.00     0.012 A 
ATOM     16  C   UNL A   1      41.824  27.055  29.236  1.00  0.00     0.012 A 
ATOM     17  C   UNL A   1      40.903  26.264  28.548  1.00  0.00     0.018 A 
BRANCH  17  18
ATOM     18  C   UNL A   1      41.300  25.251  27.525  1.00  0.00     0.162 C 
ATOM     19  O   UNL A   1      40.781  24.134  27.546  1.00  0.00    -0.294 OA
BRANCH  18  20
ATOM     20  C   UNL A   1      42.293  25.607  26.433  1.00  0.00     0.082 C 
BRANCH  20  21
ATOM     21  C   UNL A   1      43.453  24.613  26.340  1.00  0.00     0.024 C 
BRANCH  21  22
ATOM     22  C   UNL A   1      44.143  24.508  24.983  1.00  0.00     0.110 C 
ATOM     23  Cl  UNL A   1      43.962  22.885  24.271  1.00  0.00    -0.127 Cl
ENDBRANCH  21  22
ENDBRANCH  20  21
ENDBRANCH  18  20
ENDBRANCH  17  18
ENDBRANCH   9  12
ENDBRANCH   7   9
ENDBRANCH   6   7
ENDBRANCH   5   6
ENDBRANCH   4   5
ENDBRANCH   3   4
ENDBRANCH   2   3
ENDBRANCH   1   2
BRANCH   1  24
ATOM     24  O   UNL A   1      45.184  27.948  37.651  1.00  0.00    -0.377 OA
BRANCH  24  25
ATOM     25  C   UNL A   1      45.282  29.344  37.934  1.00  0.00     0.188 C 
BRANCH  25  26
ATOM     26  C   UNL A   1      45.568  29.873  39.361  1.00  0.00     0.188 C 
BRANCH  26  27
ATOM     27  O   UNL A   1      46.830  30.499  39.536  1.00  0.00    -0.376 OA
BRANCH  27  28
ATOM     28  C   UNL A   1      47.982  29.834  39.043  1.00  0.00     0.202 C 
BRANCH  28  29
ATOM     29  C   UNL A   1      48.706  30.471  37.846  1.00  0.00     0.261 C 
BRANCH  29  30
ATOM     30  O   UNL A   1      49.294  31.763  38.069  1.00  0.00    -0.460 OA
BRANCH  30  31
ATOM     31  C   UNL A   1      49.115  32.704  37.117  1.00  0.00     0.338 C 
ATOM     32  O   UNL A   1      49.989  33.296  36.504  1.00  0.00    -0.246 OA
BRANCH  31  33
ATOM     33  C   UNL A   1      47.675  32.748  36.787  1.00  0.00     0.060 A 
ATOM     34  C   UNL A   1      47.150  31.781  35.918  1.00  0.00     0.016 A 
ATOM     35  C   UNL A   1      46.846  33.727  37.337  1.00  0.00     0.016 A 
ATOM     36  C   UNL A   1      45.799  31.813  35.572  1.00  0.00     0.010 A 
ATOM     37  C   UNL A   1      45.499  33.774  36.967  1.00  0.00     0.010 A 
ATOM     38  C   UNL A   1      44.977  32.837  36.057  1.00  0.00    -0.014 A 
BRANCH  38  39
ATOM     39  C   UNL A   1      43.634  33.039  35.453  1.00  0.00     0.031 A 
ATOM     40  C   UNL A   1      43.558  33.384  33.989  1.00  0.00     0.074 A 
ATOM     41  C   UNL A   1      42.511  32.870  36.172  1.00  0.00     0.049 A 
ATOM     42  N   UNL A   1      42.511  33.639  33.249  1.00  0.00    -0.248 NA
ATOM     43  C   UNL A   1      44.837  33.450  33.266  1.00  0.00     0.031 C 
ATOM     44  C   UNL A   1      42.459  32.478  37.580  1.00  0.00     0.029 A 
ATOM     45  N   UNL A   1      41.192  33.008  35.813  1.00  0.00    -0.354 N 
ATOM     46  C   UNL A   1      43.004  33.895  31.973  1.00  0.00     0.074 A 
ATOM     47  C   UNL A   1      44.446  33.804  32.052  1.00  0.00     0.031 C 
ATOM     48  C   UNL A   1      41.172  32.414  37.967  1.00  0.00     0.029 A 
ATOM     49  C   UNL A   1      40.311  32.803  36.850  1.00  0.00     0.049 A 
ATOM     50  H   UNL A   1      40.904  33.232  34.899  1.00  0.00     0.167 HD
ATOM     51  C   UNL A   1      42.316  34.168  30.838  1.00  0.00     0.034 A 
ATOM     52  C   UNL A   1      38.970  32.941  36.896  1.00  0.00     0.034 A 
ATOM     53  C   UNL A   1      40.878  34.269  30.777  1.00  0.00     0.049 A 
ATOM     54  C   UNL A   1      38.234  33.354  35.640  1.00  0.00     0.074 A 
ATOM     55  C   UNL A   1      40.080  34.541  29.680  1.00  0.00     0.029 A 
ATOM     56  N   UNL A   1      40.022  34.114  31.860  1.00  0.00    -0.354 N 
ATOM     57  N   UNL A   1      38.712  33.588  34.438  1.00  0.00    -0.248 NA
ATOM     58  C   UNL A   1      36.777  33.508  35.746  1.00  0.00     0.031 C 
ATOM     59  C   UNL A   1      38.754  34.632  30.113  1.00  0.00     0.029 A 
ATOM     60  C   UNL A   1      38.710  34.322  31.463  1.00  0.00     0.049 A 
ATOM     61  H   UNL A   1      40.306  33.889  32.776  1.00  0.00     0.167 HD
ATOM     62  C   UNL A   1      37.606  33.884  33.642  1.00  0.00     0.074 A 
ATOM     63  C   UNL A   1      36.441  33.773  34.492  1.00  0.00     0.031 C 
ATOM     64  C   UNL A   1      37.556  34.217  32.325  1.00  0.00     0.034 A 
BRANCH  51  65
ATOM     65  C   UNL A   1      43.114  34.430  29.584  1.00  0.00     0.023 A 
ATOM     66  C   UNL A   1      43.494  33.392  28.715  1.00  0.00     0.031 A 
ATOM     67  C   UNL A   1      43.506  35.741  29.255  1.00  0.00     0.131 A 
ATOM     68  C   UNL A   1      44.290  33.673  27.594  1.00  0.00     0.055 A 
ATOM     69  C   UNL A   1      44.228  36.024  28.095  1.00  0.00     0.041 A 
ATOM     70  F   UNL A   1      43.196  36.768  30.060  1.00  0.00    -0.206 F 
ATOM     71  C   UNL A   1      44.635  34.986  27.263  1.00  0.00     0.022 A 
BRANCH  68  72
ATOM     72  S   UNL A   1      44.976  32.288  26.646  1.00  0.00     0.124 S 
ATOM     73  O   UNL A   1      43.842  31.921  25.800  1.00  0.00    -0.237 OA
ATOM     74  O   UNL A   1      46.109  32.904  25.963  1.00  0.00    -0.237 OA
ATOM     75  O   UNL A   1      45.322  31.308  27.672  1.00  0.00    -0.744 OA
ENDBRANCH  68  72
ENDBRANCH  51  65
BRANCH  52  76
ATOM     76  C   UNL A   1      38.222  32.744  38.176  1.00  0.00     0.023 A 
ATOM     77  C   UNL A   1      38.270  33.701  39.203  1.00  0.00     0.031 A 
ATOM     78  C   UNL A   1      37.525  31.547  38.427  1.00  0.00     0.131 A 
ATOM     79  C   UNL A   1      37.691  33.419  40.450  1.00  0.00     0.055 A 
ATOM     80  C   UNL A   1      36.891  31.302  39.646  1.00  0.00     0.041 A 
ATOM     81  F   UNL A   1      37.454  30.592  37.487  1.00  0.00    -0.206 F 
ATOM     82  C   UNL A   1      36.988  32.234  40.674  1.00  0.00     0.022 A 
BRANCH  79  83
ATOM     83  S   UNL A   1      37.980  34.573  41.822  1.00  0.00     0.124 S 
ATOM     84  O   UNL A   1      36.633  34.745  42.352  1.00  0.00    -0.237 OA
ATOM     85  O   UNL A   1      38.908  33.820  42.658  1.00  0.00    -0.237 OA
ATOM     86  O   UNL A   1      38.548  35.747  41.163  1.00  0.00    -0.744 OA
ENDBRANCH  79  83
ENDBRANCH  52  76
BRANCH  64  87
ATOM     87  C   UNL A   1      36.187  34.432  31.718  1.00  0.00     0.023 A 
ATOM     88  C   UNL A   1      35.389  35.536  32.064  1.00  0.00     0.031 A 
ATOM     89  C   UNL A   1      35.666  33.505  30.798  1.00  0.00     0.131 A 
ATOM     90  C   UNL A   1      34.087  35.646  31.551  1.00  0.00     0.055 A 
ATOM     91  C   UNL A   1      34.399  33.661  30.232  1.00  0.00     0.041 A 
ATOM     92  F   UNL A   1      36.380  32.429  30.431  1.00  0.00    -0.206 F 
ATOM     93  C   UNL A   1      33.595  34.727  30.622  1.00  0.00     0.022 A 
BRANCH  90  94
ATOM     94  S   UNL A   1      33.000  36.939  32.211  1.00  0.00     0.124 S 
ATOM     95  O   UNL A   1      32.697  37.719  31.015  1.00  0.00    -0.237 OA
ATOM     96  O   UNL A   1      31.893  36.165  32.763  1.00  0.00    -0.237 OA
ATOM     97  O   UNL A   1      33.835  37.619  33.200  1.00  0.00    -0.744 OA
ENDBRANCH  90  94
ENDBRANCH  64  87
ENDBRANCH  38  39
ENDBRANCH  31  33
ENDBRANCH  30  31
ENDBRANCH  29  30
ENDBRANCH  28  29
ENDBRANCH  27  28
ENDBRANCH  26  27
ENDBRANCH  25  26
ENDBRANCH  24  25
ENDBRANCH   1  24
TORSDOF 28
ENDMDL
MODEL 3
REMARK VINA RESULT:      -6.2      7.302     10.629
REMARK SMILES CC(C)(C(=O)OCCOCCOCCOCCOC(=O)c1ccc(-c2c3nc(c(-c4cc(S(=O)(=O)[O-])ccc4F)c4ccc([nH]4)c(-c4cc(S(=O)(=O)[O-])ccc4F)c4nc(c(-c5cc(S(=O)(=O)[O-])ccc5F)c5ccc2[nH]5)C=C4)C=C3)cc1)c1ccc(C(=O)CCCCl)cc1
REMARK SMILES IDX 11 1 10 2 9 3 8 4 7 5 6 6 4 7 5 8 2 9 1 10 3 11 84 12 85 13
REMARK SMILES IDX 95 14 86 15 94 16 87 17 88 18 89 19 90 20 91 21 92 22 93 23
REMARK SMILES IDX 12 24 13 25 14 26 15 27 16 28 17 29 18 30 19 31 20 32 21 33
REMARK SMILES IDX 22 34 83 35 23 36 82 37 24 38 25 39 26 40 76 41 27 42 81 43
REMARK SMILES IDX 75 44 77 45 28 46 80 47 74 48 73 49 29 51 61 52 41 53 60 54
REMARK SMILES IDX 42 55 45 56 59 57 78 58 43 59 44 60 58 62 79 63 46 64 30 65
REMARK SMILES IDX 31 66 39 67 32 68 38 69 40 70 37 71 33 72 34 73 35 74 36 75
REMARK SMILES IDX 62 76 63 77 71 78 64 79 70 80 72 81 69 82 65 83 66 84 67 85
REMARK SMILES IDX 68 86 47 87 48 88 56 89 49 90 55 91 57 92 54 93 50 94 51 95
REMARK SMILES IDX 52 96 53 97
REMARK H PARENT 77 50 45 61
REMARK Flexibility Score: inf
ROOT
ATOM      1  C   UNL A   1      44.175  30.632  29.106  1.00  0.00     0.188 C 
ENDROOT
BRANCH   1   2
ATOM      2  C   UNL A   1      43.522  30.504  27.726  1.00  0.00     0.188 C 
BRANCH   2   3
ATOM      3  O   UNL A   1      43.558  29.200  27.188  1.00  0.00    -0.376 OA
BRANCH   3   4
ATOM      4  C   UNL A   1      44.542  28.279  27.631  1.00  0.00     0.202 C 
BRANCH   4   5
ATOM      5  C   UNL A   1      44.232  26.972  28.392  1.00  0.00     0.261 C 
BRANCH   5   6
ATOM      6  O   UNL A   1      43.339  26.039  27.770  1.00  0.00    -0.463 OA
BRANCH   6   7
ATOM      7  C   UNL A   1      42.023  26.108  28.071  1.00  0.00     0.316 C 
ATOM      8  O   UNL A   1      41.586  26.709  29.049  1.00  0.00    -0.251 OA
BRANCH   7   9
ATOM      9  C   UNL A   1      41.116  25.402  27.021  1.00  0.00     0.087 C 
ATOM     10  C   UNL A   1      39.592  25.649  27.215  1.00  0.00     0.028 C 
ATOM     11  C   UNL A   1      41.492  26.080  25.685  1.00  0.00     0.028 C 
BRANCH   9  12
ATOM     12  C   UNL A   1      41.401  23.881  26.919  1.00  0.00    -0.031 A 
ATOM     13  C   UNL A   1      42.177  23.313  25.894  1.00  0.00     0.005 A 
ATOM     14  C   UNL A   1      40.871  22.999  27.874  1.00  0.00     0.005 A 
ATOM     15  C   UNL A   1      42.481  21.947  25.868  1.00  0.00     0.012 A 
ATOM     16  C   UNL A   1      41.114  21.622  27.809  1.00  0.00     0.012 A 
ATOM     17  C   UNL A   1      41.960  21.089  26.836  1.00  0.00     0.018 A 
BRANCH  17  18
ATOM     18  C   UNL A   1      42.355  19.649  26.796  1.00  0.00     0.162 C 
ATOM     19  O   UNL A   1      42.196  18.950  27.798  1.00  0.00    -0.294 OA
BRANCH  18  20
ATOM     20  C   UNL A   1      42.895  19.034  25.519  1.00  0.00     0.082 C 
BRANCH  20  21
ATOM     21  C   UNL A   1      44.424  18.984  25.484  1.00  0.00     0.024 C 
BRANCH  21  22
ATOM     22  C   UNL A   1      45.086  19.458  24.194  1.00  0.00     0.110 C 
ATOM     23  Cl  UNL A   1      46.744  20.047  24.476  1.00  0.00    -0.127 Cl
ENDBRANCH  21  22
ENDBRANCH  20  21
ENDBRANCH  18  20
ENDBRANCH  17  18
ENDBRANCH   9  12
ENDBRANCH   7   9
ENDBRANCH   6   7
ENDBRANCH   5   6
ENDBRANCH   4   5
ENDBRANCH   3   4
ENDBRANCH   2   3
ENDBRANCH   1   2
BRANCH   1  24
ATOM     24  O   UNL A   1      43.319  31.013  30.167  1.00  0.00    -0.377 OA
BRANCH  24  25
ATOM     25  C   UNL A   1      41.919  31.129  29.917  1.00  0.00     0.188 C 
BRANCH  25  26
ATOM     26  C   UNL A   1      40.913  30.040  30.364  1.00  0.00     0.188 C 
BRANCH  26  27
ATOM     27  O   UNL A   1      39.666  30.049  29.685  1.00  0.00    -0.376 OA
BRANCH  27  28
ATOM     28  C   UNL A   1      38.999  31.291  29.526  1.00  0.00     0.202 C 
BRANCH  28  29
ATOM     29  C   UNL A   1      37.496  31.249  29.207  1.00  0.00     0.261 C 
BRANCH  29  30
ATOM     30  O   UNL A   1      36.603  31.518  30.301  1.00  0.00    -0.460 OA
BRANCH  30  31
ATOM     31  C   UNL A   1      36.535  30.602  31.291  1.00  0.00     0.338 C 
ATOM     32  O   UNL A   1      36.221  29.428  31.178  1.00  0.00    -0.246 OA
BRANCH  31  33
ATOM     33  C   UNL A   1      37.112  31.207  32.510  1.00  0.00     0.060 A 
ATOM     34  C   UNL A   1      36.622  32.444  32.950  1.00  0.00     0.016 A 
ATOM     35  C   UNL A   1      38.122  30.554  33.220  1.00  0.00     0.016 A 
ATOM     36  C   UNL A   1      37.165  33.048  34.084  1.00  0.00     0.010 A 
ATOM     37  C   UNL A   1      38.684  31.174  34.341  1.00  0.00     0.010 A 
ATOM     38  C   UNL A   1      38.230  32.439  34.758  1.00  0.00    -0.014 A 
BRANCH  38  39
ATOM     39  C   UNL A   1      38.993  33.219  35.766  1.00  0.00     0.031 A 
ATOM     40  C   UNL A   1      38.637  33.044  37.219  1.00  0.00     0.074 A 
ATOM     41  C   UNL A   1      40.010  34.023  35.407  1.00  0.00     0.049 A 
ATOM     42  N   UNL A   1      39.132  33.636  38.274  1.00  0.00    -0.248 NA
ATOM     43  C   UNL A   1      37.576  32.069  37.517  1.00  0.00     0.031 C 
ATOM     44  C   UNL A   1      40.485  34.226  34.039  1.00  0.00     0.029 A 
ATOM     45  N   UNL A   1      40.828  34.822  36.169  1.00  0.00    -0.354 N 
ATOM     46  C   UNL A   1      38.446  33.105  39.362  1.00  0.00     0.074 A 
ATOM     47  C   UNL A   1      37.472  32.175  38.833  1.00  0.00     0.031 C 
ATOM     48  C   UNL A   1      41.508  35.099  34.059  1.00  0.00     0.029 A 
ATOM     49  C   UNL A   1      41.732  35.551  35.431  1.00  0.00     0.049 A 
ATOM     50  H   UNL A   1      40.774  34.867  37.150  1.00  0.00     0.167 HD
ATOM     51  C   UNL A   1      38.621  33.362  40.681  1.00  0.00     0.034 A 
ATOM     52  C   UNL A   1      42.616  36.493  35.819  1.00  0.00     0.034 A 
ATOM     53  C   UNL A   1      39.587  34.303  41.193  1.00  0.00     0.049 A 
ATOM     54  C   UNL A   1      42.717  36.841  37.289  1.00  0.00     0.074 A 
ATOM     55  C   UNL A   1      39.848  34.639  42.509  1.00  0.00     0.029 A 
ATOM     56  N   UNL A   1      40.445  35.068  40.413  1.00  0.00    -0.354 N 
ATOM     57  N   UNL A   1      42.065  36.328  38.308  1.00  0.00    -0.248 NA
ATOM     58  C   UNL A   1      43.681  37.886  37.658  1.00  0.00     0.031 C 
ATOM     59  C   UNL A   1      40.800  35.662  42.522  1.00  0.00     0.029 A 
ATOM     60  C   UNL A   1      41.207  35.900  41.219  1.00  0.00     0.049 A 
ATOM     61  H   UNL A   1      40.503  35.025  39.431  1.00  0.00     0.167 HD
ATOM     62  C   UNL A   1      42.569  36.968  39.440  1.00  0.00     0.074 A 
ATOM     63  C   UNL A   1      43.593  37.881  38.979  1.00  0.00     0.031 C 
ATOM     64  C   UNL A   1      42.220  36.815  40.745  1.00  0.00     0.034 A 
BRANCH  51  65
ATOM     65  C   UNL A   1      37.713  32.654  41.656  1.00  0.00     0.023 A 
ATOM     66  C   UNL A   1      36.393  33.081  41.887  1.00  0.00     0.031 A 
ATOM     67  C   UNL A   1      38.178  31.537  42.373  1.00  0.00     0.131 A 
ATOM     68  C   UNL A   1      35.605  32.431  42.849  1.00  0.00     0.055 A 
ATOM     69  C   UNL A   1      37.363  30.846  43.271  1.00  0.00     0.041 A 
ATOM     70  F   UNL A   1      39.438  31.102  42.217  1.00  0.00    -0.206 F 
ATOM     71  C   UNL A   1      36.072  31.299  43.522  1.00  0.00     0.022 A 
BRANCH  68  72
ATOM     72  S   UNL A   1      34.010  33.163  43.304  1.00  0.00     0.124 S 
ATOM     73  O   UNL A   1      34.416  34.486  43.774  1.00  0.00    -0.237 OA
ATOM     74  O   UNL A   1      33.277  33.130  42.043  1.00  0.00    -0.237 OA
ATOM     75  O   UNL A   1      33.506  32.267  44.343  1.00  0.00    -0.744 OA
ENDBRANCH  68  72
ENDBRANCH  51  65
BRANCH  52  76
ATOM     76  C   UNL A   1      43.447  37.225  34.814  1.00  0.00     0.023 A 
ATOM     77  C   UNL A   1      43.078  38.498  34.350  1.00  0.00     0.031 A 
ATOM     78  C   UNL A   1      44.576  36.618  34.232  1.00  0.00     0.131 A 
ATOM     79  C   UNL A   1      43.786  39.091  33.293  1.00  0.00     0.055 A 
ATOM     80  C   UNL A   1      45.318  37.243  33.229  1.00  0.00     0.041 A 
ATOM     81  F   UNL A   1      44.971  35.397  34.628  1.00  0.00    -0.206 F 
ATOM     82  C   UNL A   1      44.914  38.481  32.740  1.00  0.00     0.022 A 
BRANCH  79  83
ATOM     83  S   UNL A   1      43.135  40.620  32.562  1.00  0.00     0.124 S 
ATOM     84  O   UNL A   1      44.350  41.408  32.394  1.00  0.00    -0.237 OA
ATOM     85  O   UNL A   1      42.514  40.127  31.337  1.00  0.00    -0.237 OA
ATOM     86  O   UNL A   1      42.205  41.112  33.576  1.00  0.00    -0.744 OA
ENDBRANCH  79  83
ENDBRANCH  52  76
BRANCH  64  87
ATOM     87  C   UNL A   1      42.992  37.619  41.766  1.00  0.00     0.023 A 
ATOM     88  C   UNL A   1      44.202  37.157  42.313  1.00  0.00     0.031 A 
ATOM     89  C   UNL A   1      42.496  38.857  42.216  1.00  0.00     0.131 A 
ATOM     90  C   UNL A   1      44.836  37.890  43.328  1.00  0.00     0.055 A 
ATOM     91  C   UNL A   1      43.171  39.618  43.171  1.00  0.00     0.041 A 
ATOM     92  F   UNL A   1      41.344  39.348  41.733  1.00  0.00    -0.206 F 
ATOM     93  C   UNL A   1      44.339  39.127  43.746  1.00  0.00     0.022 A 
BRANCH  90  94
ATOM     94  S   UNL A   1      46.251  37.145  44.183  1.00  0.00     0.124 S 
ATOM     95  O   UNL A   1      46.347  35.842  43.531  1.00  0.00    -0.237 OA
ATOM     96  O   UNL A   1      47.326  38.085  43.885  1.00  0.00    -0.237 OA
ATOM     97  O   UNL A   1      45.828  37.109  45.582  1.00  0.00    -0.744 OA
ENDBRANCH  90  94
ENDBRANCH  64  87
ENDBRANCH  38  39
ENDBRANCH  31  33
ENDBRANCH  30  31
ENDBRANCH  29  30
ENDBRANCH  28  29
ENDBRANCH  27  28
ENDBRANCH  26  27
ENDBRANCH  25  26
ENDBRANCH  24  25
ENDBRANCH   1  24
TORSDOF 28
ENDMDL
