MODEL 1
REMARK VINA RESULT:      -8.4      0.000      0.000
REMARK SMILES Cc1cc(C(=O)OCCOCCOCCOCCOC(=O)c2ccc(-c3c4nc(c(-c5cc(S(=O)(=O)[O-])ccc5F)c5ccc([nH]5)c(-c5cc(S(=O)(=O)[O-])ccc5F)c5nc(c(-c6cc(S(=O)(=O)[O-])ccc6F)c6ccc3[nH]6)C=C5)C=C4)cc2)nc(N2CCN(c3ccccc3Cl)CC2)n1
REMARK SMILES IDX 14 1 13 2 12 3 11 4 10 5 9 6 8 7 7 8 5 9 6 10 4 11 1 12 2 13
REMARK SMILES IDX 3 14 100 15 86 16 85 17 87 18 88 19 99 20 89 21 98 22 90 23
REMARK SMILES IDX 91 24 92 25 96 26 93 27 95 28 97 29 94 30 15 31 16 32 17 33
REMARK SMILES IDX 18 34 19 35 20 36 21 37 22 38 23 39 84 40 24 41 83 42 25 43
REMARK SMILES IDX 26 44 27 45 77 46 28 47 82 48 76 49 78 50 29 51 81 52 75 53
REMARK SMILES IDX 74 54 30 56 62 57 42 58 61 59 43 60 46 61 60 62 79 63 44 64
REMARK SMILES IDX 45 65 59 67 80 68 47 69 31 70 32 71 40 72 33 73 39 74 41 75
REMARK SMILES IDX 38 76 34 77 35 78 36 79 37 80 63 81 64 82 72 83 65 84 71 85
REMARK SMILES IDX 73 86 70 87 66 88 67 89 68 90 69 91 48 92 49 93 57 94 50 95
REMARK SMILES IDX 56 96 58 97 55 98 51 99 52 100 53 101 54 102
REMARK H PARENT 78 55 46 66
REMARK Flexibility Score: inf
ROOT
ATOM      1  C   UNL A   1      38.795  30.181  31.277  1.00  0.00     0.188 C 
ENDROOT
BRANCH   1   2
ATOM      2  O   UNL A   1      38.129  31.363  31.732  1.00  0.00    -0.377 OA
BRANCH   2   3
ATOM      3  C   UNL A   1      37.345  32.109  30.815  1.00  0.00     0.188 C 
BRANCH   3   4
ATOM      4  C   UNL A   1      35.837  32.129  31.129  1.00  0.00     0.188 C 
BRANCH   4   5
ATOM      5  O   UNL A   1      35.045  31.551  30.107  1.00  0.00    -0.376 OA
BRANCH   5   6
ATOM      6  C   UNL A   1      34.578  32.330  29.020  1.00  0.00     0.202 C 
BRANCH   6   7
ATOM      7  C   UNL A   1      34.264  31.747  27.628  1.00  0.00     0.261 C 
BRANCH   7   8
ATOM      8  O   UNL A   1      33.472  30.560  27.573  1.00  0.00    -0.459 OA
BRANCH   8   9
ATOM      9  C   UNL A   1      34.014  29.477  26.974  1.00  0.00     0.357 C 
ATOM     10  O   UNL A   1      35.045  28.911  27.294  1.00  0.00    -0.244 OA
BRANCH   9  11
ATOM     11  C   UNL A   1      33.015  28.983  25.985  1.00  0.00     0.154 A 
ATOM     12  C   UNL A   1      30.116  30.017  23.892  1.00  0.00     0.067 C 
ATOM     13  C   UNL A   1      31.175  29.211  24.585  1.00  0.00     0.044 A 
ATOM     14  C   UNL A   1      32.066  29.817  25.442  1.00  0.00     0.059 A 
ATOM     15  N   UNL A   1      31.236  27.891  24.292  1.00  0.00    -0.218 NA
ATOM     16  C   UNL A   1      32.167  27.153  24.914  1.00  0.00     0.226 A 
ATOM     17  N   UNL A   1      33.067  27.657  25.756  1.00  0.00    -0.206 NA
BRANCH  16  18
ATOM     18  N   UNL A   1      32.249  25.808  24.698  1.00  0.00    -0.337 N 
ATOM     19  C   UNL A   1      31.147  24.958  25.125  1.00  0.00     0.141 C 
ATOM     20  C   UNL A   1      33.584  25.207  24.749  1.00  0.00     0.141 C 
ATOM     21  C   UNL A   1      31.136  23.684  24.243  1.00  0.00     0.138 C 
ATOM     22  C   UNL A   1      33.603  23.897  23.924  1.00  0.00     0.138 C 
ATOM     23  N   UNL A   1      32.457  23.041  24.287  1.00  0.00    -0.367 N 
BRANCH  23  24
ATOM     24  C   UNL A   1      32.586  21.669  24.357  1.00  0.00     0.056 A 
ATOM     25  C   UNL A   1      32.276  20.873  23.242  1.00  0.00     0.027 A 
ATOM     26  C   UNL A   1      32.981  21.003  25.537  1.00  0.00     0.064 A 
ATOM     27  C   UNL A   1      32.353  19.477  23.296  1.00  0.00     0.002 A 
ATOM     28  C   UNL A   1      33.051  19.607  25.595  1.00  0.00     0.023 A 
ATOM     29  Cl  UNL A   1      33.313  21.866  27.005  1.00  0.00    -0.082 Cl
ATOM     30  C   UNL A   1      32.736  18.844  24.474  1.00  0.00     0.002 A 
ENDBRANCH  23  24
ENDBRANCH  16  18
ENDBRANCH   9  11
ENDBRANCH   8   9
ENDBRANCH   7   8
ENDBRANCH   6   7
ENDBRANCH   5   6
ENDBRANCH   4   5
ENDBRANCH   3   4
ENDBRANCH   2   3
ENDBRANCH   1   2
BRANCH   1  31
ATOM     31  C   UNL A   1      38.064  29.029  30.543  1.00  0.00     0.188 C 
BRANCH  31  32
ATOM     32  O   UNL A   1      38.914  28.142  29.830  1.00  0.00    -0.376 OA
BRANCH  32  33
ATOM     33  C   UNL A   1      38.746  28.039  28.428  1.00  0.00     0.202 C 
BRANCH  33  34
ATOM     34  C   UNL A   1      39.768  27.169  27.686  1.00  0.00     0.261 C 
BRANCH  34  35
ATOM     35  O   UNL A   1      41.003  26.923  28.376  1.00  0.00    -0.460 OA
BRANCH  35  36
ATOM     36  C   UNL A   1      41.580  25.716  28.191  1.00  0.00     0.338 C 
ATOM     37  O   UNL A   1      41.337  24.919  27.299  1.00  0.00    -0.246 OA
BRANCH  36  38
ATOM     38  C   UNL A   1      42.700  25.603  29.148  1.00  0.00     0.060 A 
ATOM     39  C   UNL A   1      43.020  26.698  29.960  1.00  0.00     0.016 A 
ATOM     40  C   UNL A   1      43.422  24.411  29.249  1.00  0.00     0.016 A 
ATOM     41  C   UNL A   1      44.089  26.614  30.853  1.00  0.00     0.010 A 
ATOM     42  C   UNL A   1      44.503  24.336  30.132  1.00  0.00     0.010 A 
ATOM     43  C   UNL A   1      44.863  25.448  30.915  1.00  0.00    -0.014 A 
BRANCH  43  44
ATOM     44  C   UNL A   1      46.157  25.451  31.645  1.00  0.00     0.031 A 
ATOM     45  C   UNL A   1      47.380  25.946  30.920  1.00  0.00     0.074 A 
ATOM     46  C   UNL A   1      46.245  25.045  32.925  1.00  0.00     0.049 A 
ATOM     47  N   UNL A   1      48.626  25.975  31.313  1.00  0.00    -0.248 NA
ATOM     48  C   UNL A   1      47.163  26.474  29.564  1.00  0.00     0.031 C 
ATOM     49  C   UNL A   1      45.124  24.598  33.749  1.00  0.00     0.029 A 
ATOM     50  N   UNL A   1      47.335  24.936  33.754  1.00  0.00    -0.354 N 
ATOM     51  C   UNL A   1      49.343  26.521  30.253  1.00  0.00     0.074 A 
ATOM     52  C   UNL A   1      48.397  26.769  29.187  1.00  0.00     0.031 C 
ATOM     53  C   UNL A   1      45.587  24.252  34.963  1.00  0.00     0.029 A 
ATOM     54  C   UNL A   1      47.041  24.408  34.990  1.00  0.00     0.049 A 
ATOM     55  H   UNL A   1      48.243  25.210  33.488  1.00  0.00     0.167 HD
ATOM     56  C   UNL A   1      50.668  26.797  30.179  1.00  0.00     0.034 A 
ATOM     57  C   UNL A   1      47.856  24.061  36.008  1.00  0.00     0.034 A 
ATOM     58  C   UNL A   1      51.602  26.533  31.246  1.00  0.00     0.049 A 
ATOM     59  C   UNL A   1      49.346  24.281  35.862  1.00  0.00     0.074 A 
ATOM     60  C   UNL A   1      52.963  26.779  31.278  1.00  0.00     0.029 A 
ATOM     61  N   UNL A   1      51.275  25.950  32.463  1.00  0.00    -0.354 N 
ATOM     62  N   UNL A   1      50.013  24.799  34.856  1.00  0.00    -0.248 NA
ATOM     63  C   UNL A   1      50.193  23.874  36.993  1.00  0.00     0.031 C 
ATOM     64  C   UNL A   1      53.472  26.271  32.477  1.00  0.00     0.029 A 
ATOM     65  C   UNL A   1      52.416  25.795  33.237  1.00  0.00     0.049 A 
ATOM     66  H   UNL A   1      50.367  25.686  32.738  1.00  0.00     0.167 HD
ATOM     67  C   UNL A   1      51.350  24.815  35.252  1.00  0.00     0.074 A 
ATOM     68  C   UNL A   1      51.392  24.270  36.592  1.00  0.00     0.031 C 
ATOM     69  C   UNL A   1      52.445  25.246  34.573  1.00  0.00     0.034 A 
BRANCH  56  70
ATOM     70  C   UNL A   1      51.190  27.368  28.884  1.00  0.00     0.023 A 
ATOM     71  C   UNL A   1      51.454  26.556  27.767  1.00  0.00     0.031 A 
ATOM     72  C   UNL A   1      51.442  28.747  28.768  1.00  0.00     0.131 A 
ATOM     73  C   UNL A   1      52.008  27.118  26.607  1.00  0.00     0.055 A 
ATOM     74  C   UNL A   1      51.917  29.313  27.584  1.00  0.00     0.041 A 
ATOM     75  F   UNL A   1      51.237  29.569  29.809  1.00  0.00    -0.206 F 
ATOM     76  C   UNL A   1      52.215  28.495  26.498  1.00  0.00     0.022 A 
BRANCH  73  77
ATOM     77  S   UNL A   1      52.583  26.007  25.294  1.00  0.00     0.124 S 
ATOM     78  O   UNL A   1      52.424  24.698  25.924  1.00  0.00    -0.237 OA
ATOM     79  O   UNL A   1      51.664  26.307  24.202  1.00  0.00    -0.237 OA
ATOM     80  O   UNL A   1      53.967  26.422  25.076  1.00  0.00    -0.744 OA
ENDBRANCH  73  77
ENDBRANCH  56  70
BRANCH  57  81
ATOM     81  C   UNL A   1      47.308  23.422  37.242  1.00  0.00     0.023 A 
ATOM     82  C   UNL A   1      47.291  22.025  37.393  1.00  0.00     0.031 A 
ATOM     83  C   UNL A   1      46.711  24.196  38.254  1.00  0.00     0.131 A 
ATOM     84  C   UNL A   1      46.638  21.445  38.492  1.00  0.00     0.055 A 
ATOM     85  C   UNL A   1      46.122  23.618  39.379  1.00  0.00     0.041 A 
ATOM     86  F   UNL A   1      46.688  25.534  38.161  1.00  0.00    -0.206 F 
ATOM     87  C   UNL A   1      46.067  22.232  39.495  1.00  0.00     0.022 A 
BRANCH  84  88
ATOM     88  S   UNL A   1      46.437  19.642  38.532  1.00  0.00     0.124 S 
ATOM     89  O   UNL A   1      45.644  19.408  37.332  1.00  0.00    -0.237 OA
ATOM     90  O   UNL A   1      47.821  19.184  38.487  1.00  0.00    -0.237 OA
ATOM     91  O   UNL A   1      45.744  19.406  39.796  1.00  0.00    -0.744 OA
ENDBRANCH  84  88
ENDBRANCH  57  81
BRANCH  69  92
ATOM     92  C   UNL A   1      53.773  25.199  35.294  1.00  0.00     0.023 A 
ATOM     93  C   UNL A   1      54.700  24.164  35.083  1.00  0.00     0.031 A 
ATOM     94  C   UNL A   1      54.114  26.212  36.210  1.00  0.00     0.131 A 
ATOM     95  C   UNL A   1      55.892  24.131  35.822  1.00  0.00     0.055 A 
ATOM     96  C   UNL A   1      55.333  26.212  36.889  1.00  0.00     0.041 A 
ATOM     97  F   UNL A   1      53.267  27.226  36.454  1.00  0.00    -0.206 F 
ATOM     98  C   UNL A   1      56.224  25.159  36.708  1.00  0.00     0.022 A 
BRANCH  95  99
ATOM     99  S   UNL A   1      56.960  22.670  35.689  1.00  0.00     0.124 S 
ATOM    100  O   UNL A   1      55.988  21.582  35.698  1.00  0.00    -0.237 OA
ATOM    101  O   UNL A   1      57.647  22.901  34.423  1.00  0.00    -0.237 OA
ATOM    102  O   UNL A   1      57.807  22.756  36.877  1.00  0.00    -0.744 OA
ENDBRANCH  95  99
ENDBRANCH  69  92
ENDBRANCH  43  44
ENDBRANCH  36  38
ENDBRANCH  35  36
ENDBRANCH  34  35
ENDBRANCH  33  34
ENDBRANCH  32  33
ENDBRANCH  31  32
ENDBRANCH   1  31
TORSDOF 25
ENDMDL
MODEL 2
REMARK VINA RESULT:      -8.2      7.057     14.801
REMARK SMILES Cc1cc(C(=O)OCCOCCOCCOCCOC(=O)c2ccc(-c3c4nc(c(-c5cc(S(=O)(=O)[O-])ccc5F)c5ccc([nH]5)c(-c5cc(S(=O)(=O)[O-])ccc5F)c5nc(c(-c6cc(S(=O)(=O)[O-])ccc6F)c6ccc3[nH]6)C=C5)C=C4)cc2)nc(N2CCN(c3ccccc3Cl)CC2)n1
REMARK SMILES IDX 14 1 13 2 12 3 11 4 10 5 9 6 8 7 7 8 5 9 6 10 4 11 1 12 2 13
REMARK SMILES IDX 3 14 100 15 86 16 85 17 87 18 88 19 99 20 89 21 98 22 90 23
REMARK SMILES IDX 91 24 92 25 96 26 93 27 95 28 97 29 94 30 15 31 16 32 17 33
REMARK SMILES IDX 18 34 19 35 20 36 21 37 22 38 23 39 84 40 24 41 83 42 25 43
REMARK SMILES IDX 26 44 27 45 77 46 28 47 82 48 76 49 78 50 29 51 81 52 75 53
REMARK SMILES IDX 74 54 30 56 62 57 42 58 61 59 43 60 46 61 60 62 79 63 44 64
REMARK SMILES IDX 45 65 59 67 80 68 47 69 31 70 32 71 40 72 33 73 39 74 41 75
REMARK SMILES IDX 38 76 34 77 35 78 36 79 37 80 63 81 64 82 72 83 65 84 71 85
REMARK SMILES IDX 73 86 70 87 66 88 67 89 68 90 69 91 48 92 49 93 57 94 50 95
REMARK SMILES IDX 56 96 58 97 55 98 51 99 52 100 53 101 54 102
REMARK H PARENT 78 55 46 66
REMARK Flexibility Score: inf
ROOT
ATOM      1  C   UNL A   1      49.957  30.223  32.783  1.00  0.00     0.188 C 
ENDROOT
BRANCH   1   2
ATOM      2  O   UNL A   1      49.327  29.573  31.675  1.00  0.00    -0.377 OA
BRANCH   2   3
ATOM      3  C   UNL A   1      49.870  29.743  30.376  1.00  0.00     0.188 C 
BRANCH   3   4
ATOM      4  C   UNL A   1      49.241  30.890  29.562  1.00  0.00     0.188 C 
BRANCH   4   5
ATOM      5  O   UNL A   1      47.895  31.153  29.914  1.00  0.00    -0.376 OA
BRANCH   5   6
ATOM      6  C   UNL A   1      46.827  30.643  29.135  1.00  0.00     0.202 C 
BRANCH   6   7
ATOM      7  C   UNL A   1      45.596  29.937  29.736  1.00  0.00     0.261 C 
BRANCH   7   8
ATOM      8  O   UNL A   1      44.437  30.733  29.989  1.00  0.00    -0.459 OA
BRANCH   8   9
ATOM      9  C   UNL A   1      44.095  31.648  29.056  1.00  0.00     0.357 C 
ATOM     10  O   UNL A   1      44.020  31.465  27.854  1.00  0.00    -0.244 OA
BRANCH   9  11
ATOM     11  C   UNL A   1      43.628  32.860  29.786  1.00  0.00     0.154 A 
ATOM     12  C   UNL A   1      42.174  34.034  33.006  1.00  0.00     0.067 C 
ATOM     13  C   UNL A   1      42.693  33.973  31.600  1.00  0.00     0.044 A 
ATOM     14  C   UNL A   1      43.138  32.783  31.070  1.00  0.00     0.059 A 
ATOM     15  N   UNL A   1      42.743  35.136  30.909  1.00  0.00    -0.218 NA
ATOM     16  C   UNL A   1      43.190  35.096  29.645  1.00  0.00     0.226 A 
ATOM     17  N   UNL A   1      43.640  33.991  29.056  1.00  0.00    -0.206 NA
BRANCH  16  18
ATOM     18  N   UNL A   1      43.221  36.227  28.881  1.00  0.00    -0.337 N 
ATOM     19  C   UNL A   1      43.455  36.102  27.449  1.00  0.00     0.141 C 
ATOM     20  C   UNL A   1      43.734  37.443  29.514  1.00  0.00     0.141 C 
ATOM     21  C   UNL A   1      42.816  37.321  26.737  1.00  0.00     0.138 C 
ATOM     22  C   UNL A   1      43.164  38.691  28.795  1.00  0.00     0.138 C 
ATOM     23  N   UNL A   1      43.326  38.564  27.334  1.00  0.00    -0.367 N 
BRANCH  23  24
ATOM     24  C   UNL A   1      43.645  39.657  26.554  1.00  0.00     0.056 A 
ATOM     25  C   UNL A   1      44.988  39.947  26.260  1.00  0.00     0.027 A 
ATOM     26  C   UNL A   1      42.668  40.547  26.060  1.00  0.00     0.064 A 
ATOM     27  C   UNL A   1      45.345  41.073  25.510  1.00  0.00     0.002 A 
ATOM     28  C   UNL A   1      43.024  41.677  25.316  1.00  0.00     0.023 A 
ATOM     29  Cl  UNL A   1      40.983  40.345  26.420  1.00  0.00    -0.082 Cl
ATOM     30  C   UNL A   1      44.363  41.941  25.042  1.00  0.00     0.002 A 
ENDBRANCH  23  24
ENDBRANCH  16  18
ENDBRANCH   9  11
ENDBRANCH   8   9
ENDBRANCH   7   8
ENDBRANCH   6   7
ENDBRANCH   5   6
ENDBRANCH   4   5
ENDBRANCH   3   4
ENDBRANCH   2   3
ENDBRANCH   1   2
BRANCH   1  31
ATOM     31  C   UNL A   1      49.176  30.720  34.026  1.00  0.00     0.188 C 
BRANCH  31  32
ATOM     32  O   UNL A   1      49.829  30.500  35.267  1.00  0.00    -0.376 OA
BRANCH  32  33
ATOM     33  C   UNL A   1      50.651  29.355  35.395  1.00  0.00     0.202 C 
BRANCH  33  34
ATOM     34  C   UNL A   1      49.926  28.013  35.557  1.00  0.00     0.261 C 
BRANCH  34  35
ATOM     35  O   UNL A   1      48.790  28.017  36.435  1.00  0.00    -0.460 OA
BRANCH  35  36
ATOM     36  C   UNL A   1      47.996  26.923  36.417  1.00  0.00     0.338 C 
ATOM     37  O   UNL A   1      48.095  25.936  37.128  1.00  0.00    -0.246 OA
BRANCH  36  38
ATOM     38  C   UNL A   1      46.864  27.206  35.511  1.00  0.00     0.060 A 
ATOM     39  C   UNL A   1      46.918  28.331  34.678  1.00  0.00     0.016 A 
ATOM     40  C   UNL A   1      45.757  26.354  35.480  1.00  0.00     0.016 A 
ATOM     41  C   UNL A   1      45.846  28.624  33.833  1.00  0.00     0.010 A 
ATOM     42  C   UNL A   1      44.678  26.660  34.646  1.00  0.00     0.010 A 
ATOM     43  C   UNL A   1      44.702  27.815  33.842  1.00  0.00    -0.014 A 
BRANCH  43  44
ATOM     44  C   UNL A   1      43.461  28.274  33.167  1.00  0.00     0.031 A 
ATOM     45  C   UNL A   1      43.216  27.826  31.751  1.00  0.00     0.074 A 
ATOM     46  C   UNL A   1      42.562  29.052  33.797  1.00  0.00     0.049 A 
ATOM     47  N   UNL A   1      42.252  28.150  30.930  1.00  0.00    -0.248 NA
ATOM     48  C   UNL A   1      44.198  26.887  31.187  1.00  0.00     0.031 C 
ATOM     49  C   UNL A   1      42.660  29.505  35.184  1.00  0.00     0.029 A 
ATOM     50  N   UNL A   1      41.389  29.607  33.346  1.00  0.00    -0.354 N 
ATOM     51  C   UNL A   1      42.513  27.460  29.751  1.00  0.00     0.074 A 
ATOM     52  C   UNL A   1      43.747  26.731  29.953  1.00  0.00     0.031 C 
ATOM     53  C   UNL A   1      41.597  30.277  35.467  1.00  0.00     0.029 A 
ATOM     54  C   UNL A   1      40.767  30.414  34.271  1.00  0.00     0.049 A 
ATOM     55  H   UNL A   1      41.028  29.443  32.445  1.00  0.00     0.167 HD
ATOM     56  C   UNL A   1      41.784  27.429  28.608  1.00  0.00     0.034 A 
ATOM     57  C   UNL A   1      39.672  31.195  34.151  1.00  0.00     0.034 A 
ATOM     58  C   UNL A   1      40.562  28.170  28.417  1.00  0.00     0.049 A 
ATOM     59  C   UNL A   1      38.935  31.227  32.830  1.00  0.00     0.074 A 
ATOM     60  C   UNL A   1      39.743  28.206  27.302  1.00  0.00     0.029 A 
ATOM     61  N   UNL A   1      39.990  29.016  29.358  1.00  0.00    -0.354 N 
ATOM     62  N   UNL A   1      39.189  30.568  31.723  1.00  0.00    -0.248 NA
ATOM     63  C   UNL A   1      37.758  32.105  32.746  1.00  0.00     0.031 C 
ATOM     64  C   UNL A   1      38.725  29.135  27.537  1.00  0.00     0.029 A 
ATOM     65  C   UNL A   1      38.850  29.607  28.833  1.00  0.00     0.049 A 
ATOM     66  H   UNL A   1      40.341  29.174  30.264  1.00  0.00     0.167 HD
ATOM     67  C   UNL A   1      38.181  30.924  30.827  1.00  0.00     0.074 A 
ATOM     68  C   UNL A   1      37.308  31.841  31.528  1.00  0.00     0.031 C 
ATOM     69  C   UNL A   1      37.989  30.525  29.543  1.00  0.00     0.034 A 
BRANCH  56  70
ATOM     70  C   UNL A   1      42.320  26.607  27.462  1.00  0.00     0.023 A 
ATOM     71  C   UNL A   1      41.959  25.260  27.281  1.00  0.00     0.031 A 
ATOM     72  C   UNL A   1      43.218  27.176  26.541  1.00  0.00     0.131 A 
ATOM     73  C   UNL A   1      42.538  24.513  26.244  1.00  0.00     0.055 A 
ATOM     74  C   UNL A   1      43.728  26.451  25.464  1.00  0.00     0.041 A 
ATOM     75  F   UNL A   1      43.621  28.449  26.678  1.00  0.00    -0.206 F 
ATOM     76  C   UNL A   1      43.399  25.107  25.317  1.00  0.00     0.022 A 
BRANCH  73  77
ATOM     77  S   UNL A   1      42.260  22.722  26.205  1.00  0.00     0.124 S 
ATOM     78  O   UNL A   1      42.955  22.288  27.415  1.00  0.00    -0.237 OA
ATOM     79  O   UNL A   1      40.805  22.628  26.236  1.00  0.00    -0.237 OA
ATOM     80  O   UNL A   1      42.886  22.304  24.952  1.00  0.00    -0.744 OA
ENDBRANCH  73  77
ENDBRANCH  56  70
BRANCH  57  81
ATOM     81  C   UNL A   1      39.222  32.058  35.285  1.00  0.00     0.023 A 
ATOM     82  C   UNL A   1      39.763  33.339  35.484  1.00  0.00     0.031 A 
ATOM     83  C   UNL A   1      38.306  31.578  36.239  1.00  0.00     0.131 A 
ATOM     84  C   UNL A   1      39.432  34.069  36.638  1.00  0.00     0.055 A 
ATOM     85  C   UNL A   1      37.929  32.335  37.350  1.00  0.00     0.041 A 
ATOM     86  F   UNL A   1      37.763  30.358  36.107  1.00  0.00    -0.206 F 
ATOM     87  C   UNL A   1      38.507  33.582  37.564  1.00  0.00     0.022 A 
BRANCH  84  88
ATOM     88  S   UNL A   1      40.324  35.612  36.975  1.00  0.00     0.124 S 
ATOM     89  O   UNL A   1      41.657  35.298  36.476  1.00  0.00    -0.237 OA
ATOM     90  O   UNL A   1      39.558  36.579  36.196  1.00  0.00    -0.237 OA
ATOM     91  O   UNL A   1      40.217  35.756  38.425  1.00  0.00    -0.744 OA
ENDBRANCH  84  88
ENDBRANCH  57  81
BRANCH  69  92
ATOM     92  C   UNL A   1      36.754  31.034  28.834  1.00  0.00     0.023 A 
ATOM     93  C   UNL A   1      35.746  30.168  28.376  1.00  0.00     0.031 A 
ATOM     94  C   UNL A   1      36.587  32.414  28.613  1.00  0.00     0.131 A 
ATOM     95  C   UNL A   1      34.649  30.683  27.669  1.00  0.00     0.055 A 
ATOM     96  C   UNL A   1      35.459  32.927  27.972  1.00  0.00     0.041 A 
ATOM     97  F   UNL A   1      37.518  33.290  29.026  1.00  0.00    -0.206 F 
ATOM     98  C   UNL A   1      34.488  32.058  27.482  1.00  0.00     0.022 A 
BRANCH  95  99
ATOM     99  S   UNL A   1      33.483  29.523  26.903  1.00  0.00     0.124 S 
ATOM    100  O   UNL A   1      33.286  30.118  25.586  1.00  0.00    -0.237 OA
ATOM    101  O   UNL A   1      34.227  28.268  26.931  1.00  0.00    -0.237 OA
ATOM    102  O   UNL A   1      32.320  29.572  27.787  1.00  0.00    -0.744 OA
ENDBRANCH  95  99
ENDBRANCH  69  92
ENDBRANCH  43  44
ENDBRANCH  36  38
ENDBRANCH  35  36
ENDBRANCH  34  35
ENDBRANCH  33  34
ENDBRANCH  32  33
ENDBRANCH  31  32
ENDBRANCH   1  31
TORSDOF 25
ENDMDL
MODEL 3
REMARK VINA RESULT:      -8.1      9.352     14.783
REMARK SMILES Cc1cc(C(=O)OCCOCCOCCOCCOC(=O)c2ccc(-c3c4nc(c(-c5cc(S(=O)(=O)[O-])ccc5F)c5ccc([nH]5)c(-c5cc(S(=O)(=O)[O-])ccc5F)c5nc(c(-c6cc(S(=O)(=O)[O-])ccc6F)c6ccc3[nH]6)C=C5)C=C4)cc2)nc(N2CCN(c3ccccc3Cl)CC2)n1
REMARK SMILES IDX 14 1 13 2 12 3 11 4 10 5 9 6 8 7 7 8 5 9 6 10 4 11 1 12 2 13
REMARK SMILES IDX 3 14 100 15 86 16 85 17 87 18 88 19 99 20 89 21 98 22 90 23
REMARK SMILES IDX 91 24 92 25 96 26 93 27 95 28 97 29 94 30 15 31 16 32 17 33
REMARK SMILES IDX 18 34 19 35 20 36 21 37 22 38 23 39 84 40 24 41 83 42 25 43
REMARK SMILES IDX 26 44 27 45 77 46 28 47 82 48 76 49 78 50 29 51 81 52 75 53
REMARK SMILES IDX 74 54 30 56 62 57 42 58 61 59 43 60 46 61 60 62 79 63 44 64
REMARK SMILES IDX 45 65 59 67 80 68 47 69 31 70 32 71 40 72 33 73 39 74 41 75
REMARK SMILES IDX 38 76 34 77 35 78 36 79 37 80 63 81 64 82 72 83 65 84 71 85
REMARK SMILES IDX 73 86 70 87 66 88 67 89 68 90 69 91 48 92 49 93 57 94 50 95
REMARK SMILES IDX 56 96 58 97 55 98 51 99 52 100 53 101 54 102
REMARK H PARENT 78 55 46 66
REMARK Flexibility Score: inf
ROOT
ATOM      1  C   UNL A   1      39.827  35.154  41.759  1.00  0.00     0.188 C 
ENDROOT
BRANCH   1   2
ATOM      2  O   UNL A   1      39.188  35.204  40.480  1.00  0.00    -0.377 OA
BRANCH   2   3
ATOM      3  C   UNL A   1      38.496  34.059  40.008  1.00  0.00     0.188 C 
BRANCH   3   4
ATOM      4  C   UNL A   1      39.361  33.071  39.203  1.00  0.00     0.188 C 
BRANCH   4   5
ATOM      5  O   UNL A   1      39.041  33.041  37.825  1.00  0.00    -0.376 OA
BRANCH   5   6
ATOM      6  C   UNL A   1      38.551  34.195  37.166  1.00  0.00     0.202 C 
BRANCH   6   7
ATOM      7  C   UNL A   1      39.208  34.802  35.910  1.00  0.00     0.261 C 
BRANCH   7   8
ATOM      8  O   UNL A   1      38.407  34.907  34.733  1.00  0.00    -0.459 OA
BRANCH   8   9
ATOM      9  C   UNL A   1      39.028  34.767  33.542  1.00  0.00     0.357 C 
ATOM     10  O   UNL A   1      40.209  34.962  33.312  1.00  0.00    -0.244 OA
BRANCH   9  11
ATOM     11  C   UNL A   1      38.050  34.134  32.613  1.00  0.00     0.154 A 
ATOM     12  C   UNL A   1      34.469  34.125  31.596  1.00  0.00     0.067 C 
ATOM     13  C   UNL A   1      35.926  33.794  31.733  1.00  0.00     0.044 A 
ATOM     14  C   UNL A   1      36.724  34.501  32.604  1.00  0.00     0.059 A 
ATOM     15  N   UNL A   1      36.415  32.814  30.937  1.00  0.00    -0.218 NA
ATOM     16  C   UNL A   1      37.712  32.496  31.059  1.00  0.00     0.226 A 
ATOM     17  N   UNL A   1      38.554  33.128  31.874  1.00  0.00    -0.206 NA
BRANCH  16  18
ATOM     18  N   UNL A   1      38.254  31.485  30.318  1.00  0.00    -0.337 N 
ATOM     19  C   UNL A   1      37.371  30.646  29.520  1.00  0.00     0.141 C 
ATOM     20  C   UNL A   1      39.448  30.833  30.858  1.00  0.00     0.141 C 
ATOM     21  C   UNL A   1      38.181  30.067  28.333  1.00  0.00     0.138 C 
ATOM     22  C   UNL A   1      40.261  30.189  29.708  1.00  0.00     0.138 C 
ATOM     23  N   UNL A   1      39.380  29.384  28.841  1.00  0.00    -0.367 N 
BRANCH  23  24
ATOM     24  C   UNL A   1      39.810  28.191  28.298  1.00  0.00     0.056 A 
ATOM     25  C   UNL A   1      40.383  28.164  27.016  1.00  0.00     0.027 A 
ATOM     26  C   UNL A   1      39.660  26.956  28.965  1.00  0.00     0.064 A 
ATOM     27  C   UNL A   1      40.788  26.964  26.420  1.00  0.00     0.002 A 
ATOM     28  C   UNL A   1      40.057  25.755  28.368  1.00  0.00     0.023 A 
ATOM     29  Cl  UNL A   1      38.895  26.844  30.517  1.00  0.00    -0.082 Cl
ATOM     30  C   UNL A   1      40.620  25.759  27.095  1.00  0.00     0.002 A 
ENDBRANCH  23  24
ENDBRANCH  16  18
ENDBRANCH   9  11
ENDBRANCH   8   9
ENDBRANCH   7   8
ENDBRANCH   6   7
ENDBRANCH   5   6
ENDBRANCH   4   5
ENDBRANCH   3   4
ENDBRANCH   2   3
ENDBRANCH   1   2
BRANCH   1  31
ATOM     31  C   UNL A   1      39.132  35.606  43.068  1.00  0.00     0.188 C 
BRANCH  31  32
ATOM     32  O   UNL A   1      39.602  36.838  43.597  1.00  0.00    -0.376 OA
BRANCH  32  33
ATOM     33  C   UNL A   1      40.499  36.795  44.691  1.00  0.00     0.202 C 
BRANCH  33  34
ATOM     34  C   UNL A   1      41.847  37.498  44.490  1.00  0.00     0.261 C 
BRANCH  34  35
ATOM     35  O   UNL A   1      42.069  38.071  43.193  1.00  0.00    -0.460 OA
BRANCH  35  36
ATOM     36  C   UNL A   1      43.336  38.054  42.722  1.00  0.00     0.338 C 
ATOM     37  O   UNL A   1      44.357  38.231  43.366  1.00  0.00    -0.246 OA
BRANCH  36  38
ATOM     38  C   UNL A   1      43.286  37.594  41.319  1.00  0.00     0.060 A 
ATOM     39  C   UNL A   1      44.452  37.106  40.716  1.00  0.00     0.016 A 
ATOM     40  C   UNL A   1      42.085  37.635  40.607  1.00  0.00     0.016 A 
ATOM     41  C   UNL A   1      44.427  36.689  39.385  1.00  0.00     0.010 A 
ATOM     42  C   UNL A   1      42.066  37.233  39.268  1.00  0.00     0.010 A 
ATOM     43  C   UNL A   1      43.244  36.789  38.640  1.00  0.00    -0.014 A 
BRANCH  43  44
ATOM     44  C   UNL A   1      43.277  36.618  37.165  1.00  0.00     0.031 A 
ATOM     45  C   UNL A   1      42.978  35.254  36.600  1.00  0.00     0.074 A 
ATOM     46  C   UNL A   1      43.545  37.648  36.341  1.00  0.00     0.049 A 
ATOM     47  N   UNL A   1      43.018  34.839  35.363  1.00  0.00    -0.248 NA
ATOM     48  C   UNL A   1      42.586  34.221  37.572  1.00  0.00     0.031 C 
ATOM     49  C   UNL A   1      43.795  39.025  36.764  1.00  0.00     0.029 A 
ATOM     50  N   UNL A   1      43.660  37.691  34.973  1.00  0.00    -0.354 N 
ATOM     51  C   UNL A   1      42.661  33.494  35.405  1.00  0.00     0.074 A 
ATOM     52  C   UNL A   1      42.448  33.158  36.796  1.00  0.00     0.031 C 
ATOM     53  C   UNL A   1      44.045  39.776  35.677  1.00  0.00     0.029 A 
ATOM     54  C   UNL A   1      44.019  38.927  34.486  1.00  0.00     0.049 A 
ATOM     55  H   UNL A   1      43.501  36.910  34.395  1.00  0.00     0.167 HD
ATOM     56  C   UNL A   1      42.515  32.624  34.376  1.00  0.00     0.034 A 
ATOM     57  C   UNL A   1      44.323  39.316  33.229  1.00  0.00     0.034 A 
ATOM     58  C   UNL A   1      42.743  32.970  32.995  1.00  0.00     0.049 A 
ATOM     59  C   UNL A   1      44.256  38.299  32.111  1.00  0.00     0.074 A 
ATOM     60  C   UNL A   1      42.619  32.167  31.875  1.00  0.00     0.029 A 
ATOM     61  N   UNL A   1      43.155  34.218  32.545  1.00  0.00    -0.354 N 
ATOM     62  N   UNL A   1      43.915  37.032  32.162  1.00  0.00    -0.248 NA
ATOM     63  C   UNL A   1      44.610  38.768  30.763  1.00  0.00     0.031 C 
ATOM     64  C   UNL A   1      43.035  32.903  30.761  1.00  0.00     0.029 A 
ATOM     65  C   UNL A   1      43.326  34.194  31.169  1.00  0.00     0.049 A 
ATOM     66  H   UNL A   1      43.304  35.005  33.119  1.00  0.00     0.167 HD
ATOM     67  C   UNL A   1      43.976  36.567  30.849  1.00  0.00     0.074 A 
ATOM     68  C   UNL A   1      44.372  37.692  30.029  1.00  0.00     0.031 C 
ATOM     69  C   UNL A   1      43.724  35.324  30.362  1.00  0.00     0.034 A 
BRANCH  56  70
ATOM     70  C   UNL A   1      42.141  31.202  34.714  1.00  0.00     0.023 A 
ATOM     71  C   UNL A   1      43.114  30.210  34.934  1.00  0.00     0.031 A 
ATOM     72  C   UNL A   1      40.788  30.827  34.804  1.00  0.00     0.131 A 
ATOM     73  C   UNL A   1      42.721  28.885  35.173  1.00  0.00     0.055 A 
ATOM     74  C   UNL A   1      40.404  29.524  35.123  1.00  0.00     0.041 A 
ATOM     75  F   UNL A   1      39.815  31.723  34.577  1.00  0.00    -0.206 F 
ATOM     76  C   UNL A   1      41.373  28.540  35.297  1.00  0.00     0.022 A 
BRANCH  73  77
ATOM     77  S   UNL A   1      43.991  27.591  35.183  1.00  0.00     0.124 S 
ATOM     78  O   UNL A   1      45.219  28.384  35.174  1.00  0.00    -0.237 OA
ATOM     79  O   UNL A   1      43.702  26.875  36.420  1.00  0.00    -0.237 OA
ATOM     80  O   UNL A   1      43.731  26.845  33.954  1.00  0.00    -0.744 OA
ENDBRANCH  73  77
ENDBRANCH  56  70
BRANCH  57  81
ATOM     81  C   UNL A   1      44.769  40.714  32.949  1.00  0.00     0.023 A 
ATOM     82  C   UNL A   1      43.847  41.722  32.622  1.00  0.00     0.031 A 
ATOM     83  C   UNL A   1      46.137  41.043  32.918  1.00  0.00     0.131 A 
ATOM     84  C   UNL A   1      44.303  42.988  32.219  1.00  0.00     0.055 A 
ATOM     85  C   UNL A   1      46.584  42.323  32.582  1.00  0.00     0.041 A 
ATOM     86  F   UNL A   1      47.065  40.120  33.212  1.00  0.00    -0.206 F 
ATOM     87  C   UNL A   1      45.664  43.300  32.213  1.00  0.00     0.022 A 
BRANCH  84  88
ATOM     88  S   UNL A   1      43.097  44.185  31.585  1.00  0.00     0.124 S 
ATOM     89  O   UNL A   1      42.112  43.309  30.962  1.00  0.00    -0.237 OA
ATOM     90  O   UNL A   1      42.674  44.862  32.806  1.00  0.00    -0.237 OA
ATOM     91  O   UNL A   1      43.882  45.001  30.661  1.00  0.00    -0.744 OA
ENDBRANCH  84  88
ENDBRANCH  57  81
BRANCH  69  92
ATOM     92  C   UNL A   1      43.811  35.133  28.864  1.00  0.00     0.023 A 
ATOM     93  C   UNL A   1      44.958  34.608  28.245  1.00  0.00     0.031 A 
ATOM     94  C   UNL A   1      42.722  35.486  28.045  1.00  0.00     0.131 A 
ATOM     95  C   UNL A   1      45.014  34.509  26.847  1.00  0.00     0.055 A 
ATOM     96  C   UNL A   1      42.757  35.317  26.660  1.00  0.00     0.041 A 
ATOM     97  F   UNL A   1      41.600  35.994  28.580  1.00  0.00    -0.206 F 
ATOM     98  C   UNL A   1      43.914  34.839  26.051  1.00  0.00     0.022 A 
BRANCH  95  99
ATOM     99  S   UNL A   1      46.584  34.037  26.068  1.00  0.00     0.124 S 
ATOM    100  O   UNL A   1      47.560  34.665  26.952  1.00  0.00    -0.237 OA
ATOM    101  O   UNL A   1      46.529  32.580  26.111  1.00  0.00    -0.237 OA
ATOM    102  O   UNL A   1      46.492  34.621  24.731  1.00  0.00    -0.744 OA
ENDBRANCH  95  99
ENDBRANCH  69  92
ENDBRANCH  43  44
ENDBRANCH  36  38
ENDBRANCH  35  36
ENDBRANCH  34  35
ENDBRANCH  33  34
ENDBRANCH  32  33
ENDBRANCH  31  32
ENDBRANCH   1  31
TORSDOF 25
ENDMDL
