MODEL 1
REMARK VINA RESULT:     -10.8      0.000      0.000
REMARK SMILES C[C@H]1[C@H](C)CC[C@@]2(C(=O)OCCOCCOCCOCCOC(=O)c3ccc(-c4c5nc(c(-c6cc(S(=O)(=O)[O-])ccc6F)c6ccc([nH]6)c(-c6cc(S(=O)(=O)[O-])ccc6F)c6nc(c(-c7cc(S(=O)(=O)[O-])ccc7F)c7ccc4[nH]7)C=C6)C=C5)cc3)CC[C@@]3(C)C(=CC[C@@H]4[C@@]5(C)CC[C@H](O)C(C)(C)[C@@H]5CC[C@]43C)[C@H]12
REMARK SMILES IDX 17 1 16 2 15 3 14 4 13 5 12 6 11 7 10 8 8 9 9 10 7 11 1 12
REMARK SMILES IDX 2 13 3 14 110 15 4 16 5 17 92 18 6 19 88 20 90 21 93 22
REMARK SMILES IDX 89 23 91 24 108 25 94 26 95 27 107 28 109 29 96 30 106 31
REMARK SMILES IDX 97 32 98 33 105 34 99 35 102 36 100 37 103 38 104 39 101 40
REMARK SMILES IDX 18 42 19 43 20 44 21 45 22 46 23 47 24 48 25 49 26 50 87 51
REMARK SMILES IDX 27 52 86 53 28 54 29 55 30 56 80 57 31 58 85 59 79 60 81 61
REMARK SMILES IDX 32 62 84 63 78 64 77 65 33 67 65 68 45 69 64 70 46 71 49 72
REMARK SMILES IDX 63 73 82 74 47 75 48 76 62 78 83 79 50 80 34 81 35 82 43 83
REMARK SMILES IDX 36 84 42 85 44 86 41 87 37 88 38 89 39 90 40 91 66 92 67 93
REMARK SMILES IDX 75 94 68 95 74 96 76 97 73 98 69 99 70 100 71 101 72 102
REMARK SMILES IDX 51 103 52 104 60 105 53 106 59 107 61 108 58 109 54 110
REMARK SMILES IDX 55 111 56 112 57 113
REMARK H PARENT 101 41 81 66 49 77
REMARK Flexibility Score: inf
ROOT
ATOM      1  C   UNL A   1      36.864  33.097  28.459  1.00  0.00     0.188 C 
ENDROOT
BRANCH   1   2
ATOM      2  O   UNL A   1      36.062  32.316  27.603  1.00  0.00    -0.377 OA
BRANCH   2   3
ATOM      3  C   UNL A   1      35.367  31.205  28.113  1.00  0.00     0.188 C 
BRANCH   3   4
ATOM      4  C   UNL A   1      33.849  31.214  27.883  1.00  0.00     0.188 C 
BRANCH   4   5
ATOM      5  O   UNL A   1      33.364  30.437  26.800  1.00  0.00    -0.376 OA
BRANCH   5   6
ATOM      6  C   UNL A   1      34.159  29.362  26.356  1.00  0.00     0.202 C 
BRANCH   6   7
ATOM      7  C   UNL A   1      34.207  28.977  24.883  1.00  0.00     0.261 C 
BRANCH   7   8
ATOM      8  O   UNL A   1      33.192  28.096  24.294  1.00  0.00    -0.463 OA
BRANCH   8   9
ATOM      9  C   UNL A   1      31.960  27.961  23.760  1.00  0.00     0.312 C 
ATOM     10  O   UNL A   1      31.626  27.519  22.669  1.00  0.00    -0.252 OA
BRANCH   9  11
ATOM     11  C   UNL A   1      30.900  28.352  24.811  1.00  0.00     0.075 C 
ATOM     12  C   UNL A   1      27.402  27.955  22.993  1.00  0.00     0.008 C 
ATOM     13  C   UNL A   1      28.863  28.357  23.191  1.00  0.00    -0.003 C 
ATOM     14  C   UNL A   1      29.041  29.926  23.074  1.00  0.00    -0.011 C 
ATOM     15  C   UNL A   1      29.546  27.648  24.480  1.00  0.00     0.036 C 
ATOM     16  C   UNL A   1      28.813  30.472  21.647  1.00  0.00     0.008 C 
ATOM     17  C   UNL A   1      30.424  30.445  23.475  1.00  0.00     0.005 C 
ATOM     18  C   UNL A   1      29.935  26.083  24.528  1.00  0.00    -0.063 C 
ATOM     19  C   UNL A   1      30.847  29.888  24.808  1.00  0.00     0.020 C 
ATOM     20  C   UNL A   1      31.350  27.959  26.233  1.00  0.00     0.020 C 
ATOM     21  C   UNL A   1      30.561  25.510  25.868  1.00  0.00    -0.006 C 
ATOM     22  C   UNL A   1      30.010  25.331  23.408  1.00  0.00    -0.027 C 
ATOM     23  C   UNL A   1      31.653  26.480  26.398  1.00  0.00     0.013 C 
ATOM     24  C   UNL A   1      29.422  25.471  26.913  1.00  0.00     0.017 C 
ATOM     25  C   UNL A   1      31.232  23.999  25.693  1.00  0.00    -0.020 C 
ATOM     26  C   UNL A   1      30.943  24.143  23.240  1.00  0.00     0.032 C 
ATOM     27  C   UNL A   1      32.026  24.036  24.342  1.00  0.00     0.006 C 
ATOM     28  C   UNL A   1      32.185  23.577  26.843  1.00  0.00     0.008 C 
ATOM     29  C   UNL A   1      30.110  22.915  25.667  1.00  0.00     0.012 C 
ATOM     30  C   UNL A   1      33.220  22.976  24.069  1.00  0.00    -0.025 C 
ATOM     31  C   UNL A   1      32.999  22.302  26.530  1.00  0.00     0.005 C 
ATOM     32  C   UNL A   1      32.677  21.790  23.248  1.00  0.00     0.012 C 
ATOM     33  C   UNL A   1      34.330  23.655  23.204  1.00  0.00     0.010 C 
ATOM     34  C   UNL A   1      33.979  22.594  25.389  1.00  0.00     0.003 C 
ATOM     35  C   UNL A   1      35.625  22.863  22.990  1.00  0.00     0.033 C 
ATOM     36  C   UNL A   1      35.210  21.606  25.217  1.00  0.00    -0.006 C 
ATOM     37  C   UNL A   1      36.237  22.316  24.281  1.00  0.00     0.120 C 
ATOM     38  C   UNL A   1      34.863  20.197  24.688  1.00  0.00     0.014 C 
ATOM     39  C   UNL A   1      35.918  21.366  26.576  1.00  0.00     0.014 C 
BRANCH  37  40
ATOM     40  O   UNL A   1      37.338  21.460  23.967  1.00  0.00    -0.393 OA
ATOM     41  H   UNL A   1      37.329  20.691  24.558  1.00  0.00     0.210 HD
ENDBRANCH  37  40
ENDBRANCH   9  11
ENDBRANCH   8   9
ENDBRANCH   7   8
ENDBRANCH   6   7
ENDBRANCH   5   6
ENDBRANCH   4   5
ENDBRANCH   3   4
ENDBRANCH   2   3
ENDBRANCH   1   2
BRANCH   1  42
ATOM     42  C   UNL A   1      36.583  33.238  29.967  1.00  0.00     0.188 C 
BRANCH  42  43
ATOM     43  O   UNL A   1      35.432  33.996  30.299  1.00  0.00    -0.376 OA
BRANCH  43  44
ATOM     44  C   UNL A   1      34.555  33.517  31.300  1.00  0.00     0.202 C 
BRANCH  44  45
ATOM     45  C   UNL A   1      35.138  33.242  32.695  1.00  0.00     0.261 C 
BRANCH  45  46
ATOM     46  O   UNL A   1      35.744  31.958  32.899  1.00  0.00    -0.460 OA
BRANCH  46  47
ATOM     47  C   UNL A   1      36.884  31.885  33.626  1.00  0.00     0.338 C 
ATOM     48  O   UNL A   1      36.988  32.067  34.827  1.00  0.00    -0.246 OA
BRANCH  47  49
ATOM     49  C   UNL A   1      37.909  31.248  32.755  1.00  0.00     0.060 A 
ATOM     50  C   UNL A   1      39.154  30.919  33.322  1.00  0.00     0.016 A 
ATOM     51  C   UNL A   1      37.578  30.778  31.476  1.00  0.00     0.016 A 
ATOM     52  C   UNL A   1      40.068  30.139  32.611  1.00  0.00     0.010 A 
ATOM     53  C   UNL A   1      38.517  30.052  30.738  1.00  0.00     0.010 A 
ATOM     54  C   UNL A   1      39.783  29.774  31.286  1.00  0.00    -0.014 A 
BRANCH  54  55
ATOM     55  C   UNL A   1      40.924  29.554  30.363  1.00  0.00     0.031 A 
ATOM     56  C   UNL A   1      40.890  28.252  29.600  1.00  0.00     0.074 A 
ATOM     57  C   UNL A   1      41.929  30.431  30.195  1.00  0.00     0.049 A 
ATOM     58  N   UNL A   1      41.751  27.750  28.757  1.00  0.00    -0.248 NA
ATOM     59  C   UNL A   1      39.707  27.399  29.824  1.00  0.00     0.031 C 
ATOM     60  C   UNL A   1      42.040  31.740  30.835  1.00  0.00     0.029 A 
ATOM     61  N   UNL A   1      43.064  30.336  29.426  1.00  0.00    -0.354 N 
ATOM     62  C   UNL A   1      41.205  26.536  28.349  1.00  0.00     0.074 A 
ATOM     63  C   UNL A   1      39.960  26.361  29.051  1.00  0.00     0.031 C 
ATOM     64  C   UNL A   1      43.191  32.319  30.444  1.00  0.00     0.029 A 
ATOM     65  C   UNL A   1      43.916  31.409  29.556  1.00  0.00     0.049 A 
ATOM     66  H   UNL A   1      43.249  29.570  28.837  1.00  0.00     0.167 HD
ATOM     67  C   UNL A   1      41.698  25.638  27.468  1.00  0.00     0.034 A 
ATOM     68  C   UNL A   1      45.147  31.606  29.036  1.00  0.00     0.034 A 
ATOM     69  C   UNL A   1      42.973  25.790  26.827  1.00  0.00     0.049 A 
ATOM     70  C   UNL A   1      45.738  30.528  28.148  1.00  0.00     0.074 A 
ATOM     71  C   UNL A   1      43.600  24.934  25.943  1.00  0.00     0.029 A 
ATOM     72  N   UNL A   1      43.830  26.864  27.027  1.00  0.00    -0.354 N 
ATOM     73  N   UNL A   1      45.210  29.388  27.761  1.00  0.00    -0.248 NA
ATOM     74  C   UNL A   1      47.091  30.766  27.626  1.00  0.00     0.031 C 
ATOM     75  C   UNL A   1      44.868  25.456  25.664  1.00  0.00     0.029 A 
ATOM     76  C   UNL A   1      44.996  26.678  26.308  1.00  0.00     0.049 A 
ATOM     77  H   UNL A   1      43.636  27.643  27.598  1.00  0.00     0.167 HD
ATOM     78  C   UNL A   1      46.152  28.794  26.923  1.00  0.00     0.074 A 
ATOM     79  C   UNL A   1      47.275  29.706  26.853  1.00  0.00     0.031 C 
ATOM     80  C   UNL A   1      46.099  27.608  26.262  1.00  0.00     0.034 A 
BRANCH  67  81
ATOM     81  C   UNL A   1      40.883  24.392  27.240  1.00  0.00     0.023 A 
ATOM     82  C   UNL A   1      41.421  23.109  27.451  1.00  0.00     0.031 A 
ATOM     83  C   UNL A   1      39.580  24.486  26.724  1.00  0.00     0.131 A 
ATOM     84  C   UNL A   1      40.685  21.974  27.081  1.00  0.00     0.055 A 
ATOM     85  C   UNL A   1      38.822  23.352  26.434  1.00  0.00     0.041 A 
ATOM     86  F   UNL A   1      39.034  25.684  26.464  1.00  0.00    -0.206 F 
ATOM     87  C   UNL A   1      39.378  22.086  26.598  1.00  0.00     0.022 A 
BRANCH  84  88
ATOM     88  S   UNL A   1      41.510  20.359  27.098  1.00  0.00     0.124 S 
ATOM     89  O   UNL A   1      42.916  20.748  27.175  1.00  0.00    -0.237 OA
ATOM     90  O   UNL A   1      40.955  19.733  28.291  1.00  0.00    -0.237 OA
ATOM     91  O   UNL A   1      41.106  19.754  25.830  1.00  0.00    -0.744 OA
ENDBRANCH  84  88
ENDBRANCH  67  81
BRANCH  68  92
ATOM     92  C   UNL A   1      45.941  32.828  29.366  1.00  0.00     0.023 A 
ATOM     93  C   UNL A   1      45.877  33.981  28.565  1.00  0.00     0.031 A 
ATOM     94  C   UNL A   1      46.847  32.831  30.443  1.00  0.00     0.131 A 
ATOM     95  C   UNL A   1      46.735  35.064  28.820  1.00  0.00     0.055 A 
ATOM     96  C   UNL A   1      47.661  33.930  30.724  1.00  0.00     0.041 A 
ATOM     97  F   UNL A   1      46.961  31.754  31.237  1.00  0.00    -0.206 F 
ATOM     98  C   UNL A   1      47.619  35.051  29.901  1.00  0.00     0.022 A 
BRANCH  95  99
ATOM     99  S   UNL A   1      46.751  36.458  27.657  1.00  0.00     0.124 S 
ATOM    100  O   UNL A   1      48.135  36.447  27.197  1.00  0.00    -0.237 OA
ATOM    101  O   UNL A   1      45.747  36.047  26.681  1.00  0.00    -0.237 OA
ATOM    102  O   UNL A   1      46.377  37.600  28.488  1.00  0.00    -0.744 OA
ENDBRANCH  95  99
ENDBRANCH  68  92
BRANCH  80 103
ATOM    103  C   UNL A   1      47.262  27.262  25.365  1.00  0.00     0.023 A 
ATOM    104  C   UNL A   1      47.348  27.734  24.045  1.00  0.00     0.031 A 
ATOM    105  C   UNL A   1      48.308  26.459  25.854  1.00  0.00     0.131 A 
ATOM    106  C   UNL A   1      48.433  27.356  23.241  1.00  0.00     0.055 A 
ATOM    107  C   UNL A   1      49.416  26.139  25.069  1.00  0.00     0.041 A 
ATOM    108  F   UNL A   1      48.277  25.985  27.109  1.00  0.00    -0.206 F 
ATOM    109  C   UNL A   1      49.476  26.577  23.750  1.00  0.00     0.022 A 
BRANCH 106 110
ATOM    110  S   UNL A   1      48.422  27.825  21.489  1.00  0.00     0.124 S 
ATOM    111  O   UNL A   1      49.472  28.837  21.439  1.00  0.00    -0.237 OA
ATOM    112  O   UNL A   1      48.724  26.561  20.826  1.00  0.00    -0.237 OA
ATOM    113  O   UNL A   1      47.065  28.328  21.277  1.00  0.00    -0.744 OA
ENDBRANCH 106 110
ENDBRANCH  80 103
ENDBRANCH  54  55
ENDBRANCH  47  49
ENDBRANCH  46  47
ENDBRANCH  45  46
ENDBRANCH  44  45
ENDBRANCH  43  44
ENDBRANCH  42  43
ENDBRANCH   1  42
TORSDOF 24
ENDMDL
MODEL 2
REMARK VINA RESULT:     -10.6      3.209      5.417
REMARK SMILES C[C@H]1[C@H](C)CC[C@@]2(C(=O)OCCOCCOCCOCCOC(=O)c3ccc(-c4c5nc(c(-c6cc(S(=O)(=O)[O-])ccc6F)c6ccc([nH]6)c(-c6cc(S(=O)(=O)[O-])ccc6F)c6nc(c(-c7cc(S(=O)(=O)[O-])ccc7F)c7ccc4[nH]7)C=C6)C=C5)cc3)CC[C@@]3(C)C(=CC[C@@H]4[C@@]5(C)CC[C@H](O)C(C)(C)[C@@H]5CC[C@]43C)[C@H]12
REMARK SMILES IDX 17 1 16 2 15 3 14 4 13 5 12 6 11 7 10 8 8 9 9 10 7 11 1 12
REMARK SMILES IDX 2 13 3 14 110 15 4 16 5 17 92 18 6 19 88 20 90 21 93 22
REMARK SMILES IDX 89 23 91 24 108 25 94 26 95 27 107 28 109 29 96 30 106 31
REMARK SMILES IDX 97 32 98 33 105 34 99 35 102 36 100 37 103 38 104 39 101 40
REMARK SMILES IDX 18 42 19 43 20 44 21 45 22 46 23 47 24 48 25 49 26 50 87 51
REMARK SMILES IDX 27 52 86 53 28 54 29 55 30 56 80 57 31 58 85 59 79 60 81 61
REMARK SMILES IDX 32 62 84 63 78 64 77 65 33 67 65 68 45 69 64 70 46 71 49 72
REMARK SMILES IDX 63 73 82 74 47 75 48 76 62 78 83 79 50 80 34 81 35 82 43 83
REMARK SMILES IDX 36 84 42 85 44 86 41 87 37 88 38 89 39 90 40 91 66 92 67 93
REMARK SMILES IDX 75 94 68 95 74 96 76 97 73 98 69 99 70 100 71 101 72 102
REMARK SMILES IDX 51 103 52 104 60 105 53 106 59 107 61 108 58 109 54 110
REMARK SMILES IDX 55 111 56 112 57 113
REMARK H PARENT 101 41 81 66 49 77
REMARK Flexibility Score: inf
ROOT
ATOM      1  C   UNL A   1      35.089  34.083  28.301  1.00  0.00     0.188 C 
ENDROOT
BRANCH   1   2
ATOM      2  O   UNL A   1      35.607  32.930  27.677  1.00  0.00    -0.377 OA
BRANCH   2   3
ATOM      3  C   UNL A   1      34.836  31.755  27.626  1.00  0.00     0.188 C 
BRANCH   3   4
ATOM      4  C   UNL A   1      35.554  30.476  28.079  1.00  0.00     0.188 C 
BRANCH   4   5
ATOM      5  O   UNL A   1      35.583  29.399  27.156  1.00  0.00    -0.376 OA
BRANCH   5   6
ATOM      6  C   UNL A   1      34.387  29.080  26.483  1.00  0.00     0.202 C 
BRANCH   6   7
ATOM      7  C   UNL A   1      34.392  28.705  25.007  1.00  0.00     0.261 C 
BRANCH   7   8
ATOM      8  O   UNL A   1      33.282  27.954  24.409  1.00  0.00    -0.463 OA
BRANCH   8   9
ATOM      9  C   UNL A   1      32.072  27.976  23.811  1.00  0.00     0.312 C 
ATOM     10  O   UNL A   1      31.763  27.687  22.664  1.00  0.00    -0.252 OA
BRANCH   9  11
ATOM     11  C   UNL A   1      30.991  28.328  24.854  1.00  0.00     0.075 C 
ATOM     12  C   UNL A   1      27.526  27.912  22.979  1.00  0.00     0.008 C 
ATOM     13  C   UNL A   1      28.978  28.333  23.206  1.00  0.00    -0.003 C 
ATOM     14  C   UNL A   1      29.132  29.907  23.123  1.00  0.00    -0.011 C 
ATOM     15  C   UNL A   1      29.654  27.609  24.490  1.00  0.00     0.036 C 
ATOM     16  C   UNL A   1      28.915  30.479  21.704  1.00  0.00     0.008 C 
ATOM     17  C   UNL A   1      30.500  30.440  23.554  1.00  0.00     0.005 C 
ATOM     18  C   UNL A   1      30.069  26.050  24.512  1.00  0.00    -0.063 C 
ATOM     19  C   UNL A   1      30.913  29.863  24.882  1.00  0.00     0.020 C 
ATOM     20  C   UNL A   1      31.428  27.913  26.275  1.00  0.00     0.020 C 
ATOM     21  C   UNL A   1      30.685  25.461  25.849  1.00  0.00    -0.006 C 
ATOM     22  C   UNL A   1      30.172  25.323  23.378  1.00  0.00    -0.027 C 
ATOM     23  C   UNL A   1      31.753  26.437  26.414  1.00  0.00     0.013 C 
ATOM     24  C   UNL A   1      29.532  25.381  26.876  1.00  0.00     0.017 C 
ATOM     25  C   UNL A   1      31.384  23.964  25.653  1.00  0.00    -0.020 C 
ATOM     26  C   UNL A   1      31.126  24.153  23.200  1.00  0.00     0.032 C 
ATOM     27  C   UNL A   1      32.196  24.042  24.315  1.00  0.00     0.006 C 
ATOM     28  C   UNL A   1      32.327  23.534  26.808  1.00  0.00     0.008 C 
ATOM     29  C   UNL A   1      30.280  22.863  25.589  1.00  0.00     0.012 C 
ATOM     30  C   UNL A   1      33.411  23.007  24.038  1.00  0.00    -0.025 C 
ATOM     31  C   UNL A   1      33.167  22.279  26.481  1.00  0.00     0.005 C 
ATOM     32  C   UNL A   1      32.900  21.830  23.185  1.00  0.00     0.012 C 
ATOM     33  C   UNL A   1      34.522  23.722  23.203  1.00  0.00     0.010 C 
ATOM     34  C   UNL A   1      34.158  22.611  25.361  1.00  0.00     0.003 C 
ATOM     35  C   UNL A   1      35.833  22.956  22.992  1.00  0.00     0.033 C 
ATOM     36  C   UNL A   1      35.407  21.647  25.187  1.00  0.00    -0.006 C 
ATOM     37  C   UNL A   1      36.436  22.393  24.280  1.00  0.00     0.120 C 
ATOM     38  C   UNL A   1      35.092  20.244  24.625  1.00  0.00     0.014 C 
ATOM     39  C   UNL A   1      36.099  21.391  26.551  1.00  0.00     0.014 C 
BRANCH  37  40
ATOM     40  O   UNL A   1      37.555  21.561  23.965  1.00  0.00    -0.393 OA
ATOM     41  H   UNL A   1      37.442  20.694  24.385  1.00  0.00     0.210 HD
ENDBRANCH  37  40
ENDBRANCH   9  11
ENDBRANCH   8   9
ENDBRANCH   7   8
ENDBRANCH   6   7
ENDBRANCH   5   6
ENDBRANCH   4   5
ENDBRANCH   3   4
ENDBRANCH   2   3
ENDBRANCH   1   2
BRANCH   1  42
ATOM     42  C   UNL A   1      33.677  34.137  28.914  1.00  0.00     0.188 C 
BRANCH  42  43
ATOM     43  O   UNL A   1      33.636  34.225  30.328  1.00  0.00    -0.376 OA
BRANCH  43  44
ATOM     44  C   UNL A   1      34.788  33.887  31.075  1.00  0.00     0.202 C 
BRANCH  44  45
ATOM     45  C   UNL A   1      34.836  32.499  31.734  1.00  0.00     0.261 C 
BRANCH  45  46
ATOM     46  O   UNL A   1      35.910  31.634  31.342  1.00  0.00    -0.460 OA
BRANCH  46  47
ATOM     47  C   UNL A   1      36.850  31.309  32.260  1.00  0.00     0.338 C 
ATOM     48  O   UNL A   1      36.659  30.733  33.317  1.00  0.00    -0.246 OA
BRANCH  47  49
ATOM     49  C   UNL A   1      38.174  31.500  31.607  1.00  0.00     0.060 A 
ATOM     50  C   UNL A   1      39.283  31.793  32.422  1.00  0.00     0.016 A 
ATOM     51  C   UNL A   1      38.366  31.177  30.256  1.00  0.00     0.016 A 
ATOM     52  C   UNL A   1      40.574  31.777  31.888  1.00  0.00     0.010 A 
ATOM     53  C   UNL A   1      39.650  31.224  29.706  1.00  0.00     0.010 A 
ATOM     54  C   UNL A   1      40.750  31.573  30.511  1.00  0.00    -0.014 A 
BRANCH  54  55
ATOM     55  C   UNL A   1      41.939  32.180  29.863  1.00  0.00     0.031 A 
ATOM     56  C   UNL A   1      43.075  31.227  29.584  1.00  0.00     0.074 A 
ATOM     57  C   UNL A   1      42.029  33.481  29.535  1.00  0.00     0.049 A 
ATOM     58  N   UNL A   1      44.254  31.451  29.072  1.00  0.00    -0.248 NA
ATOM     59  C   UNL A   1      42.836  29.814  29.935  1.00  0.00     0.031 C 
ATOM     60  C   UNL A   1      40.979  34.483  29.706  1.00  0.00     0.029 A 
ATOM     61  N   UNL A   1      43.076  34.184  28.988  1.00  0.00    -0.354 N 
ATOM     62  C   UNL A   1      44.884  30.210  29.032  1.00  0.00     0.074 A 
ATOM     63  C   UNL A   1      43.975  29.244  29.593  1.00  0.00     0.031 C 
ATOM     64  C   UNL A   1      41.444  35.676  29.287  1.00  0.00     0.029 A 
ATOM     65  C   UNL A   1      42.833  35.531  28.853  1.00  0.00     0.049 A 
ATOM     66  H   UNL A   1      43.923  33.760  28.718  1.00  0.00     0.167 HD
ATOM     67  C   UNL A   1      46.116  29.898  28.572  1.00  0.00     0.034 A 
ATOM     68  C   UNL A   1      43.657  36.524  28.453  1.00  0.00     0.034 A 
ATOM     69  C   UNL A   1      47.039  30.880  28.080  1.00  0.00     0.049 A 
ATOM     70  C   UNL A   1      45.078  36.172  28.059  1.00  0.00     0.074 A 
ATOM     71  C   UNL A   1      48.328  30.696  27.619  1.00  0.00     0.029 A 
ATOM     72  N   UNL A   1      46.774  32.242  28.011  1.00  0.00    -0.354 N 
ATOM     73  N   UNL A   1      45.660  34.993  28.017  1.00  0.00    -0.248 NA
ATOM     74  C   UNL A   1      45.951  37.284  27.659  1.00  0.00     0.031 C 
ATOM     75  C   UNL A   1      48.868  31.956  27.340  1.00  0.00     0.029 A 
ATOM     76  C   UNL A   1      47.888  32.916  27.546  1.00  0.00     0.049 A 
ATOM     77  H   UNL A   1      45.920  32.665  28.258  1.00  0.00     0.167 HD
ATOM     78  C   UNL A   1      46.954  35.222  27.550  1.00  0.00     0.074 A 
ATOM     79  C   UNL A   1      47.063  36.647  27.316  1.00  0.00     0.031 C 
ATOM     80  C   UNL A   1      47.963  34.341  27.325  1.00  0.00     0.034 A 
BRANCH  67  81
ATOM     81  C   UNL A   1      46.535  28.455  28.678  1.00  0.00     0.023 A 
ATOM     82  C   UNL A   1      46.332  27.549  27.621  1.00  0.00     0.031 A 
ATOM     83  C   UNL A   1      47.064  27.961  29.882  1.00  0.00     0.131 A 
ATOM     84  C   UNL A   1      46.592  26.184  27.813  1.00  0.00     0.055 A 
ATOM     85  C   UNL A   1      47.396  26.615  30.039  1.00  0.00     0.041 A 
ATOM     86  F   UNL A   1      47.237  28.773  30.936  1.00  0.00    -0.206 F 
ATOM     87  C   UNL A   1      47.147  25.715  29.006  1.00  0.00     0.022 A 
BRANCH  84  88
ATOM     88  S   UNL A   1      46.055  25.009  26.539  1.00  0.00     0.124 S 
ATOM     89  O   UNL A   1      47.180  24.077  26.505  1.00  0.00    -0.237 OA
ATOM     90  O   UNL A   1      44.812  24.489  27.094  1.00  0.00    -0.237 OA
ATOM     91  O   UNL A   1      45.907  25.841  25.346  1.00  0.00    -0.744 OA
ENDBRANCH  84  88
ENDBRANCH  67  81
BRANCH  68  92
ATOM     92  C   UNL A   1      43.207  37.950  28.448  1.00  0.00     0.023 A 
ATOM     93  C   UNL A   1      43.387  38.777  29.570  1.00  0.00     0.031 A 
ATOM     94  C   UNL A   1      42.508  38.482  27.349  1.00  0.00     0.131 A 
ATOM     95  C   UNL A   1      42.833  40.068  29.588  1.00  0.00     0.055 A 
ATOM     96  C   UNL A   1      42.004  39.785  27.352  1.00  0.00     0.041 A 
ATOM     97  F   UNL A   1      42.295  37.736  26.254  1.00  0.00    -0.206 F 
ATOM     98  C   UNL A   1      42.153  40.583  28.482  1.00  0.00     0.022 A 
BRANCH  95  99
ATOM     99  S   UNL A   1      42.929  41.038  31.119  1.00  0.00     0.124 S 
ATOM    100  O   UNL A   1      41.523  41.330  31.376  1.00  0.00    -0.237 OA
ATOM    101  O   UNL A   1      43.567  40.096  32.033  1.00  0.00    -0.237 OA
ATOM    102  O   UNL A   1      43.748  42.189  30.744  1.00  0.00    -0.744 OA
ENDBRANCH  95  99
ENDBRANCH  68  92
BRANCH  80 103
ATOM    103  C   UNL A   1      49.245  34.887  26.748  1.00  0.00     0.023 A 
ATOM    104  C   UNL A   1      50.379  35.118  27.544  1.00  0.00     0.031 A 
ATOM    105  C   UNL A   1      49.333  35.160  25.371  1.00  0.00     0.131 A 
ATOM    106  C   UNL A   1      51.536  35.658  26.966  1.00  0.00     0.055 A 
ATOM    107  C   UNL A   1      50.508  35.638  24.791  1.00  0.00     0.041 A 
ATOM    108  F   UNL A   1      48.280  34.953  24.564  1.00  0.00    -0.206 F 
ATOM    109  C   UNL A   1      51.615  35.902  25.592  1.00  0.00     0.022 A 
BRANCH 106 110
ATOM    110  S   UNL A   1      52.916  36.121  28.049  1.00  0.00     0.124 S 
ATOM    111  O   UNL A   1      53.336  37.396  27.475  1.00  0.00    -0.237 OA
ATOM    112  O   UNL A   1      52.275  36.192  29.357  1.00  0.00    -0.237 OA
ATOM    113  O   UNL A   1      53.866  35.023  27.882  1.00  0.00    -0.744 OA
ENDBRANCH 106 110
ENDBRANCH  80 103
ENDBRANCH  54  55
ENDBRANCH  47  49
ENDBRANCH  46  47
ENDBRANCH  45  46
ENDBRANCH  44  45
ENDBRANCH  43  44
ENDBRANCH  42  43
ENDBRANCH   1  42
TORSDOF 24
ENDMDL
MODEL 3
REMARK VINA RESULT:     -10.4      4.432      5.446
REMARK SMILES C[C@H]1[C@H](C)CC[C@@]2(C(=O)OCCOCCOCCOCCOC(=O)c3ccc(-c4c5nc(c(-c6cc(S(=O)(=O)[O-])ccc6F)c6ccc([nH]6)c(-c6cc(S(=O)(=O)[O-])ccc6F)c6nc(c(-c7cc(S(=O)(=O)[O-])ccc7F)c7ccc4[nH]7)C=C6)C=C5)cc3)CC[C@@]3(C)C(=CC[C@@H]4[C@@]5(C)CC[C@H](O)C(C)(C)[C@@H]5CC[C@]43C)[C@H]12
REMARK SMILES IDX 17 1 16 2 15 3 14 4 13 5 12 6 11 7 10 8 8 9 9 10 7 11 1 12
REMARK SMILES IDX 2 13 3 14 110 15 4 16 5 17 92 18 6 19 88 20 90 21 93 22
REMARK SMILES IDX 89 23 91 24 108 25 94 26 95 27 107 28 109 29 96 30 106 31
REMARK SMILES IDX 97 32 98 33 105 34 99 35 102 36 100 37 103 38 104 39 101 40
REMARK SMILES IDX 18 42 19 43 20 44 21 45 22 46 23 47 24 48 25 49 26 50 87 51
REMARK SMILES IDX 27 52 86 53 28 54 29 55 30 56 80 57 31 58 85 59 79 60 81 61
REMARK SMILES IDX 32 62 84 63 78 64 77 65 33 67 65 68 45 69 64 70 46 71 49 72
REMARK SMILES IDX 63 73 82 74 47 75 48 76 62 78 83 79 50 80 34 81 35 82 43 83
REMARK SMILES IDX 36 84 42 85 44 86 41 87 37 88 38 89 39 90 40 91 66 92 67 93
REMARK SMILES IDX 75 94 68 95 74 96 76 97 73 98 69 99 70 100 71 101 72 102
REMARK SMILES IDX 51 103 52 104 60 105 53 106 59 107 61 108 58 109 54 110
REMARK SMILES IDX 55 111 56 112 57 113
REMARK H PARENT 101 41 81 66 49 77
REMARK Flexibility Score: inf
ROOT
ATOM      1  C   UNL A   1      35.563  34.144  29.515  1.00  0.00     0.188 C 
ENDROOT
BRANCH   1   2
ATOM      2  O   UNL A   1      36.272  33.028  29.027  1.00  0.00    -0.377 OA
BRANCH   2   3
ATOM      3  C   UNL A   1      35.738  32.263  27.975  1.00  0.00     0.188 C 
BRANCH   3   4
ATOM      4  C   UNL A   1      35.361  30.819  28.336  1.00  0.00     0.188 C 
BRANCH   4   5
ATOM      5  O   UNL A   1      35.674  29.819  27.380  1.00  0.00    -0.376 OA
BRANCH   5   6
ATOM      6  C   UNL A   1      34.605  29.104  26.804  1.00  0.00     0.202 C 
BRANCH   6   7
ATOM      7  C   UNL A   1      34.388  29.096  25.297  1.00  0.00     0.261 C 
BRANCH   7   8
ATOM      8  O   UNL A   1      33.371  28.236  24.680  1.00  0.00    -0.463 OA
BRANCH   8   9
ATOM      9  C   UNL A   1      32.195  28.138  24.024  1.00  0.00     0.312 C 
ATOM     10  O   UNL A   1      31.971  27.796  22.872  1.00  0.00    -0.252 OA
BRANCH   9  11
ATOM     11  C   UNL A   1      31.037  28.416  25.005  1.00  0.00     0.075 C 
ATOM     12  C   UNL A   1      27.719  27.990  22.881  1.00  0.00     0.008 C 
ATOM     13  C   UNL A   1      29.139  28.439  23.224  1.00  0.00    -0.003 C 
ATOM     14  C   UNL A   1      29.253  30.018  23.216  1.00  0.00    -0.011 C 
ATOM     15  C   UNL A   1      29.749  27.678  24.520  1.00  0.00     0.036 C 
ATOM     16  C   UNL A   1      29.115  30.645  21.811  1.00  0.00     0.008 C 
ATOM     17  C   UNL A   1      30.573  30.569  23.762  1.00  0.00     0.005 C 
ATOM     18  C   UNL A   1      30.206  26.132  24.507  1.00  0.00    -0.063 C 
ATOM     19  C   UNL A   1      30.912  29.946  25.090  1.00  0.00     0.020 C 
ATOM     20  C   UNL A   1      31.388  27.952  26.434  1.00  0.00     0.020 C 
ATOM     21  C   UNL A   1      30.747  25.502  25.857  1.00  0.00    -0.006 C 
ATOM     22  C   UNL A   1      30.406  25.456  23.353  1.00  0.00    -0.027 C 
ATOM     23  C   UNL A   1      31.746  26.480  26.534  1.00  0.00     0.013 C 
ATOM     24  C   UNL A   1      29.531  25.348  26.799  1.00  0.00     0.017 C 
ATOM     25  C   UNL A   1      31.500  24.034  25.649  1.00  0.00    -0.020 C 
ATOM     26  C   UNL A   1      31.404  24.321  23.194  1.00  0.00     0.032 C 
ATOM     27  C   UNL A   1      32.398  24.190  24.374  1.00  0.00     0.006 C 
ATOM     28  C   UNL A   1      32.376  23.580  26.847  1.00  0.00     0.008 C 
ATOM     29  C   UNL A   1      30.436  22.908  25.464  1.00  0.00     0.012 C 
ATOM     30  C   UNL A   1      33.659  23.200  24.138  1.00  0.00    -0.025 C 
ATOM     31  C   UNL A   1      33.272  22.362  26.528  1.00  0.00     0.005 C 
ATOM     32  C   UNL A   1      33.240  22.047  23.205  1.00  0.00     0.012 C 
ATOM     33  C   UNL A   1      34.802  23.979  23.411  1.00  0.00     0.010 C 
ATOM     34  C   UNL A   1      34.326  22.767  25.492  1.00  0.00     0.003 C 
ATOM     35  C   UNL A   1      36.146  23.256  23.260  1.00  0.00     0.033 C 
ATOM     36  C   UNL A   1      35.612  21.844  25.365  1.00  0.00    -0.006 C 
ATOM     37  C   UNL A   1      36.677  22.655  24.562  1.00  0.00     0.120 C 
ATOM     38  C   UNL A   1      35.375  20.458  24.725  1.00  0.00     0.014 C 
ATOM     39  C   UNL A   1      36.217  21.548  26.761  1.00  0.00     0.014 C 
BRANCH  37  40
ATOM     40  O   UNL A   1      37.838  21.867  24.290  1.00  0.00    -0.393 OA
ATOM     41  H   UNL A   1      38.483  21.984  25.006  1.00  0.00     0.210 HD
ENDBRANCH  37  40
ENDBRANCH   9  11
ENDBRANCH   8   9
ENDBRANCH   7   8
ENDBRANCH   6   7
ENDBRANCH   5   6
ENDBRANCH   4   5
ENDBRANCH   3   4
ENDBRANCH   2   3
ENDBRANCH   1   2
BRANCH   1  42
ATOM     42  C   UNL A   1      34.028  34.169  29.636  1.00  0.00     0.188 C 
BRANCH  42  43
ATOM     43  O   UNL A   1      33.529  34.473  30.928  1.00  0.00    -0.376 OA
BRANCH  43  44
ATOM     44  C   UNL A   1      34.403  34.409  32.038  1.00  0.00     0.202 C 
BRANCH  44  45
ATOM     45  C   UNL A   1      34.389  33.130  32.890  1.00  0.00     0.261 C 
BRANCH  45  46
ATOM     46  O   UNL A   1      35.598  32.359  32.917  1.00  0.00    -0.460 OA
BRANCH  46  47
ATOM     47  C   UNL A   1      36.512  32.619  33.881  1.00  0.00     0.338 C 
ATOM     48  O   UNL A   1      36.289  33.100  34.978  1.00  0.00    -0.246 OA
BRANCH  47  49
ATOM     49  C   UNL A   1      37.770  31.931  33.478  1.00  0.00     0.060 A 
ATOM     50  C   UNL A   1      37.964  30.600  33.891  1.00  0.00     0.016 A 
ATOM     51  C   UNL A   1      38.631  32.502  32.530  1.00  0.00     0.016 A 
ATOM     52  C   UNL A   1      39.020  29.848  33.371  1.00  0.00     0.010 A 
ATOM     53  C   UNL A   1      39.726  31.772  32.059  1.00  0.00     0.010 A 
ATOM     54  C   UNL A   1      39.950  30.460  32.517  1.00  0.00    -0.014 A 
BRANCH  54  55
ATOM     55  C   UNL A   1      41.336  29.929  32.501  1.00  0.00     0.031 A 
ATOM     56  C   UNL A   1      41.656  29.004  31.352  1.00  0.00     0.074 A 
ATOM     57  C   UNL A   1      42.263  30.231  33.427  1.00  0.00     0.049 A 
ATOM     58  N   UNL A   1      42.751  28.349  31.081  1.00  0.00    -0.248 NA
ATOM     59  C   UNL A   1      40.576  28.794  30.369  1.00  0.00     0.031 C 
ATOM     60  C   UNL A   1      42.086  31.152  34.548  1.00  0.00     0.029 A 
ATOM     61  N   UNL A   1      43.552  29.776  33.568  1.00  0.00    -0.354 N 
ATOM     62  C   UNL A   1      42.491  27.666  29.896  1.00  0.00     0.074 A 
ATOM     63  C   UNL A   1      41.134  27.959  29.514  1.00  0.00     0.031 C 
ATOM     64  C   UNL A   1      43.222  31.180  35.271  1.00  0.00     0.029 A 
ATOM     65  C   UNL A   1      44.192  30.254  34.688  1.00  0.00     0.049 A 
ATOM     66  H   UNL A   1      43.977  29.164  32.925  1.00  0.00     0.167 HD
ATOM     67  C   UNL A   1      43.309  26.858  29.186  1.00  0.00     0.034 A 
ATOM     68  C   UNL A   1      45.409  29.946  35.187  1.00  0.00     0.034 A 
ATOM     69  C   UNL A   1      44.636  26.518  29.613  1.00  0.00     0.049 A 
ATOM     70  C   UNL A   1      46.265  28.940  34.442  1.00  0.00     0.074 A 
ATOM     71  C   UNL A   1      45.550  25.682  29.001  1.00  0.00     0.029 A 
ATOM     72  N   UNL A   1      45.228  26.978  30.781  1.00  0.00    -0.354 N 
ATOM     73  N   UNL A   1      46.012  28.306  33.318  1.00  0.00    -0.248 NA
ATOM     74  C   UNL A   1      47.568  28.610  35.034  1.00  0.00     0.031 C 
ATOM     75  C   UNL A   1      46.667  25.581  29.836  1.00  0.00     0.029 A 
ATOM     76  C   UNL A   1      46.484  26.420  30.927  1.00  0.00     0.049 A 
ATOM     77  H   UNL A   1      44.813  27.609  31.414  1.00  0.00     0.167 HD
ATOM     78  C   UNL A   1      47.142  27.533  33.052  1.00  0.00     0.074 A 
ATOM     79  C   UNL A   1      48.078  27.788  34.127  1.00  0.00     0.031 C 
ATOM     80  C   UNL A   1      47.393  26.694  32.014  1.00  0.00     0.034 A 
BRANCH  67  81
ATOM     81  C   UNL A   1      42.735  26.238  27.939  1.00  0.00     0.023 A 
ATOM     82  C   UNL A   1      42.089  24.988  27.967  1.00  0.00     0.031 A 
ATOM     83  C   UNL A   1      42.910  26.864  26.694  1.00  0.00     0.131 A 
ATOM     84  C   UNL A   1      41.706  24.373  26.766  1.00  0.00     0.055 A 
ATOM     85  C   UNL A   1      42.455  26.283  25.510  1.00  0.00     0.041 A 
ATOM     86  F   UNL A   1      43.557  28.037  26.605  1.00  0.00    -0.206 F 
ATOM     87  C   UNL A   1      41.861  25.024  25.540  1.00  0.00     0.022 A 
BRANCH  84  88
ATOM     88  S   UNL A   1      41.142  22.650  26.813  1.00  0.00     0.124 S 
ATOM     89  O   UNL A   1      41.821  22.085  25.649  1.00  0.00    -0.237 OA
ATOM     90  O   UNL A   1      41.621  22.196  28.113  1.00  0.00    -0.237 OA
ATOM     91  O   UNL A   1      39.690  22.761  26.686  1.00  0.00    -0.744 OA
ENDBRANCH  84  88
ENDBRANCH  67  81
BRANCH  68  92
ATOM     92  C   UNL A   1      45.889  30.534  36.475  1.00  0.00     0.023 A 
ATOM     93  C   UNL A   1      45.666  29.888  37.703  1.00  0.00     0.031 A 
ATOM     94  C   UNL A   1      46.504  31.799  36.506  1.00  0.00     0.131 A 
ATOM     95  C   UNL A   1      46.006  30.527  38.907  1.00  0.00     0.055 A 
ATOM     96  C   UNL A   1      46.888  32.408  37.703  1.00  0.00     0.041 A 
ATOM     97  F   UNL A   1      46.734  32.470  35.366  1.00  0.00    -0.206 F 
ATOM     98  C   UNL A   1      46.627  31.778  38.915  1.00  0.00     0.022 A 
BRANCH  95  99
ATOM     99  S   UNL A   1      45.537  29.741  40.475  1.00  0.00     0.124 S 
ATOM    100  O   UNL A   1      44.745  30.790  41.109  1.00  0.00    -0.237 OA
ATOM    101  O   UNL A   1      44.800  28.568  40.016  1.00  0.00    -0.237 OA
ATOM    102  O   UNL A   1      46.821  29.456  41.111  1.00  0.00    -0.744 OA
ENDBRANCH  95  99
ENDBRANCH  68  92
BRANCH  80 103
ATOM    103  C   UNL A   1      48.751  26.039  31.965  1.00  0.00     0.023 A 
ATOM    104  C   UNL A   1      49.039  24.870  32.690  1.00  0.00     0.031 A 
ATOM    105  C   UNL A   1      49.765  26.588  31.160  1.00  0.00     0.131 A 
ATOM    106  C   UNL A   1      50.326  24.319  32.637  1.00  0.00     0.055 A 
ATOM    107  C   UNL A   1      51.025  25.998  31.063  1.00  0.00     0.041 A 
ATOM    108  F   UNL A   1      49.542  27.701  30.444  1.00  0.00    -0.206 F 
ATOM    109  C   UNL A   1      51.316  24.864  31.814  1.00  0.00     0.022 A 
BRANCH 106 110
ATOM    110  S   UNL A   1      50.721  22.924  33.728  1.00  0.00     0.124 S 
ATOM    111  O   UNL A   1      52.093  23.228  34.123  1.00  0.00    -0.237 OA
ATOM    112  O   UNL A   1      49.714  23.052  34.775  1.00  0.00    -0.237 OA
ATOM    113  O   UNL A   1      50.569  21.757  32.861  1.00  0.00    -0.744 OA
ENDBRANCH 106 110
ENDBRANCH  80 103
ENDBRANCH  54  55
ENDBRANCH  47  49
ENDBRANCH  46  47
ENDBRANCH  45  46
ENDBRANCH  44  45
ENDBRANCH  43  44
ENDBRANCH  42  43
ENDBRANCH   1  42
TORSDOF 24
ENDMDL
