MODEL 1
REMARK VINA RESULT:      -9.2      0.000      0.000
REMARK SMILES Cc1cc([C@@H](C)NC(=O)N[C@H]2C=C[C@@H](C(=O)OCCOCCOCCOCCOC(=O)c3ccc(-c4c5nc(c(-c6cc(S(=O)(=O)[O-])ccc6F)c6ccc([nH]6)c(-c6cc(S(=O)(=O)[O-])ccc6F)c6nc(c(-c7cc(S(=O)(=O)[O-])ccc7F)c7ccc4[nH]7)C=C6)C=C5)cc3)C2)c(C)s1
REMARK SMILES IDX 23 1 22 2 21 3 20 4 19 5 18 6 17 7 15 8 16 9 14 10 11 11
REMARK SMILES IDX 12 12 95 13 13 14 10 15 7 16 8 17 9 19 5 21 6 22 4 23 1 24
REMARK SMILES IDX 2 25 3 26 98 27 96 28 97 29 24 30 25 31 26 32 27 33 28 34
REMARK SMILES IDX 29 35 30 36 31 37 32 38 33 39 94 40 34 41 93 42 35 43 36 44
REMARK SMILES IDX 37 45 87 46 38 47 92 48 86 49 88 50 39 51 91 52 85 53 84 54
REMARK SMILES IDX 40 56 72 57 52 58 71 59 53 60 56 61 70 62 89 63 54 64 55 65
REMARK SMILES IDX 69 67 90 68 57 69 41 70 42 71 50 72 43 73 49 74 51 75 48 76
REMARK SMILES IDX 44 77 45 78 46 79 47 80 73 81 74 82 82 83 75 84 81 85 83 86
REMARK SMILES IDX 80 87 76 88 77 89 78 90 79 91 58 92 59 93 67 94 60 95 66 96
REMARK SMILES IDX 68 97 65 98 61 99 62 100 63 101 64 102
REMARK H PARENT 7 18 10 20 88 55 56 66
REMARK Flexibility Score: inf
ROOT
ATOM      1  O   UNL A   1      44.727  20.665  25.830  1.00  0.00    -0.377 OA
ENDROOT
BRANCH   1   2
ATOM      2  C   UNL A   1      43.425  20.521  25.293  1.00  0.00     0.188 C 
BRANCH   2   3
ATOM      3  C   UNL A   1      42.660  19.302  25.816  1.00  0.00     0.188 C 
BRANCH   3   4
ATOM      4  O   UNL A   1      41.245  19.404  25.889  1.00  0.00    -0.376 OA
BRANCH   4   5
ATOM      5  C   UNL A   1      40.690  20.507  26.610  1.00  0.00     0.202 C 
BRANCH   5   6
ATOM      6  C   UNL A   1      40.007  21.622  25.803  1.00  0.00     0.261 C 
BRANCH   6   7
ATOM      7  O   UNL A   1      38.605  21.763  26.104  1.00  0.00    -0.463 OA
BRANCH   7   8
ATOM      8  C   UNL A   1      37.735  21.149  25.265  1.00  0.00     0.312 C 
ATOM      9  O   UNL A   1      37.785  19.961  24.958  1.00  0.00    -0.252 OA
BRANCH   8  10
ATOM     10  C   UNL A   1      36.590  22.046  24.802  1.00  0.00     0.124 C 
ATOM     11  C   UNL A   1      34.544  23.222  25.336  1.00  0.00     0.107 C 
ATOM     12  C   UNL A   1      35.729  24.105  25.559  1.00  0.00    -0.006 C 
ATOM     13  C   UNL A   1      35.187  21.831  25.369  1.00  0.00     0.048 C 
ATOM     14  C   UNL A   1      36.856  23.471  25.209  1.00  0.00    -0.014 C 
BRANCH  11  15
ATOM     15  N   UNL A   1      33.533  23.403  26.338  1.00  0.00    -0.332 N 
ATOM     16  N   UNL A   1      31.503  23.101  25.148  1.00  0.00    -0.332 N 
ATOM     17  C   UNL A   1      32.203  23.227  26.288  1.00  0.00     0.315 C 
ATOM     18  H   UNL A   1      30.676  22.577  25.252  1.00  0.00     0.165 HD
ATOM     19  O   UNL A   1      31.586  23.149  27.351  1.00  0.00    -0.249 OA
ATOM     20  H   UNL A   1      33.872  23.709  27.210  1.00  0.00     0.165 HD
BRANCH  16  21
ATOM     21  C   UNL A   1      31.716  23.581  23.795  1.00  0.00     0.112 C 
ATOM     22  C   UNL A   1      32.832  22.817  23.089  1.00  0.00     0.036 C 
BRANCH  21  23
ATOM     23  C   UNL A   1      31.941  25.078  23.787  1.00  0.00    -0.012 A 
ATOM     24  C   UNL A   1      34.048  27.960  22.474  1.00  0.00     0.056 C 
ATOM     25  C   UNL A   1      33.125  27.029  23.187  1.00  0.00     0.002 A 
ATOM     26  C   UNL A   1      33.085  25.655  23.126  1.00  0.00     0.021 A 
ATOM     27  S   UNL A   1      31.918  27.621  24.232  1.00  0.00    -0.146 S 
ATOM     28  C   UNL A   1      31.175  26.078  24.374  1.00  0.00     0.007 A 
ATOM     29  C   UNL A   1      29.870  26.007  25.101  1.00  0.00     0.057 C 
ENDBRANCH  21  23
ENDBRANCH  16  21
ENDBRANCH  11  15
ENDBRANCH   8  10
ENDBRANCH   7   8
ENDBRANCH   6   7
ENDBRANCH   5   6
ENDBRANCH   4   5
ENDBRANCH   3   4
ENDBRANCH   2   3
ENDBRANCH   1   2
BRANCH   1  30
ATOM     30  C   UNL A   1      45.539  21.767  25.411  1.00  0.00     0.188 C 
BRANCH  30  31
ATOM     31  C   UNL A   1      45.656  22.968  26.360  1.00  0.00     0.188 C 
BRANCH  31  32
ATOM     32  O   UNL A   1      45.119  24.231  25.954  1.00  0.00    -0.376 OA
BRANCH  32  33
ATOM     33  C   UNL A   1      43.910  24.276  25.204  1.00  0.00     0.202 C 
BRANCH  33  34
ATOM     34  C   UNL A   1      43.266  25.647  25.049  1.00  0.00     0.261 C 
BRANCH  34  35
ATOM     35  O   UNL A   1      41.848  25.543  25.008  1.00  0.00    -0.460 OA
BRANCH  35  36
ATOM     36  C   UNL A   1      41.250  25.861  26.176  1.00  0.00     0.338 C 
ATOM     37  O   UNL A   1      40.458  25.190  26.818  1.00  0.00    -0.246 OA
BRANCH  36  38
ATOM     38  C   UNL A   1      41.848  27.109  26.659  1.00  0.00     0.060 A 
ATOM     39  C   UNL A   1      42.706  27.035  27.761  1.00  0.00     0.016 A 
ATOM     40  C   UNL A   1      41.542  28.331  26.051  1.00  0.00     0.016 A 
ATOM     41  C   UNL A   1      43.216  28.200  28.306  1.00  0.00     0.010 A 
ATOM     42  C   UNL A   1      42.041  29.500  26.604  1.00  0.00     0.010 A 
ATOM     43  C   UNL A   1      42.829  29.429  27.764  1.00  0.00    -0.014 A 
BRANCH  43  44
ATOM     44  C   UNL A   1      43.034  30.639  28.573  1.00  0.00     0.031 A 
ATOM     45  C   UNL A   1      44.153  31.556  28.175  1.00  0.00     0.074 A 
ATOM     46  C   UNL A   1      42.200  30.912  29.586  1.00  0.00     0.049 A 
ATOM     47  N   UNL A   1      44.551  32.667  28.729  1.00  0.00    -0.248 NA
ATOM     48  C   UNL A   1      44.935  31.157  26.990  1.00  0.00     0.031 C 
ATOM     49  C   UNL A   1      41.063  30.083  29.986  1.00  0.00     0.029 A 
ATOM     50  N   UNL A   1      42.182  31.963  30.458  1.00  0.00    -0.354 N 
ATOM     51  C   UNL A   1      45.631  33.098  27.965  1.00  0.00     0.074 A 
ATOM     52  C   UNL A   1      45.856  32.106  26.940  1.00  0.00     0.031 C 
ATOM     53  C   UNL A   1      40.454  30.662  31.035  1.00  0.00     0.029 A 
ATOM     54  C   UNL A   1      41.188  31.871  31.400  1.00  0.00     0.049 A 
ATOM     55  H   UNL A   1      42.820  32.712  30.417  1.00  0.00     0.167 HD
ATOM     56  C   UNL A   1      46.357  34.231  28.112  1.00  0.00     0.034 A 
ATOM     57  C   UNL A   1      40.929  32.671  32.450  1.00  0.00     0.034 A 
ATOM     58  C   UNL A   1      46.106  35.182  29.166  1.00  0.00     0.049 A 
ATOM     59  C   UNL A   1      41.804  33.885  32.642  1.00  0.00     0.074 A 
ATOM     60  C   UNL A   1      46.763  36.367  29.436  1.00  0.00     0.029 A 
ATOM     61  N   UNL A   1      45.117  35.042  30.136  1.00  0.00    -0.354 N 
ATOM     62  N   UNL A   1      42.824  34.294  31.918  1.00  0.00    -0.248 NA
ATOM     63  C   UNL A   1      41.487  34.751  33.780  1.00  0.00     0.031 C 
ATOM     64  C   UNL A   1      46.227  36.900  30.614  1.00  0.00     0.029 A 
ATOM     65  C   UNL A   1      45.170  36.102  31.026  1.00  0.00     0.049 A 
ATOM     66  H   UNL A   1      44.474  34.299  30.183  1.00  0.00     0.167 HD
ATOM     67  C   UNL A   1      43.248  35.486  32.496  1.00  0.00     0.074 A 
ATOM     68  C   UNL A   1      42.358  35.736  33.614  1.00  0.00     0.031 C 
ATOM     69  C   UNL A   1      44.271  36.307  32.140  1.00  0.00     0.034 A 
BRANCH  56  70
ATOM     70  C   UNL A   1      47.509  34.450  27.161  1.00  0.00     0.023 A 
ATOM     71  C   UNL A   1      48.807  33.985  27.442  1.00  0.00     0.031 A 
ATOM     72  C   UNL A   1      47.316  35.178  25.974  1.00  0.00     0.131 A 
ATOM     73  C   UNL A   1      49.870  34.314  26.586  1.00  0.00     0.055 A 
ATOM     74  C   UNL A   1      48.363  35.429  25.084  1.00  0.00     0.041 A 
ATOM     75  F   UNL A   1      46.110  35.679  25.667  1.00  0.00    -0.206 F 
ATOM     76  C   UNL A   1      49.653  35.008  25.395  1.00  0.00     0.022 A 
BRANCH  73  77
ATOM     77  S   UNL A   1      51.565  33.955  27.127  1.00  0.00     0.124 S 
ATOM     78  O   UNL A   1      52.154  33.408  25.906  1.00  0.00    -0.237 OA
ATOM     79  O   UNL A   1      52.051  35.266  27.539  1.00  0.00    -0.237 OA
ATOM     80  O   UNL A   1      51.383  32.988  28.208  1.00  0.00    -0.744 OA
ENDBRANCH  73  77
ENDBRANCH  56  70
BRANCH  57  81
ATOM     81  C   UNL A   1      39.827  32.343  33.396  1.00  0.00     0.023 A 
ATOM     82  C   UNL A   1      38.582  32.981  33.308  1.00  0.00     0.031 A 
ATOM     83  C   UNL A   1      40.016  31.406  34.429  1.00  0.00     0.131 A 
ATOM     84  C   UNL A   1      37.589  32.713  34.263  1.00  0.00     0.055 A 
ATOM     85  C   UNL A   1      39.005  31.097  35.340  1.00  0.00     0.041 A 
ATOM     86  F   UNL A   1      41.187  30.763  34.559  1.00  0.00    -0.206 F 
ATOM     87  C   UNL A   1      37.786  31.764  35.269  1.00  0.00     0.022 A 
BRANCH  84  88
ATOM     88  S   UNL A   1      36.068  33.698  34.229  1.00  0.00     0.124 S 
ATOM     89  O   UNL A   1      36.519  34.918  33.571  1.00  0.00    -0.237 OA
ATOM     90  O   UNL A   1      35.172  32.845  33.455  1.00  0.00    -0.237 OA
ATOM     91  O   UNL A   1      35.725  33.840  35.642  1.00  0.00    -0.744 OA
ENDBRANCH  84  88
ENDBRANCH  57  81
BRANCH  69  92
ATOM     92  C   UNL A   1      44.438  37.570  32.949  1.00  0.00     0.023 A 
ATOM     93  C   UNL A   1      43.722  38.740  32.651  1.00  0.00     0.031 A 
ATOM     94  C   UNL A   1      45.346  37.605  34.024  1.00  0.00     0.131 A 
ATOM     95  C   UNL A   1      43.982  39.917  33.366  1.00  0.00     0.055 A 
ATOM     96  C   UNL A   1      45.539  38.756  34.785  1.00  0.00     0.041 A 
ATOM     97  F   UNL A   1      46.059  36.515  34.352  1.00  0.00    -0.206 F 
ATOM     98  C   UNL A   1      44.869  39.927  34.445  1.00  0.00     0.022 A 
BRANCH  95  99
ATOM     99  S   UNL A   1      43.245  41.467  32.779  1.00  0.00     0.124 S 
ATOM    100  O   UNL A   1      44.276  41.967  31.875  1.00  0.00    -0.237 OA
ATOM    101  O   UNL A   1      42.013  41.006  32.148  1.00  0.00    -0.237 OA
ATOM    102  O   UNL A   1      43.063  42.244  34.003  1.00  0.00    -0.744 OA
ENDBRANCH  95  99
ENDBRANCH  69  92
ENDBRANCH  43  44
ENDBRANCH  36  38
ENDBRANCH  35  36
ENDBRANCH  34  35
ENDBRANCH  33  34
ENDBRANCH  32  33
ENDBRANCH  31  32
ENDBRANCH  30  31
ENDBRANCH   1  30
TORSDOF 26
ENDMDL
MODEL 2
REMARK VINA RESULT:      -9.1      2.744      7.984
REMARK SMILES Cc1cc([C@@H](C)NC(=O)N[C@H]2C=C[C@@H](C(=O)OCCOCCOCCOCCOC(=O)c3ccc(-c4c5nc(c(-c6cc(S(=O)(=O)[O-])ccc6F)c6ccc([nH]6)c(-c6cc(S(=O)(=O)[O-])ccc6F)c6nc(c(-c7cc(S(=O)(=O)[O-])ccc7F)c7ccc4[nH]7)C=C6)C=C5)cc3)C2)c(C)s1
REMARK SMILES IDX 23 1 22 2 21 3 20 4 19 5 18 6 17 7 15 8 16 9 14 10 11 11
REMARK SMILES IDX 12 12 95 13 13 14 10 15 7 16 8 17 9 19 5 21 6 22 4 23 1 24
REMARK SMILES IDX 2 25 3 26 98 27 96 28 97 29 24 30 25 31 26 32 27 33 28 34
REMARK SMILES IDX 29 35 30 36 31 37 32 38 33 39 94 40 34 41 93 42 35 43 36 44
REMARK SMILES IDX 37 45 87 46 38 47 92 48 86 49 88 50 39 51 91 52 85 53 84 54
REMARK SMILES IDX 40 56 72 57 52 58 71 59 53 60 56 61 70 62 89 63 54 64 55 65
REMARK SMILES IDX 69 67 90 68 57 69 41 70 42 71 50 72 43 73 49 74 51 75 48 76
REMARK SMILES IDX 44 77 45 78 46 79 47 80 73 81 74 82 82 83 75 84 81 85 83 86
REMARK SMILES IDX 80 87 76 88 77 89 78 90 79 91 58 92 59 93 67 94 60 95 66 96
REMARK SMILES IDX 68 97 65 98 61 99 62 100 63 101 64 102
REMARK H PARENT 7 18 10 20 88 55 56 66
REMARK Flexibility Score: inf
ROOT
ATOM      1  O   UNL A   1      39.636  24.151  27.357  1.00  0.00    -0.377 OA
ENDROOT
BRANCH   1   2
ATOM      2  C   UNL A   1      38.866  23.153  26.712  1.00  0.00     0.188 C 
BRANCH   2   3
ATOM      3  C   UNL A   1      37.871  23.694  25.683  1.00  0.00     0.188 C 
BRANCH   3   4
ATOM      4  O   UNL A   1      36.527  23.241  25.774  1.00  0.00    -0.376 OA
BRANCH   4   5
ATOM      5  C   UNL A   1      36.270  21.857  25.523  1.00  0.00     0.202 C 
BRANCH   5   6
ATOM      6  C   UNL A   1      35.028  21.495  24.694  1.00  0.00     0.261 C 
BRANCH   6   7
ATOM      7  O   UNL A   1      33.885  21.155  25.503  1.00  0.00    -0.463 OA
BRANCH   7   8
ATOM      8  C   UNL A   1      33.368  22.141  26.276  1.00  0.00     0.312 C 
ATOM      9  O   UNL A   1      33.689  22.352  27.442  1.00  0.00    -0.252 OA
BRANCH   8  10
ATOM     10  C   UNL A   1      32.410  23.067  25.532  1.00  0.00     0.124 C 
ATOM     11  C   UNL A   1      31.841  24.248  23.498  1.00  0.00     0.107 C 
ATOM     12  C   UNL A   1      31.219  22.889  23.506  1.00  0.00    -0.006 C 
ATOM     13  C   UNL A   1      32.963  24.078  24.528  1.00  0.00     0.048 C 
ATOM     14  C   UNL A   1      31.488  22.259  24.658  1.00  0.00    -0.014 C 
BRANCH  11  15
ATOM     15  N   UNL A   1      32.318  24.621  22.197  1.00  0.00    -0.332 N 
ATOM     16  N   UNL A   1      32.067  26.980  22.164  1.00  0.00    -0.332 N 
ATOM     17  C   UNL A   1      32.537  25.829  21.654  1.00  0.00     0.315 C 
ATOM     18  H   UNL A   1      32.622  27.763  21.942  1.00  0.00     0.165 HD
ATOM     19  O   UNL A   1      33.232  25.894  20.640  1.00  0.00    -0.249 OA
ATOM     20  H   UNL A   1      32.518  23.863  21.602  1.00  0.00     0.165 HD
BRANCH  16  21
ATOM     21  C   UNL A   1      30.907  27.306  22.974  1.00  0.00     0.112 C 
ATOM     22  C   UNL A   1      30.031  28.367  22.313  1.00  0.00     0.036 C 
BRANCH  21  23
ATOM     23  C   UNL A   1      31.326  27.691  24.377  1.00  0.00    -0.012 A 
ATOM     24  C   UNL A   1      33.193  30.188  26.556  1.00  0.00     0.056 C 
ATOM     25  C   UNL A   1      32.473  29.034  25.941  1.00  0.00     0.002 A 
ATOM     26  C   UNL A   1      32.217  28.800  24.611  1.00  0.00     0.021 A 
ATOM     27  S   UNL A   1      31.831  27.787  26.907  1.00  0.00    -0.146 S 
ATOM     28  C   UNL A   1      30.979  27.095  25.584  1.00  0.00     0.007 A 
ATOM     29  C   UNL A   1      30.036  25.974  25.883  1.00  0.00     0.057 C 
ENDBRANCH  21  23
ENDBRANCH  16  21
ENDBRANCH  11  15
ENDBRANCH   8  10
ENDBRANCH   7   8
ENDBRANCH   6   7
ENDBRANCH   5   6
ENDBRANCH   4   5
ENDBRANCH   3   4
ENDBRANCH   2   3
ENDBRANCH   1   2
BRANCH   1  30
ATOM     30  C   UNL A   1      40.267  25.166  26.569  1.00  0.00     0.188 C 
BRANCH  30  31
ATOM     31  C   UNL A   1      41.727  24.941  26.152  1.00  0.00     0.188 C 
BRANCH  31  32
ATOM     32  O   UNL A   1      42.338  23.673  26.414  1.00  0.00    -0.376 OA
BRANCH  32  33
ATOM     33  C   UNL A   1      42.613  22.786  25.335  1.00  0.00     0.202 C 
BRANCH  33  34
ATOM     34  C   UNL A   1      43.950  22.978  24.631  1.00  0.00     0.261 C 
BRANCH  34  35
ATOM     35  O   UNL A   1      44.965  23.351  25.556  1.00  0.00    -0.460 OA
BRANCH  35  36
ATOM     36  C   UNL A   1      45.668  24.440  25.174  1.00  0.00     0.338 C 
ATOM     37  O   UNL A   1      46.461  24.532  24.251  1.00  0.00    -0.246 OA
BRANCH  36  38
ATOM     38  C   UNL A   1      45.188  25.579  25.961  1.00  0.00     0.060 A 
ATOM     39  C   UNL A   1      44.807  26.733  25.269  1.00  0.00     0.016 A 
ATOM     40  C   UNL A   1      45.145  25.515  27.358  1.00  0.00     0.016 A 
ATOM     41  C   UNL A   1      44.440  27.862  25.979  1.00  0.00     0.010 A 
ATOM     42  C   UNL A   1      44.789  26.650  28.071  1.00  0.00     0.010 A 
ATOM     43  C   UNL A   1      44.495  27.834  27.376  1.00  0.00    -0.014 A 
BRANCH  43  44
ATOM     44  C   UNL A   1      44.503  29.115  28.096  1.00  0.00     0.031 A 
ATOM     45  C   UNL A   1      43.206  29.584  28.688  1.00  0.00     0.074 A 
ATOM     46  C   UNL A   1      45.653  29.787  28.247  1.00  0.00     0.049 A 
ATOM     47  N   UNL A   1      42.945  30.677  29.349  1.00  0.00    -0.248 NA
ATOM     48  C   UNL A   1      42.044  28.697  28.502  1.00  0.00     0.031 C 
ATOM     49  C   UNL A   1      46.954  29.353  27.737  1.00  0.00     0.029 A 
ATOM     50  N   UNL A   1      45.908  30.972  28.875  1.00  0.00    -0.354 N 
ATOM     51  C   UNL A   1      41.589  30.612  29.653  1.00  0.00     0.074 A 
ATOM     52  C   UNL A   1      41.073  29.398  29.065  1.00  0.00     0.031 C 
ATOM     53  C   UNL A   1      47.877  30.269  28.074  1.00  0.00     0.029 A 
ATOM     54  C   UNL A   1      47.221  31.366  28.781  1.00  0.00     0.049 A 
ATOM     55  H   UNL A   1      45.221  31.494  29.348  1.00  0.00     0.167 HD
ATOM     56  C   UNL A   1      40.852  31.492  30.371  1.00  0.00     0.034 A 
ATOM     57  C   UNL A   1      47.804  32.502  29.202  1.00  0.00     0.034 A 
ATOM     58  C   UNL A   1      41.409  32.702  30.921  1.00  0.00     0.049 A 
ATOM     59  C   UNL A   1      46.944  33.507  29.928  1.00  0.00     0.074 A 
ATOM     60  C   UNL A   1      40.781  33.684  31.664  1.00  0.00     0.029 A 
ATOM     61  N   UNL A   1      42.735  33.099  30.774  1.00  0.00    -0.354 N 
ATOM     62  N   UNL A   1      45.662  33.444  30.219  1.00  0.00    -0.248 NA
ATOM     63  C   UNL A   1      47.609  34.725  30.396  1.00  0.00     0.031 C 
ATOM     64  C   UNL A   1      41.704  34.710  31.893  1.00  0.00     0.029 A 
ATOM     65  C   UNL A   1      42.935  34.328  31.380  1.00  0.00     0.049 A 
ATOM     66  H   UNL A   1      43.430  32.583  30.305  1.00  0.00     0.167 HD
ATOM     67  C   UNL A   1      45.376  34.602  30.934  1.00  0.00     0.074 A 
ATOM     68  C   UNL A   1      46.626  35.331  31.046  1.00  0.00     0.031 C 
ATOM     69  C   UNL A   1      44.196  35.030  31.458  1.00  0.00     0.034 A 
BRANCH  56  70
ATOM     70  C   UNL A   1      39.379  31.202  30.531  1.00  0.00     0.023 A 
ATOM     71  C   UNL A   1      38.407  31.798  29.705  1.00  0.00     0.031 A 
ATOM     72  C   UNL A   1      38.934  30.352  31.558  1.00  0.00     0.131 A 
ATOM     73  C   UNL A   1      37.044  31.592  29.966  1.00  0.00     0.055 A 
ATOM     74  C   UNL A   1      37.577  30.084  31.758  1.00  0.00     0.041 A 
ATOM     75  F   UNL A   1      39.808  29.782  32.401  1.00  0.00    -0.206 F 
ATOM     76  C   UNL A   1      36.623  30.717  30.968  1.00  0.00     0.022 A 
BRANCH  73  77
ATOM     77  S   UNL A   1      35.825  32.601  29.076  1.00  0.00     0.124 S 
ATOM     78  O   UNL A   1      36.385  33.942  29.230  1.00  0.00    -0.237 OA
ATOM     79  O   UNL A   1      35.871  32.040  27.731  1.00  0.00    -0.237 OA
ATOM     80  O   UNL A   1      34.583  32.365  29.809  1.00  0.00    -0.744 OA
ENDBRANCH  73  77
ENDBRANCH  56  70
BRANCH  57  81
ATOM     81  C   UNL A   1      49.246  32.756  28.933  1.00  0.00     0.023 A 
ATOM     82  C   UNL A   1      49.667  33.328  27.725  1.00  0.00     0.031 A 
ATOM     83  C   UNL A   1      50.231  32.397  29.872  1.00  0.00     0.131 A 
ATOM     84  C   UNL A   1      51.039  33.481  27.464  1.00  0.00     0.055 A 
ATOM     85  C   UNL A   1      51.590  32.607  29.634  1.00  0.00     0.041 A 
ATOM     86  F   UNL A   1      49.883  31.848  31.047  1.00  0.00    -0.206 F 
ATOM     87  C   UNL A   1      52.002  33.138  28.416  1.00  0.00     0.022 A 
BRANCH  84  88
ATOM     88  S   UNL A   1      51.548  34.043  25.818  1.00  0.00     0.124 S 
ATOM     89  O   UNL A   1      51.100  35.431  25.827  1.00  0.00    -0.237 OA
ATOM     90  O   UNL A   1      52.992  33.834  25.860  1.00  0.00    -0.237 OA
ATOM     91  O   UNL A   1      50.817  33.157  24.915  1.00  0.00    -0.744 OA
ENDBRANCH  84  88
ENDBRANCH  57  81
BRANCH  69  92
ATOM     92  C   UNL A   1      44.231  36.322  32.236  1.00  0.00     0.023 A 
ATOM     93  C   UNL A   1      44.522  36.352  33.609  1.00  0.00     0.031 A 
ATOM     94  C   UNL A   1      43.947  37.541  31.593  1.00  0.00     0.131 A 
ATOM     95  C   UNL A   1      44.445  37.562  34.312  1.00  0.00     0.055 A 
ATOM     96  C   UNL A   1      43.953  38.753  32.281  1.00  0.00     0.041 A 
ATOM     97  F   UNL A   1      43.659  37.572  30.281  1.00  0.00    -0.206 F 
ATOM     98  C   UNL A   1      44.185  38.766  33.653  1.00  0.00     0.022 A 
BRANCH  95  99
ATOM     99  S   UNL A   1      44.557  37.520  36.121  1.00  0.00     0.124 S 
ATOM    100  O   UNL A   1      45.259  38.768  36.408  1.00  0.00    -0.237 OA
ATOM    101  O   UNL A   1      43.155  37.472  36.519  1.00  0.00    -0.237 OA
ATOM    102  O   UNL A   1      45.321  36.303  36.388  1.00  0.00    -0.744 OA
ENDBRANCH  95  99
ENDBRANCH  69  92
ENDBRANCH  43  44
ENDBRANCH  36  38
ENDBRANCH  35  36
ENDBRANCH  34  35
ENDBRANCH  33  34
ENDBRANCH  32  33
ENDBRANCH  31  32
ENDBRANCH  30  31
ENDBRANCH   1  30
TORSDOF 26
ENDMDL
MODEL 3
REMARK VINA RESULT:      -9.0      5.312      7.369
REMARK SMILES Cc1cc([C@@H](C)NC(=O)N[C@H]2C=C[C@@H](C(=O)OCCOCCOCCOCCOC(=O)c3ccc(-c4c5nc(c(-c6cc(S(=O)(=O)[O-])ccc6F)c6ccc([nH]6)c(-c6cc(S(=O)(=O)[O-])ccc6F)c6nc(c(-c7cc(S(=O)(=O)[O-])ccc7F)c7ccc4[nH]7)C=C6)C=C5)cc3)C2)c(C)s1
REMARK SMILES IDX 23 1 22 2 21 3 20 4 19 5 18 6 17 7 15 8 16 9 14 10 11 11
REMARK SMILES IDX 12 12 95 13 13 14 10 15 7 16 8 17 9 19 5 21 6 22 4 23 1 24
REMARK SMILES IDX 2 25 3 26 98 27 96 28 97 29 24 30 25 31 26 32 27 33 28 34
REMARK SMILES IDX 29 35 30 36 31 37 32 38 33 39 94 40 34 41 93 42 35 43 36 44
REMARK SMILES IDX 37 45 87 46 38 47 92 48 86 49 88 50 39 51 91 52 85 53 84 54
REMARK SMILES IDX 40 56 72 57 52 58 71 59 53 60 56 61 70 62 89 63 54 64 55 65
REMARK SMILES IDX 69 67 90 68 57 69 41 70 42 71 50 72 43 73 49 74 51 75 48 76
REMARK SMILES IDX 44 77 45 78 46 79 47 80 73 81 74 82 82 83 75 84 81 85 83 86
REMARK SMILES IDX 80 87 76 88 77 89 78 90 79 91 58 92 59 93 67 94 60 95 66 96
REMARK SMILES IDX 68 97 65 98 61 99 62 100 63 101 64 102
REMARK H PARENT 7 18 10 20 88 55 56 66
REMARK Flexibility Score: inf
ROOT
ATOM      1  O   UNL A   1      39.662  24.408  27.274  1.00  0.00    -0.377 OA
ENDROOT
BRANCH   1   2
ATOM      2  C   UNL A   1      38.919  23.347  26.700  1.00  0.00     0.188 C 
BRANCH   2   3
ATOM      3  C   UNL A   1      37.999  23.773  25.553  1.00  0.00     0.188 C 
BRANCH   3   4
ATOM      4  O   UNL A   1      36.617  23.464  25.677  1.00  0.00    -0.376 OA
BRANCH   4   5
ATOM      5  C   UNL A   1      36.255  22.098  25.893  1.00  0.00     0.202 C 
BRANCH   5   6
ATOM      6  C   UNL A   1      35.162  21.494  24.998  1.00  0.00     0.261 C 
BRANCH   6   7
ATOM      7  O   UNL A   1      34.031  20.995  25.741  1.00  0.00    -0.463 OA
BRANCH   7   8
ATOM      8  C   UNL A   1      33.372  21.886  26.521  1.00  0.00     0.312 C 
ATOM      9  O   UNL A   1      33.543  22.012  27.730  1.00  0.00    -0.252 OA
BRANCH   8  10
ATOM     10  C   UNL A   1      32.454  22.824  25.742  1.00  0.00     0.124 C 
ATOM     11  C   UNL A   1      32.059  24.146  23.755  1.00  0.00     0.107 C 
ATOM     12  C   UNL A   1      31.521  22.763  23.579  1.00  0.00    -0.006 C 
ATOM     13  C   UNL A   1      33.060  23.944  24.896  1.00  0.00     0.048 C 
ATOM     14  C   UNL A   1      31.690  22.050  24.701  1.00  0.00    -0.014 C 
BRANCH  11  15
ATOM     15  N   UNL A   1      32.661  24.653  22.554  1.00  0.00    -0.332 N 
ATOM     16  N   UNL A   1      32.300  26.994  22.692  1.00  0.00    -0.332 N 
ATOM     17  C   UNL A   1      32.881  25.913  22.145  1.00  0.00     0.315 C 
ATOM     18  H   UNL A   1      32.838  27.814  22.603  1.00  0.00     0.165 HD
ATOM     19  O   UNL A   1      33.684  26.095  21.229  1.00  0.00    -0.249 OA
ATOM     20  H   UNL A   1      32.965  23.960  21.925  1.00  0.00     0.165 HD
BRANCH  16  21
ATOM     21  C   UNL A   1      31.041  27.201  23.384  1.00  0.00     0.112 C 
ATOM     22  C   UNL A   1      30.102  28.112  22.598  1.00  0.00     0.036 C 
BRANCH  21  23
ATOM     23  C   UNL A   1      31.282  27.694  24.796  1.00  0.00    -0.012 A 
ATOM     24  C   UNL A   1      32.561  30.525  26.990  1.00  0.00     0.056 C 
ATOM     25  C   UNL A   1      32.079  29.253  26.377  1.00  0.00     0.002 A 
ATOM     26  C   UNL A   1      31.969  28.936  25.043  1.00  0.00     0.021 A 
ATOM     27  S   UNL A   1      31.563  27.953  27.349  1.00  0.00    -0.146 S 
ATOM     28  C   UNL A   1      30.936  27.091  25.999  1.00  0.00     0.007 A 
ATOM     29  C   UNL A   1      30.157  25.847  26.279  1.00  0.00     0.057 C 
ENDBRANCH  21  23
ENDBRANCH  16  21
ENDBRANCH  11  15
ENDBRANCH   8  10
ENDBRANCH   7   8
ENDBRANCH   6   7
ENDBRANCH   5   6
ENDBRANCH   4   5
ENDBRANCH   3   4
ENDBRANCH   2   3
ENDBRANCH   1   2
BRANCH   1  30
ATOM     30  C   UNL A   1      40.381  25.301  26.417  1.00  0.00     0.188 C 
BRANCH  30  31
ATOM     31  C   UNL A   1      41.823  24.927  26.046  1.00  0.00     0.188 C 
BRANCH  31  32
ATOM     32  O   UNL A   1      42.204  23.547  26.039  1.00  0.00    -0.376 OA
BRANCH  32  33
ATOM     33  C   UNL A   1      43.159  23.082  25.092  1.00  0.00     0.202 C 
BRANCH  33  34
ATOM     34  C   UNL A   1      44.623  23.313  25.443  1.00  0.00     0.261 C 
BRANCH  34  35
ATOM     35  O   UNL A   1      44.856  23.088  26.828  1.00  0.00    -0.460 OA
BRANCH  35  36
ATOM     36  C   UNL A   1      45.782  23.916  27.360  1.00  0.00     0.338 C 
ATOM     37  O   UNL A   1      46.984  23.926  27.152  1.00  0.00    -0.246 OA
BRANCH  36  38
ATOM     38  C   UNL A   1      45.073  24.947  28.122  1.00  0.00     0.060 A 
ATOM     39  C   UNL A   1      45.565  26.256  28.060  1.00  0.00     0.016 A 
ATOM     40  C   UNL A   1      43.962  24.620  28.906  1.00  0.00     0.016 A 
ATOM     41  C   UNL A   1      44.982  27.239  28.839  1.00  0.00     0.010 A 
ATOM     42  C   UNL A   1      43.385  25.602  29.698  1.00  0.00     0.010 A 
ATOM     43  C   UNL A   1      43.937  26.893  29.701  1.00  0.00    -0.014 A 
BRANCH  43  44
ATOM     44  C   UNL A   1      43.604  27.817  30.794  1.00  0.00     0.031 A 
ATOM     45  C   UNL A   1      44.338  27.647  32.092  1.00  0.00     0.074 A 
ATOM     46  C   UNL A   1      42.715  28.799  30.589  1.00  0.00     0.049 A 
ATOM     47  N   UNL A   1      44.218  28.314  33.205  1.00  0.00    -0.248 NA
ATOM     48  C   UNL A   1      45.342  26.568  32.139  1.00  0.00     0.031 C 
ATOM     49  C   UNL A   1      42.009  29.045  29.331  1.00  0.00     0.029 A 
ATOM     50  N   UNL A   1      42.260  29.771  31.433  1.00  0.00    -0.354 N 
ATOM     51  C   UNL A   1      45.126  27.735  34.086  1.00  0.00     0.074 A 
ATOM     52  C   UNL A   1      45.753  26.633  33.395  1.00  0.00     0.031 C 
ATOM     53  C   UNL A   1      41.202  30.107  29.489  1.00  0.00     0.029 A 
ATOM     54  C   UNL A   1      41.306  30.580  30.867  1.00  0.00     0.049 A 
ATOM     55  H   UNL A   1      42.583  29.880  32.357  1.00  0.00     0.167 HD
ATOM     56  C   UNL A   1      45.408  28.106  35.357  1.00  0.00     0.034 A 
ATOM     57  C   UNL A   1      40.588  31.572  31.424  1.00  0.00     0.034 A 
ATOM     58  C   UNL A   1      44.738  29.202  36.012  1.00  0.00     0.049 A 
ATOM     59  C   UNL A   1      40.861  31.914  32.868  1.00  0.00     0.074 A 
ATOM     60  C   UNL A   1      44.920  29.685  37.293  1.00  0.00     0.029 A 
ATOM     61  N   UNL A   1      43.742  29.980  35.428  1.00  0.00    -0.354 N 
ATOM     62  N   UNL A   1      41.722  31.368  33.700  1.00  0.00    -0.248 NA
ATOM     63  C   UNL A   1      40.081  33.012  33.442  1.00  0.00     0.031 C 
ATOM     64  C   UNL A   1      43.979  30.697  37.512  1.00  0.00     0.029 A 
ATOM     65  C   UNL A   1      43.275  30.915  36.336  1.00  0.00     0.049 A 
ATOM     66  H   UNL A   1      43.416  29.879  34.505  1.00  0.00     0.167 HD
ATOM     67  C   UNL A   1      41.609  32.081  34.889  1.00  0.00     0.074 A 
ATOM     68  C   UNL A   1      40.611  33.108  34.653  1.00  0.00     0.031 C 
ATOM     69  C   UNL A   1      42.266  31.915  36.067  1.00  0.00     0.034 A 
BRANCH  56  70
ATOM     70  C   UNL A   1      46.421  27.283  36.116  1.00  0.00     0.023 A 
ATOM     71  C   UNL A   1      46.051  26.153  36.868  1.00  0.00     0.031 A 
ATOM     72  C   UNL A   1      47.774  27.663  36.127  1.00  0.00     0.131 A 
ATOM     73  C   UNL A   1      47.007  25.488  37.652  1.00  0.00     0.055 A 
ATOM     74  C   UNL A   1      48.736  26.946  36.843  1.00  0.00     0.041 A 
ATOM     75  F   UNL A   1      48.184  28.752  35.459  1.00  0.00    -0.206 F 
ATOM     76  C   UNL A   1      48.352  25.860  37.623  1.00  0.00     0.022 A 
BRANCH  73  77
ATOM     77  S   UNL A   1      46.442  24.228  38.831  1.00  0.00     0.124 S 
ATOM     78  O   UNL A   1      45.204  24.824  39.329  1.00  0.00    -0.237 OA
ATOM     79  O   UNL A   1      46.289  23.050  37.985  1.00  0.00    -0.237 OA
ATOM     80  O   UNL A   1      47.528  24.160  39.807  1.00  0.00    -0.744 OA
ENDBRANCH  73  77
ENDBRANCH  56  70
BRANCH  57  81
ATOM     81  C   UNL A   1      39.544  32.283  30.635  1.00  0.00     0.023 A 
ATOM     82  C   UNL A   1      38.304  31.687  30.370  1.00  0.00     0.031 A 
ATOM     83  C   UNL A   1      39.787  33.564  30.105  1.00  0.00     0.131 A 
ATOM     84  C   UNL A   1      37.370  32.347  29.556  1.00  0.00     0.055 A 
ATOM     85  C   UNL A   1      38.832  34.242  29.346  1.00  0.00     0.041 A 
ATOM     86  F   UNL A   1      40.957  34.183  30.330  1.00  0.00    -0.206 F 
ATOM     87  C   UNL A   1      37.620  33.626  29.055  1.00  0.00     0.022 A 
BRANCH  84  88
ATOM     88  S   UNL A   1      35.861  31.462  29.079  1.00  0.00     0.124 S 
ATOM     89  O   UNL A   1      34.848  32.161  29.861  1.00  0.00    -0.237 OA
ATOM     90  O   UNL A   1      35.825  31.683  27.637  1.00  0.00    -0.237 OA
ATOM     91  O   UNL A   1      36.130  30.087  29.491  1.00  0.00    -0.744 OA
ENDBRANCH  84  88
ENDBRANCH  57  81
BRANCH  69  92
ATOM     92  C   UNL A   1      41.950  32.903  37.163  1.00  0.00     0.023 A 
ATOM     93  C   UNL A   1      40.940  32.661  38.109  1.00  0.00     0.031 A 
ATOM     94  C   UNL A   1      42.659  34.115  37.247  1.00  0.00     0.131 A 
ATOM     95  C   UNL A   1      40.614  33.649  39.047  1.00  0.00     0.055 A 
ATOM     96  C   UNL A   1      42.385  35.059  38.235  1.00  0.00     0.041 A 
ATOM     97  F   UNL A   1      43.633  34.401  36.367  1.00  0.00    -0.206 F 
ATOM     98  C   UNL A   1      41.344  34.837  39.131  1.00  0.00     0.022 A 
BRANCH  95  99
ATOM     99  S   UNL A   1      39.134  33.415  40.069  1.00  0.00     0.124 S 
ATOM    100  O   UNL A   1      38.063  33.622  39.099  1.00  0.00    -0.237 OA
ATOM    101  O   UNL A   1      39.301  32.050  40.552  1.00  0.00    -0.237 OA
ATOM    102  O   UNL A   1      39.256  34.455  41.089  1.00  0.00    -0.744 OA
ENDBRANCH  95  99
ENDBRANCH  69  92
ENDBRANCH  43  44
ENDBRANCH  36  38
ENDBRANCH  35  36
ENDBRANCH  34  35
ENDBRANCH  33  34
ENDBRANCH  32  33
ENDBRANCH  31  32
ENDBRANCH  30  31
ENDBRANCH   1  30
TORSDOF 26
ENDMDL
