MODEL 1
REMARK VINA RESULT:      -7.7      0.000      0.000
REMARK SMILES Cc1ccccc1NC(=O)CSc1nc(C(=O)OCCOCCOCCOCCOC(=O)c2ccc(-c3c4nc(c(-c5cc(S(=O)(=O)[O-])ccc5F)c5ccc([nH]5)c(-c5cc(S(=O)(=O)[O-])ccc5F)c5nc(c(-c6cc(S(=O)(=O)[O-])ccc6F)c6ccc3[nH]6)C=C5)C=C4)cc2)c2ccccc2n1
REMARK SMILES IDX 23 1 22 2 21 3 20 4 19 5 18 6 16 7 17 8 15 9 13 10 14 11
REMARK SMILES IDX 102 12 101 13 96 14 100 15 97 16 99 17 98 18 12 19 11 20
REMARK SMILES IDX 9 21 8 22 10 24 7 25 1 26 2 27 3 28 4 29 6 30 5 31 24 32
REMARK SMILES IDX 25 33 26 34 27 35 28 36 29 37 30 38 31 39 32 40 33 41 34 42
REMARK SMILES IDX 95 43 35 44 94 45 36 46 37 47 38 48 88 49 39 50 93 51 87 52
REMARK SMILES IDX 89 53 40 54 92 55 86 56 85 57 41 59 73 60 53 61 72 62 54 63
REMARK SMILES IDX 57 64 71 65 90 66 55 67 56 68 70 70 91 71 58 72 42 73 43 74
REMARK SMILES IDX 51 75 44 76 50 77 52 78 49 79 45 80 46 81 47 82 48 83 74 84
REMARK SMILES IDX 75 85 83 86 76 87 82 88 84 89 81 90 77 91 78 92 79 93 80 94
REMARK SMILES IDX 59 95 60 96 68 97 61 98 67 99 69 100 66 101 62 102 63 103
REMARK SMILES IDX 64 104 65 105
REMARK H PARENT 8 23 89 58 57 69
REMARK Flexibility Score: inf
ROOT
ATOM      1  C   UNL A   1      46.071  19.363  25.103  1.00  0.00     0.188 C 
ENDROOT
BRANCH   1   2
ATOM      2  C   UNL A   1      45.539  20.788  24.902  1.00  0.00     0.188 C 
BRANCH   2   3
ATOM      3  O   UNL A   1      46.466  21.852  25.111  1.00  0.00    -0.376 OA
BRANCH   3   4
ATOM      4  C   UNL A   1      46.294  23.000  24.267  1.00  0.00     0.202 C 
BRANCH   4   5
ATOM      5  C   UNL A   1      46.722  24.326  24.897  1.00  0.00     0.261 C 
BRANCH   5   6
ATOM      6  O   UNL A   1      47.791  24.880  24.106  1.00  0.00    -0.458 OA
BRANCH   6   7
ATOM      7  C   UNL A   1      47.682  26.204  23.878  1.00  0.00     0.357 C 
ATOM      8  O   UNL A   1      46.781  26.938  24.243  1.00  0.00    -0.244 OA
BRANCH   7   9
ATOM      9  C   UNL A   1      49.028  26.743  23.621  1.00  0.00     0.160 A 
ATOM     10  C   UNL A   1      50.990  26.682  24.712  1.00  0.00     0.189 A 
ATOM     11  N   UNL A   1      49.688  26.760  24.782  1.00  0.00    -0.215 NA
ATOM     12  N   UNL A   1      51.697  27.037  23.637  1.00  0.00    -0.222 NA
ATOM     13  C   UNL A   1      51.004  27.260  22.506  1.00  0.00     0.076 A 
ATOM     14  C   UNL A   1      49.638  26.980  22.400  1.00  0.00     0.034 A 
ATOM     15  C   UNL A   1      51.670  27.697  21.368  1.00  0.00     0.029 A 
ATOM     16  C   UNL A   1      49.027  26.943  21.131  1.00  0.00     0.013 A 
ATOM     17  C   UNL A   1      51.041  27.749  20.121  1.00  0.00     0.002 A 
ATOM     18  C   UNL A   1      49.730  27.317  19.993  1.00  0.00     0.001 A 
BRANCH  10  19
ATOM     19  S   UNL A   1      51.646  25.482  25.839  1.00  0.00    -0.076 SA
BRANCH  19  20
ATOM     20  C   UNL A   1      51.580  26.460  27.423  1.00  0.00     0.178 C 
BRANCH  20  21
ATOM     21  C   UNL A   1      52.881  27.149  27.840  1.00  0.00     0.234 C 
ATOM     22  N   UNL A   1      53.267  27.323  29.139  1.00  0.00    -0.325 N 
ATOM     23  H   UNL A   1      54.183  27.665  29.256  1.00  0.00     0.169 HD
ATOM     24  O   UNL A   1      53.649  27.598  26.985  1.00  0.00    -0.274 OA
BRANCH  22  25
ATOM     25  C   UNL A   1      52.572  27.094  30.330  1.00  0.00     0.044 A 
ATOM     26  C   UNL A   1      51.245  29.273  30.042  1.00  0.00     0.046 C 
ATOM     27  C   UNL A   1      51.678  28.060  30.819  1.00  0.00    -0.027 A 
ATOM     28  C   UNL A   1      51.163  27.896  32.117  1.00  0.00     0.005 A 
ATOM     29  C   UNL A   1      51.513  26.794  32.900  1.00  0.00     0.000 A 
ATOM     30  C   UNL A   1      52.802  25.927  31.070  1.00  0.00     0.026 A 
ATOM     31  C   UNL A   1      52.313  25.794  32.365  1.00  0.00     0.002 A 
ENDBRANCH  22  25
ENDBRANCH  20  21
ENDBRANCH  19  20
ENDBRANCH  10  19
ENDBRANCH   7   9
ENDBRANCH   6   7
ENDBRANCH   5   6
ENDBRANCH   4   5
ENDBRANCH   3   4
ENDBRANCH   2   3
ENDBRANCH   1   2
BRANCH   1  32
ATOM     32  O   UNL A   1      45.072  18.365  25.154  1.00  0.00    -0.377 OA
BRANCH  32  33
ATOM     33  C   UNL A   1      43.689  18.736  25.184  1.00  0.00     0.188 C 
BRANCH  33  34
ATOM     34  C   UNL A   1      42.852  18.474  26.442  1.00  0.00     0.188 C 
BRANCH  34  35
ATOM     35  O   UNL A   1      42.321  19.714  26.919  1.00  0.00    -0.376 OA
BRANCH  35  36
ATOM     36  C   UNL A   1      41.206  20.227  26.196  1.00  0.00     0.202 C 
BRANCH  36  37
ATOM     37  C   UNL A   1      41.215  21.752  26.031  1.00  0.00     0.261 C 
BRANCH  37  38
ATOM     38  O   UNL A   1      42.409  22.177  25.348  1.00  0.00    -0.460 OA
BRANCH  38  39
ATOM     39  C   UNL A   1      42.840  23.421  25.686  1.00  0.00     0.338 C 
ATOM     40  O   UNL A   1      43.151  24.289  24.883  1.00  0.00    -0.246 OA
BRANCH  39  41
ATOM     41  C   UNL A   1      42.988  23.527  27.162  1.00  0.00     0.060 A 
ATOM     42  C   UNL A   1      42.305  24.525  27.876  1.00  0.00     0.016 A 
ATOM     43  C   UNL A   1      43.991  22.794  27.788  1.00  0.00     0.016 A 
ATOM     44  C   UNL A   1      42.729  24.883  29.167  1.00  0.00     0.010 A 
ATOM     45  C   UNL A   1      44.463  23.219  29.013  1.00  0.00     0.010 A 
ATOM     46  C   UNL A   1      43.869  24.283  29.712  1.00  0.00    -0.014 A 
BRANCH  46  47
ATOM     47  C   UNL A   1      44.668  24.799  30.844  1.00  0.00     0.031 A 
ATOM     48  C   UNL A   1      44.513  24.210  32.227  1.00  0.00     0.074 A 
ATOM     49  C   UNL A   1      45.797  25.496  30.567  1.00  0.00     0.049 A 
ATOM     50  N   UNL A   1      45.330  24.401  33.209  1.00  0.00    -0.248 NA
ATOM     51  C   UNL A   1      43.403  23.348  32.632  1.00  0.00     0.031 C 
ATOM     52  C   UNL A   1      47.026  25.436  31.351  1.00  0.00     0.029 A 
ATOM     53  N   UNL A   1      46.151  26.346  29.528  1.00  0.00    -0.354 N 
ATOM     54  C   UNL A   1      45.092  23.470  34.194  1.00  0.00     0.074 A 
ATOM     55  C   UNL A   1      43.811  22.917  33.834  1.00  0.00     0.031 C 
ATOM     56  C   UNL A   1      47.961  26.233  30.838  1.00  0.00     0.029 A 
ATOM     57  C   UNL A   1      47.298  27.069  29.883  1.00  0.00     0.049 A 
ATOM     58  H   UNL A   1      45.670  26.429  28.673  1.00  0.00     0.167 HD
ATOM     59  C   UNL A   1      46.068  23.211  35.119  1.00  0.00     0.034 A 
ATOM     60  C   UNL A   1      47.299  28.426  30.038  1.00  0.00     0.034 A 
ATOM     61  C   UNL A   1      47.134  24.237  35.099  1.00  0.00     0.049 A 
ATOM     62  C   UNL A   1      47.532  28.830  31.487  1.00  0.00     0.074 A 
ATOM     63  C   UNL A   1      48.515  24.202  35.127  1.00  0.00     0.029 A 
ATOM     64  N   UNL A   1      46.809  25.592  34.937  1.00  0.00    -0.354 N 
ATOM     65  N   UNL A   1      47.263  28.035  32.499  1.00  0.00    -0.248 NA
ATOM     66  C   UNL A   1      48.216  30.043  31.919  1.00  0.00     0.031 C 
ATOM     67  C   UNL A   1      49.008  25.508  34.835  1.00  0.00     0.029 A 
ATOM     68  C   UNL A   1      47.931  26.375  34.761  1.00  0.00     0.049 A 
ATOM     69  H   UNL A   1      45.889  25.943  34.947  1.00  0.00     0.167 HD
ATOM     70  C   UNL A   1      47.822  28.526  33.647  1.00  0.00     0.074 A 
ATOM     71  C   UNL A   1      48.361  29.816  33.240  1.00  0.00     0.031 C 
ATOM     72  C   UNL A   1      47.867  27.831  34.827  1.00  0.00     0.034 A 
BRANCH  59  73
ATOM     73  C   UNL A   1      46.185  21.923  35.964  1.00  0.00     0.023 A 
ATOM     74  C   UNL A   1      46.187  21.985  37.386  1.00  0.00     0.031 A 
ATOM     75  C   UNL A   1      46.418  20.625  35.448  1.00  0.00     0.131 A 
ATOM     76  C   UNL A   1      46.430  20.842  38.190  1.00  0.00     0.055 A 
ATOM     77  C   UNL A   1      46.577  19.481  36.247  1.00  0.00     0.041 A 
ATOM     78  F   UNL A   1      46.566  20.387  34.141  1.00  0.00    -0.206 F 
ATOM     79  C   UNL A   1      46.596  19.585  37.625  1.00  0.00     0.022 A 
BRANCH  76  80
ATOM     80  S   UNL A   1      46.548  20.977  40.004  1.00  0.00     0.124 S 
ATOM     81  O   UNL A   1      45.451  21.885  40.316  1.00  0.00    -0.237 OA
ATOM     82  O   UNL A   1      46.402  19.595  40.447  1.00  0.00    -0.237 OA
ATOM     83  O   UNL A   1      47.882  21.543  40.210  1.00  0.00    -0.744 OA
ENDBRANCH  76  80
ENDBRANCH  59  73
BRANCH  60  84
ATOM     84  C   UNL A   1      46.667  29.108  28.876  1.00  0.00     0.023 A 
ATOM     85  C   UNL A   1      45.680  30.045  29.267  1.00  0.00     0.031 A 
ATOM     86  C   UNL A   1      47.437  29.406  27.740  1.00  0.00     0.131 A 
ATOM     87  C   UNL A   1      45.710  31.346  28.746  1.00  0.00     0.055 A 
ATOM     88  C   UNL A   1      47.404  30.687  27.166  1.00  0.00     0.041 A 
ATOM     89  F   UNL A   1      48.373  28.548  27.308  1.00  0.00    -0.206 F 
ATOM     90  C   UNL A   1      46.591  31.681  27.714  1.00  0.00     0.022 A 
BRANCH  87  91
ATOM     91  S   UNL A   1      44.871  32.673  29.676  1.00  0.00     0.124 S 
ATOM     92  O   UNL A   1      45.908  33.694  29.750  1.00  0.00    -0.237 OA
ATOM     93  O   UNL A   1      43.724  32.992  28.830  1.00  0.00    -0.237 OA
ATOM     94  O   UNL A   1      44.527  32.020  30.939  1.00  0.00    -0.744 OA
ENDBRANCH  87  91
ENDBRANCH  60  84
BRANCH  72  95
ATOM     95  C   UNL A   1      47.958  28.447  36.211  1.00  0.00     0.023 A 
ATOM     96  C   UNL A   1      46.916  28.380  37.139  1.00  0.00     0.031 A 
ATOM     97  C   UNL A   1      49.181  28.979  36.707  1.00  0.00     0.131 A 
ATOM     98  C   UNL A   1      47.077  28.859  38.449  1.00  0.00     0.055 A 
ATOM     99  C   UNL A   1      49.355  29.408  38.024  1.00  0.00     0.041 A 
ATOM    100  F   UNL A   1      50.291  29.061  35.961  1.00  0.00    -0.206 F 
ATOM    101  C   UNL A   1      48.295  29.355  38.908  1.00  0.00     0.022 A 
BRANCH  98 102
ATOM    102  S   UNL A   1      45.639  28.812  39.543  1.00  0.00     0.124 S 
ATOM    103  O   UNL A   1      44.538  28.763  38.585  1.00  0.00    -0.237 OA
ATOM    104  O   UNL A   1      45.866  27.589  40.306  1.00  0.00    -0.237 OA
ATOM    105  O   UNL A   1      45.747  30.052  40.309  1.00  0.00    -0.744 OA
ENDBRANCH  98 102
ENDBRANCH  72  95
ENDBRANCH  46  47
ENDBRANCH  39  41
ENDBRANCH  38  39
ENDBRANCH  37  38
ENDBRANCH  36  37
ENDBRANCH  35  36
ENDBRANCH  34  35
ENDBRANCH  33  34
ENDBRANCH  32  33
ENDBRANCH   1  32
TORSDOF 27
ENDMDL
MODEL 2
REMARK VINA RESULT:      -6.9      6.999     14.624
REMARK SMILES Cc1ccccc1NC(=O)CSc1nc(C(=O)OCCOCCOCCOCCOC(=O)c2ccc(-c3c4nc(c(-c5cc(S(=O)(=O)[O-])ccc5F)c5ccc([nH]5)c(-c5cc(S(=O)(=O)[O-])ccc5F)c5nc(c(-c6cc(S(=O)(=O)[O-])ccc6F)c6ccc3[nH]6)C=C5)C=C4)cc2)c2ccccc2n1
REMARK SMILES IDX 23 1 22 2 21 3 20 4 19 5 18 6 16 7 17 8 15 9 13 10 14 11
REMARK SMILES IDX 102 12 101 13 96 14 100 15 97 16 99 17 98 18 12 19 11 20
REMARK SMILES IDX 9 21 8 22 10 24 7 25 1 26 2 27 3 28 4 29 6 30 5 31 24 32
REMARK SMILES IDX 25 33 26 34 27 35 28 36 29 37 30 38 31 39 32 40 33 41 34 42
REMARK SMILES IDX 95 43 35 44 94 45 36 46 37 47 38 48 88 49 39 50 93 51 87 52
REMARK SMILES IDX 89 53 40 54 92 55 86 56 85 57 41 59 73 60 53 61 72 62 54 63
REMARK SMILES IDX 57 64 71 65 90 66 55 67 56 68 70 70 91 71 58 72 42 73 43 74
REMARK SMILES IDX 51 75 44 76 50 77 52 78 49 79 45 80 46 81 47 82 48 83 74 84
REMARK SMILES IDX 75 85 83 86 76 87 82 88 84 89 81 90 77 91 78 92 79 93 80 94
REMARK SMILES IDX 59 95 60 96 68 97 61 98 67 99 69 100 66 101 62 102 63 103
REMARK SMILES IDX 64 104 65 105
REMARK H PARENT 8 23 89 58 57 69
REMARK Flexibility Score: inf
ROOT
ATOM      1  C   UNL A   1      46.407  30.275  44.064  1.00  0.00     0.188 C 
ENDROOT
BRANCH   1   2
ATOM      2  C   UNL A   1      46.807  28.861  43.623  1.00  0.00     0.188 C 
BRANCH   2   3
ATOM      3  O   UNL A   1      45.789  27.863  43.673  1.00  0.00    -0.376 OA
BRANCH   3   4
ATOM      4  C   UNL A   1      44.827  27.902  42.608  1.00  0.00     0.202 C 
BRANCH   4   5
ATOM      5  C   UNL A   1      45.429  27.928  41.204  1.00  0.00     0.261 C 
BRANCH   5   6
ATOM      6  O   UNL A   1      44.459  27.390  40.284  1.00  0.00    -0.458 OA
BRANCH   6   7
ATOM      7  C   UNL A   1      44.942  26.437  39.464  1.00  0.00     0.357 C 
ATOM      8  O   UNL A   1      45.110  25.259  39.728  1.00  0.00    -0.244 OA
BRANCH   7   9
ATOM      9  C   UNL A   1      44.724  26.867  38.073  1.00  0.00     0.160 A 
ATOM     10  C   UNL A   1      46.066  27.465  36.374  1.00  0.00     0.189 A 
ATOM     11  N   UNL A   1      45.834  27.485  37.659  1.00  0.00    -0.215 NA
ATOM     12  N   UNL A   1      45.116  27.300  35.451  1.00  0.00    -0.222 NA
ATOM     13  C   UNL A   1      43.909  26.904  35.894  1.00  0.00     0.076 A 
ATOM     14  C   UNL A   1      43.688  26.522  37.220  1.00  0.00     0.034 A 
ATOM     15  C   UNL A   1      42.857  26.777  34.995  1.00  0.00     0.029 A 
ATOM     16  C   UNL A   1      42.505  25.839  37.565  1.00  0.00     0.013 A 
ATOM     17  C   UNL A   1      41.646  26.180  35.358  1.00  0.00     0.002 A 
ATOM     18  C   UNL A   1      41.491  25.658  36.633  1.00  0.00     0.001 A 
BRANCH  10  19
ATOM     19  S   UNL A   1      47.737  27.003  36.007  1.00  0.00    -0.076 SA
BRANCH  19  20
ATOM     20  C   UNL A   1      47.794  25.329  36.822  1.00  0.00     0.178 C 
BRANCH  20  21
ATOM     21  C   UNL A   1      48.354  24.188  35.971  1.00  0.00     0.234 C 
ATOM     22  N   UNL A   1      47.624  23.506  35.038  1.00  0.00    -0.325 N 
ATOM     23  H   UNL A   1      48.146  22.887  34.477  1.00  0.00     0.169 HD
ATOM     24  O   UNL A   1      49.524  23.823  36.110  1.00  0.00    -0.274 OA
BRANCH  22  25
ATOM     25  C   UNL A   1      46.256  23.543  34.751  1.00  0.00     0.044 A 
ATOM     26  C   UNL A   1      45.728  22.082  36.796  1.00  0.00     0.046 C 
ATOM     27  C   UNL A   1      45.356  22.793  35.523  1.00  0.00    -0.027 A 
ATOM     28  C   UNL A   1      44.026  22.684  35.078  1.00  0.00     0.005 A 
ATOM     29  C   UNL A   1      43.601  23.317  33.909  1.00  0.00     0.000 A 
ATOM     30  C   UNL A   1      45.783  24.286  33.662  1.00  0.00     0.026 A 
ATOM     31  C   UNL A   1      44.474  24.142  33.214  1.00  0.00     0.002 A 
ENDBRANCH  22  25
ENDBRANCH  20  21
ENDBRANCH  19  20
ENDBRANCH  10  19
ENDBRANCH   7   9
ENDBRANCH   6   7
ENDBRANCH   5   6
ENDBRANCH   4   5
ENDBRANCH   3   4
ENDBRANCH   2   3
ENDBRANCH   1   2
BRANCH   1  32
ATOM     32  O   UNL A   1      46.678  31.286  43.115  1.00  0.00    -0.377 OA
BRANCH  32  33
ATOM     33  C   UNL A   1      45.631  31.772  42.266  1.00  0.00     0.188 C 
BRANCH  33  34
ATOM     34  C   UNL A   1      45.336  33.274  42.199  1.00  0.00     0.188 C 
BRANCH  34  35
ATOM     35  O   UNL A   1      43.924  33.481  42.311  1.00  0.00    -0.376 OA
BRANCH  35  36
ATOM     36  C   UNL A   1      43.526  34.653  43.015  1.00  0.00     0.202 C 
BRANCH  36  37
ATOM     37  C   UNL A   1      43.357  35.890  42.124  1.00  0.00     0.261 C 
BRANCH  37  38
ATOM     38  O   UNL A   1      42.527  35.584  40.989  1.00  0.00    -0.460 OA
BRANCH  38  39
ATOM     39  C   UNL A   1      41.236  35.995  41.107  1.00  0.00     0.338 C 
ATOM     40  O   UNL A   1      40.793  36.625  42.056  1.00  0.00    -0.246 OA
BRANCH  39  41
ATOM     41  C   UNL A   1      40.426  35.466  39.977  1.00  0.00     0.060 A 
ATOM     42  C   UNL A   1      39.869  34.179  40.042  1.00  0.00     0.016 A 
ATOM     43  C   UNL A   1      40.434  36.155  38.769  1.00  0.00     0.016 A 
ATOM     44  C   UNL A   1      39.457  33.530  38.866  1.00  0.00     0.010 A 
ATOM     45  C   UNL A   1      40.121  35.474  37.610  1.00  0.00     0.010 A 
ATOM     46  C   UNL A   1      39.657  34.148  37.628  1.00  0.00    -0.014 A 
BRANCH  46  47
ATOM     47  C   UNL A   1      39.657  33.478  36.309  1.00  0.00     0.031 A 
ATOM     48  C   UNL A   1      38.370  33.293  35.540  1.00  0.00     0.074 A 
ATOM     49  C   UNL A   1      40.827  33.401  35.629  1.00  0.00     0.049 A 
ATOM     50  N   UNL A   1      38.293  32.966  34.293  1.00  0.00    -0.248 NA
ATOM     51  C   UNL A   1      37.037  33.455  36.121  1.00  0.00     0.031 C 
ATOM     52  C   UNL A   1      40.955  33.509  34.180  1.00  0.00     0.029 A 
ATOM     53  N   UNL A   1      42.149  33.282  36.034  1.00  0.00    -0.354 N 
ATOM     54  C   UNL A   1      37.021  33.215  33.829  1.00  0.00     0.074 A 
ATOM     55  C   UNL A   1      36.254  33.408  35.033  1.00  0.00     0.031 C 
ATOM     56  C   UNL A   1      42.227  33.390  33.801  1.00  0.00     0.029 A 
ATOM     57  C   UNL A   1      42.943  32.905  34.942  1.00  0.00     0.049 A 
ATOM     58  H   UNL A   1      42.479  33.437  36.948  1.00  0.00     0.167 HD
ATOM     59  C   UNL A   1      36.814  33.340  32.481  1.00  0.00     0.034 A 
ATOM     60  C   UNL A   1      43.604  31.711  34.884  1.00  0.00     0.034 A 
ATOM     61  C   UNL A   1      37.971  32.854  31.697  1.00  0.00     0.049 A 
ATOM     62  C   UNL A   1      43.037  30.803  33.802  1.00  0.00     0.074 A 
ATOM     63  C   UNL A   1      38.673  33.331  30.608  1.00  0.00     0.029 A 
ATOM     64  N   UNL A   1      38.657  31.695  32.092  1.00  0.00    -0.354 N 
ATOM     65  N   UNL A   1      41.808  30.917  33.349  1.00  0.00    -0.248 NA
ATOM     66  C   UNL A   1      43.808  29.832  33.035  1.00  0.00     0.031 C 
ATOM     67  C   UNL A   1      39.852  32.544  30.448  1.00  0.00     0.029 A 
ATOM     68  C   UNL A   1      39.807  31.499  31.356  1.00  0.00     0.049 A 
ATOM     69  H   UNL A   1      38.354  31.093  32.810  1.00  0.00     0.167 HD
ATOM     70  C   UNL A   1      41.656  30.181  32.206  1.00  0.00     0.074 A 
ATOM     71  C   UNL A   1      42.923  29.474  32.083  1.00  0.00     0.031 C 
ATOM     72  C   UNL A   1      40.544  30.242  31.407  1.00  0.00     0.034 A 
BRANCH  59  73
ATOM     73  C   UNL A   1      35.621  34.066  31.820  1.00  0.00     0.023 A 
ATOM     74  C   UNL A   1      35.227  33.752  30.489  1.00  0.00     0.031 A 
ATOM     75  C   UNL A   1      34.912  35.153  32.385  1.00  0.00     0.131 A 
ATOM     76  C   UNL A   1      34.229  34.491  29.804  1.00  0.00     0.055 A 
ATOM     77  C   UNL A   1      33.869  35.831  31.733  1.00  0.00     0.041 A 
ATOM     78  F   UNL A   1      35.219  35.670  33.579  1.00  0.00    -0.206 F 
ATOM     79  C   UNL A   1      33.529  35.511  30.433  1.00  0.00     0.022 A 
BRANCH  76  80
ATOM     80  S   UNL A   1      33.831  34.141  28.060  1.00  0.00     0.124 S 
ATOM     81  O   UNL A   1      32.374  34.124  28.075  1.00  0.00    -0.237 OA
ATOM     82  O   UNL A   1      34.467  35.245  27.350  1.00  0.00    -0.237 OA
ATOM     83  O   UNL A   1      34.451  32.834  27.832  1.00  0.00    -0.744 OA
ENDBRANCH  76  80
ENDBRANCH  59  73
BRANCH  60  84
ATOM     84  C   UNL A   1      44.382  31.458  36.128  1.00  0.00     0.023 A 
ATOM     85  C   UNL A   1      45.303  32.495  36.411  1.00  0.00     0.031 A 
ATOM     86  C   UNL A   1      43.767  30.815  37.214  1.00  0.00     0.131 A 
ATOM     87  C   UNL A   1      45.337  33.066  37.691  1.00  0.00     0.055 A 
ATOM     88  C   UNL A   1      43.870  31.340  38.512  1.00  0.00     0.041 A 
ATOM     89  F   UNL A   1      42.901  29.812  37.011  1.00  0.00    -0.206 F 
ATOM     90  C   UNL A   1      44.599  32.510  38.740  1.00  0.00     0.022 A 
BRANCH  87  91
ATOM     91  S   UNL A   1      46.040  34.740  37.876  1.00  0.00     0.124 S 
ATOM     92  O   UNL A   1      45.476  35.434  36.724  1.00  0.00    -0.237 OA
ATOM     93  O   UNL A   1      45.539  35.164  39.181  1.00  0.00    -0.237 OA
ATOM     94  O   UNL A   1      47.481  34.496  37.832  1.00  0.00    -0.744 OA
ENDBRANCH  87  91
ENDBRANCH  60  84
BRANCH  72  95
ATOM     95  C   UNL A   1      40.061  29.140  30.483  1.00  0.00     0.023 A 
ATOM     96  C   UNL A   1      40.621  28.909  29.224  1.00  0.00     0.031 A 
ATOM     97  C   UNL A   1      39.124  28.162  30.919  1.00  0.00     0.131 A 
ATOM     98  C   UNL A   1      40.230  27.808  28.443  1.00  0.00     0.055 A 
ATOM     99  C   UNL A   1      38.773  27.041  30.165  1.00  0.00     0.041 A 
ATOM    100  F   UNL A   1      38.539  28.208  32.124  1.00  0.00    -0.206 F 
ATOM    101  C   UNL A   1      39.325  26.859  28.911  1.00  0.00     0.022 A 
BRANCH  98 102
ATOM    102  S   UNL A   1      40.945  27.653  26.792  1.00  0.00     0.124 S 
ATOM    103  O   UNL A   1      40.407  28.833  26.122  1.00  0.00    -0.237 OA
ATOM    104  O   UNL A   1      42.378  27.682  27.067  1.00  0.00    -0.237 OA
ATOM    105  O   UNL A   1      40.431  26.372  26.312  1.00  0.00    -0.744 OA
ENDBRANCH  98 102
ENDBRANCH  72  95
ENDBRANCH  46  47
ENDBRANCH  39  41
ENDBRANCH  38  39
ENDBRANCH  37  38
ENDBRANCH  36  37
ENDBRANCH  35  36
ENDBRANCH  34  35
ENDBRANCH  33  34
ENDBRANCH  32  33
ENDBRANCH   1  32
TORSDOF 27
ENDMDL
MODEL 3
REMARK VINA RESULT:      -6.9      1.928      4.253
REMARK SMILES Cc1ccccc1NC(=O)CSc1nc(C(=O)OCCOCCOCCOCCOC(=O)c2ccc(-c3c4nc(c(-c5cc(S(=O)(=O)[O-])ccc5F)c5ccc([nH]5)c(-c5cc(S(=O)(=O)[O-])ccc5F)c5nc(c(-c6cc(S(=O)(=O)[O-])ccc6F)c6ccc3[nH]6)C=C5)C=C4)cc2)c2ccccc2n1
REMARK SMILES IDX 23 1 22 2 21 3 20 4 19 5 18 6 16 7 17 8 15 9 13 10 14 11
REMARK SMILES IDX 102 12 101 13 96 14 100 15 97 16 99 17 98 18 12 19 11 20
REMARK SMILES IDX 9 21 8 22 10 24 7 25 1 26 2 27 3 28 4 29 6 30 5 31 24 32
REMARK SMILES IDX 25 33 26 34 27 35 28 36 29 37 30 38 31 39 32 40 33 41 34 42
REMARK SMILES IDX 95 43 35 44 94 45 36 46 37 47 38 48 88 49 39 50 93 51 87 52
REMARK SMILES IDX 89 53 40 54 92 55 86 56 85 57 41 59 73 60 53 61 72 62 54 63
REMARK SMILES IDX 57 64 71 65 90 66 55 67 56 68 70 70 91 71 58 72 42 73 43 74
REMARK SMILES IDX 51 75 44 76 50 77 52 78 49 79 45 80 46 81 47 82 48 83 74 84
REMARK SMILES IDX 75 85 83 86 76 87 82 88 84 89 81 90 77 91 78 92 79 93 80 94
REMARK SMILES IDX 59 95 60 96 68 97 61 98 67 99 69 100 66 101 62 102 63 103
REMARK SMILES IDX 64 104 65 105
REMARK H PARENT 8 23 89 58 57 69
REMARK Flexibility Score: inf
ROOT
ATOM      1  C   UNL A   1      45.997  19.423  24.638  1.00  0.00     0.188 C 
ENDROOT
BRANCH   1   2
ATOM      2  C   UNL A   1      45.686  20.791  25.258  1.00  0.00     0.188 C 
BRANCH   2   3
ATOM      3  O   UNL A   1      46.570  21.861  24.925  1.00  0.00    -0.376 OA
BRANCH   3   4
ATOM      4  C   UNL A   1      46.009  22.898  24.107  1.00  0.00     0.202 C 
BRANCH   4   5
ATOM      5  C   UNL A   1      46.379  24.318  24.533  1.00  0.00     0.261 C 
BRANCH   5   6
ATOM      6  O   UNL A   1      47.606  24.685  23.873  1.00  0.00    -0.458 OA
BRANCH   6   7
ATOM      7  C   UNL A   1      47.962  25.974  24.043  1.00  0.00     0.357 C 
ATOM      8  O   UNL A   1      47.224  26.943  24.055  1.00  0.00    -0.244 OA
BRANCH   7   9
ATOM      9  C   UNL A   1      49.252  26.009  24.752  1.00  0.00     0.160 A 
ATOM     10  C   UNL A   1      51.194  27.095  24.448  1.00  0.00     0.189 A 
ATOM     11  N   UNL A   1      50.167  26.495  23.909  1.00  0.00    -0.215 NA
ATOM     12  N   UNL A   1      51.617  26.867  25.694  1.00  0.00    -0.222 NA
ATOM     13  C   UNL A   1      50.794  26.159  26.488  1.00  0.00     0.076 A 
ATOM     14  C   UNL A   1      49.495  25.816  26.102  1.00  0.00     0.034 A 
ATOM     15  C   UNL A   1      51.201  25.829  27.775  1.00  0.00     0.029 A 
ATOM     16  C   UNL A   1      48.579  25.346  27.064  1.00  0.00     0.013 A 
ATOM     17  C   UNL A   1      50.317  25.277  28.708  1.00  0.00     0.002 A 
ATOM     18  C   UNL A   1      48.987  25.087  28.367  1.00  0.00     0.001 A 
BRANCH  10  19
ATOM     19  S   UNL A   1      51.535  28.653  23.676  1.00  0.00    -0.076 SA
BRANCH  19  20
ATOM     20  C   UNL A   1      53.210  28.291  22.947  1.00  0.00     0.178 C 
BRANCH  20  21
ATOM     21  C   UNL A   1      53.423  26.866  22.432  1.00  0.00     0.234 C 
ATOM     22  N   UNL A   1      53.304  26.505  21.119  1.00  0.00    -0.325 N 
ATOM     23  H   UNL A   1      53.594  25.586  20.915  1.00  0.00     0.169 HD
ATOM     24  O   UNL A   1      53.709  25.956  23.216  1.00  0.00    -0.274 OA
BRANCH  22  25
ATOM     25  C   UNL A   1      52.837  27.230  20.019  1.00  0.00     0.044 A 
ATOM     26  C   UNL A   1      50.463  26.307  20.346  1.00  0.00     0.046 C 
ATOM     27  C   UNL A   1      51.512  27.070  19.583  1.00  0.00    -0.027 A 
ATOM     28  C   UNL A   1      51.140  27.644  18.355  1.00  0.00     0.005 A 
ATOM     29  C   UNL A   1      52.055  28.371  17.590  1.00  0.00     0.000 A 
ATOM     30  C   UNL A   1      53.700  28.077  19.312  1.00  0.00     0.026 A 
ATOM     31  C   UNL A   1      53.330  28.611  18.082  1.00  0.00     0.002 A 
ENDBRANCH  22  25
ENDBRANCH  20  21
ENDBRANCH  19  20
ENDBRANCH  10  19
ENDBRANCH   7   9
ENDBRANCH   6   7
ENDBRANCH   5   6
ENDBRANCH   4   5
ENDBRANCH   3   4
ENDBRANCH   2   3
ENDBRANCH   1   2
BRANCH   1  32
ATOM     32  O   UNL A   1      45.062  18.411  24.949  1.00  0.00    -0.377 OA
BRANCH  32  33
ATOM     33  C   UNL A   1      43.706  18.757  25.258  1.00  0.00     0.188 C 
BRANCH  33  34
ATOM     34  C   UNL A   1      43.074  18.282  26.571  1.00  0.00     0.188 C 
BRANCH  34  35
ATOM     35  O   UNL A   1      41.939  19.101  26.869  1.00  0.00    -0.376 OA
BRANCH  35  36
ATOM     36  C   UNL A   1      41.604  20.073  25.883  1.00  0.00     0.202 C 
BRANCH  36  37
ATOM     37  C   UNL A   1      41.777  21.523  26.350  1.00  0.00     0.261 C 
BRANCH  37  38
ATOM     38  O   UNL A   1      42.485  22.290  25.357  1.00  0.00    -0.460 OA
BRANCH  38  39
ATOM     39  C   UNL A   1      42.788  23.560  25.736  1.00  0.00     0.338 C 
ATOM     40  O   UNL A   1      42.908  24.502  24.967  1.00  0.00    -0.246 OA
BRANCH  39  41
ATOM     41  C   UNL A   1      43.066  23.605  27.196  1.00  0.00     0.060 A 
ATOM     42  C   UNL A   1      42.222  24.322  28.059  1.00  0.00     0.016 A 
ATOM     43  C   UNL A   1      44.294  23.143  27.657  1.00  0.00     0.016 A 
ATOM     44  C   UNL A   1      42.675  24.698  29.335  1.00  0.00     0.010 A 
ATOM     45  C   UNL A   1      44.768  23.601  28.870  1.00  0.00     0.010 A 
ATOM     46  C   UNL A   1      43.988  24.407  29.717  1.00  0.00    -0.014 A 
BRANCH  46  47
ATOM     47  C   UNL A   1      44.739  25.050  30.816  1.00  0.00     0.031 A 
ATOM     48  C   UNL A   1      44.819  24.400  32.178  1.00  0.00     0.074 A 
ATOM     49  C   UNL A   1      45.666  25.987  30.498  1.00  0.00     0.049 A 
ATOM     50  N   UNL A   1      45.646  24.734  33.112  1.00  0.00    -0.248 NA
ATOM     51  C   UNL A   1      43.955  23.303  32.615  1.00  0.00     0.031 C 
ATOM     52  C   UNL A   1      46.934  26.173  31.196  1.00  0.00     0.029 A 
ATOM     53  N   UNL A   1      45.750  26.925  29.480  1.00  0.00    -0.354 N 
ATOM     54  C   UNL A   1      45.689  23.744  34.066  1.00  0.00     0.074 A 
ATOM     55  C   UNL A   1      44.536  22.934  33.766  1.00  0.00     0.031 C 
ATOM     56  C   UNL A   1      47.633  27.172  30.661  1.00  0.00     0.029 A 
ATOM     57  C   UNL A   1      46.736  27.871  29.791  1.00  0.00     0.049 A 
ATOM     58  H   UNL A   1      45.200  26.927  28.663  1.00  0.00     0.167 HD
ATOM     59  C   UNL A   1      46.764  23.676  34.911  1.00  0.00     0.034 A 
ATOM     60  C   UNL A   1      46.454  29.190  30.009  1.00  0.00     0.034 A 
ATOM     61  C   UNL A   1      47.578  24.911  34.870  1.00  0.00     0.049 A 
ATOM     62  C   UNL A   1      46.701  29.589  31.457  1.00  0.00     0.074 A 
ATOM     63  C   UNL A   1      48.932  25.179  34.805  1.00  0.00     0.029 A 
ATOM     64  N   UNL A   1      46.956  26.167  34.792  1.00  0.00    -0.354 N 
ATOM     65  N   UNL A   1      46.687  28.724  32.447  1.00  0.00    -0.248 NA
ATOM     66  C   UNL A   1      47.137  30.909  31.899  1.00  0.00     0.031 C 
ATOM     67  C   UNL A   1      49.107  26.570  34.542  1.00  0.00     0.029 A 
ATOM     68  C   UNL A   1      47.865  27.182  34.580  1.00  0.00     0.049 A 
ATOM     69  H   UNL A   1      45.985  26.307  34.879  1.00  0.00     0.167 HD
ATOM     70  C   UNL A   1      47.211  29.290  33.577  1.00  0.00     0.074 A 
ATOM     71  C   UNL A   1      47.425  30.679  33.196  1.00  0.00     0.031 C 
ATOM     72  C   UNL A   1      47.493  28.585  34.718  1.00  0.00     0.034 A 
BRANCH  59  73
ATOM     73  C   UNL A   1      47.220  22.419  35.686  1.00  0.00     0.023 A 
ATOM     74  C   UNL A   1      46.675  22.119  36.966  1.00  0.00     0.031 A 
ATOM     75  C   UNL A   1      48.262  21.548  35.290  1.00  0.00     0.131 A 
ATOM     76  C   UNL A   1      47.167  21.054  37.764  1.00  0.00     0.055 A 
ATOM     77  C   UNL A   1      48.692  20.446  36.046  1.00  0.00     0.041 A 
ATOM     78  F   UNL A   1      48.973  21.739  34.174  1.00  0.00    -0.206 F 
ATOM     79  C   UNL A   1      48.155  20.198  37.294  1.00  0.00     0.022 A 
BRANCH  76  80
ATOM     80  S   UNL A   1      46.532  20.770  39.449  1.00  0.00     0.124 S 
ATOM     81  O   UNL A   1      45.940  19.443  39.333  1.00  0.00    -0.237 OA
ATOM     82  O   UNL A   1      47.728  20.885  40.274  1.00  0.00    -0.237 OA
ATOM     83  O   UNL A   1      45.564  21.853  39.627  1.00  0.00    -0.744 OA
ENDBRANCH  76  80
ENDBRANCH  59  73
BRANCH  60  84
ATOM     84  C   UNL A   1      45.604  29.752  28.924  1.00  0.00     0.023 A 
ATOM     85  C   UNL A   1      44.796  30.826  29.369  1.00  0.00     0.031 A 
ATOM     86  C   UNL A   1      46.099  29.807  27.611  1.00  0.00     0.131 A 
ATOM     87  C   UNL A   1      44.778  32.028  28.648  1.00  0.00     0.055 A 
ATOM     88  C   UNL A   1      46.006  30.987  26.856  1.00  0.00     0.041 A 
ATOM     89  F   UNL A   1      46.853  28.810  27.125  1.00  0.00    -0.206 F 
ATOM     90  C   UNL A   1      45.406  32.124  27.403  1.00  0.00     0.022 A 
BRANCH  87  91
ATOM     91  S   UNL A   1      44.263  33.551  29.513  1.00  0.00     0.124 S 
ATOM     92  O   UNL A   1      42.853  33.640  29.156  1.00  0.00    -0.237 OA
ATOM     93  O   UNL A   1      44.545  33.244  30.913  1.00  0.00    -0.237 OA
ATOM     94  O   UNL A   1      45.136  34.569  28.931  1.00  0.00    -0.744 OA
ENDBRANCH  87  91
ENDBRANCH  60  84
BRANCH  72  95
ATOM     95  C   UNL A   1      47.551  29.163  36.119  1.00  0.00     0.023 A 
ATOM     96  C   UNL A   1      48.691  29.785  36.635  1.00  0.00     0.031 A 
ATOM     97  C   UNL A   1      46.385  29.262  36.930  1.00  0.00     0.131 A 
ATOM     98  C   UNL A   1      48.673  30.412  37.891  1.00  0.00     0.055 A 
ATOM     99  C   UNL A   1      46.356  29.928  38.156  1.00  0.00     0.041 A 
ATOM    100  F   UNL A   1      45.199  28.767  36.555  1.00  0.00    -0.206 F 
ATOM    101  C   UNL A   1      47.509  30.507  38.650  1.00  0.00     0.022 A 
BRANCH  98 102
ATOM    102  S   UNL A   1      50.224  31.104  38.507  1.00  0.00     0.124 S 
ATOM    103  O   UNL A   1      49.749  32.074  39.489  1.00  0.00    -0.237 OA
ATOM    104  O   UNL A   1      50.895  29.929  39.054  1.00  0.00    -0.237 OA
ATOM    105  O   UNL A   1      50.846  31.674  37.315  1.00  0.00    -0.744 OA
ENDBRANCH  98 102
ENDBRANCH  72  95
ENDBRANCH  46  47
ENDBRANCH  39  41
ENDBRANCH  38  39
ENDBRANCH  37  38
ENDBRANCH  36  37
ENDBRANCH  35  36
ENDBRANCH  34  35
ENDBRANCH  33  34
ENDBRANCH  32  33
ENDBRANCH   1  32
TORSDOF 27
ENDMDL
