MODEL 1
REMARK VINA RESULT:      -9.1      0.000      0.000
REMARK SMILES Cc1cc(C(=O)OCCOCCOCCOCCOC(=O)c2ccc(-c3c4nc(c(-c5cc(S(=O)(=O)[O-])ccc5F)c5ccc([nH]5)c(-c5cc(S(=O)(=O)[O-])ccc5F)c5nc(c(-c6cc(S(=O)(=O)[O-])ccc6F)c6ccc3[nH]6)C=C5)C=C4)cc2)ccc1NS(=O)(=O)c1c(F)cccc1F
REMARK SMILES IDX 13 1 12 2 11 3 10 4 9 5 8 6 7 7 5 8 6 9 4 10 1 11 2 12 3 13
REMARK SMILES IDX 87 14 86 15 85 16 88 17 89 19 90 20 91 21 92 22 93 23 98 24
REMARK SMILES IDX 94 25 95 26 97 27 99 28 96 29 14 30 15 31 16 32 17 33 18 34
REMARK SMILES IDX 19 35 20 36 21 37 22 38 23 39 84 40 24 41 83 42 25 43 26 44
REMARK SMILES IDX 27 45 77 46 28 47 82 48 76 49 78 50 29 51 81 52 75 53 74 54
REMARK SMILES IDX 30 56 62 57 42 58 61 59 43 60 46 61 60 62 79 63 44 64 45 65
REMARK SMILES IDX 59 67 80 68 47 69 31 70 32 71 40 72 33 73 39 74 41 75 38 76
REMARK SMILES IDX 34 77 35 78 36 79 37 80 63 81 64 82 72 83 65 84 71 85 73 86
REMARK SMILES IDX 70 87 66 88 67 89 68 90 69 91 48 92 49 93 57 94 50 95 56 96
REMARK SMILES IDX 58 97 55 98 51 99 52 100 53 101 54 102
REMARK H PARENT 88 18 78 55 46 66
REMARK Flexibility Score: inf
ROOT
ATOM      1  O   UNL A   1      39.238  23.536  26.846  1.00  0.00    -0.377 OA
ENDROOT
BRANCH   1   2
ATOM      2  C   UNL A   1      38.390  22.690  26.098  1.00  0.00     0.188 C 
BRANCH   2   3
ATOM      3  C   UNL A   1      37.276  23.356  25.276  1.00  0.00     0.188 C 
BRANCH   3   4
ATOM      4  O   UNL A   1      36.058  23.716  25.909  1.00  0.00    -0.376 OA
BRANCH   4   5
ATOM      5  C   UNL A   1      35.551  22.751  26.822  1.00  0.00     0.202 C 
BRANCH   5   6
ATOM      6  C   UNL A   1      34.058  22.482  26.806  1.00  0.00     0.261 C 
BRANCH   6   7
ATOM      7  O   UNL A   1      33.400  23.288  25.834  1.00  0.00    -0.460 OA
BRANCH   7   8
ATOM      8  C   UNL A   1      32.815  22.593  24.853  1.00  0.00     0.338 C 
ATOM      9  O   UNL A   1      32.338  21.453  24.912  1.00  0.00    -0.246 OA
BRANCH   8  10
ATOM     10  C   UNL A   1      32.424  23.561  23.839  1.00  0.00     0.060 A 
ATOM     11  C   UNL A   1      29.525  25.935  23.826  1.00  0.00     0.046 C 
ATOM     12  C   UNL A   1      30.817  25.316  23.382  1.00  0.00    -0.026 A 
ATOM     13  C   UNL A   1      31.190  24.162  24.068  1.00  0.00     0.021 A 
ATOM     14  C   UNL A   1      31.692  25.850  22.416  1.00  0.00     0.052 A 
ATOM     15  C   UNL A   1      32.875  25.156  22.108  1.00  0.00     0.028 A 
ATOM     16  C   UNL A   1      33.273  24.041  22.849  1.00  0.00     0.018 A 
BRANCH  14  17
ATOM     17  N   UNL A   1      31.449  27.177  21.953  1.00  0.00    -0.279 N 
ATOM     18  H   UNL A   1      30.771  27.276  21.247  1.00  0.00     0.180 HD
BRANCH  17  19
ATOM     19  S   UNL A   1      32.184  28.577  22.475  1.00  0.00     0.267 S 
ATOM     20  O   UNL A   1      33.487  28.618  21.845  1.00  0.00    -0.201 OA
ATOM     21  O   UNL A   1      31.216  29.629  22.228  1.00  0.00    -0.201 OA
BRANCH  19  22
ATOM     22  C   UNL A   1      32.414  28.504  24.206  1.00  0.00     0.158 A 
ATOM     23  C   UNL A   1      33.679  28.164  24.671  1.00  0.00     0.146 A 
ATOM     24  C   UNL A   1      31.366  28.621  25.109  1.00  0.00     0.146 A 
ATOM     25  F   UNL A   1      34.736  28.137  23.846  1.00  0.00    -0.205 F 
ATOM     26  C   UNL A   1      33.886  27.844  26.011  1.00  0.00     0.041 A 
ATOM     27  C   UNL A   1      31.553  28.276  26.447  1.00  0.00     0.041 A 
ATOM     28  F   UNL A   1      30.148  29.011  24.713  1.00  0.00    -0.205 F 
ATOM     29  C   UNL A   1      32.810  27.867  26.897  1.00  0.00     0.006 A 
ENDBRANCH  19  22
ENDBRANCH  17  19
ENDBRANCH  14  17
ENDBRANCH   8  10
ENDBRANCH   7   8
ENDBRANCH   6   7
ENDBRANCH   5   6
ENDBRANCH   4   5
ENDBRANCH   3   4
ENDBRANCH   2   3
ENDBRANCH   1   2
BRANCH   1  30
ATOM     30  C   UNL A   1      40.592  23.701  26.422  1.00  0.00     0.188 C 
BRANCH  30  31
ATOM     31  C   UNL A   1      41.303  25.039  26.565  1.00  0.00     0.188 C 
BRANCH  31  32
ATOM     32  O   UNL A   1      42.532  24.982  25.834  1.00  0.00    -0.376 OA
BRANCH  32  33
ATOM     33  C   UNL A   1      42.847  23.706  25.295  1.00  0.00     0.202 C 
BRANCH  33  34
ATOM     34  C   UNL A   1      44.355  23.449  25.171  1.00  0.00     0.261 C 
BRANCH  34  35
ATOM     35  O   UNL A   1      45.087  24.521  25.801  1.00  0.00    -0.460 OA
BRANCH  35  36
ATOM     36  C   UNL A   1      45.999  24.133  26.737  1.00  0.00     0.338 C 
ATOM     37  O   UNL A   1      46.965  23.420  26.519  1.00  0.00    -0.246 OA
BRANCH  36  38
ATOM     38  C   UNL A   1      45.567  24.592  28.088  1.00  0.00     0.060 A 
ATOM     39  C   UNL A   1      44.378  24.122  28.671  1.00  0.00     0.016 A 
ATOM     40  C   UNL A   1      46.213  25.681  28.651  1.00  0.00     0.016 A 
ATOM     41  C   UNL A   1      43.745  24.866  29.687  1.00  0.00     0.010 A 
ATOM     42  C   UNL A   1      45.543  26.440  29.585  1.00  0.00     0.010 A 
ATOM     43  C   UNL A   1      44.275  26.096  30.073  1.00  0.00    -0.014 A 
BRANCH  43  44
ATOM     44  C   UNL A   1      43.552  27.169  30.801  1.00  0.00     0.031 A 
ATOM     45  C   UNL A   1      42.716  28.154  30.024  1.00  0.00     0.074 A 
ATOM     46  C   UNL A   1      43.338  26.996  32.136  1.00  0.00     0.049 A 
ATOM     47  N   UNL A   1      41.968  29.069  30.538  1.00  0.00    -0.248 NA
ATOM     48  C   UNL A   1      42.609  28.164  28.563  1.00  0.00     0.031 C 
ATOM     49  C   UNL A   1      42.242  27.527  32.954  1.00  0.00     0.029 A 
ATOM     50  N   UNL A   1      44.006  26.227  33.071  1.00  0.00    -0.354 N 
ATOM     51  C   UNL A   1      41.028  29.468  29.598  1.00  0.00     0.074 A 
ATOM     52  C   UNL A   1      41.552  28.962  28.357  1.00  0.00     0.031 C 
ATOM     53  C   UNL A   1      42.366  27.164  34.242  1.00  0.00     0.029 A 
ATOM     54  C   UNL A   1      43.697  26.631  34.372  1.00  0.00     0.049 A 
ATOM     55  H   UNL A   1      44.619  25.490  32.848  1.00  0.00     0.167 HD
ATOM     56  C   UNL A   1      39.854  30.043  30.024  1.00  0.00     0.034 A 
ATOM     57  C   UNL A   1      44.647  27.224  35.159  1.00  0.00     0.034 A 
ATOM     58  C   UNL A   1      39.891  30.299  31.481  1.00  0.00     0.049 A 
ATOM     59  C   UNL A   1      44.340  28.735  35.212  1.00  0.00     0.074 A 
ATOM     60  C   UNL A   1      39.053  30.031  32.550  1.00  0.00     0.029 A 
ATOM     61  N   UNL A   1      41.056  30.814  32.050  1.00  0.00    -0.354 N 
ATOM     62  N   UNL A   1      43.702  29.378  34.253  1.00  0.00    -0.248 NA
ATOM     63  C   UNL A   1      44.440  29.547  36.427  1.00  0.00     0.031 C 
ATOM     64  C   UNL A   1      39.808  30.193  33.752  1.00  0.00     0.029 A 
ATOM     65  C   UNL A   1      41.072  30.664  33.418  1.00  0.00     0.049 A 
ATOM     66  H   UNL A   1      41.782  31.234  31.534  1.00  0.00     0.167 HD
ATOM     67  C   UNL A   1      43.140  30.524  34.758  1.00  0.00     0.074 A 
ATOM     68  C   UNL A   1      43.703  30.627  36.099  1.00  0.00     0.031 C 
ATOM     69  C   UNL A   1      42.140  31.274  34.189  1.00  0.00     0.034 A 
BRANCH  56  70
ATOM     70  C   UNL A   1      38.557  30.228  29.213  1.00  0.00     0.023 A 
ATOM     71  C   UNL A   1      37.847  31.454  29.309  1.00  0.00     0.031 A 
ATOM     72  C   UNL A   1      37.914  29.250  28.422  1.00  0.00     0.131 A 
ATOM     73  C   UNL A   1      36.593  31.657  28.685  1.00  0.00     0.055 A 
ATOM     74  C   UNL A   1      36.696  29.472  27.750  1.00  0.00     0.041 A 
ATOM     75  F   UNL A   1      38.394  28.010  28.285  1.00  0.00    -0.206 F 
ATOM     76  C   UNL A   1      36.024  30.675  27.884  1.00  0.00     0.022 A 
BRANCH  73  77
ATOM     77  S   UNL A   1      35.696  33.221  28.935  1.00  0.00     0.124 S 
ATOM     78  O   UNL A   1      35.471  33.675  27.567  1.00  0.00    -0.237 OA
ATOM     79  O   UNL A   1      34.517  32.795  29.678  1.00  0.00    -0.237 OA
ATOM     80  O   UNL A   1      36.640  34.035  29.703  1.00  0.00    -0.744 OA
ENDBRANCH  73  77
ENDBRANCH  56  70
BRANCH  57  81
ATOM     81  C   UNL A   1      45.914  26.413  35.087  1.00  0.00     0.023 A 
ATOM     82  C   UNL A   1      45.798  25.117  35.671  1.00  0.00     0.031 A 
ATOM     83  C   UNL A   1      46.798  26.542  34.004  1.00  0.00     0.131 A 
ATOM     84  C   UNL A   1      46.317  23.983  35.015  1.00  0.00     0.055 A 
ATOM     85  C   UNL A   1      47.357  25.407  33.384  1.00  0.00     0.041 A 
ATOM     86  F   UNL A   1      46.955  27.723  33.387  1.00  0.00    -0.206 F 
ATOM     87  C   UNL A   1      47.056  24.121  33.842  1.00  0.00     0.022 A 
BRANCH  84  88
ATOM     88  S   UNL A   1      45.768  22.318  35.535  1.00  0.00     0.124 S 
ATOM     89  O   UNL A   1      46.734  21.460  34.860  1.00  0.00    -0.237 OA
ATOM     90  O   UNL A   1      45.883  22.376  36.988  1.00  0.00    -0.237 OA
ATOM     91  O   UNL A   1      44.396  22.249  35.039  1.00  0.00    -0.744 OA
ENDBRANCH  84  88
ENDBRANCH  57  81
BRANCH  69  92
ATOM     92  C   UNL A   1      42.114  32.778  34.304  1.00  0.00     0.023 A 
ATOM     93  C   UNL A   1      41.120  33.414  35.045  1.00  0.00     0.031 A 
ATOM     94  C   UNL A   1      43.172  33.605  33.844  1.00  0.00     0.131 A 
ATOM     95  C   UNL A   1      41.128  34.799  35.218  1.00  0.00     0.055 A 
ATOM     96  C   UNL A   1      43.236  34.973  34.118  1.00  0.00     0.041 A 
ATOM     97  F   UNL A   1      44.206  33.127  33.138  1.00  0.00    -0.206 F 
ATOM     98  C   UNL A   1      42.195  35.585  34.794  1.00  0.00     0.022 A 
BRANCH  95  99
ATOM     99  S   UNL A   1      39.634  35.524  35.916  1.00  0.00     0.124 S 
ATOM    100  O   UNL A   1      39.621  34.933  37.252  1.00  0.00    -0.237 OA
ATOM    101  O   UNL A   1      39.923  36.954  35.861  1.00  0.00    -0.237 OA
ATOM    102  O   UNL A   1      38.579  35.063  35.018  1.00  0.00    -0.744 OA
ENDBRANCH  95  99
ENDBRANCH  69  92
ENDBRANCH  43  44
ENDBRANCH  36  38
ENDBRANCH  35  36
ENDBRANCH  34  35
ENDBRANCH  33  34
ENDBRANCH  32  33
ENDBRANCH  31  32
ENDBRANCH  30  31
ENDBRANCH   1  30
TORSDOF 26
ENDMDL
MODEL 2
REMARK VINA RESULT:      -8.8      3.342      5.379
REMARK SMILES Cc1cc(C(=O)OCCOCCOCCOCCOC(=O)c2ccc(-c3c4nc(c(-c5cc(S(=O)(=O)[O-])ccc5F)c5ccc([nH]5)c(-c5cc(S(=O)(=O)[O-])ccc5F)c5nc(c(-c6cc(S(=O)(=O)[O-])ccc6F)c6ccc3[nH]6)C=C5)C=C4)cc2)ccc1NS(=O)(=O)c1c(F)cccc1F
REMARK SMILES IDX 13 1 12 2 11 3 10 4 9 5 8 6 7 7 5 8 6 9 4 10 1 11 2 12 3 13
REMARK SMILES IDX 87 14 86 15 85 16 88 17 89 19 90 20 91 21 92 22 93 23 98 24
REMARK SMILES IDX 94 25 95 26 97 27 99 28 96 29 14 30 15 31 16 32 17 33 18 34
REMARK SMILES IDX 19 35 20 36 21 37 22 38 23 39 84 40 24 41 83 42 25 43 26 44
REMARK SMILES IDX 27 45 77 46 28 47 82 48 76 49 78 50 29 51 81 52 75 53 74 54
REMARK SMILES IDX 30 56 62 57 42 58 61 59 43 60 46 61 60 62 79 63 44 64 45 65
REMARK SMILES IDX 59 67 80 68 47 69 31 70 32 71 40 72 33 73 39 74 41 75 38 76
REMARK SMILES IDX 34 77 35 78 36 79 37 80 63 81 64 82 72 83 65 84 71 85 73 86
REMARK SMILES IDX 70 87 66 88 67 89 68 90 69 91 48 92 49 93 57 94 50 95 56 96
REMARK SMILES IDX 58 97 55 98 51 99 52 100 53 101 54 102
REMARK H PARENT 88 18 78 55 46 66
REMARK Flexibility Score: inf
ROOT
ATOM      1  O   UNL A   1      39.004  24.405  27.107  1.00  0.00    -0.377 OA
ENDROOT
BRANCH   1   2
ATOM      2  C   UNL A   1      38.233  23.542  26.297  1.00  0.00     0.188 C 
BRANCH   2   3
ATOM      3  C   UNL A   1      36.901  24.083  25.757  1.00  0.00     0.188 C 
BRANCH   3   4
ATOM      4  O   UNL A   1      35.733  23.281  25.844  1.00  0.00    -0.376 OA
BRANCH   4   5
ATOM      5  C   UNL A   1      35.970  21.879  25.860  1.00  0.00     0.202 C 
BRANCH   5   6
ATOM      6  C   UNL A   1      35.328  21.044  24.767  1.00  0.00     0.261 C 
BRANCH   6   7
ATOM      7  O   UNL A   1      34.285  20.227  25.288  1.00  0.00    -0.460 OA
BRANCH   7   8
ATOM      8  C   UNL A   1      33.411  19.804  24.368  1.00  0.00     0.338 C 
ATOM      9  O   UNL A   1      33.200  18.643  24.001  1.00  0.00    -0.246 OA
BRANCH   8  10
ATOM     10  C   UNL A   1      32.438  20.875  24.203  1.00  0.00     0.060 A 
ATOM     11  C   UNL A   1      30.836  23.040  26.807  1.00  0.00     0.046 C 
ATOM     12  C   UNL A   1      31.224  22.570  25.437  1.00  0.00    -0.026 A 
ATOM     13  C   UNL A   1      31.914  21.359  25.397  1.00  0.00     0.021 A 
ATOM     14  C   UNL A   1      31.027  23.284  24.239  1.00  0.00     0.052 A 
ATOM     15  C   UNL A   1      31.451  22.714  23.026  1.00  0.00     0.028 A 
ATOM     16  C   UNL A   1      32.201  21.536  23.004  1.00  0.00     0.018 A 
BRANCH  14  17
ATOM     17  N   UNL A   1      30.605  24.643  24.332  1.00  0.00    -0.279 N 
ATOM     18  H   UNL A   1      29.635  24.797  24.398  1.00  0.00     0.180 HD
BRANCH  17  19
ATOM     19  S   UNL A   1      31.571  25.999  24.341  1.00  0.00     0.267 S 
ATOM     20  O   UNL A   1      31.900  26.262  25.726  1.00  0.00    -0.201 OA
ATOM     21  O   UNL A   1      32.620  25.724  23.377  1.00  0.00    -0.201 OA
BRANCH  19  22
ATOM     22  C   UNL A   1      30.669  27.363  23.723  1.00  0.00     0.158 A 
ATOM     23  C   UNL A   1      29.282  27.310  23.818  1.00  0.00     0.146 A 
ATOM     24  C   UNL A   1      31.264  28.401  23.020  1.00  0.00     0.146 A 
ATOM     25  F   UNL A   1      28.675  26.379  24.568  1.00  0.00    -0.205 F 
ATOM     26  C   UNL A   1      28.485  28.225  23.137  1.00  0.00     0.041 A 
ATOM     27  C   UNL A   1      30.476  29.307  22.311  1.00  0.00     0.041 A 
ATOM     28  F   UNL A   1      32.595  28.527  22.960  1.00  0.00    -0.205 F 
ATOM     29  C   UNL A   1      29.083  29.208  22.351  1.00  0.00     0.006 A 
ENDBRANCH  19  22
ENDBRANCH  17  19
ENDBRANCH  14  17
ENDBRANCH   8  10
ENDBRANCH   7   8
ENDBRANCH   6   7
ENDBRANCH   5   6
ENDBRANCH   4   5
ENDBRANCH   3   4
ENDBRANCH   2   3
ENDBRANCH   1   2
BRANCH   1  30
ATOM     30  C   UNL A   1      40.189  24.986  26.560  1.00  0.00     0.188 C 
BRANCH  30  31
ATOM     31  C   UNL A   1      40.769  26.272  27.131  1.00  0.00     0.188 C 
BRANCH  31  32
ATOM     32  O   UNL A   1      41.903  26.649  26.342  1.00  0.00    -0.376 OA
BRANCH  32  33
ATOM     33  C   UNL A   1      42.181  25.787  25.248  1.00  0.00     0.202 C 
BRANCH  33  34
ATOM     34  C   UNL A   1      43.627  25.274  25.225  1.00  0.00     0.261 C 
BRANCH  34  35
ATOM     35  O   UNL A   1      44.350  25.797  26.358  1.00  0.00    -0.460 OA
BRANCH  35  36
ATOM     36  C   UNL A   1      45.491  25.126  26.682  1.00  0.00     0.338 C 
ATOM     37  O   UNL A   1      46.366  24.813  25.893  1.00  0.00    -0.246 OA
BRANCH  36  38
ATOM     38  C   UNL A   1      45.448  24.711  28.114  1.00  0.00     0.060 A 
ATOM     39  C   UNL A   1      44.306  24.102  28.662  1.00  0.00     0.016 A 
ATOM     40  C   UNL A   1      46.444  25.167  28.962  1.00  0.00     0.016 A 
ATOM     41  C   UNL A   1      44.084  24.135  30.053  1.00  0.00     0.010 A 
ATOM     42  C   UNL A   1      46.176  25.266  30.309  1.00  0.00     0.010 A 
ATOM     43  C   UNL A   1      44.974  24.821  30.877  1.00  0.00    -0.014 A 
BRANCH  43  44
ATOM     44  C   UNL A   1      44.698  25.297  32.256  1.00  0.00     0.031 A 
ATOM     45  C   UNL A   1      44.076  26.655  32.458  1.00  0.00     0.074 A 
ATOM     46  C   UNL A   1      44.636  24.364  33.248  1.00  0.00     0.049 A 
ATOM     47  N   UNL A   1      43.701  27.145  33.589  1.00  0.00    -0.248 NA
ATOM     48  C   UNL A   1      43.770  27.585  31.368  1.00  0.00     0.031 C 
ATOM     49  C   UNL A   1      43.864  24.417  34.495  1.00  0.00     0.029 A 
ATOM     50  N   UNL A   1      45.183  23.097  33.339  1.00  0.00    -0.354 N 
ATOM     51  C   UNL A   1      42.790  28.167  33.361  1.00  0.00     0.074 A 
ATOM     52  C   UNL A   1      42.966  28.475  31.966  1.00  0.00     0.031 C 
ATOM     53  C   UNL A   1      44.061  23.320  35.246  1.00  0.00     0.029 A 
ATOM     54  C   UNL A   1      45.190  22.643  34.661  1.00  0.00     0.049 A 
ATOM     55  H   UNL A   1      45.522  22.582  32.572  1.00  0.00     0.167 HD
ATOM     56  C   UNL A   1      41.902  28.508  34.353  1.00  0.00     0.034 A 
ATOM     57  C   UNL A   1      46.371  22.480  35.332  1.00  0.00     0.034 A 
ATOM     58  C   UNL A   1      42.217  27.796  35.611  1.00  0.00     0.049 A 
ATOM     59  C   UNL A   1      46.518  23.655  36.321  1.00  0.00     0.074 A 
ATOM     60  C   UNL A   1      41.498  27.042  36.522  1.00  0.00     0.029 A 
ATOM     61  N   UNL A   1      43.549  27.678  36.009  1.00  0.00    -0.354 N 
ATOM     62  N   UNL A   1      45.961  24.835  36.131  1.00  0.00    -0.248 NA
ATOM     63  C   UNL A   1      47.017  23.513  37.691  1.00  0.00     0.031 C 
ATOM     64  C   UNL A   1      42.431  26.315  37.325  1.00  0.00     0.029 A 
ATOM     65  C   UNL A   1      43.716  26.711  36.973  1.00  0.00     0.049 A 
ATOM     66  H   UNL A   1      44.283  28.222  35.642  1.00  0.00     0.167 HD
ATOM     67  C   UNL A   1      45.826  25.483  37.333  1.00  0.00     0.074 A 
ATOM     68  C   UNL A   1      46.580  24.651  38.264  1.00  0.00     0.031 C 
ATOM     69  C   UNL A   1      45.012  26.554  37.608  1.00  0.00     0.034 A 
BRANCH  56  70
ATOM     70  C   UNL A   1      40.610  29.335  34.205  1.00  0.00     0.023 A 
ATOM     71  C   UNL A   1      40.354  30.394  35.117  1.00  0.00     0.031 A 
ATOM     72  C   UNL A   1      39.561  29.099  33.289  1.00  0.00     0.131 A 
ATOM     73  C   UNL A   1      39.141  31.122  35.116  1.00  0.00     0.055 A 
ATOM     74  C   UNL A   1      38.380  29.864  33.245  1.00  0.00     0.041 A 
ATOM     75  F   UNL A   1      39.591  28.092  32.410  1.00  0.00    -0.206 F 
ATOM     76  C   UNL A   1      38.159  30.875  34.165  1.00  0.00     0.022 A 
BRANCH  73  77
ATOM     77  S   UNL A   1      38.845  32.398  36.379  1.00  0.00     0.124 S 
ATOM     78  O   UNL A   1      39.575  31.875  37.530  1.00  0.00    -0.237 OA
ATOM     79  O   UNL A   1      39.395  33.595  35.754  1.00  0.00    -0.237 OA
ATOM     80  O   UNL A   1      37.389  32.400  36.527  1.00  0.00    -0.744 OA
ENDBRANCH  73  77
ENDBRANCH  56  70
BRANCH  57  81
ATOM     81  C   UNL A   1      47.331  21.723  34.452  1.00  0.00     0.023 A 
ATOM     82  C   UNL A   1      48.587  22.377  34.281  1.00  0.00     0.031 A 
ATOM     83  C   UNL A   1      47.339  20.319  34.426  1.00  0.00     0.131 A 
ATOM     84  C   UNL A   1      49.793  21.654  34.372  1.00  0.00     0.055 A 
ATOM     85  C   UNL A   1      48.551  19.601  34.464  1.00  0.00     0.041 A 
ATOM     86  F   UNL A   1      46.204  19.626  34.595  1.00  0.00    -0.206 F 
ATOM     87  C   UNL A   1      49.777  20.268  34.514  1.00  0.00     0.022 A 
BRANCH  84  88
ATOM     88  S   UNL A   1      51.364  22.560  34.606  1.00  0.00     0.124 S 
ATOM     89  O   UNL A   1      52.292  21.477  34.910  1.00  0.00    -0.237 OA
ATOM     90  O   UNL A   1      51.559  23.214  33.317  1.00  0.00    -0.237 OA
ATOM     91  O   UNL A   1      51.063  23.471  35.708  1.00  0.00    -0.744 OA
ENDBRANCH  84  88
ENDBRANCH  57  81
BRANCH  69  92
ATOM     92  C   UNL A   1      45.432  27.646  38.560  1.00  0.00     0.023 A 
ATOM     93  C   UNL A   1      45.131  27.557  39.917  1.00  0.00     0.031 A 
ATOM     94  C   UNL A   1      46.300  28.705  38.184  1.00  0.00     0.131 A 
ATOM     95  C   UNL A   1      45.578  28.525  40.818  1.00  0.00     0.055 A 
ATOM     96  C   UNL A   1      46.838  29.605  39.106  1.00  0.00     0.041 A 
ATOM     97  F   UNL A   1      46.692  28.901  36.918  1.00  0.00    -0.206 F 
ATOM     98  C   UNL A   1      46.459  29.531  40.436  1.00  0.00     0.022 A 
BRANCH  95  99
ATOM     99  S   UNL A   1      44.862  28.469  42.470  1.00  0.00     0.124 S 
ATOM    100  O   UNL A   1      46.057  28.539  43.307  1.00  0.00    -0.237 OA
ATOM    101  O   UNL A   1      44.011  29.655  42.485  1.00  0.00    -0.237 OA
ATOM    102  O   UNL A   1      44.156  27.191  42.494  1.00  0.00    -0.744 OA
ENDBRANCH  95  99
ENDBRANCH  69  92
ENDBRANCH  43  44
ENDBRANCH  36  38
ENDBRANCH  35  36
ENDBRANCH  34  35
ENDBRANCH  33  34
ENDBRANCH  32  33
ENDBRANCH  31  32
ENDBRANCH  30  31
ENDBRANCH   1  30
TORSDOF 26
ENDMDL
MODEL 3
REMARK VINA RESULT:      -8.7      4.195      5.424
REMARK SMILES Cc1cc(C(=O)OCCOCCOCCOCCOC(=O)c2ccc(-c3c4nc(c(-c5cc(S(=O)(=O)[O-])ccc5F)c5ccc([nH]5)c(-c5cc(S(=O)(=O)[O-])ccc5F)c5nc(c(-c6cc(S(=O)(=O)[O-])ccc6F)c6ccc3[nH]6)C=C5)C=C4)cc2)ccc1NS(=O)(=O)c1c(F)cccc1F
REMARK SMILES IDX 13 1 12 2 11 3 10 4 9 5 8 6 7 7 5 8 6 9 4 10 1 11 2 12 3 13
REMARK SMILES IDX 87 14 86 15 85 16 88 17 89 19 90 20 91 21 92 22 93 23 98 24
REMARK SMILES IDX 94 25 95 26 97 27 99 28 96 29 14 30 15 31 16 32 17 33 18 34
REMARK SMILES IDX 19 35 20 36 21 37 22 38 23 39 84 40 24 41 83 42 25 43 26 44
REMARK SMILES IDX 27 45 77 46 28 47 82 48 76 49 78 50 29 51 81 52 75 53 74 54
REMARK SMILES IDX 30 56 62 57 42 58 61 59 43 60 46 61 60 62 79 63 44 64 45 65
REMARK SMILES IDX 59 67 80 68 47 69 31 70 32 71 40 72 33 73 39 74 41 75 38 76
REMARK SMILES IDX 34 77 35 78 36 79 37 80 63 81 64 82 72 83 65 84 71 85 73 86
REMARK SMILES IDX 70 87 66 88 67 89 68 90 69 91 48 92 49 93 57 94 50 95 56 96
REMARK SMILES IDX 58 97 55 98 51 99 52 100 53 101 54 102
REMARK H PARENT 88 18 78 55 46 66
REMARK Flexibility Score: inf
ROOT
ATOM      1  O   UNL A   1      39.320  19.408  25.749  1.00  0.00    -0.377 OA
ENDROOT
BRANCH   1   2
ATOM      2  C   UNL A   1      38.170  19.692  24.980  1.00  0.00     0.188 C 
BRANCH   2   3
ATOM      3  C   UNL A   1      37.701  21.153  24.924  1.00  0.00     0.188 C 
BRANCH   3   4
ATOM      4  O   UNL A   1      36.368  21.447  24.536  1.00  0.00    -0.376 OA
BRANCH   4   5
ATOM      5  C   UNL A   1      35.366  20.937  25.407  1.00  0.00     0.202 C 
BRANCH   5   6
ATOM      6  C   UNL A   1      34.053  20.496  24.787  1.00  0.00     0.261 C 
BRANCH   6   7
ATOM      7  O   UNL A   1      33.325  21.608  24.276  1.00  0.00    -0.460 OA
BRANCH   7   8
ATOM      8  C   UNL A   1      32.044  21.644  24.658  1.00  0.00     0.338 C 
ATOM      9  O   UNL A   1      31.476  20.911  25.476  1.00  0.00    -0.246 OA
BRANCH   8  10
ATOM     10  C   UNL A   1      31.547  22.965  24.303  1.00  0.00     0.060 A 
ATOM     11  C   UNL A   1      31.114  25.993  26.467  1.00  0.00     0.046 C 
ATOM     12  C   UNL A   1      31.180  25.183  25.206  1.00  0.00    -0.026 A 
ATOM     13  C   UNL A   1      31.346  23.812  25.389  1.00  0.00     0.021 A 
ATOM     14  C   UNL A   1      31.176  25.703  23.897  1.00  0.00     0.052 A 
ATOM     15  C   UNL A   1      31.250  24.816  22.809  1.00  0.00     0.028 A 
ATOM     16  C   UNL A   1      31.486  23.453  23.003  1.00  0.00     0.018 A 
BRANCH  14  17
ATOM     17  N   UNL A   1      31.317  27.113  23.736  1.00  0.00    -0.279 N 
ATOM     18  H   UNL A   1      30.493  27.616  23.544  1.00  0.00     0.180 HD
BRANCH  17  19
ATOM     19  S   UNL A   1      32.721  28.003  23.837  1.00  0.00     0.267 S 
ATOM     20  O   UNL A   1      33.806  27.051  23.950  1.00  0.00    -0.201 OA
ATOM     21  O   UNL A   1      32.666  28.925  22.718  1.00  0.00    -0.201 OA
BRANCH  19  22
ATOM     22  C   UNL A   1      32.691  28.976  25.289  1.00  0.00     0.158 A 
ATOM     23  C   UNL A   1      31.722  29.969  25.376  1.00  0.00     0.146 A 
ATOM     24  C   UNL A   1      33.673  28.896  26.266  1.00  0.00     0.146 A 
ATOM     25  F   UNL A   1      30.703  30.020  24.506  1.00  0.00    -0.205 F 
ATOM     26  C   UNL A   1      31.782  30.940  26.372  1.00  0.00     0.041 A 
ATOM     27  C   UNL A   1      33.760  29.878  27.253  1.00  0.00     0.041 A 
ATOM     28  F   UNL A   1      34.585  27.915  26.258  1.00  0.00    -0.205 F 
ATOM     29  C   UNL A   1      32.826  30.915  27.295  1.00  0.00     0.006 A 
ENDBRANCH  19  22
ENDBRANCH  17  19
ENDBRANCH  14  17
ENDBRANCH   8  10
ENDBRANCH   7   8
ENDBRANCH   6   7
ENDBRANCH   5   6
ENDBRANCH   4   5
ENDBRANCH   3   4
ENDBRANCH   2   3
ENDBRANCH   1   2
BRANCH   1  30
ATOM     30  C   UNL A   1      40.134  20.493  26.196  1.00  0.00     0.188 C 
BRANCH  30  31
ATOM     31  C   UNL A   1      41.170  20.298  27.293  1.00  0.00     0.188 C 
BRANCH  31  32
ATOM     32  O   UNL A   1      41.390  21.556  27.940  1.00  0.00    -0.376 OA
BRANCH  32  33
ATOM     33  C   UNL A   1      40.611  22.631  27.434  1.00  0.00     0.202 C 
BRANCH  33  34
ATOM     34  C   UNL A   1      41.038  24.003  27.972  1.00  0.00     0.261 C 
BRANCH  34  35
ATOM     35  O   UNL A   1      42.434  23.973  28.336  1.00  0.00    -0.460 OA
BRANCH  35  36
ATOM     36  C   UNL A   1      43.291  24.472  27.401  1.00  0.00     0.338 C 
ATOM     37  O   UNL A   1      43.610  23.903  26.370  1.00  0.00    -0.246 OA
BRANCH  36  38
ATOM     38  C   UNL A   1      43.887  25.749  27.887  1.00  0.00     0.060 A 
ATOM     39  C   UNL A   1      44.009  26.019  29.261  1.00  0.00     0.016 A 
ATOM     40  C   UNL A   1      44.080  26.775  26.976  1.00  0.00     0.016 A 
ATOM     41  C   UNL A   1      44.125  27.349  29.714  1.00  0.00     0.010 A 
ATOM     42  C   UNL A   1      44.111  28.073  27.434  1.00  0.00     0.010 A 
ATOM     43  C   UNL A   1      44.065  28.397  28.798  1.00  0.00    -0.014 A 
BRANCH  43  44
ATOM     44  C   UNL A   1      43.767  29.817  29.112  1.00  0.00     0.031 A 
ATOM     45  C   UNL A   1      42.331  30.261  29.227  1.00  0.00     0.074 A 
ATOM     46  C   UNL A   1      44.759  30.563  29.674  1.00  0.00     0.049 A 
ATOM     47  N   UNL A   1      41.938  31.435  29.586  1.00  0.00    -0.248 NA
ATOM     48  C   UNL A   1      41.181  29.386  28.987  1.00  0.00     0.031 C 
ATOM     49  C   UNL A   1      44.627  31.714  30.574  1.00  0.00     0.029 A 
ATOM     50  N   UNL A   1      46.134  30.416  29.646  1.00  0.00    -0.354 N 
ATOM     51  C   UNL A   1      40.619  31.361  30.014  1.00  0.00     0.074 A 
ATOM     52  C   UNL A   1      40.167  30.093  29.504  1.00  0.00     0.031 C 
ATOM     53  C   UNL A   1      45.827  32.214  30.917  1.00  0.00     0.029 A 
ATOM     54  C   UNL A   1      46.776  31.597  30.027  1.00  0.00     0.049 A 
ATOM     55  H   UNL A   1      46.598  29.587  29.391  1.00  0.00     0.167 HD
ATOM     56  C   UNL A   1      40.138  32.320  30.873  1.00  0.00     0.034 A 
ATOM     57  C   UNL A   1      47.500  32.319  29.118  1.00  0.00     0.034 A 
ATOM     58  C   UNL A   1      41.123  33.409  31.054  1.00  0.00     0.049 A 
ATOM     59  C   UNL A   1      46.665  33.556  28.725  1.00  0.00     0.074 A 
ATOM     60  C   UNL A   1      41.685  34.057  32.140  1.00  0.00     0.029 A 
ATOM     61  N   UNL A   1      41.816  33.889  29.943  1.00  0.00    -0.354 N 
ATOM     62  N   UNL A   1      45.347  33.587  28.779  1.00  0.00    -0.248 NA
ATOM     63  C   UNL A   1      47.225  34.898  28.551  1.00  0.00     0.031 C 
ATOM     64  C   UNL A   1      42.844  34.757  31.683  1.00  0.00     0.029 A 
ATOM     65  C   UNL A   1      42.924  34.622  30.303  1.00  0.00     0.049 A 
ATOM     66  H   UNL A   1      41.546  33.722  29.011  1.00  0.00     0.167 HD
ATOM     67  C   UNL A   1      44.917  34.886  28.872  1.00  0.00     0.074 A 
ATOM     68  C   UNL A   1      46.124  35.670  28.639  1.00  0.00     0.031 C 
ATOM     69  C   UNL A   1      43.680  35.320  29.279  1.00  0.00     0.034 A 
BRANCH  56  70
ATOM     70  C   UNL A   1      38.862  32.245  31.734  1.00  0.00     0.023 A 
ATOM     71  C   UNL A   1      37.611  32.588  31.154  1.00  0.00     0.031 A 
ATOM     72  C   UNL A   1      38.795  31.951  33.114  1.00  0.00     0.131 A 
ATOM     73  C   UNL A   1      36.416  32.652  31.909  1.00  0.00     0.055 A 
ATOM     74  C   UNL A   1      37.596  31.954  33.853  1.00  0.00     0.041 A 
ATOM     75  F   UNL A   1      39.884  31.687  33.843  1.00  0.00    -0.206 F 
ATOM     76  C   UNL A   1      36.400  32.313  33.256  1.00  0.00     0.022 A 
BRANCH  73  77
ATOM     77  S   UNL A   1      34.870  33.195  31.117  1.00  0.00     0.124 S 
ATOM     78  O   UNL A   1      35.222  34.521  30.619  1.00  0.00    -0.237 OA
ATOM     79  O   UNL A   1      34.650  32.163  30.111  1.00  0.00    -0.237 OA
ATOM     80  O   UNL A   1      33.904  33.190  32.218  1.00  0.00    -0.744 OA
ENDBRANCH  73  77
ENDBRANCH  56  70
BRANCH  57  81
ATOM     81  C   UNL A   1      48.404  31.382  28.361  1.00  0.00     0.023 A 
ATOM     82  C   UNL A   1      49.383  30.746  29.180  1.00  0.00     0.031 A 
ATOM     83  C   UNL A   1      47.936  30.655  27.256  1.00  0.00     0.131 A 
ATOM     84  C   UNL A   1      49.643  29.367  29.053  1.00  0.00     0.055 A 
ATOM     85  C   UNL A   1      48.242  29.287  27.104  1.00  0.00     0.041 A 
ATOM     86  F   UNL A   1      47.003  31.173  26.443  1.00  0.00    -0.206 F 
ATOM     87  C   UNL A   1      49.034  28.623  28.044  1.00  0.00     0.022 A 
BRANCH  84  88
ATOM     88  S   UNL A   1      50.541  28.497  30.388  1.00  0.00     0.124 S 
ATOM     89  O   UNL A   1      51.929  28.799  30.061  1.00  0.00    -0.237 OA
ATOM     90  O   UNL A   1      50.024  29.132  31.595  1.00  0.00    -0.237 OA
ATOM     91  O   UNL A   1      50.131  27.106  30.213  1.00  0.00    -0.744 OA
ENDBRANCH  84  88
ENDBRANCH  57  81
BRANCH  69  92
ATOM     92  C   UNL A   1      43.019  36.528  28.661  1.00  0.00     0.023 A 
ATOM     93  C   UNL A   1      43.205  37.795  29.209  1.00  0.00     0.031 A 
ATOM     94  C   UNL A   1      42.347  36.484  27.411  1.00  0.00     0.131 A 
ATOM     95  C   UNL A   1      42.659  38.928  28.604  1.00  0.00     0.055 A 
ATOM     96  C   UNL A   1      41.903  37.631  26.750  1.00  0.00     0.041 A 
ATOM     97  F   UNL A   1      42.117  35.337  26.756  1.00  0.00    -0.206 F 
ATOM     98  C   UNL A   1      42.040  38.867  27.360  1.00  0.00     0.022 A 
BRANCH  95  99
ATOM     99  S   UNL A   1      42.699  40.446  29.571  1.00  0.00     0.124 S 
ATOM    100  O   UNL A   1      43.136  39.950  30.874  1.00  0.00    -0.237 OA
ATOM    101  O   UNL A   1      43.673  41.256  28.846  1.00  0.00    -0.237 OA
ATOM    102  O   UNL A   1      41.321  40.924  29.514  1.00  0.00    -0.744 OA
ENDBRANCH  95  99
ENDBRANCH  69  92
ENDBRANCH  43  44
ENDBRANCH  36  38
ENDBRANCH  35  36
ENDBRANCH  34  35
ENDBRANCH  33  34
ENDBRANCH  32  33
ENDBRANCH  31  32
ENDBRANCH  30  31
ENDBRANCH   1  30
TORSDOF 26
ENDMDL
