MODEL 1
REMARK VINA RESULT:     -10.7      0.000      0.000
REMARK SMILES O=C(OCCOCCOCCOCCOC(=O)c1ccc(CN2CC(=O)N3CCCC[C@@H]3C2=O)o1)c1ccc(-c2c3nc(c(-c4cc(S(=O)(=O)[O-])ccc4F)c4ccc([nH]4)c(-c4cc(S(=O)(=O)[O-])ccc4F)c4nc(c(-c5cc(S(=O)(=O)[O-])ccc5F)c5ccc2[nH]5)C=C4)C=C3)cc1
REMARK SMILES IDX 8 1 7 2 6 3 5 4 4 5 3 6 2 7 1 8 36 9 37 10 98 11 38 12 97 13
REMARK SMILES IDX 39 14 40 15 41 16 91 17 42 18 96 19 90 20 92 21 43 22 95 23
REMARK SMILES IDX 89 24 88 25 44 27 76 28 56 29 75 30 57 31 60 32 74 33 93 34
REMARK SMILES IDX 58 35 59 36 73 38 94 39 61 40 45 41 46 42 54 43 47 44 53 45
REMARK SMILES IDX 55 46 52 47 48 48 49 49 50 50 51 51 77 52 78 53 86 54 79 55
REMARK SMILES IDX 85 56 87 57 84 58 80 59 81 60 82 61 83 62 62 63 63 64 71 65
REMARK SMILES IDX 64 66 70 67 72 68 69 69 65 70 66 71 67 72 68 73 9 74 10 75
REMARK SMILES IDX 11 76 12 77 13 78 14 79 15 80 16 81 17 82 18 83 19 84 35 85
REMARK SMILES IDX 20 86 21 87 22 88 23 89 24 90 33 91 25 92 32 93 34 94 26 95
REMARK SMILES IDX 27 96 31 97 28 98 30 99 29 100
REMARK H PARENT 92 26 60 37
REMARK Flexibility Score: inf
ROOT
ATOM      1  C   UNL A   1      33.061  28.838  25.953  1.00  0.00     0.188 C 
ENDROOT
BRANCH   1   2
ATOM      2  C   UNL A   1      31.787  29.532  26.437  1.00  0.00     0.188 C 
BRANCH   2   3
ATOM      3  O   UNL A   1      31.679  30.834  25.840  1.00  0.00    -0.376 OA
BRANCH   3   4
ATOM      4  C   UNL A   1      31.425  31.862  26.801  1.00  0.00     0.202 C 
BRANCH   4   5
ATOM      5  C   UNL A   1      32.726  32.525  27.268  1.00  0.00     0.261 C 
BRANCH   5   6
ATOM      6  O   UNL A   1      32.461  33.895  27.638  1.00  0.00    -0.460 OA
BRANCH   6   7
ATOM      7  C   UNL A   1      33.085  34.606  28.610  1.00  0.00     0.338 C 
ATOM      8  O   UNL A   1      32.585  35.645  29.034  1.00  0.00    -0.246 OA
BRANCH   7   9
ATOM      9  C   UNL A   1      34.277  34.058  29.298  1.00  0.00     0.060 A 
ATOM     10  C   UNL A   1      35.589  34.374  28.937  1.00  0.00     0.016 A 
ATOM     11  C   UNL A   1      34.047  33.244  30.414  1.00  0.00     0.016 A 
ATOM     12  C   UNL A   1      36.661  33.766  29.595  1.00  0.00     0.010 A 
ATOM     13  C   UNL A   1      35.121  32.683  31.110  1.00  0.00     0.010 A 
ATOM     14  C   UNL A   1      36.435  32.900  30.674  1.00  0.00    -0.014 A 
BRANCH  14  15
ATOM     15  C   UNL A   1      37.556  32.143  31.288  1.00  0.00     0.031 A 
ATOM     16  C   UNL A   1      37.979  32.465  32.696  1.00  0.00     0.074 A 
ATOM     17  C   UNL A   1      38.184  31.166  30.608  1.00  0.00     0.049 A 
ATOM     18  N   UNL A   1      38.983  31.997  33.393  1.00  0.00    -0.248 NA
ATOM     19  C   UNL A   1      37.163  33.460  33.408  1.00  0.00     0.031 C 
ATOM     20  C   UNL A   1      37.860  30.736  29.248  1.00  0.00     0.029 A 
ATOM     21  N   UNL A   1      39.228  30.356  30.976  1.00  0.00    -0.354 N 
ATOM     22  C   UNL A   1      38.928  32.649  34.621  1.00  0.00     0.074 A 
ATOM     23  C   UNL A   1      37.814  33.572  34.554  1.00  0.00     0.031 C 
ATOM     24  C   UNL A   1      38.679  29.728  28.902  1.00  0.00     0.029 A 
ATOM     25  C   UNL A   1      39.607  29.469  30.000  1.00  0.00     0.049 A 
ATOM     26  H   UNL A   1      39.664  30.407  31.857  1.00  0.00     0.167 HD
ATOM     27  C   UNL A   1      39.722  32.491  35.709  1.00  0.00     0.034 A 
ATOM     28  C   UNL A   1      40.603  28.562  29.985  1.00  0.00     0.034 A 
ATOM     29  C   UNL A   1      40.834  31.577  35.773  1.00  0.00     0.049 A 
ATOM     30  C   UNL A   1      41.505  28.434  31.182  1.00  0.00     0.074 A 
ATOM     31  C   UNL A   1      41.727  31.362  36.810  1.00  0.00     0.029 A 
ATOM     32  N   UNL A   1      41.204  30.717  34.748  1.00  0.00    -0.354 N 
ATOM     33  N   UNL A   1      41.480  29.104  32.309  1.00  0.00    -0.248 NA
ATOM     34  C   UNL A   1      42.579  27.435  31.093  1.00  0.00     0.031 C 
ATOM     35  C   UNL A   1      42.653  30.393  36.401  1.00  0.00     0.029 A 
ATOM     36  C   UNL A   1      42.315  29.977  35.122  1.00  0.00     0.049 A 
ATOM     37  H   UNL A   1      40.745  30.643  33.881  1.00  0.00     0.167 HD
ATOM     38  C   UNL A   1      42.538  28.609  33.065  1.00  0.00     0.074 A 
ATOM     39  C   UNL A   1      43.173  27.576  32.271  1.00  0.00     0.031 C 
ATOM     40  C   UNL A   1      42.948  28.974  34.304  1.00  0.00     0.034 A 
BRANCH  27  41
ATOM     41  C   UNL A   1      39.420  33.374  36.891  1.00  0.00     0.023 A 
ATOM     42  C   UNL A   1      40.101  34.590  37.083  1.00  0.00     0.031 A 
ATOM     43  C   UNL A   1      38.520  32.953  37.883  1.00  0.00     0.131 A 
ATOM     44  C   UNL A   1      39.934  35.300  38.281  1.00  0.00     0.055 A 
ATOM     45  C   UNL A   1      38.307  33.701  39.043  1.00  0.00     0.041 A 
ATOM     46  F   UNL A   1      37.863  31.789  37.760  1.00  0.00    -0.206 F 
ATOM     47  C   UNL A   1      39.029  34.872  39.256  1.00  0.00     0.022 A 
BRANCH  44  48
ATOM     48  S   UNL A   1      41.045  36.694  38.621  1.00  0.00     0.124 S 
ATOM     49  O   UNL A   1      41.734  36.849  37.343  1.00  0.00    -0.237 OA
ATOM     50  O   UNL A   1      40.113  37.757  38.979  1.00  0.00    -0.237 OA
ATOM     51  O   UNL A   1      41.884  36.203  39.713  1.00  0.00    -0.744 OA
ENDBRANCH  44  48
ENDBRANCH  27  41
BRANCH  28  52
ATOM     52  C   UNL A   1      40.833  27.732  28.776  1.00  0.00     0.023 A 
ATOM     53  C   UNL A   1      41.871  28.031  27.883  1.00  0.00     0.031 A 
ATOM     54  C   UNL A   1      40.000  26.636  28.495  1.00  0.00     0.131 A 
ATOM     55  C   UNL A   1      42.040  27.249  26.731  1.00  0.00     0.055 A 
ATOM     56  C   UNL A   1      40.185  25.848  27.359  1.00  0.00     0.041 A 
ATOM     57  F   UNL A   1      38.999  26.314  29.330  1.00  0.00    -0.206 F 
ATOM     58  C   UNL A   1      41.208  26.156  26.466  1.00  0.00     0.022 A 
BRANCH  55  59
ATOM     59  S   UNL A   1      43.356  27.691  25.564  1.00  0.00     0.124 S 
ATOM     60  O   UNL A   1      44.235  26.530  25.652  1.00  0.00    -0.237 OA
ATOM     61  O   UNL A   1      42.618  27.844  24.315  1.00  0.00    -0.237 OA
ATOM     62  O   UNL A   1      43.900  28.929  26.118  1.00  0.00    -0.744 OA
ENDBRANCH  55  59
ENDBRANCH  28  52
BRANCH  40  63
ATOM     63  C   UNL A   1      44.130  28.237  34.864  1.00  0.00     0.023 A 
ATOM     64  C   UNL A   1      43.968  27.039  35.580  1.00  0.00     0.031 A 
ATOM     65  C   UNL A   1      45.428  28.748  34.695  1.00  0.00     0.131 A 
ATOM     66  C   UNL A   1      45.090  26.404  36.133  1.00  0.00     0.055 A 
ATOM     67  C   UNL A   1      46.542  28.098  35.225  1.00  0.00     0.041 A 
ATOM     68  F   UNL A   1      45.627  29.892  34.020  1.00  0.00    -0.206 F 
ATOM     69  C   UNL A   1      46.376  26.923  35.954  1.00  0.00     0.022 A 
BRANCH  66  70
ATOM     70  S   UNL A   1      44.844  24.907  37.127  1.00  0.00     0.124 S 
ATOM     71  O   UNL A   1      44.456  25.460  38.421  1.00  0.00    -0.237 OA
ATOM     72  O   UNL A   1      43.795  24.209  36.390  1.00  0.00    -0.237 OA
ATOM     73  O   UNL A   1      46.154  24.258  37.098  1.00  0.00    -0.744 OA
ENDBRANCH  66  70
ENDBRANCH  40  63
ENDBRANCH  14  15
ENDBRANCH   7   9
ENDBRANCH   6   7
ENDBRANCH   5   6
ENDBRANCH   4   5
ENDBRANCH   3   4
ENDBRANCH   2   3
ENDBRANCH   1   2
BRANCH   1  74
ATOM     74  O   UNL A   1      32.960  28.390  24.600  1.00  0.00    -0.377 OA
BRANCH  74  75
ATOM     75  C   UNL A   1      33.211  26.997  24.390  1.00  0.00     0.188 C 
BRANCH  75  76
ATOM     76  C   UNL A   1      33.725  26.235  25.616  1.00  0.00     0.188 C 
BRANCH  76  77
ATOM     77  O   UNL A   1      33.832  24.833  25.351  1.00  0.00    -0.376 OA
BRANCH  77  78
ATOM     78  C   UNL A   1      35.164  24.343  25.186  1.00  0.00     0.202 C 
BRANCH  78  79
ATOM     79  C   UNL A   1      35.337  23.703  23.800  1.00  0.00     0.261 C 
BRANCH  79  80
ATOM     80  O   UNL A   1      36.375  22.706  23.776  1.00  0.00    -0.457 OA
BRANCH  80  81
ATOM     81  C   UNL A   1      36.110  21.570  24.481  1.00  0.00     0.374 C 
ATOM     82  O   UNL A   1      34.993  21.102  24.659  1.00  0.00    -0.242 OA
BRANCH  81  83
ATOM     83  C   UNL A   1      37.357  20.936  24.822  1.00  0.00     0.211 A 
ATOM     84  C   UNL A   1      37.799  19.626  24.804  1.00  0.00     0.058 A 
ATOM     85  O   UNL A   1      38.295  21.716  25.429  1.00  0.00    -0.452 OA
ATOM     86  C   UNL A   1      39.051  19.609  25.476  1.00  0.00     0.048 A 
ATOM     87  C   UNL A   1      39.285  20.902  25.897  1.00  0.00     0.124 A 
BRANCH  87  88
ATOM     88  C   UNL A   1      40.304  21.530  26.793  1.00  0.00     0.195 C 
BRANCH  88  89
ATOM     89  N   UNL A   1      41.611  20.959  26.514  1.00  0.00    -0.324 N 
ATOM     90  C   UNL A   1      41.818  19.544  26.730  1.00  0.00     0.220 C 
ATOM     91  C   UNL A   1      42.695  21.797  26.283  1.00  0.00     0.246 C 
ATOM     92  C   UNL A   1      42.913  18.889  25.896  1.00  0.00     0.242 C 
ATOM     93  C   UNL A   1      43.783  21.156  25.390  1.00  0.00     0.174 C 
ATOM     94  O   UNL A   1      42.650  23.006  26.515  1.00  0.00    -0.272 OA
ATOM     95  O   UNL A   1      42.925  17.667  25.737  1.00  0.00    -0.273 OA
ATOM     96  N   UNL A   1      43.990  19.709  25.574  1.00  0.00    -0.329 N 
ATOM     97  C   UNL A   1      45.095  21.939  25.539  1.00  0.00     0.035 C 
ATOM     98  C   UNL A   1      45.097  19.106  24.839  1.00  0.00     0.120 C 
ATOM     99  C   UNL A   1      46.205  21.351  24.675  1.00  0.00     0.004 C 
ATOM    100  C   UNL A   1      46.399  19.876  24.999  1.00  0.00     0.022 C 
ENDBRANCH  88  89
ENDBRANCH  87  88
ENDBRANCH  81  83
ENDBRANCH  80  81
ENDBRANCH  79  80
ENDBRANCH  78  79
ENDBRANCH  77  78
ENDBRANCH  76  77
ENDBRANCH  75  76
ENDBRANCH  74  75
ENDBRANCH   1  74
TORSDOF 25
ENDMDL
MODEL 2
REMARK VINA RESULT:     -10.5      3.137      8.883
REMARK SMILES O=C(OCCOCCOCCOCCOC(=O)c1ccc(CN2CC(=O)N3CCCC[C@@H]3C2=O)o1)c1ccc(-c2c3nc(c(-c4cc(S(=O)(=O)[O-])ccc4F)c4ccc([nH]4)c(-c4cc(S(=O)(=O)[O-])ccc4F)c4nc(c(-c5cc(S(=O)(=O)[O-])ccc5F)c5ccc2[nH]5)C=C4)C=C3)cc1
REMARK SMILES IDX 8 1 7 2 6 3 5 4 4 5 3 6 2 7 1 8 36 9 37 10 98 11 38 12 97 13
REMARK SMILES IDX 39 14 40 15 41 16 91 17 42 18 96 19 90 20 92 21 43 22 95 23
REMARK SMILES IDX 89 24 88 25 44 27 76 28 56 29 75 30 57 31 60 32 74 33 93 34
REMARK SMILES IDX 58 35 59 36 73 38 94 39 61 40 45 41 46 42 54 43 47 44 53 45
REMARK SMILES IDX 55 46 52 47 48 48 49 49 50 50 51 51 77 52 78 53 86 54 79 55
REMARK SMILES IDX 85 56 87 57 84 58 80 59 81 60 82 61 83 62 62 63 63 64 71 65
REMARK SMILES IDX 64 66 70 67 72 68 69 69 65 70 66 71 67 72 68 73 9 74 10 75
REMARK SMILES IDX 11 76 12 77 13 78 14 79 15 80 16 81 17 82 18 83 19 84 35 85
REMARK SMILES IDX 20 86 21 87 22 88 23 89 24 90 33 91 25 92 32 93 34 94 26 95
REMARK SMILES IDX 27 96 31 97 28 98 30 99 29 100
REMARK H PARENT 92 26 60 37
REMARK Flexibility Score: inf
ROOT
ATOM      1  C   UNL A   1      34.004  28.286  26.412  1.00  0.00     0.188 C 
ENDROOT
BRANCH   1   2
ATOM      2  C   UNL A   1      32.625  28.850  26.760  1.00  0.00     0.188 C 
BRANCH   2   3
ATOM      3  O   UNL A   1      32.317  29.960  25.903  1.00  0.00    -0.376 OA
BRANCH   3   4
ATOM      4  C   UNL A   1      31.836  31.097  26.625  1.00  0.00     0.202 C 
BRANCH   4   5
ATOM      5  C   UNL A   1      32.988  31.903  27.233  1.00  0.00     0.261 C 
BRANCH   5   6
ATOM      6  O   UNL A   1      32.564  33.267  27.441  1.00  0.00    -0.460 OA
BRANCH   6   7
ATOM      7  C   UNL A   1      33.108  34.161  28.304  1.00  0.00     0.338 C 
ATOM      8  O   UNL A   1      32.525  35.213  28.554  1.00  0.00    -0.246 OA
BRANCH   7   9
ATOM      9  C   UNL A   1      34.314  33.812  29.091  1.00  0.00     0.060 A 
ATOM     10  C   UNL A   1      35.602  34.238  28.757  1.00  0.00     0.016 A 
ATOM     11  C   UNL A   1      34.113  33.083  30.270  1.00  0.00     0.016 A 
ATOM     12  C   UNL A   1      36.697  33.814  29.515  1.00  0.00     0.010 A 
ATOM     13  C   UNL A   1      35.203  32.709  31.061  1.00  0.00     0.010 A 
ATOM     14  C   UNL A   1      36.508  33.029  30.661  1.00  0.00    -0.014 A 
BRANCH  14  15
ATOM     15  C   UNL A   1      37.669  32.459  31.392  1.00  0.00     0.031 A 
ATOM     16  C   UNL A   1      38.426  31.307  30.788  1.00  0.00     0.074 A 
ATOM     17  C   UNL A   1      38.058  32.970  32.574  1.00  0.00     0.049 A 
ATOM     18  N   UNL A   1      39.407  30.600  31.289  1.00  0.00    -0.248 NA
ATOM     19  C   UNL A   1      38.009  30.891  29.441  1.00  0.00     0.031 C 
ATOM     20  C   UNL A   1      37.429  34.099  33.259  1.00  0.00     0.029 A 
ATOM     21  N   UNL A   1      39.084  32.600  33.407  1.00  0.00    -0.354 N 
ATOM     22  C   UNL A   1      39.717  29.647  30.325  1.00  0.00     0.074 A 
ATOM     23  C   UNL A   1      38.792  29.845  29.228  1.00  0.00     0.031 C 
ATOM     24  C   UNL A   1      38.095  34.342  34.402  1.00  0.00     0.029 A 
ATOM     25  C   UNL A   1      39.169  33.363  34.546  1.00  0.00     0.049 A 
ATOM     26  H   UNL A   1      39.700  31.859  33.207  1.00  0.00     0.167 HD
ATOM     27  C   UNL A   1      40.687  28.698  30.341  1.00  0.00     0.034 A 
ATOM     28  C   UNL A   1      40.007  33.270  35.595  1.00  0.00     0.034 A 
ATOM     29  C   UNL A   1      41.603  28.497  31.435  1.00  0.00     0.049 A 
ATOM     30  C   UNL A   1      41.045  32.182  35.620  1.00  0.00     0.074 A 
ATOM     31  C   UNL A   1      42.599  27.545  31.573  1.00  0.00     0.029 A 
ATOM     32  N   UNL A   1      41.635  29.272  32.586  1.00  0.00    -0.354 N 
ATOM     33  N   UNL A   1      41.283  31.248  34.730  1.00  0.00    -0.248 NA
ATOM     34  C   UNL A   1      41.917  32.130  36.802  1.00  0.00     0.031 C 
ATOM     35  C   UNL A   1      43.214  27.727  32.819  1.00  0.00     0.029 A 
ATOM     36  C   UNL A   1      42.625  28.817  33.442  1.00  0.00     0.049 A 
ATOM     37  H   UNL A   1      41.041  30.036  32.768  1.00  0.00     0.167 HD
ATOM     38  C   UNL A   1      42.331  30.494  35.247  1.00  0.00     0.074 A 
ATOM     39  C   UNL A   1      42.689  31.089  36.519  1.00  0.00     0.031 C 
ATOM     40  C   UNL A   1      42.945  29.407  34.717  1.00  0.00     0.034 A 
BRANCH  27  41
ATOM     41  C   UNL A   1      40.753  27.789  29.143  1.00  0.00     0.023 A 
ATOM     42  C   UNL A   1      41.681  28.013  28.110  1.00  0.00     0.031 A 
ATOM     43  C   UNL A   1      39.819  26.752  28.983  1.00  0.00     0.131 A 
ATOM     44  C   UNL A   1      41.599  27.267  26.925  1.00  0.00     0.055 A 
ATOM     45  C   UNL A   1      39.787  25.966  27.829  1.00  0.00     0.041 A 
ATOM     46  F   UNL A   1      38.897  26.512  29.928  1.00  0.00    -0.206 F 
ATOM     47  C   UNL A   1      40.668  26.234  26.784  1.00  0.00     0.022 A 
BRANCH  44  48
ATOM     48  S   UNL A   1      42.607  27.781  25.507  1.00  0.00     0.124 S 
ATOM     49  O   UNL A   1      43.895  28.060  26.139  1.00  0.00    -0.237 OA
ATOM     50  O   UNL A   1      42.559  26.605  24.646  1.00  0.00    -0.237 OA
ATOM     51  O   UNL A   1      41.908  28.959  24.999  1.00  0.00    -0.744 OA
ENDBRANCH  44  48
ENDBRANCH  27  41
BRANCH  28  52
ATOM     52  C   UNL A   1      39.872  34.208  36.738  1.00  0.00     0.023 A 
ATOM     53  C   UNL A   1      39.301  33.791  37.949  1.00  0.00     0.031 A 
ATOM     54  C   UNL A   1      40.299  35.541  36.621  1.00  0.00     0.131 A 
ATOM     55  C   UNL A   1      39.155  34.711  38.998  1.00  0.00     0.055 A 
ATOM     56  C   UNL A   1      40.172  36.446  37.675  1.00  0.00     0.041 A 
ATOM     57  F   UNL A   1      40.858  35.975  35.480  1.00  0.00    -0.206 F 
ATOM     58  C   UNL A   1      39.592  36.034  38.871  1.00  0.00     0.022 A 
BRANCH  55  59
ATOM     59  S   UNL A   1      38.363  34.161  40.534  1.00  0.00     0.124 S 
ATOM     60  O   UNL A   1      37.236  33.385  40.029  1.00  0.00    -0.237 OA
ATOM     61  O   UNL A   1      39.432  33.399  41.171  1.00  0.00    -0.237 OA
ATOM     62  O   UNL A   1      38.011  35.411  41.204  1.00  0.00    -0.744 OA
ENDBRANCH  55  59
ENDBRANCH  28  52
BRANCH  40  63
ATOM     63  C   UNL A   1      44.067  28.813  35.519  1.00  0.00     0.023 A 
ATOM     64  C   UNL A   1      43.813  27.911  36.566  1.00  0.00     0.031 A 
ATOM     65  C   UNL A   1      45.398  29.167  35.244  1.00  0.00     0.131 A 
ATOM     66  C   UNL A   1      44.882  27.415  37.327  1.00  0.00     0.055 A 
ATOM     67  C   UNL A   1      46.458  28.650  35.988  1.00  0.00     0.041 A 
ATOM     68  F   UNL A   1      45.683  30.028  34.254  1.00  0.00    -0.206 F 
ATOM     69  C   UNL A   1      46.202  27.774  37.041  1.00  0.00     0.022 A 
BRANCH  66  70
ATOM     70  S   UNL A   1      44.522  26.321  38.729  1.00  0.00     0.124 S 
ATOM     71  O   UNL A   1      44.790  27.191  39.871  1.00  0.00    -0.237 OA
ATOM     72  O   UNL A   1      43.121  25.976  38.506  1.00  0.00    -0.237 OA
ATOM     73  O   UNL A   1      45.465  25.218  38.554  1.00  0.00    -0.744 OA
ENDBRANCH  66  70
ENDBRANCH  40  63
ENDBRANCH  14  15
ENDBRANCH   7   9
ENDBRANCH   6   7
ENDBRANCH   5   6
ENDBRANCH   4   5
ENDBRANCH   3   4
ENDBRANCH   2   3
ENDBRANCH   1   2
BRANCH   1  74
ATOM     74  O   UNL A   1      33.929  27.166  25.527  1.00  0.00    -0.377 OA
BRANCH  74  75
ATOM     75  C   UNL A   1      33.246  26.018  26.041  1.00  0.00     0.188 C 
BRANCH  75  76
ATOM     76  C   UNL A   1      33.936  24.676  25.778  1.00  0.00     0.188 C 
BRANCH  76  77
ATOM     77  O   UNL A   1      35.176  24.856  25.086  1.00  0.00    -0.376 OA
BRANCH  77  78
ATOM     78  C   UNL A   1      36.272  24.089  25.591  1.00  0.00     0.202 C 
BRANCH  78  79
ATOM     79  C   UNL A   1      36.997  23.366  24.446  1.00  0.00     0.261 C 
BRANCH  79  80
ATOM     80  O   UNL A   1      36.331  22.154  24.047  1.00  0.00    -0.457 OA
BRANCH  80  81
ATOM     81  C   UNL A   1      35.956  21.331  25.067  1.00  0.00     0.374 C 
ATOM     82  O   UNL A   1      36.556  21.213  26.128  1.00  0.00    -0.242 OA
BRANCH  81  83
ATOM     83  C   UNL A   1      34.667  20.770  24.757  1.00  0.00     0.211 A 
ATOM     84  C   UNL A   1      34.117  19.508  24.891  1.00  0.00     0.058 A 
ATOM     85  O   UNL A   1      33.807  21.559  24.055  1.00  0.00    -0.452 OA
ATOM     86  C   UNL A   1      32.880  19.526  24.192  1.00  0.00     0.048 A 
ATOM     87  C   UNL A   1      32.760  20.786  23.643  1.00  0.00     0.124 A 
BRANCH  87  88
ATOM     88  C   UNL A   1      31.813  21.403  22.666  1.00  0.00     0.195 C 
BRANCH  88  89
ATOM     89  N   UNL A   1      31.887  22.851  22.767  1.00  0.00    -0.324 N 
ATOM     90  C   UNL A   1      32.931  23.550  22.049  1.00  0.00     0.220 C 
ATOM     91  C   UNL A   1      31.128  23.516  23.721  1.00  0.00     0.246 C 
ATOM     92  C   UNL A   1      32.637  24.999  21.676  1.00  0.00     0.242 C 
ATOM     93  C   UNL A   1      30.780  24.969  23.320  1.00  0.00     0.174 C 
ATOM     94  O   UNL A   1      30.555  22.921  24.634  1.00  0.00    -0.272 OA
ATOM     95  O   UNL A   1      33.278  25.551  20.780  1.00  0.00    -0.273 OA
ATOM     96  N   UNL A   1      31.818  25.690  22.565  1.00  0.00    -0.329 N 
ATOM     97  C   UNL A   1      30.340  25.752  24.565  1.00  0.00     0.035 C 
ATOM     98  C   UNL A   1      31.569  27.101  22.288  1.00  0.00     0.120 C 
ATOM     99  C   UNL A   1      29.980  27.195  24.227  1.00  0.00     0.004 C 
ATOM    100  C   UNL A   1      31.146  27.878  23.526  1.00  0.00     0.022 C 
ENDBRANCH  88  89
ENDBRANCH  87  88
ENDBRANCH  81  83
ENDBRANCH  80  81
ENDBRANCH  79  80
ENDBRANCH  78  79
ENDBRANCH  77  78
ENDBRANCH  76  77
ENDBRANCH  75  76
ENDBRANCH  74  75
ENDBRANCH   1  74
TORSDOF 25
ENDMDL
MODEL 3
REMARK VINA RESULT:     -10.2      3.061      5.638
REMARK SMILES O=C(OCCOCCOCCOCCOC(=O)c1ccc(CN2CC(=O)N3CCCC[C@@H]3C2=O)o1)c1ccc(-c2c3nc(c(-c4cc(S(=O)(=O)[O-])ccc4F)c4ccc([nH]4)c(-c4cc(S(=O)(=O)[O-])ccc4F)c4nc(c(-c5cc(S(=O)(=O)[O-])ccc5F)c5ccc2[nH]5)C=C4)C=C3)cc1
REMARK SMILES IDX 8 1 7 2 6 3 5 4 4 5 3 6 2 7 1 8 36 9 37 10 98 11 38 12 97 13
REMARK SMILES IDX 39 14 40 15 41 16 91 17 42 18 96 19 90 20 92 21 43 22 95 23
REMARK SMILES IDX 89 24 88 25 44 27 76 28 56 29 75 30 57 31 60 32 74 33 93 34
REMARK SMILES IDX 58 35 59 36 73 38 94 39 61 40 45 41 46 42 54 43 47 44 53 45
REMARK SMILES IDX 55 46 52 47 48 48 49 49 50 50 51 51 77 52 78 53 86 54 79 55
REMARK SMILES IDX 85 56 87 57 84 58 80 59 81 60 82 61 83 62 62 63 63 64 71 65
REMARK SMILES IDX 64 66 70 67 72 68 69 69 65 70 66 71 67 72 68 73 9 74 10 75
REMARK SMILES IDX 11 76 12 77 13 78 14 79 15 80 16 81 17 82 18 83 19 84 35 85
REMARK SMILES IDX 20 86 21 87 22 88 23 89 24 90 33 91 25 92 32 93 34 94 26 95
REMARK SMILES IDX 27 96 31 97 28 98 30 99 29 100
REMARK H PARENT 92 26 60 37
REMARK Flexibility Score: inf
ROOT
ATOM      1  C   UNL A   1      33.932  27.896  26.349  1.00  0.00     0.188 C 
ENDROOT
BRANCH   1   2
ATOM      2  C   UNL A   1      32.634  28.380  26.997  1.00  0.00     0.188 C 
BRANCH   2   3
ATOM      3  O   UNL A   1      31.998  29.353  26.155  1.00  0.00    -0.376 OA
BRANCH   3   4
ATOM      4  C   UNL A   1      31.740  30.586  26.834  1.00  0.00     0.202 C 
BRANCH   4   5
ATOM      5  C   UNL A   1      32.985  31.478  26.866  1.00  0.00     0.261 C 
BRANCH   5   6
ATOM      6  O   UNL A   1      32.616  32.804  27.302  1.00  0.00    -0.460 OA
BRANCH   6   7
ATOM      7  C   UNL A   1      33.349  33.630  28.090  1.00  0.00     0.338 C 
ATOM      8  O   UNL A   1      32.926  34.747  28.376  1.00  0.00    -0.246 OA
BRANCH   7   9
ATOM      9  C   UNL A   1      34.577  33.142  28.758  1.00  0.00     0.060 A 
ATOM     10  C   UNL A   1      35.867  33.506  28.362  1.00  0.00     0.016 A 
ATOM     11  C   UNL A   1      34.406  32.337  29.892  1.00  0.00     0.016 A 
ATOM     12  C   UNL A   1      36.978  32.952  29.004  1.00  0.00     0.010 A 
ATOM     13  C   UNL A   1      35.518  31.832  30.571  1.00  0.00     0.010 A 
ATOM     14  C   UNL A   1      36.812  32.095  30.101  1.00  0.00    -0.014 A 
BRANCH  14  15
ATOM     15  C   UNL A   1      37.976  31.394  30.701  1.00  0.00     0.031 A 
ATOM     16  C   UNL A   1      38.419  31.758  32.092  1.00  0.00     0.074 A 
ATOM     17  C   UNL A   1      38.626  30.431  30.022  1.00  0.00     0.049 A 
ATOM     18  N   UNL A   1      39.457  31.343  32.773  1.00  0.00    -0.248 NA
ATOM     19  C   UNL A   1      37.580  32.733  32.806  1.00  0.00     0.031 C 
ATOM     20  C   UNL A   1      38.288  29.964  28.678  1.00  0.00     0.029 A 
ATOM     21  N   UNL A   1      39.710  29.670  30.379  1.00  0.00    -0.354 N 
ATOM     22  C   UNL A   1      39.405  32.014  33.990  1.00  0.00     0.074 A 
ATOM     23  C   UNL A   1      38.254  32.891  33.935  1.00  0.00     0.031 C 
ATOM     24  C   UNL A   1      39.138  28.982  28.330  1.00  0.00     0.029 A 
ATOM     25  C   UNL A   1      40.101  28.780  29.408  1.00  0.00     0.049 A 
ATOM     26  H   UNL A   1      40.164  29.753  31.248  1.00  0.00     0.167 HD
ATOM     27  C   UNL A   1      40.230  31.907  35.061  1.00  0.00     0.034 A 
ATOM     28  C   UNL A   1      41.131  27.913  29.385  1.00  0.00     0.034 A 
ATOM     29  C   UNL A   1      41.379  31.039  35.114  1.00  0.00     0.049 A 
ATOM     30  C   UNL A   1      42.066  27.843  30.561  1.00  0.00     0.074 A 
ATOM     31  C   UNL A   1      42.304  30.878  36.132  1.00  0.00     0.029 A 
ATOM     32  N   UNL A   1      41.759  30.176  34.095  1.00  0.00    -0.354 N 
ATOM     33  N   UNL A   1      42.041  28.531  31.678  1.00  0.00    -0.248 NA
ATOM     34  C   UNL A   1      43.177  26.885  30.464  1.00  0.00     0.031 C 
ATOM     35  C   UNL A   1      43.257  29.939  35.717  1.00  0.00     0.029 A 
ATOM     36  C   UNL A   1      42.906  29.487  34.454  1.00  0.00     0.049 A 
ATOM     37  H   UNL A   1      41.283  30.068  33.240  1.00  0.00     0.167 HD
ATOM     38  C   UNL A   1      43.135  28.092  32.415  1.00  0.00     0.074 A 
ATOM     39  C   UNL A   1      43.792  27.071  31.624  1.00  0.00     0.031 C 
ATOM     40  C   UNL A   1      43.560  28.496  33.639  1.00  0.00     0.034 A 
BRANCH  27  41
ATOM     41  C   UNL A   1      39.921  32.798  36.234  1.00  0.00     0.023 A 
ATOM     42  C   UNL A   1      39.114  32.350  37.296  1.00  0.00     0.031 A 
ATOM     43  C   UNL A   1      40.352  34.135  36.246  1.00  0.00     0.131 A 
ATOM     44  C   UNL A   1      38.692  33.255  38.281  1.00  0.00     0.055 A 
ATOM     45  C   UNL A   1      39.984  35.014  37.268  1.00  0.00     0.041 A 
ATOM     46  F   UNL A   1      41.103  34.619  35.246  1.00  0.00    -0.206 F 
ATOM     47  C   UNL A   1      39.135  34.580  38.283  1.00  0.00     0.022 A 
BRANCH  44  48
ATOM     48  S   UNL A   1      37.418  32.720  39.457  1.00  0.00     0.124 S 
ATOM     49  O   UNL A   1      37.980  31.469  39.961  1.00  0.00    -0.237 OA
ATOM     50  O   UNL A   1      37.378  33.830  40.402  1.00  0.00    -0.237 OA
ATOM     51  O   UNL A   1      36.227  32.564  38.624  1.00  0.00    -0.744 OA
ENDBRANCH  44  48
ENDBRANCH  27  41
BRANCH  28  52
ATOM     52  C   UNL A   1      41.366  27.071  28.186  1.00  0.00     0.023 A 
ATOM     53  C   UNL A   1      41.120  25.691  28.214  1.00  0.00     0.031 A 
ATOM     54  C   UNL A   1      41.856  27.641  26.999  1.00  0.00     0.131 A 
ATOM     55  C   UNL A   1      41.386  24.917  27.074  1.00  0.00     0.055 A 
ATOM     56  C   UNL A   1      42.097  26.872  25.861  1.00  0.00     0.041 A 
ATOM     57  F   UNL A   1      42.096  28.961  26.931  1.00  0.00    -0.206 F 
ATOM     58  C   UNL A   1      41.867  25.499  25.897  1.00  0.00     0.022 A 
BRANCH  55  59
ATOM     59  S   UNL A   1      41.112  23.127  27.156  1.00  0.00     0.124 S 
ATOM     60  O   UNL A   1      39.657  23.049  27.206  1.00  0.00    -0.237 OA
ATOM     61  O   UNL A   1      41.737  22.665  25.921  1.00  0.00    -0.237 OA
ATOM     62  O   UNL A   1      41.802  22.732  28.383  1.00  0.00    -0.744 OA
ENDBRANCH  55  59
ENDBRANCH  28  52
BRANCH  40  63
ATOM     63  C   UNL A   1      44.783  27.816  34.182  1.00  0.00     0.023 A 
ATOM     64  C   UNL A   1      44.685  26.632  34.932  1.00  0.00     0.031 A 
ATOM     65  C   UNL A   1      46.056  28.368  33.963  1.00  0.00     0.131 A 
ATOM     66  C   UNL A   1      45.845  26.052  35.467  1.00  0.00     0.055 A 
ATOM     67  C   UNL A   1      47.208  27.773  34.476  1.00  0.00     0.041 A 
ATOM     68  F   UNL A   1      46.194  29.501  33.254  1.00  0.00    -0.206 F 
ATOM     69  C   UNL A   1      47.105  26.611  35.238  1.00  0.00     0.022 A 
BRANCH  66  70
ATOM     70  S   UNL A   1      45.682  24.573  36.505  1.00  0.00     0.124 S 
ATOM     71  O   UNL A   1      44.353  24.090  36.141  1.00  0.00    -0.237 OA
ATOM     72  O   UNL A   1      46.803  23.752  36.059  1.00  0.00    -0.237 OA
ATOM     73  O   UNL A   1      45.801  25.094  37.865  1.00  0.00    -0.744 OA
ENDBRANCH  66  70
ENDBRANCH  40  63
ENDBRANCH  14  15
ENDBRANCH   7   9
ENDBRANCH   6   7
ENDBRANCH   5   6
ENDBRANCH   4   5
ENDBRANCH   3   4
ENDBRANCH   2   3
ENDBRANCH   1   2
BRANCH   1  74
ATOM     74  O   UNL A   1      33.744  26.723  25.555  1.00  0.00    -0.377 OA
BRANCH  74  75
ATOM     75  C   UNL A   1      32.996  25.672  26.174  1.00  0.00     0.188 C 
BRANCH  75  76
ATOM     76  C   UNL A   1      33.620  24.276  26.066  1.00  0.00     0.188 C 
BRANCH  76  77
ATOM     77  O   UNL A   1      34.707  24.263  25.134  1.00  0.00    -0.376 OA
BRANCH  77  78
ATOM     78  C   UNL A   1      36.010  24.354  25.716  1.00  0.00     0.202 C 
BRANCH  78  79
ATOM     79  C   UNL A   1      36.681  22.973  25.755  1.00  0.00     0.261 C 
BRANCH  79  80
ATOM     80  O   UNL A   1      36.453  22.213  24.555  1.00  0.00    -0.457 OA
BRANCH  80  81
ATOM     81  C   UNL A   1      36.119  20.906  24.747  1.00  0.00     0.374 C 
ATOM     82  O   UNL A   1      36.912  20.012  25.014  1.00  0.00    -0.242 OA
BRANCH  81  83
ATOM     83  C   UNL A   1      34.683  20.792  24.754  1.00  0.00     0.211 A 
ATOM     84  C   UNL A   1      33.794  19.960  25.409  1.00  0.00     0.058 A 
ATOM     85  O   UNL A   1      34.004  21.540  23.840  1.00  0.00    -0.452 OA
ATOM     86  C   UNL A   1      32.518  20.186  24.826  1.00  0.00     0.048 A 
ATOM     87  C   UNL A   1      32.706  21.118  23.826  1.00  0.00     0.124 A 
BRANCH  87  88
ATOM     88  C   UNL A   1      31.837  21.652  22.733  1.00  0.00     0.195 C 
BRANCH  88  89
ATOM     89  N   UNL A   1      31.869  23.106  22.757  1.00  0.00    -0.324 N 
ATOM     90  C   UNL A   1      32.926  23.794  22.049  1.00  0.00     0.220 C 
ATOM     91  C   UNL A   1      31.048  23.799  23.637  1.00  0.00     0.246 C 
ATOM     92  C   UNL A   1      32.611  25.211  21.583  1.00  0.00     0.242 C 
ATOM     93  C   UNL A   1      30.681  25.217  23.140  1.00  0.00     0.174 C 
ATOM     94  O   UNL A   1      30.449  23.238  24.555  1.00  0.00    -0.272 OA
ATOM     95  O   UNL A   1      33.278  25.732  20.687  1.00  0.00    -0.273 OA
ATOM     96  N   UNL A   1      31.734  25.926  22.393  1.00  0.00    -0.329 N 
ATOM     97  C   UNL A   1      30.163  26.054  24.319  1.00  0.00     0.035 C 
ATOM     98  C   UNL A   1      31.460  27.312  22.027  1.00  0.00     0.120 C 
ATOM     99  C   UNL A   1      29.780  27.465  23.885  1.00  0.00     0.004 C 
ATOM    100  C   UNL A   1      30.959  28.142  23.199  1.00  0.00     0.022 C 
ENDBRANCH  88  89
ENDBRANCH  87  88
ENDBRANCH  81  83
ENDBRANCH  80  81
ENDBRANCH  79  80
ENDBRANCH  78  79
ENDBRANCH  77  78
ENDBRANCH  76  77
ENDBRANCH  75  76
ENDBRANCH  74  75
ENDBRANCH   1  74
TORSDOF 25
ENDMDL
