MODEL 1
REMARK VINA RESULT:      -9.4      0.000      0.000
REMARK SMILES CCCC[C@@H](C(=O)OCCOCCOCCOCCOC(=O)c1ccc(-c2c3nc(c(-c4cc(S(=O)(=O)[O-])ccc4F)c4ccc([nH]4)c(-c4cc(S(=O)(=O)[O-])ccc4F)c4nc(c(-c5cc(S(=O)(=O)[O-])ccc5F)c5ccc2[nH]5)C=C4)C=C3)cc1)[C@]1(O)COc2cc(O)ccc21
REMARK SMILES IDX 14 1 13 2 12 3 11 4 10 5 9 6 8 7 6 8 7 9 5 10 4 11 3 12 2 13
REMARK SMILES IDX 1 14 86 15 88 16 96 17 89 18 90 19 95 20 91 21 94 22 92 23
REMARK SMILES IDX 87 24 93 26 15 28 16 29 17 30 18 31 19 32 20 33 21 34 22 35
REMARK SMILES IDX 23 36 24 37 85 38 25 39 84 40 26 41 27 42 28 43 78 44 29 45
REMARK SMILES IDX 83 46 77 47 79 48 30 49 82 50 76 51 75 52 31 54 63 55 43 56
REMARK SMILES IDX 62 57 44 58 47 59 61 60 80 61 45 62 46 63 60 65 81 66 48 67
REMARK SMILES IDX 32 68 33 69 41 70 34 71 40 72 42 73 39 74 35 75 36 76 37 77
REMARK SMILES IDX 38 78 64 79 65 80 73 81 66 82 72 83 74 84 71 85 67 86 68 87
REMARK SMILES IDX 69 88 70 89 49 90 50 91 58 92 51 93 57 94 59 95 56 96 52 97
REMARK SMILES IDX 53 98 54 99 55 100
REMARK H PARENT 87 25 93 27 79 53 47 64
REMARK Flexibility Score: inf
ROOT
ATOM      1  O   UNL A   1      32.240  28.653  22.455  1.00  0.00    -0.377 OA
ENDROOT
BRANCH   1   2
ATOM      2  C   UNL A   1      33.388  27.970  22.924  1.00  0.00     0.188 C 
BRANCH   2   3
ATOM      3  C   UNL A   1      33.403  26.435  22.923  1.00  0.00     0.188 C 
BRANCH   3   4
ATOM      4  O   UNL A   1      33.611  25.813  24.188  1.00  0.00    -0.376 OA
BRANCH   4   5
ATOM      5  C   UNL A   1      32.433  25.282  24.791  1.00  0.00     0.202 C 
BRANCH   5   6
ATOM      6  C   UNL A   1      32.721  24.429  26.024  1.00  0.00     0.261 C 
BRANCH   6   7
ATOM      7  O   UNL A   1      34.029  23.831  25.926  1.00  0.00    -0.463 OA
BRANCH   7   8
ATOM      8  C   UNL A   1      34.208  22.553  26.301  1.00  0.00     0.312 C 
ATOM      9  O   UNL A   1      33.941  22.111  27.413  1.00  0.00    -0.252 OA
BRANCH   8  10
ATOM     10  C   UNL A   1      34.736  21.678  25.167  1.00  0.00     0.139 C 
BRANCH  10  11
ATOM     11  C   UNL A   1      35.678  22.361  24.129  1.00  0.00     0.019 C 
BRANCH  11  12
ATOM     12  C   UNL A   1      37.191  22.086  24.150  1.00  0.00     0.001 C 
BRANCH  12  13
ATOM     13  C   UNL A   1      37.713  21.226  25.294  1.00  0.00    -0.003 C 
ATOM     14  C   UNL A   1      37.987  19.794  24.862  1.00  0.00     0.004 C 
ENDBRANCH  12  13
ENDBRANCH  11  12
ENDBRANCH  10  11
BRANCH  10  15
ATOM     15  C   UNL A   1      33.633  20.710  24.572  1.00  0.00     0.140 C 
ATOM     16  C   UNL A   1      32.204  20.735  25.203  1.00  0.00     0.270 C 
ATOM     17  C   UNL A   1      33.840  19.219  24.623  1.00  0.00     0.030 A 
ATOM     18  O   UNL A   1      31.925  19.494  25.891  1.00  0.00    -0.490 OA
ATOM     19  C   UNL A   1      32.830  18.617  25.367  1.00  0.00     0.129 A 
ATOM     20  C   UNL A   1      34.839  18.422  24.075  1.00  0.00     0.014 A 
ATOM     21  C   UNL A   1      32.805  17.258  25.640  1.00  0.00     0.093 A 
ATOM     22  C   UNL A   1      34.849  17.046  24.352  1.00  0.00     0.047 A 
ATOM     23  C   UNL A   1      33.844  16.481  25.144  1.00  0.00     0.119 A 
BRANCH  15  24
ATOM     24  O   UNL A   1      33.468  21.081  23.187  1.00  0.00    -0.381 OA
ATOM     25  H   UNL A   1      33.292  20.287  22.658  1.00  0.00     0.212 HD
ENDBRANCH  15  24
BRANCH  23  26
ATOM     26  O   UNL A   1      33.868  15.158  25.475  1.00  0.00    -0.508 OA
ATOM     27  H   UNL A   1      33.068  14.708  25.662  1.00  0.00     0.293 HD
ENDBRANCH  23  26
ENDBRANCH  10  15
ENDBRANCH   8  10
ENDBRANCH   7   8
ENDBRANCH   6   7
ENDBRANCH   5   6
ENDBRANCH   4   5
ENDBRANCH   3   4
ENDBRANCH   2   3
ENDBRANCH   1   2
BRANCH   1  28
ATOM     28  C   UNL A   1      30.986  28.306  23.023  1.00  0.00     0.188 C 
BRANCH  28  29
ATOM     29  C   UNL A   1      30.286  29.331  23.939  1.00  0.00     0.188 C 
BRANCH  29  30
ATOM     30  O   UNL A   1      31.155  30.279  24.552  1.00  0.00    -0.376 OA
BRANCH  30  31
ATOM     31  C   UNL A   1      31.733  29.907  25.797  1.00  0.00     0.202 C 
BRANCH  31  32
ATOM     32  C   UNL A   1      32.070  31.071  26.737  1.00  0.00     0.261 C 
BRANCH  32  33
ATOM     33  O   UNL A   1      33.158  30.835  27.644  1.00  0.00    -0.460 OA
BRANCH  33  34
ATOM     34  C   UNL A   1      33.993  31.863  27.912  1.00  0.00     0.338 C 
ATOM     35  O   UNL A   1      33.707  33.043  28.001  1.00  0.00    -0.246 OA
BRANCH  34  36
ATOM     36  C   UNL A   1      35.291  31.271  28.293  1.00  0.00     0.060 A 
ATOM     37  C   UNL A   1      35.361  29.894  28.542  1.00  0.00     0.016 A 
ATOM     38  C   UNL A   1      36.442  32.062  28.325  1.00  0.00     0.016 A 
ATOM     39  C   UNL A   1      36.590  29.303  28.829  1.00  0.00     0.010 A 
ATOM     40  C   UNL A   1      37.665  31.476  28.650  1.00  0.00     0.010 A 
ATOM     41  C   UNL A   1      37.739  30.100  28.925  1.00  0.00    -0.014 A 
BRANCH  41  42
ATOM     42  C   UNL A   1      38.963  29.543  29.544  1.00  0.00     0.031 A 
ATOM     43  C   UNL A   1      39.370  30.089  30.884  1.00  0.00     0.074 A 
ATOM     44  C   UNL A   1      39.689  28.586  28.941  1.00  0.00     0.049 A 
ATOM     45  N   UNL A   1      40.417  29.810  31.615  1.00  0.00    -0.248 NA
ATOM     46  C   UNL A   1      38.467  31.090  31.477  1.00  0.00     0.031 C 
ATOM     47  C   UNL A   1      39.366  27.955  27.663  1.00  0.00     0.029 A 
ATOM     48  N   UNL A   1      40.863  27.986  29.326  1.00  0.00    -0.354 N 
ATOM     49  C   UNL A   1      40.295  30.593  32.756  1.00  0.00     0.074 A 
ATOM     50  C   UNL A   1      39.093  31.384  32.604  1.00  0.00     0.031 C 
ATOM     51  C   UNL A   1      40.330  27.066  27.361  1.00  0.00     0.029 A 
ATOM     52  C   UNL A   1      41.354  27.091  28.404  1.00  0.00     0.049 A 
ATOM     53  H   UNL A   1      41.310  28.179  30.182  1.00  0.00     0.167 HD
ATOM     54  C   UNL A   1      41.109  30.643  33.838  1.00  0.00     0.034 A 
ATOM     55  C   UNL A   1      42.512  26.400  28.397  1.00  0.00     0.034 A 
ATOM     56  C   UNL A   1      42.325  29.879  33.955  1.00  0.00     0.049 A 
ATOM     57  C   UNL A   1      43.465  26.560  29.561  1.00  0.00     0.074 A 
ATOM     58  C   UNL A   1      43.226  29.848  35.004  1.00  0.00     0.029 A 
ATOM     59  N   UNL A   1      42.823  29.029  32.975  1.00  0.00    -0.354 N 
ATOM     60  N   UNL A   1      43.331  27.287  30.648  1.00  0.00    -0.248 NA
ATOM     61  C   UNL A   1      44.725  25.808  29.495  1.00  0.00     0.031 C 
ATOM     62  C   UNL A   1      44.303  29.039  34.629  1.00  0.00     0.029 A 
ATOM     63  C   UNL A   1      44.040  28.501  33.378  1.00  0.00     0.049 A 
ATOM     64  H   UNL A   1      42.377  28.831  32.121  1.00  0.00     0.167 HD
ATOM     65  C   UNL A   1      44.480  27.058  31.404  1.00  0.00     0.074 A 
ATOM     66  C   UNL A   1      45.284  26.113  30.657  1.00  0.00     0.031 C 
ATOM     67  C   UNL A   1      44.837  27.575  32.607  1.00  0.00     0.034 A 
BRANCH  54  68
ATOM     68  C   UNL A   1      40.730  31.605  34.935  1.00  0.00     0.023 A 
ATOM     69  C   UNL A   1      39.711  31.307  35.858  1.00  0.00     0.031 A 
ATOM     70  C   UNL A   1      41.361  32.856  35.030  1.00  0.00     0.131 A 
ATOM     71  C   UNL A   1      39.305  32.277  36.787  1.00  0.00     0.055 A 
ATOM     72  C   UNL A   1      41.005  33.788  36.006  1.00  0.00     0.041 A 
ATOM     73  F   UNL A   1      42.321  33.206  34.158  1.00  0.00    -0.206 F 
ATOM     74  C   UNL A   1      39.960  33.507  36.883  1.00  0.00     0.022 A 
BRANCH  71  75
ATOM     75  S   UNL A   1      37.813  31.963  37.772  1.00  0.00     0.124 S 
ATOM     76  O   UNL A   1      38.287  32.248  39.124  1.00  0.00    -0.237 OA
ATOM     77  O   UNL A   1      36.862  32.917  37.214  1.00  0.00    -0.237 OA
ATOM     78  O   UNL A   1      37.517  30.557  37.506  1.00  0.00    -0.744 OA
ENDBRANCH  71  75
ENDBRANCH  54  68
BRANCH  55  79
ATOM     79  C   UNL A   1      42.877  25.536  27.237  1.00  0.00     0.023 A 
ATOM     80  C   UNL A   1      42.444  24.202  27.155  1.00  0.00     0.031 A 
ATOM     81  C   UNL A   1      43.727  26.014  26.223  1.00  0.00     0.131 A 
ATOM     82  C   UNL A   1      42.898  23.381  26.110  1.00  0.00     0.055 A 
ATOM     83  C   UNL A   1      44.135  25.209  25.159  1.00  0.00     0.041 A 
ATOM     84  F   UNL A   1      44.177  27.278  26.255  1.00  0.00    -0.206 F 
ATOM     85  C   UNL A   1      43.731  23.879  25.105  1.00  0.00     0.022 A 
BRANCH  82  86
ATOM     86  S   UNL A   1      42.452  21.622  26.128  1.00  0.00     0.124 S 
ATOM     87  O   UNL A   1      41.085  21.656  25.622  1.00  0.00    -0.237 OA
ATOM     88  O   UNL A   1      43.454  21.048  25.234  1.00  0.00    -0.237 OA
ATOM     89  O   UNL A   1      42.591  21.251  27.534  1.00  0.00    -0.744 OA
ENDBRANCH  82  86
ENDBRANCH  55  79
BRANCH  67  90
ATOM     90  C   UNL A   1      46.144  27.103  33.199  1.00  0.00     0.023 A 
ATOM     91  C   UNL A   1      46.203  26.004  34.073  1.00  0.00     0.031 A 
ATOM     92  C   UNL A   1      47.343  27.765  32.884  1.00  0.00     0.131 A 
ATOM     93  C   UNL A   1      47.431  25.631  34.643  1.00  0.00     0.055 A 
ATOM     94  C   UNL A   1      48.570  27.352  33.406  1.00  0.00     0.041 A 
ATOM     95  F   UNL A   1      47.345  28.821  32.055  1.00  0.00    -0.206 F 
ATOM     96  C   UNL A   1      48.616  26.287  34.301  1.00  0.00     0.022 A 
BRANCH  93  97
ATOM     97  S   UNL A   1      47.446  24.329  35.905  1.00  0.00     0.124 S 
ATOM     98  O   UNL A   1      48.049  25.016  37.043  1.00  0.00    -0.237 OA
ATOM     99  O   UNL A   1      46.031  24.000  36.035  1.00  0.00    -0.237 OA
ATOM    100  O   UNL A   1      48.272  23.281  35.306  1.00  0.00    -0.744 OA
ENDBRANCH  93  97
ENDBRANCH  67  90
ENDBRANCH  41  42
ENDBRANCH  34  36
ENDBRANCH  33  34
ENDBRANCH  32  33
ENDBRANCH  31  32
ENDBRANCH  30  31
ENDBRANCH  29  30
ENDBRANCH  28  29
ENDBRANCH   1  28
TORSDOF 29
ENDMDL
MODEL 2
REMARK VINA RESULT:      -9.1      2.111      2.444
REMARK SMILES CCCC[C@@H](C(=O)OCCOCCOCCOCCOC(=O)c1ccc(-c2c3nc(c(-c4cc(S(=O)(=O)[O-])ccc4F)c4ccc([nH]4)c(-c4cc(S(=O)(=O)[O-])ccc4F)c4nc(c(-c5cc(S(=O)(=O)[O-])ccc5F)c5ccc2[nH]5)C=C4)C=C3)cc1)[C@]1(O)COc2cc(O)ccc21
REMARK SMILES IDX 14 1 13 2 12 3 11 4 10 5 9 6 8 7 6 8 7 9 5 10 4 11 3 12 2 13
REMARK SMILES IDX 1 14 86 15 88 16 96 17 89 18 90 19 95 20 91 21 94 22 92 23
REMARK SMILES IDX 87 24 93 26 15 28 16 29 17 30 18 31 19 32 20 33 21 34 22 35
REMARK SMILES IDX 23 36 24 37 85 38 25 39 84 40 26 41 27 42 28 43 78 44 29 45
REMARK SMILES IDX 83 46 77 47 79 48 30 49 82 50 76 51 75 52 31 54 63 55 43 56
REMARK SMILES IDX 62 57 44 58 47 59 61 60 80 61 45 62 46 63 60 65 81 66 48 67
REMARK SMILES IDX 32 68 33 69 41 70 34 71 40 72 42 73 39 74 35 75 36 76 37 77
REMARK SMILES IDX 38 78 64 79 65 80 73 81 66 82 72 83 74 84 71 85 67 86 68 87
REMARK SMILES IDX 69 88 70 89 49 90 50 91 58 92 51 93 57 94 59 95 56 96 52 97
REMARK SMILES IDX 53 98 54 99 55 100
REMARK H PARENT 87 25 93 27 79 53 47 64
REMARK Flexibility Score: inf
ROOT
ATOM      1  O   UNL A   1      32.374  28.918  22.419  1.00  0.00    -0.377 OA
ENDROOT
BRANCH   1   2
ATOM      2  C   UNL A   1      33.444  28.161  22.954  1.00  0.00     0.188 C 
BRANCH   2   3
ATOM      3  C   UNL A   1      33.580  26.679  22.578  1.00  0.00     0.188 C 
BRANCH   3   4
ATOM      4  O   UNL A   1      33.409  25.747  23.642  1.00  0.00    -0.376 OA
BRANCH   4   5
ATOM      5  C   UNL A   1      32.239  24.939  23.542  1.00  0.00     0.202 C 
BRANCH   5   6
ATOM      6  C   UNL A   1      32.219  23.784  24.542  1.00  0.00     0.261 C 
BRANCH   6   7
ATOM      7  O   UNL A   1      33.558  23.471  24.972  1.00  0.00    -0.463 OA
BRANCH   7   8
ATOM      8  C   UNL A   1      33.748  22.710  26.063  1.00  0.00     0.312 C 
ATOM      9  O   UNL A   1      33.326  22.982  27.182  1.00  0.00    -0.252 OA
BRANCH   8  10
ATOM     10  C   UNL A   1      34.507  21.422  25.755  1.00  0.00     0.139 C 
BRANCH  10  11
ATOM     11  C   UNL A   1      36.034  21.555  25.471  1.00  0.00     0.019 C 
BRANCH  11  12
ATOM     12  C   UNL A   1      36.907  22.487  26.327  1.00  0.00     0.001 C 
BRANCH  12  13
ATOM     13  C   UNL A   1      37.689  23.564  25.585  1.00  0.00    -0.003 C 
ATOM     14  C   UNL A   1      38.626  24.333  26.503  1.00  0.00     0.004 C 
ENDBRANCH  12  13
ENDBRANCH  11  12
ENDBRANCH  10  11
BRANCH  10  15
ATOM     15  C   UNL A   1      33.704  20.448  24.798  1.00  0.00     0.140 C 
ATOM     16  C   UNL A   1      32.155  20.345  24.974  1.00  0.00     0.270 C 
ATOM     17  C   UNL A   1      34.000  18.972  24.814  1.00  0.00     0.030 A 
ATOM     18  O   UNL A   1      31.782  19.037  25.467  1.00  0.00    -0.490 OA
ATOM     19  C   UNL A   1      32.865  18.257  25.182  1.00  0.00     0.129 A 
ATOM     20  C   UNL A   1      35.173  18.278  24.539  1.00  0.00     0.014 A 
ATOM     21  C   UNL A   1      32.864  16.880  25.349  1.00  0.00     0.093 A 
ATOM     22  C   UNL A   1      35.206  16.887  24.718  1.00  0.00     0.047 A 
ATOM     23  C   UNL A   1      34.059  16.205  25.137  1.00  0.00     0.119 A 
BRANCH  15  24
ATOM     24  O   UNL A   1      33.925  20.924  23.453  1.00  0.00    -0.381 OA
ATOM     25  H   UNL A   1      34.761  20.567  23.116  1.00  0.00     0.212 HD
ENDBRANCH  15  24
BRANCH  23  26
ATOM     26  O   UNL A   1      34.085  14.862  25.376  1.00  0.00    -0.508 OA
ATOM     27  H   UNL A   1      34.903  14.407  25.407  1.00  0.00     0.293 HD
ENDBRANCH  23  26
ENDBRANCH  10  15
ENDBRANCH   8  10
ENDBRANCH   7   8
ENDBRANCH   6   7
ENDBRANCH   5   6
ENDBRANCH   4   5
ENDBRANCH   3   4
ENDBRANCH   2   3
ENDBRANCH   1   2
BRANCH   1  28
ATOM     28  C   UNL A   1      31.056  28.568  22.813  1.00  0.00     0.188 C 
BRANCH  28  29
ATOM     29  C   UNL A   1      30.249  29.577  23.655  1.00  0.00     0.188 C 
BRANCH  29  30
ATOM     30  O   UNL A   1      31.034  30.428  24.486  1.00  0.00    -0.376 OA
BRANCH  30  31
ATOM     31  C   UNL A   1      31.465  29.891  25.729  1.00  0.00     0.202 C 
BRANCH  31  32
ATOM     32  C   UNL A   1      31.898  30.924  26.776  1.00  0.00     0.261 C 
BRANCH  32  33
ATOM     33  O   UNL A   1      33.178  30.690  27.381  1.00  0.00    -0.460 OA
BRANCH  33  34
ATOM     34  C   UNL A   1      33.962  31.761  27.638  1.00  0.00     0.338 C 
ATOM     35  O   UNL A   1      33.654  32.937  27.563  1.00  0.00    -0.246 OA
BRANCH  34  36
ATOM     36  C   UNL A   1      35.207  31.245  28.240  1.00  0.00     0.060 A 
ATOM     37  C   UNL A   1      35.247  29.915  28.678  1.00  0.00     0.016 A 
ATOM     38  C   UNL A   1      36.348  32.049  28.295  1.00  0.00     0.016 A 
ATOM     39  C   UNL A   1      36.435  29.386  29.179  1.00  0.00     0.010 A 
ATOM     40  C   UNL A   1      37.526  31.531  28.832  1.00  0.00     0.010 A 
ATOM     41  C   UNL A   1      37.567  30.205  29.296  1.00  0.00    -0.014 A 
BRANCH  41  42
ATOM     42  C   UNL A   1      38.711  29.754  30.120  1.00  0.00     0.031 A 
ATOM     43  C   UNL A   1      38.842  30.334  31.501  1.00  0.00     0.074 A 
ATOM     44  C   UNL A   1      39.606  28.862  29.661  1.00  0.00     0.049 A 
ATOM     45  N   UNL A   1      39.770  30.145  32.400  1.00  0.00    -0.248 NA
ATOM     46  C   UNL A   1      37.772  31.255  31.920  1.00  0.00     0.031 C 
ATOM     47  C   UNL A   1      39.555  28.206  28.356  1.00  0.00     0.029 A 
ATOM     48  N   UNL A   1      40.745  28.364  30.245  1.00  0.00    -0.354 N 
ATOM     49  C   UNL A   1      39.394  30.916  33.494  1.00  0.00     0.074 A 
ATOM     50  C   UNL A   1      38.173  31.602  33.131  1.00  0.00     0.031 C 
ATOM     51  C   UNL A   1      40.627  27.401  28.233  1.00  0.00     0.029 A 
ATOM     52  C   UNL A   1      41.457  27.514  29.432  1.00  0.00     0.049 A 
ATOM     53  H   UNL A   1      41.025  28.595  31.161  1.00  0.00     0.167 HD
ATOM     54  C   UNL A   1      40.008  31.036  34.695  1.00  0.00     0.034 A 
ATOM     55  C   UNL A   1      42.653  26.923  29.629  1.00  0.00     0.034 A 
ATOM     56  C   UNL A   1      41.247  30.377  35.025  1.00  0.00     0.049 A 
ATOM     57  C   UNL A   1      43.381  27.165  30.933  1.00  0.00     0.074 A 
ATOM     58  C   UNL A   1      41.958  30.423  36.210  1.00  0.00     0.029 A 
ATOM     59  N   UNL A   1      41.971  29.572  34.155  1.00  0.00    -0.354 N 
ATOM     60  N   UNL A   1      43.006  27.878  31.971  1.00  0.00    -0.248 NA
ATOM     61  C   UNL A   1      44.692  26.522  31.089  1.00  0.00     0.031 C 
ATOM     62  C   UNL A   1      43.147  29.708  36.032  1.00  0.00     0.029 A 
ATOM     63  C   UNL A   1      43.143  29.150  34.763  1.00  0.00     0.049 A 
ATOM     64  H   UNL A   1      41.693  29.336  33.241  1.00  0.00     0.167 HD
ATOM     65  C   UNL A   1      44.026  27.748  32.912  1.00  0.00     0.074 A 
ATOM     66  C   UNL A   1      45.021  26.874  32.324  1.00  0.00     0.031 C 
ATOM     67  C   UNL A   1      44.132  28.294  34.150  1.00  0.00     0.034 A 
BRANCH  54  68
ATOM     68  C   UNL A   1      39.372  31.962  35.700  1.00  0.00     0.023 A 
ATOM     69  C   UNL A   1      39.769  33.305  35.819  1.00  0.00     0.031 A 
ATOM     70  C   UNL A   1      38.391  31.483  36.584  1.00  0.00     0.131 A 
ATOM     71  C   UNL A   1      39.241  34.102  36.847  1.00  0.00     0.055 A 
ATOM     72  C   UNL A   1      37.813  32.301  37.555  1.00  0.00     0.041 A 
ATOM     73  F   UNL A   1      37.993  30.201  36.534  1.00  0.00    -0.206 F 
ATOM     74  C   UNL A   1      38.248  33.616  37.701  1.00  0.00     0.022 A 
BRANCH  71  75
ATOM     75  S   UNL A   1      39.974  35.735  37.143  1.00  0.00     0.124 S 
ATOM     76  O   UNL A   1      41.382  35.396  37.339  1.00  0.00    -0.237 OA
ATOM     77  O   UNL A   1      39.655  36.452  35.914  1.00  0.00    -0.237 OA
ATOM     78  O   UNL A   1      39.283  36.208  38.340  1.00  0.00    -0.744 OA
ENDBRANCH  71  75
ENDBRANCH  54  68
BRANCH  55  79
ATOM     79  C   UNL A   1      43.278  26.093  28.558  1.00  0.00     0.023 A 
ATOM     80  C   UNL A   1      44.260  26.622  27.704  1.00  0.00     0.031 A 
ATOM     81  C   UNL A   1      42.848  24.774  28.327  1.00  0.00     0.131 A 
ATOM     82  C   UNL A   1      44.746  25.852  26.634  1.00  0.00     0.055 A 
ATOM     83  C   UNL A   1      43.370  23.996  27.293  1.00  0.00     0.041 A 
ATOM     84  F   UNL A   1      41.907  24.220  29.108  1.00  0.00    -0.206 F 
ATOM     85  C   UNL A   1      44.316  24.539  26.430  1.00  0.00     0.022 A 
BRANCH  82  86
ATOM     86  S   UNL A   1      45.888  26.625  25.455  1.00  0.00     0.124 S 
ATOM     87  O   UNL A   1      46.916  27.158  26.342  1.00  0.00    -0.237 OA
ATOM     88  O   UNL A   1      46.281  25.488  24.627  1.00  0.00    -0.237 OA
ATOM     89  O   UNL A   1      45.060  27.623  24.783  1.00  0.00    -0.744 OA
ENDBRANCH  82  86
ENDBRANCH  55  79
BRANCH  67  90
ATOM     90  C   UNL A   1      45.356  27.935  34.958  1.00  0.00     0.023 A 
ATOM     91  C   UNL A   1      45.416  26.757  35.723  1.00  0.00     0.031 A 
ATOM     92  C   UNL A   1      46.476  28.785  34.963  1.00  0.00     0.131 A 
ATOM     93  C   UNL A   1      46.551  26.488  36.503  1.00  0.00     0.055 A 
ATOM     94  C   UNL A   1      47.626  28.482  35.693  1.00  0.00     0.041 A 
ATOM     95  F   UNL A   1      46.474  29.923  34.252  1.00  0.00    -0.206 F 
ATOM     96  C   UNL A   1      47.663  27.333  36.478  1.00  0.00     0.022 A 
BRANCH  93  97
ATOM     97  S   UNL A   1      46.524  25.058  37.618  1.00  0.00     0.124 S 
ATOM     98  O   UNL A   1      46.354  25.693  38.921  1.00  0.00    -0.237 OA
ATOM     99  O   UNL A   1      45.381  24.297  37.125  1.00  0.00    -0.237 OA
ATOM    100  O   UNL A   1      47.825  24.428  37.401  1.00  0.00    -0.744 OA
ENDBRANCH  93  97
ENDBRANCH  67  90
ENDBRANCH  41  42
ENDBRANCH  34  36
ENDBRANCH  33  34
ENDBRANCH  32  33
ENDBRANCH  31  32
ENDBRANCH  30  31
ENDBRANCH  29  30
ENDBRANCH  28  29
ENDBRANCH   1  28
TORSDOF 29
ENDMDL
MODEL 3
REMARK VINA RESULT:      -8.8      2.769      8.111
REMARK SMILES CCCC[C@@H](C(=O)OCCOCCOCCOCCOC(=O)c1ccc(-c2c3nc(c(-c4cc(S(=O)(=O)[O-])ccc4F)c4ccc([nH]4)c(-c4cc(S(=O)(=O)[O-])ccc4F)c4nc(c(-c5cc(S(=O)(=O)[O-])ccc5F)c5ccc2[nH]5)C=C4)C=C3)cc1)[C@]1(O)COc2cc(O)ccc21
REMARK SMILES IDX 14 1 13 2 12 3 11 4 10 5 9 6 8 7 6 8 7 9 5 10 4 11 3 12 2 13
REMARK SMILES IDX 1 14 86 15 88 16 96 17 89 18 90 19 95 20 91 21 94 22 92 23
REMARK SMILES IDX 87 24 93 26 15 28 16 29 17 30 18 31 19 32 20 33 21 34 22 35
REMARK SMILES IDX 23 36 24 37 85 38 25 39 84 40 26 41 27 42 28 43 78 44 29 45
REMARK SMILES IDX 83 46 77 47 79 48 30 49 82 50 76 51 75 52 31 54 63 55 43 56
REMARK SMILES IDX 62 57 44 58 47 59 61 60 80 61 45 62 46 63 60 65 81 66 48 67
REMARK SMILES IDX 32 68 33 69 41 70 34 71 40 72 42 73 39 74 35 75 36 76 37 77
REMARK SMILES IDX 38 78 64 79 65 80 73 81 66 82 72 83 74 84 71 85 67 86 68 87
REMARK SMILES IDX 69 88 70 89 49 90 50 91 58 92 51 93 57 94 59 95 56 96 52 97
REMARK SMILES IDX 53 98 54 99 55 100
REMARK H PARENT 87 25 93 27 79 53 47 64
REMARK Flexibility Score: inf
ROOT
ATOM      1  O   UNL A   1      32.321  28.737  22.397  1.00  0.00    -0.377 OA
ENDROOT
BRANCH   1   2
ATOM      2  C   UNL A   1      33.414  27.893  22.712  1.00  0.00     0.188 C 
BRANCH   2   3
ATOM      3  C   UNL A   1      33.531  26.525  22.024  1.00  0.00     0.188 C 
BRANCH   3   4
ATOM      4  O   UNL A   1      33.231  25.392  22.834  1.00  0.00    -0.376 OA
BRANCH   4   5
ATOM      5  C   UNL A   1      32.069  24.667  22.437  1.00  0.00     0.202 C 
BRANCH   5   6
ATOM      6  C   UNL A   1      31.935  23.317  23.137  1.00  0.00     0.261 C 
BRANCH   6   7
ATOM      7  O   UNL A   1      33.235  22.800  23.484  1.00  0.00    -0.463 OA
BRANCH   7   8
ATOM      8  C   UNL A   1      33.396  22.110  24.625  1.00  0.00     0.312 C 
ATOM      9  O   UNL A   1      32.768  21.099  24.920  1.00  0.00    -0.252 OA
BRANCH   8  10
ATOM     10  C   UNL A   1      34.497  22.688  25.510  1.00  0.00     0.139 C 
BRANCH  10  11
ATOM     11  C   UNL A   1      34.119  23.917  26.392  1.00  0.00     0.019 C 
BRANCH  11  12
ATOM     12  C   UNL A   1      32.644  24.290  26.618  1.00  0.00     0.001 C 
BRANCH  12  13
ATOM     13  C   UNL A   1      32.185  25.630  26.059  1.00  0.00    -0.003 C 
ATOM     14  C   UNL A   1      30.679  25.683  25.851  1.00  0.00     0.004 C 
ENDBRANCH  12  13
ENDBRANCH  11  12
ENDBRANCH  10  11
BRANCH  10  15
ATOM     15  C   UNL A   1      35.899  22.763  24.778  1.00  0.00     0.140 C 
ATOM     16  C   UNL A   1      36.446  21.473  24.086  1.00  0.00     0.270 C 
ATOM     17  C   UNL A   1      37.138  23.100  25.566  1.00  0.00     0.030 A 
ATOM     18  O   UNL A   1      37.617  20.979  24.776  1.00  0.00    -0.490 OA
ATOM     19  C   UNL A   1      38.052  22.054  25.497  1.00  0.00     0.129 A 
ATOM     20  C   UNL A   1      37.462  24.230  26.308  1.00  0.00     0.014 A 
ATOM     21  C   UNL A   1      39.255  22.059  26.187  1.00  0.00     0.093 A 
ATOM     22  C   UNL A   1      38.664  24.254  27.032  1.00  0.00     0.047 A 
ATOM     23  C   UNL A   1      39.539  23.164  26.979  1.00  0.00     0.119 A 
BRANCH  15  24
ATOM     24  O   UNL A   1      35.763  23.752  23.735  1.00  0.00    -0.381 OA
ATOM     25  H   UNL A   1      35.228  23.388  23.013  1.00  0.00     0.212 HD
ENDBRANCH  15  24
BRANCH  23  26
ATOM     26  O   UNL A   1      40.682  23.140  27.722  1.00  0.00    -0.508 OA
ATOM     27  H   UNL A   1      41.386  22.572  27.481  1.00  0.00     0.293 HD
ENDBRANCH  23  26
ENDBRANCH  10  15
ENDBRANCH   8  10
ENDBRANCH   7   8
ENDBRANCH   6   7
ENDBRANCH   5   6
ENDBRANCH   4   5
ENDBRANCH   3   4
ENDBRANCH   2   3
ENDBRANCH   1   2
BRANCH   1  28
ATOM     28  C   UNL A   1      31.039  28.365  22.880  1.00  0.00     0.188 C 
BRANCH  28  29
ATOM     29  C   UNL A   1      30.390  29.230  23.980  1.00  0.00     0.188 C 
BRANCH  29  30
ATOM     30  O   UNL A   1      31.309  29.951  24.796  1.00  0.00    -0.376 OA
BRANCH  30  31
ATOM     31  C   UNL A   1      31.920  29.234  25.860  1.00  0.00     0.202 C 
BRANCH  31  32
ATOM     32  C   UNL A   1      32.273  30.069  27.097  1.00  0.00     0.261 C 
BRANCH  32  33
ATOM     33  O   UNL A   1      33.670  30.126  27.424  1.00  0.00    -0.460 OA
BRANCH  33  34
ATOM     34  C   UNL A   1      34.260  31.342  27.469  1.00  0.00     0.338 C 
ATOM     35  O   UNL A   1      33.770  32.412  27.156  1.00  0.00    -0.246 OA
BRANCH  34  36
ATOM     36  C   UNL A   1      35.544  31.168  28.175  1.00  0.00     0.060 A 
ATOM     37  C   UNL A   1      35.875  29.902  28.679  1.00  0.00     0.016 A 
ATOM     38  C   UNL A   1      36.446  32.230  28.267  1.00  0.00     0.016 A 
ATOM     39  C   UNL A   1      37.114  29.698  29.281  1.00  0.00     0.010 A 
ATOM     40  C   UNL A   1      37.671  32.034  28.905  1.00  0.00     0.010 A 
ATOM     41  C   UNL A   1      38.000  30.774  29.434  1.00  0.00    -0.014 A 
BRANCH  41  42
ATOM     42  C   UNL A   1      39.154  30.645  30.351  1.00  0.00     0.031 A 
ATOM     43  C   UNL A   1      40.346  29.873  29.860  1.00  0.00     0.074 A 
ATOM     44  C   UNL A   1      39.146  31.191  31.579  1.00  0.00     0.049 A 
ATOM     45  N   UNL A   1      41.458  29.573  30.477  1.00  0.00    -0.248 NA
ATOM     46  C   UNL A   1      40.267  29.370  28.478  1.00  0.00     0.031 C 
ATOM     47  C   UNL A   1      38.063  31.994  32.143  1.00  0.00     0.029 A 
ATOM     48  N   UNL A   1      40.085  31.141  32.581  1.00  0.00    -0.354 N 
ATOM     49  C   UNL A   1      42.214  28.855  29.559  1.00  0.00     0.074 A 
ATOM     50  C   UNL A   1      41.419  28.733  28.356  1.00  0.00     0.031 C 
ATOM     51  C   UNL A   1      38.393  32.348  33.400  1.00  0.00     0.029 A 
ATOM     52  C   UNL A   1      39.691  31.768  33.740  1.00  0.00     0.049 A 
ATOM     53  H   UNL A   1      40.959  30.697  32.477  1.00  0.00     0.167 HD
ATOM     54  C   UNL A   1      43.462  28.348  29.703  1.00  0.00     0.034 A 
ATOM     55  C   UNL A   1      40.301  31.834  34.941  1.00  0.00     0.034 A 
ATOM     56  C   UNL A   1      44.223  28.443  30.923  1.00  0.00     0.049 A 
ATOM     57  C   UNL A   1      41.644  31.159  35.116  1.00  0.00     0.074 A 
ATOM     58  C   UNL A   1      45.496  27.969  31.183  1.00  0.00     0.029 A 
ATOM     59  N   UNL A   1      43.767  29.031  32.096  1.00  0.00    -0.354 N 
ATOM     60  N   UNL A   1      42.362  30.500  34.234  1.00  0.00    -0.248 NA
ATOM     61  C   UNL A   1      42.255  31.236  36.450  1.00  0.00     0.031 C 
ATOM     62  C   UNL A   1      45.781  28.205  32.532  1.00  0.00     0.029 A 
ATOM     63  C   UNL A   1      44.719  28.895  33.096  1.00  0.00     0.049 A 
ATOM     64  H   UNL A   1      42.898  29.478  32.202  1.00  0.00     0.167 HD
ATOM     65  C   UNL A   1      43.520  30.107  34.903  1.00  0.00     0.074 A 
ATOM     66  C   UNL A   1      43.411  30.618  36.254  1.00  0.00     0.031 C 
ATOM     67  C   UNL A   1      44.580  29.394  34.444  1.00  0.00     0.034 A 
BRANCH  54  68
ATOM     68  C   UNL A   1      44.035  27.597  28.528  1.00  0.00     0.023 A 
ATOM     69  C   UNL A   1      45.007  28.171  27.689  1.00  0.00     0.031 A 
ATOM     70  C   UNL A   1      43.568  26.310  28.214  1.00  0.00     0.131 A 
ATOM     71  C   UNL A   1      45.426  27.489  26.537  1.00  0.00     0.055 A 
ATOM     72  C   UNL A   1      44.045  25.605  27.108  1.00  0.00     0.041 A 
ATOM     73  F   UNL A   1      42.619  25.725  28.963  1.00  0.00    -0.206 F 
ATOM     74  C   UNL A   1      44.969  26.200  26.253  1.00  0.00     0.022 A 
BRANCH  71  75
ATOM     75  S   UNL A   1      46.466  28.368  25.338  1.00  0.00     0.124 S 
ATOM     76  O   UNL A   1      46.075  29.757  25.570  1.00  0.00    -0.237 OA
ATOM     77  O   UNL A   1      47.813  28.004  25.762  1.00  0.00    -0.237 OA
ATOM     78  O   UNL A   1      46.046  27.817  24.051  1.00  0.00    -0.744 OA
ENDBRANCH  71  75
ENDBRANCH  54  68
BRANCH  55  79
ATOM     79  C   UNL A   1      39.640  32.510  36.094  1.00  0.00     0.023 A 
ATOM     80  C   UNL A   1      38.860  31.789  37.014  1.00  0.00     0.031 A 
ATOM     81  C   UNL A   1      39.720  33.906  36.253  1.00  0.00     0.131 A 
ATOM     82  C   UNL A   1      38.156  32.470  38.021  1.00  0.00     0.055 A 
ATOM     83  C   UNL A   1      39.060  34.572  37.286  1.00  0.00     0.041 A 
ATOM     84  F   UNL A   1      40.445  34.645  35.400  1.00  0.00    -0.206 F 
ATOM     85  C   UNL A   1      38.260  33.855  38.171  1.00  0.00     0.022 A 
BRANCH  82  86
ATOM     86  S   UNL A   1      37.030  31.526  39.086  1.00  0.00     0.124 S 
ATOM     87  O   UNL A   1      36.866  30.292  38.327  1.00  0.00    -0.237 OA
ATOM     88  O   UNL A   1      37.799  31.423  40.322  1.00  0.00    -0.237 OA
ATOM     89  O   UNL A   1      35.843  32.376  39.163  1.00  0.00    -0.744 OA
ENDBRANCH  82  86
ENDBRANCH  55  79
BRANCH  67  90
ATOM     90  C   UNL A   1      45.717  29.153  35.409  1.00  0.00     0.023 A 
ATOM     91  C   UNL A   1      46.760  30.082  35.566  1.00  0.00     0.031 A 
ATOM     92  C   UNL A   1      45.756  27.977  36.177  1.00  0.00     0.131 A 
ATOM     93  C   UNL A   1      47.826  29.794  36.434  1.00  0.00     0.055 A 
ATOM     94  C   UNL A   1      46.786  27.724  37.083  1.00  0.00     0.041 A 
ATOM     95  F   UNL A   1      44.786  27.055  36.066  1.00  0.00    -0.206 F 
ATOM     96  C   UNL A   1      47.836  28.630  37.206  1.00  0.00     0.022 A 
BRANCH  93  97
ATOM     97  S   UNL A   1      49.243  30.925  36.478  1.00  0.00     0.124 S 
ATOM     98  O   UNL A   1      50.340  30.022  36.817  1.00  0.00    -0.237 OA
ATOM     99  O   UNL A   1      49.257  31.464  35.122  1.00  0.00    -0.237 OA
ATOM    100  O   UNL A   1      48.886  31.884  37.521  1.00  0.00    -0.744 OA
ENDBRANCH  93  97
ENDBRANCH  67  90
ENDBRANCH  41  42
ENDBRANCH  34  36
ENDBRANCH  33  34
ENDBRANCH  32  33
ENDBRANCH  31  32
ENDBRANCH  30  31
ENDBRANCH  29  30
ENDBRANCH  28  29
ENDBRANCH   1  28
TORSDOF 29
ENDMDL
