MODEL 1
REMARK VINA RESULT:      -7.3      0.000      0.000
REMARK SMILES C[C@@H](Oc1ccc(I)cc1)C(=O)NCc1ccc(C(=O)OCCOCCOCCOCCOC(=O)c2ccc(-c3c4nc(c(-c5cc(S(=O)(=O)[O-])ccc5F)c5ccc([nH]5)c(-c5cc(S(=O)(=O)[O-])ccc5F)c5nc(c(-c6cc(S(=O)(=O)[O-])ccc6F)c6ccc3[nH]6)C=C5)C=C4)cc2)cc1
REMARK SMILES IDX 26 1 25 2 24 3 23 4 22 5 21 6 19 7 20 8 18 9 15 10 16 11
REMARK SMILES IDX 100 12 17 13 99 14 14 15 13 16 11 17 12 18 2 20 1 21 3 22
REMARK SMILES IDX 4 23 5 24 10 25 6 26 9 27 7 28 8 29 27 30 28 31 29 32 30 33
REMARK SMILES IDX 31 34 32 35 33 36 34 37 35 38 36 39 37 40 98 41 38 42 97 43
REMARK SMILES IDX 39 44 40 45 41 46 91 47 42 48 96 49 90 50 92 51 43 52 95 53
REMARK SMILES IDX 89 54 88 55 44 57 76 58 56 59 75 60 57 61 60 62 74 63 93 64
REMARK SMILES IDX 58 65 59 66 73 68 94 69 61 70 45 71 46 72 54 73 47 74 53 75
REMARK SMILES IDX 55 76 52 77 48 78 49 79 50 80 51 81 77 82 78 83 86 84 79 85
REMARK SMILES IDX 85 86 87 87 84 88 80 89 81 90 82 91 83 92 62 93 63 94 71 95
REMARK SMILES IDX 64 96 70 97 72 98 69 99 65 100 66 101 67 102 68 103
REMARK H PARENT 13 19 92 56 60 67
REMARK Flexibility Score: inf
ROOT
ATOM      1  C   UNL A   1      46.796  27.202  38.305  1.00  0.00     0.188 C 
ENDROOT
BRANCH   1   2
ATOM      2  C   UNL A   1      46.141  27.481  36.939  1.00  0.00     0.188 C 
BRANCH   2   3
ATOM      3  O   UNL A   1      47.061  27.839  35.926  1.00  0.00    -0.376 OA
BRANCH   3   4
ATOM      4  C   UNL A   1      47.415  26.917  34.913  1.00  0.00     0.202 C 
BRANCH   4   5
ATOM      5  C   UNL A   1      46.631  25.614  34.678  1.00  0.00     0.261 C 
BRANCH   5   6
ATOM      6  O   UNL A   1      45.997  25.459  33.407  1.00  0.00    -0.460 OA
BRANCH   6   7
ATOM      7  C   UNL A   1      44.790  24.860  33.397  1.00  0.00     0.338 C 
ATOM      8  O   UNL A   1      44.565  23.665  33.311  1.00  0.00    -0.246 OA
BRANCH   7   9
ATOM      9  C   UNL A   1      43.764  25.877  33.724  1.00  0.00     0.060 A 
ATOM     10  C   UNL A   1      41.921  27.908  34.304  1.00  0.00    -0.029 A 
ATOM     11  C   UNL A   1      42.707  27.971  33.144  1.00  0.00     0.006 A 
ATOM     12  C   UNL A   1      41.990  26.759  35.109  1.00  0.00     0.006 A 
ATOM     13  C   UNL A   1      43.640  26.974  32.867  1.00  0.00     0.016 A 
ATOM     14  C   UNL A   1      42.906  25.744  34.821  1.00  0.00     0.016 A 
BRANCH  10  15
ATOM     15  C   UNL A   1      40.981  29.026  34.680  1.00  0.00     0.151 C 
BRANCH  15  16
ATOM     16  N   UNL A   1      41.199  30.212  33.868  1.00  0.00    -0.349 N 
ATOM     17  C   UNL A   1      40.396  30.785  32.924  1.00  0.00     0.261 C 
ATOM     18  O   UNL A   1      40.813  31.787  32.335  1.00  0.00    -0.271 OA
ATOM     19  H   UNL A   1      42.057  30.671  34.021  1.00  0.00     0.163 HD
BRANCH  17  20
ATOM     20  C   UNL A   1      39.048  30.151  32.552  1.00  0.00     0.258 C 
ATOM     21  C   UNL A   1      37.992  30.667  33.529  1.00  0.00     0.064 C 
BRANCH  20  22
ATOM     22  O   UNL A   1      38.808  30.467  31.175  1.00  0.00    -0.481 OA
BRANCH  22  23
ATOM     23  C   UNL A   1      38.968  29.443  30.292  1.00  0.00     0.120 A 
ATOM     24  C   UNL A   1      39.076  29.683  28.924  1.00  0.00     0.047 A 
ATOM     25  C   UNL A   1      39.231  28.174  30.804  1.00  0.00     0.047 A 
ATOM     26  C   UNL A   1      39.392  28.639  28.054  1.00  0.00     0.018 A 
ATOM     27  C   UNL A   1      39.563  27.129  29.938  1.00  0.00     0.018 A 
ATOM     28  C   UNL A   1      39.637  27.365  28.565  1.00  0.00     0.013 A 
ATOM     29  I   UNL A   1      40.164  25.826  27.274  1.00  0.00    -0.044 I 
ENDBRANCH  22  23
ENDBRANCH  20  22
ENDBRANCH  17  20
ENDBRANCH  15  16
ENDBRANCH  10  15
ENDBRANCH   7   9
ENDBRANCH   6   7
ENDBRANCH   5   6
ENDBRANCH   4   5
ENDBRANCH   3   4
ENDBRANCH   2   3
ENDBRANCH   1   2
BRANCH   1  30
ATOM     30  O   UNL A   1      47.837  28.077  38.702  1.00  0.00    -0.377 OA
BRANCH  30  31
ATOM     31  C   UNL A   1      47.954  28.471  40.070  1.00  0.00     0.188 C 
BRANCH  31  32
ATOM     32  C   UNL A   1      48.759  29.714  40.526  1.00  0.00     0.188 C 
BRANCH  32  33
ATOM     33  O   UNL A   1      48.659  30.840  39.667  1.00  0.00    -0.376 OA
BRANCH  33  34
ATOM     34  C   UNL A   1      49.542  31.922  39.896  1.00  0.00     0.202 C 
BRANCH  34  35
ATOM     35  C   UNL A   1      49.858  32.803  38.681  1.00  0.00     0.261 C 
BRANCH  35  36
ATOM     36  O   UNL A   1      49.093  34.012  38.565  1.00  0.00    -0.460 OA
BRANCH  36  37
ATOM     37  C   UNL A   1      49.272  34.741  37.442  1.00  0.00     0.338 C 
ATOM     38  O   UNL A   1      50.320  35.233  37.050  1.00  0.00    -0.246 OA
BRANCH  37  39
ATOM     39  C   UNL A   1      48.023  34.677  36.656  1.00  0.00     0.060 A 
ATOM     40  C   UNL A   1      47.346  35.866  36.354  1.00  0.00     0.016 A 
ATOM     41  C   UNL A   1      47.527  33.448  36.211  1.00  0.00     0.016 A 
ATOM     42  C   UNL A   1      46.148  35.824  35.641  1.00  0.00     0.010 A 
ATOM     43  C   UNL A   1      46.316  33.407  35.513  1.00  0.00     0.010 A 
ATOM     44  C   UNL A   1      45.602  34.592  35.258  1.00  0.00    -0.014 A 
BRANCH  44  45
ATOM     45  C   UNL A   1      44.194  34.533  34.789  1.00  0.00     0.031 A 
ATOM     46  C   UNL A   1      43.932  34.668  33.312  1.00  0.00     0.074 A 
ATOM     47  C   UNL A   1      43.175  34.316  35.640  1.00  0.00     0.049 A 
ATOM     48  N   UNL A   1      42.798  34.665  32.662  1.00  0.00    -0.248 NA
ATOM     49  C   UNL A   1      45.117  34.830  32.455  1.00  0.00     0.031 C 
ATOM     50  C   UNL A   1      43.308  34.121  37.083  1.00  0.00     0.029 A 
ATOM     51  N   UNL A   1      41.825  34.223  35.411  1.00  0.00    -0.354 N 
ATOM     52  C   UNL A   1      43.131  34.829  31.321  1.00  0.00     0.074 A 
ATOM     53  C   UNL A   1      44.569  34.973  31.259  1.00  0.00     0.031 C 
ATOM     54  C   UNL A   1      42.085  33.933  37.610  1.00  0.00     0.029 A 
ATOM     55  C   UNL A   1      41.081  34.034  36.551  1.00  0.00     0.049 A 
ATOM     56  H   UNL A   1      41.426  34.287  34.512  1.00  0.00     0.167 HD
ATOM     57  C   UNL A   1      42.313  34.842  30.239  1.00  0.00     0.034 A 
ATOM     58  C   UNL A   1      39.744  33.973  36.722  1.00  0.00     0.034 A 
ATOM     59  C   UNL A   1      40.879  34.711  30.317  1.00  0.00     0.049 A 
ATOM     60  C   UNL A   1      38.845  34.090  35.511  1.00  0.00     0.074 A 
ATOM     61  C   UNL A   1      39.957  34.703  29.286  1.00  0.00     0.029 A 
ATOM     62  N   UNL A   1      40.155  34.581  31.496  1.00  0.00    -0.354 N 
ATOM     63  N   UNL A   1      39.172  34.232  34.245  1.00  0.00    -0.248 NA
ATOM     64  C   UNL A   1      37.398  34.029  35.753  1.00  0.00     0.031 C 
ATOM     65  C   UNL A   1      38.675  34.655  29.844  1.00  0.00     0.029 A 
ATOM     66  C   UNL A   1      38.797  34.535  31.219  1.00  0.00     0.049 A 
ATOM     67  H   UNL A   1      40.549  34.530  32.398  1.00  0.00     0.167 HD
ATOM     68  C   UNL A   1      37.969  34.243  33.541  1.00  0.00     0.074 A 
ATOM     69  C   UNL A   1      36.916  34.070  34.520  1.00  0.00     0.031 C 
ATOM     70  C   UNL A   1      37.752  34.378  32.206  1.00  0.00     0.034 A 
BRANCH  57  71
ATOM     71  C   UNL A   1      42.954  35.064  28.889  1.00  0.00     0.023 A 
ATOM     72  C   UNL A   1      43.371  33.993  28.079  1.00  0.00     0.031 A 
ATOM     73  C   UNL A   1      43.183  36.371  28.421  1.00  0.00     0.131 A 
ATOM     74  C   UNL A   1      44.059  34.247  26.882  1.00  0.00     0.055 A 
ATOM     75  C   UNL A   1      43.790  36.616  27.187  1.00  0.00     0.041 A 
ATOM     76  F   UNL A   1      42.834  37.434  29.161  1.00  0.00    -0.206 F 
ATOM     77  C   UNL A   1      44.246  35.551  26.417  1.00  0.00     0.022 A 
BRANCH  74  78
ATOM     78  S   UNL A   1      44.843  32.856  26.022  1.00  0.00     0.124 S 
ATOM     79  O   UNL A   1      46.261  33.136  26.240  1.00  0.00    -0.237 OA
ATOM     80  O   UNL A   1      44.304  31.702  26.729  1.00  0.00    -0.237 OA
ATOM     81  O   UNL A   1      44.392  33.010  24.639  1.00  0.00    -0.744 OA
ENDBRANCH  74  78
ENDBRANCH  57  71
BRANCH  58  82
ATOM     82  C   UNL A   1      39.155  33.835  38.089  1.00  0.00     0.023 A 
ATOM     83  C   UNL A   1      38.527  32.647  38.497  1.00  0.00     0.031 A 
ATOM     84  C   UNL A   1      39.147  34.922  38.982  1.00  0.00     0.131 A 
ATOM     85  C   UNL A   1      37.875  32.590  39.739  1.00  0.00     0.055 A 
ATOM     86  C   UNL A   1      38.551  34.840  40.242  1.00  0.00     0.041 A 
ATOM     87  F   UNL A   1      39.724  36.086  38.642  1.00  0.00    -0.206 F 
ATOM     88  C   UNL A   1      37.896  33.672  40.621  1.00  0.00     0.022 A 
BRANCH  85  89
ATOM     89  S   UNL A   1      36.906  31.111  40.146  1.00  0.00     0.124 S 
ATOM     90  O   UNL A   1      35.662  31.697  40.634  1.00  0.00    -0.237 OA
ATOM     91  O   UNL A   1      36.833  30.433  38.856  1.00  0.00    -0.237 OA
ATOM     92  O   UNL A   1      37.720  30.438  41.156  1.00  0.00    -0.744 OA
ENDBRANCH  85  89
ENDBRANCH  58  82
BRANCH  70  93
ATOM     93  C   UNL A   1      36.320  34.300  31.728  1.00  0.00     0.023 A 
ATOM     94  C   UNL A   1      35.406  35.346  31.946  1.00  0.00     0.031 A 
ATOM     95  C   UNL A   1      35.855  33.151  31.063  1.00  0.00     0.131 A 
ATOM     96  C   UNL A   1      34.061  35.191  31.575  1.00  0.00     0.055 A 
ATOM     97  C   UNL A   1      34.534  33.035  30.625  1.00  0.00     0.041 A 
ATOM     98  F   UNL A   1      36.678  32.116  30.827  1.00  0.00    -0.206 F 
ATOM     99  C   UNL A   1      33.625  34.051  30.896  1.00  0.00     0.022 A 
BRANCH  96 100
ATOM    100  S   UNL A   1      32.863  36.445  32.106  1.00  0.00     0.124 S 
ATOM    101  O   UNL A   1      33.502  36.989  33.299  1.00  0.00    -0.237 OA
ATOM    102  O   UNL A   1      32.810  37.336  30.950  1.00  0.00    -0.237 OA
ATOM    103  O   UNL A   1      31.646  35.675  32.350  1.00  0.00    -0.744 OA
ENDBRANCH  96 100
ENDBRANCH  70  93
ENDBRANCH  44  45
ENDBRANCH  37  39
ENDBRANCH  36  37
ENDBRANCH  35  36
ENDBRANCH  34  35
ENDBRANCH  33  34
ENDBRANCH  32  33
ENDBRANCH  31  32
ENDBRANCH  30  31
ENDBRANCH   1  30
TORSDOF 28
ENDMDL
MODEL 2
REMARK VINA RESULT:      -6.8      4.488     11.475
REMARK SMILES C[C@@H](Oc1ccc(I)cc1)C(=O)NCc1ccc(C(=O)OCCOCCOCCOCCOC(=O)c2ccc(-c3c4nc(c(-c5cc(S(=O)(=O)[O-])ccc5F)c5ccc([nH]5)c(-c5cc(S(=O)(=O)[O-])ccc5F)c5nc(c(-c6cc(S(=O)(=O)[O-])ccc6F)c6ccc3[nH]6)C=C5)C=C4)cc2)cc1
REMARK SMILES IDX 26 1 25 2 24 3 23 4 22 5 21 6 19 7 20 8 18 9 15 10 16 11
REMARK SMILES IDX 100 12 17 13 99 14 14 15 13 16 11 17 12 18 2 20 1 21 3 22
REMARK SMILES IDX 4 23 5 24 10 25 6 26 9 27 7 28 8 29 27 30 28 31 29 32 30 33
REMARK SMILES IDX 31 34 32 35 33 36 34 37 35 38 36 39 37 40 98 41 38 42 97 43
REMARK SMILES IDX 39 44 40 45 41 46 91 47 42 48 96 49 90 50 92 51 43 52 95 53
REMARK SMILES IDX 89 54 88 55 44 57 76 58 56 59 75 60 57 61 60 62 74 63 93 64
REMARK SMILES IDX 58 65 59 66 73 68 94 69 61 70 45 71 46 72 54 73 47 74 53 75
REMARK SMILES IDX 55 76 52 77 48 78 49 79 50 80 51 81 77 82 78 83 86 84 79 85
REMARK SMILES IDX 85 86 87 87 84 88 80 89 81 90 82 91 83 92 62 93 63 94 71 95
REMARK SMILES IDX 64 96 70 97 72 98 69 99 65 100 66 101 67 102 68 103
REMARK H PARENT 13 19 92 56 60 67
REMARK Flexibility Score: inf
ROOT
ATOM      1  C   UNL A   1      38.461  34.185  35.727  1.00  0.00     0.188 C 
ENDROOT
BRANCH   1   2
ATOM      2  C   UNL A   1      37.330  33.216  35.331  1.00  0.00     0.188 C 
BRANCH   2   3
ATOM      3  O   UNL A   1      36.032  33.734  35.548  1.00  0.00    -0.376 OA
BRANCH   3   4
ATOM      4  C   UNL A   1      35.236  34.164  34.459  1.00  0.00     0.202 C 
BRANCH   4   5
ATOM      5  C   UNL A   1      35.837  34.864  33.228  1.00  0.00     0.261 C 
BRANCH   5   6
ATOM      6  O   UNL A   1      35.386  34.421  31.946  1.00  0.00    -0.460 OA
BRANCH   6   7
ATOM      7  C   UNL A   1      35.052  33.120  31.834  1.00  0.00     0.338 C 
ATOM      8  O   UNL A   1      33.976  32.614  32.099  1.00  0.00    -0.246 OA
BRANCH   7   9
ATOM      9  C   UNL A   1      36.150  32.419  31.127  1.00  0.00     0.060 A 
ATOM     10  C   UNL A   1      38.138  31.085  29.671  1.00  0.00    -0.029 A 
ATOM     11  C   UNL A   1      37.389  32.112  29.076  1.00  0.00     0.006 A 
ATOM     12  C   UNL A   1      37.955  30.814  31.036  1.00  0.00     0.006 A 
ATOM     13  C   UNL A   1      36.385  32.759  29.792  1.00  0.00     0.016 A 
ATOM     14  C   UNL A   1      36.965  31.479  31.766  1.00  0.00     0.016 A 
BRANCH  10  15
ATOM     15  C   UNL A   1      39.157  30.297  28.885  1.00  0.00     0.151 C 
BRANCH  15  16
ATOM     16  N   UNL A   1      40.512  30.556  29.343  1.00  0.00    -0.349 N 
ATOM     17  C   UNL A   1      41.475  29.685  29.763  1.00  0.00     0.261 C 
ATOM     18  O   UNL A   1      42.556  30.147  30.138  1.00  0.00    -0.271 OA
ATOM     19  H   UNL A   1      40.775  31.505  29.352  1.00  0.00     0.163 HD
BRANCH  17  20
ATOM     20  C   UNL A   1      41.189  28.178  29.840  1.00  0.00     0.258 C 
ATOM     21  C   UNL A   1      40.274  27.927  31.039  1.00  0.00     0.064 C 
BRANCH  20  22
ATOM     22  O   UNL A   1      40.646  27.794  28.571  1.00  0.00    -0.481 OA
BRANCH  22  23
ATOM     23  C   UNL A   1      40.810  26.489  28.222  1.00  0.00     0.120 A 
ATOM     24  C   UNL A   1      42.058  25.875  28.295  1.00  0.00     0.047 A 
ATOM     25  C   UNL A   1      39.666  25.726  27.994  1.00  0.00     0.047 A 
ATOM     26  C   UNL A   1      42.175  24.501  28.081  1.00  0.00     0.018 A 
ATOM     27  C   UNL A   1      39.776  24.347  27.794  1.00  0.00     0.018 A 
ATOM     28  C   UNL A   1      41.033  23.741  27.834  1.00  0.00     0.013 A 
ATOM     29  I   UNL A   1      41.203  21.687  27.574  1.00  0.00    -0.044 I 
ENDBRANCH  22  23
ENDBRANCH  20  22
ENDBRANCH  17  20
ENDBRANCH  15  16
ENDBRANCH  10  15
ENDBRANCH   7   9
ENDBRANCH   6   7
ENDBRANCH   5   6
ENDBRANCH   4   5
ENDBRANCH   3   4
ENDBRANCH   2   3
ENDBRANCH   1   2
BRANCH   1  30
ATOM     30  O   UNL A   1      39.660  33.601  36.207  1.00  0.00    -0.377 OA
BRANCH  30  31
ATOM     31  C   UNL A   1      39.701  33.033  37.517  1.00  0.00     0.188 C 
BRANCH  31  32
ATOM     32  C   UNL A   1      39.620  33.883  38.810  1.00  0.00     0.188 C 
BRANCH  32  33
ATOM     33  O   UNL A   1      40.845  34.477  39.214  1.00  0.00    -0.376 OA
BRANCH  33  34
ATOM     34  C   UNL A   1      40.914  35.890  39.236  1.00  0.00     0.202 C 
BRANCH  34  35
ATOM     35  C   UNL A   1      41.811  36.537  38.173  1.00  0.00     0.261 C 
BRANCH  35  36
ATOM     36  O   UNL A   1      42.302  35.662  37.147  1.00  0.00    -0.460 OA
BRANCH  36  37
ATOM     37  C   UNL A   1      43.602  35.300  37.225  1.00  0.00     0.338 C 
ATOM     38  O   UNL A   1      44.323  35.379  38.209  1.00  0.00    -0.246 OA
BRANCH  37  39
ATOM     39  C   UNL A   1      43.954  34.602  35.972  1.00  0.00     0.060 A 
ATOM     40  C   UNL A   1      42.938  34.280  35.063  1.00  0.00     0.016 A 
ATOM     41  C   UNL A   1      45.284  34.275  35.693  1.00  0.00     0.016 A 
ATOM     42  C   UNL A   1      43.247  33.592  33.889  1.00  0.00     0.010 A 
ATOM     43  C   UNL A   1      45.588  33.568  34.525  1.00  0.00     0.010 A 
ATOM     44  C   UNL A   1      44.565  33.191  33.636  1.00  0.00    -0.014 A 
BRANCH  44  45
ATOM     45  C   UNL A   1      44.832  32.200  32.563  1.00  0.00     0.031 A 
ATOM     46  C   UNL A   1      44.755  30.737  32.914  1.00  0.00     0.074 A 
ATOM     47  C   UNL A   1      45.087  32.580  31.298  1.00  0.00     0.049 A 
ATOM     48  N   UNL A   1      44.961  29.686  32.163  1.00  0.00    -0.248 NA
ATOM     49  C   UNL A   1      44.400  30.421  34.307  1.00  0.00     0.031 C 
ATOM     50  C   UNL A   1      45.138  33.963  30.827  1.00  0.00     0.029 A 
ATOM     51  N   UNL A   1      45.350  31.832  30.177  1.00  0.00    -0.354 N 
ATOM     52  C   UNL A   1      44.763  28.586  32.991  1.00  0.00     0.074 A 
ATOM     53  C   UNL A   1      44.468  29.099  34.311  1.00  0.00     0.031 C 
ATOM     54  C   UNL A   1      45.418  33.963  29.511  1.00  0.00     0.029 A 
ATOM     55  C   UNL A   1      45.605  32.586  29.056  1.00  0.00     0.049 A 
ATOM     56  H   UNL A   1      45.356  30.847  30.177  1.00  0.00     0.167 HD
ATOM     57  C   UNL A   1      44.810  27.267  32.676  1.00  0.00     0.034 A 
ATOM     58  C   UNL A   1      45.970  32.208  27.814  1.00  0.00     0.034 A 
ATOM     59  C   UNL A   1      45.120  26.770  31.359  1.00  0.00     0.049 A 
ATOM     60  C   UNL A   1      46.113  30.733  27.510  1.00  0.00     0.074 A 
ATOM     61  C   UNL A   1      45.186  25.457  30.927  1.00  0.00     0.029 A 
ATOM     62  N   UNL A   1      45.432  27.563  30.261  1.00  0.00    -0.354 N 
ATOM     63  N   UNL A   1      45.911  29.699  28.298  1.00  0.00    -0.248 NA
ATOM     64  C   UNL A   1      46.523  30.374  26.146  1.00  0.00     0.031 C 
ATOM     65  C   UNL A   1      45.621  25.454  29.597  1.00  0.00     0.029 A 
ATOM     66  C   UNL A   1      45.732  26.766  29.166  1.00  0.00     0.049 A 
ATOM     67  H   UNL A   1      45.440  28.548  30.261  1.00  0.00     0.167 HD
ATOM     68  C   UNL A   1      46.139  28.571  27.512  1.00  0.00     0.074 A 
ATOM     69  C   UNL A   1      46.469  29.052  26.186  1.00  0.00     0.031 C 
ATOM     70  C   UNL A   1      46.077  27.256  27.851  1.00  0.00     0.034 A 
BRANCH  57  71
ATOM     71  C   UNL A   1      44.576  26.279  33.795  1.00  0.00     0.023 A 
ATOM     72  C   UNL A   1      43.312  26.113  34.387  1.00  0.00     0.031 A 
ATOM     73  C   UNL A   1      45.644  25.516  34.299  1.00  0.00     0.131 A 
ATOM     74  C   UNL A   1      43.163  25.263  35.494  1.00  0.00     0.055 A 
ATOM     75  C   UNL A   1      45.471  24.606  35.345  1.00  0.00     0.041 A 
ATOM     76  F   UNL A   1      46.880  25.651  33.795  1.00  0.00    -0.206 F 
ATOM     77  C   UNL A   1      44.228  24.488  35.959  1.00  0.00     0.022 A 
BRANCH  74  78
ATOM     78  S   UNL A   1      41.602  25.304  36.416  1.00  0.00     0.124 S 
ATOM     79  O   UNL A   1      42.024  25.891  37.686  1.00  0.00    -0.237 OA
ATOM     80  O   UNL A   1      40.759  26.144  35.573  1.00  0.00    -0.237 OA
ATOM     81  O   UNL A   1      41.209  23.898  36.488  1.00  0.00    -0.744 OA
ENDBRANCH  74  78
ENDBRANCH  57  71
BRANCH  58  82
ATOM     82  C   UNL A   1      46.271  33.227  26.763  1.00  0.00     0.023 A 
ATOM     83  C   UNL A   1      47.586  33.643  26.504  1.00  0.00     0.031 A 
ATOM     84  C   UNL A   1      45.232  33.857  26.054  1.00  0.00     0.131 A 
ATOM     85  C   UNL A   1      47.825  34.691  25.600  1.00  0.00     0.055 A 
ATOM     86  C   UNL A   1      45.479  34.856  25.111  1.00  0.00     0.041 A 
ATOM     87  F   UNL A   1      43.953  33.506  26.268  1.00  0.00    -0.206 F 
ATOM     88  C   UNL A   1      46.782  35.289  24.890  1.00  0.00     0.022 A 
BRANCH  85  89
ATOM     89  S   UNL A   1      49.514  35.335  25.441  1.00  0.00     0.124 S 
ATOM     90  O   UNL A   1      49.353  36.331  24.387  1.00  0.00    -0.237 OA
ATOM     91  O   UNL A   1      49.768  35.853  26.781  1.00  0.00    -0.237 OA
ATOM     92  O   UNL A   1      50.294  34.155  25.073  1.00  0.00    -0.744 OA
ENDBRANCH  85  89
ENDBRANCH  58  82
BRANCH  70  93
ATOM     93  C   UNL A   1      46.331  26.247  26.754  1.00  0.00     0.023 A 
ATOM     94  C   UNL A   1      45.290  25.495  26.182  1.00  0.00     0.031 A 
ATOM     95  C   UNL A   1      47.638  26.017  26.288  1.00  0.00     0.131 A 
ATOM     96  C   UNL A   1      45.582  24.498  25.237  1.00  0.00     0.055 A 
ATOM     97  C   UNL A   1      47.914  25.080  25.292  1.00  0.00     0.041 A 
ATOM     98  F   UNL A   1      48.676  26.703  26.797  1.00  0.00    -0.206 F 
ATOM     99  C   UNL A   1      46.884  24.301  24.773  1.00  0.00     0.022 A 
BRANCH  96 100
ATOM    100  S   UNL A   1      44.255  23.375  24.720  1.00  0.00     0.124 S 
ATOM    101  O   UNL A   1      44.242  22.400  25.805  1.00  0.00    -0.237 OA
ATOM    102  O   UNL A   1      43.101  24.267  24.652  1.00  0.00    -0.237 OA
ATOM    103  O   UNL A   1      44.720  22.865  23.432  1.00  0.00    -0.744 OA
ENDBRANCH  96 100
ENDBRANCH  70  93
ENDBRANCH  44  45
ENDBRANCH  37  39
ENDBRANCH  36  37
ENDBRANCH  35  36
ENDBRANCH  34  35
ENDBRANCH  33  34
ENDBRANCH  32  33
ENDBRANCH  31  32
ENDBRANCH  30  31
ENDBRANCH   1  30
TORSDOF 28
ENDMDL
MODEL 3
REMARK VINA RESULT:      -6.3      7.471     12.304
REMARK SMILES C[C@@H](Oc1ccc(I)cc1)C(=O)NCc1ccc(C(=O)OCCOCCOCCOCCOC(=O)c2ccc(-c3c4nc(c(-c5cc(S(=O)(=O)[O-])ccc5F)c5ccc([nH]5)c(-c5cc(S(=O)(=O)[O-])ccc5F)c5nc(c(-c6cc(S(=O)(=O)[O-])ccc6F)c6ccc3[nH]6)C=C5)C=C4)cc2)cc1
REMARK SMILES IDX 26 1 25 2 24 3 23 4 22 5 21 6 19 7 20 8 18 9 15 10 16 11
REMARK SMILES IDX 100 12 17 13 99 14 14 15 13 16 11 17 12 18 2 20 1 21 3 22
REMARK SMILES IDX 4 23 5 24 10 25 6 26 9 27 7 28 8 29 27 30 28 31 29 32 30 33
REMARK SMILES IDX 31 34 32 35 33 36 34 37 35 38 36 39 37 40 98 41 38 42 97 43
REMARK SMILES IDX 39 44 40 45 41 46 91 47 42 48 96 49 90 50 92 51 43 52 95 53
REMARK SMILES IDX 89 54 88 55 44 57 76 58 56 59 75 60 57 61 60 62 74 63 93 64
REMARK SMILES IDX 58 65 59 66 73 68 94 69 61 70 45 71 46 72 54 73 47 74 53 75
REMARK SMILES IDX 55 76 52 77 48 78 49 79 50 80 51 81 77 82 78 83 86 84 79 85
REMARK SMILES IDX 85 86 87 87 84 88 80 89 81 90 82 91 83 92 62 93 63 94 71 95
REMARK SMILES IDX 64 96 70 97 72 98 69 99 65 100 66 101 67 102 68 103
REMARK H PARENT 13 19 92 56 60 67
REMARK Flexibility Score: inf
ROOT
ATOM      1  C   UNL A   1      54.924  22.129  35.217  1.00  0.00     0.188 C 
ENDROOT
BRANCH   1   2
ATOM      2  C   UNL A   1      54.237  22.825  36.407  1.00  0.00     0.188 C 
BRANCH   2   3
ATOM      3  O   UNL A   1      52.848  23.030  36.226  1.00  0.00    -0.376 OA
BRANCH   3   4
ATOM      4  C   UNL A   1      52.076  22.116  35.471  1.00  0.00     0.202 C 
BRANCH   4   5
ATOM      5  C   UNL A   1      50.960  21.266  36.102  1.00  0.00     0.261 C 
BRANCH   5   6
ATOM      6  O   UNL A   1      51.275  20.581  37.316  1.00  0.00    -0.460 OA
BRANCH   6   7
ATOM      7  C   UNL A   1      50.936  19.278  37.385  1.00  0.00     0.338 C 
ATOM      8  O   UNL A   1      51.440  18.356  36.768  1.00  0.00    -0.246 OA
BRANCH   7   9
ATOM      9  C   UNL A   1      49.979  19.106  38.503  1.00  0.00     0.060 A 
ATOM     10  C   UNL A   1      48.240  18.656  40.653  1.00  0.00    -0.029 A 
ATOM     11  C   UNL A   1      49.620  18.448  40.799  1.00  0.00     0.006 A 
ATOM     12  C   UNL A   1      47.759  19.200  39.452  1.00  0.00     0.006 A 
ATOM     13  C   UNL A   1      50.482  18.649  39.724  1.00  0.00     0.016 A 
ATOM     14  C   UNL A   1      48.624  19.428  38.378  1.00  0.00     0.016 A 
BRANCH  10  15
ATOM     15  C   UNL A   1      47.274  18.342  41.769  1.00  0.00     0.151 C 
BRANCH  15  16
ATOM     16  N   UNL A   1      46.002  19.024  41.592  1.00  0.00    -0.349 N 
ATOM     17  C   UNL A   1      44.814  18.842  42.238  1.00  0.00     0.261 C 
ATOM     18  O   UNL A   1      43.849  19.529  41.890  1.00  0.00    -0.271 OA
ATOM     19  H   UNL A   1      45.997  19.724  40.899  1.00  0.00     0.163 HD
BRANCH  17  20
ATOM     20  C   UNL A   1      44.665  17.755  43.314  1.00  0.00     0.258 C 
ATOM     21  C   UNL A   1      44.524  18.443  44.671  1.00  0.00     0.064 C 
BRANCH  20  22
ATOM     22  O   UNL A   1      43.553  16.940  42.927  1.00  0.00    -0.481 OA
BRANCH  22  23
ATOM     23  C   UNL A   1      43.541  15.672  43.424  1.00  0.00     0.120 A 
ATOM     24  C   UNL A   1      42.435  14.842  43.253  1.00  0.00     0.047 A 
ATOM     25  C   UNL A   1      44.736  15.155  43.922  1.00  0.00     0.047 A 
ATOM     26  C   UNL A   1      42.503  13.501  43.634  1.00  0.00     0.018 A 
ATOM     27  C   UNL A   1      44.812  13.809  44.291  1.00  0.00     0.018 A 
ATOM     28  C   UNL A   1      43.692  12.989  44.149  1.00  0.00     0.013 A 
ATOM     29  I   UNL A   1      43.807  10.979  44.661  1.00  0.00    -0.044 I 
ENDBRANCH  22  23
ENDBRANCH  20  22
ENDBRANCH  17  20
ENDBRANCH  15  16
ENDBRANCH  10  15
ENDBRANCH   7   9
ENDBRANCH   6   7
ENDBRANCH   5   6
ENDBRANCH   4   5
ENDBRANCH   3   4
ENDBRANCH   2   3
ENDBRANCH   1   2
BRANCH   1  30
ATOM     30  O   UNL A   1      55.555  22.970  34.267  1.00  0.00    -0.377 OA
BRANCH  30  31
ATOM     31  C   UNL A   1      54.771  23.649  33.285  1.00  0.00     0.188 C 
BRANCH  31  32
ATOM     32  C   UNL A   1      55.331  24.788  32.397  1.00  0.00     0.188 C 
BRANCH  32  33
ATOM     33  O   UNL A   1      55.438  24.475  31.016  1.00  0.00    -0.376 OA
BRANCH  33  34
ATOM     34  C   UNL A   1      56.007  25.449  30.163  1.00  0.00     0.202 C 
BRANCH  34  35
ATOM     35  C   UNL A   1      55.049  26.524  29.634  1.00  0.00     0.261 C 
BRANCH  35  36
ATOM     36  O   UNL A   1      53.677  26.129  29.493  1.00  0.00    -0.460 OA
BRANCH  36  37
ATOM     37  C   UNL A   1      53.085  26.392  28.308  1.00  0.00     0.338 C 
ATOM     38  O   UNL A   1      53.476  26.043  27.204  1.00  0.00    -0.246 OA
BRANCH  37  39
ATOM     39  C   UNL A   1      51.769  27.004  28.583  1.00  0.00     0.060 A 
ATOM     40  C   UNL A   1      51.658  27.940  29.620  1.00  0.00     0.016 A 
ATOM     41  C   UNL A   1      50.653  26.662  27.815  1.00  0.00     0.016 A 
ATOM     42  C   UNL A   1      50.417  28.506  29.917  1.00  0.00     0.010 A 
ATOM     43  C   UNL A   1      49.408  27.216  28.127  1.00  0.00     0.010 A 
ATOM     44  C   UNL A   1      49.278  28.112  29.204  1.00  0.00    -0.014 A 
BRANCH  44  45
ATOM     45  C   UNL A   1      47.933  28.469  29.724  1.00  0.00     0.031 A 
ATOM     46  C   UNL A   1      47.311  27.570  30.759  1.00  0.00     0.074 A 
ATOM     47  C   UNL A   1      47.298  29.587  29.329  1.00  0.00     0.049 A 
ATOM     48  N   UNL A   1      46.149  27.658  31.352  1.00  0.00    -0.248 NA
ATOM     49  C   UNL A   1      48.114  26.410  31.178  1.00  0.00     0.031 C 
ATOM     50  C   UNL A   1      47.820  30.561  28.371  1.00  0.00     0.029 A 
ATOM     51  N   UNL A   1      46.073  30.092  29.688  1.00  0.00    -0.354 N 
ATOM     52  C   UNL A   1      46.079  26.565  32.211  1.00  0.00     0.074 A 
ATOM     53  C   UNL A   1      47.297  25.806  32.026  1.00  0.00     0.031 C 
ATOM     54  C   UNL A   1      46.917  31.546  28.218  1.00  0.00     0.029 A 
ATOM     55  C   UNL A   1      45.739  31.254  29.034  1.00  0.00     0.049 A 
ATOM     56  H   UNL A   1      45.487  29.661  30.353  1.00  0.00     0.167 HD
ATOM     57  C   UNL A   1      45.096  26.234  33.084  1.00  0.00     0.034 A 
ATOM     58  C   UNL A   1      44.604  31.984  29.072  1.00  0.00     0.034 A 
ATOM     59  C   UNL A   1      43.880  26.993  33.247  1.00  0.00     0.049 A 
ATOM     60  C   UNL A   1      43.480  31.540  29.981  1.00  0.00     0.074 A 
ATOM     61  C   UNL A   1      42.824  26.753  34.107  1.00  0.00     0.029 A 
ATOM     62  N   UNL A   1      43.551  28.132  32.523  1.00  0.00    -0.354 N 
ATOM     63  N   UNL A   1      43.429  30.512  30.799  1.00  0.00    -0.248 NA
ATOM     64  C   UNL A   1      42.263  32.362  29.978  1.00  0.00     0.031 C 
ATOM     65  C   UNL A   1      41.821  27.693  33.843  1.00  0.00     0.029 A 
ATOM     66  C   UNL A   1      42.289  28.581  32.887  1.00  0.00     0.049 A 
ATOM     67  H   UNL A   1      44.128  28.559  31.849  1.00  0.00     0.167 HD
ATOM     68  C   UNL A   1      42.188  30.587  31.430  1.00  0.00     0.074 A 
ATOM     69  C   UNL A   1      41.535  31.772  30.914  1.00  0.00     0.031 C 
ATOM     70  C   UNL A   1      41.639  29.756  32.354  1.00  0.00     0.034 A 
BRANCH  57  71
ATOM     71  C   UNL A   1      45.277  24.964  33.882  1.00  0.00     0.023 A 
ATOM     72  C   UNL A   1      45.891  24.963  35.147  1.00  0.00     0.031 A 
ATOM     73  C   UNL A   1      44.860  23.730  33.352  1.00  0.00     0.131 A 
ATOM     74  C   UNL A   1      46.136  23.748  35.806  1.00  0.00     0.055 A 
ATOM     75  C   UNL A   1      45.028  22.533  34.052  1.00  0.00     0.041 A 
ATOM     76  F   UNL A   1      44.295  23.663  32.138  1.00  0.00    -0.206 F 
ATOM     77  C   UNL A   1      45.684  22.536  35.279  1.00  0.00     0.022 A 
BRANCH  74  78
ATOM     78  S   UNL A   1      47.192  23.758  37.280  1.00  0.00     0.124 S 
ATOM     79  O   UNL A   1      46.849  25.046  37.879  1.00  0.00    -0.237 OA
ATOM     80  O   UNL A   1      46.738  22.576  38.002  1.00  0.00    -0.237 OA
ATOM     81  O   UNL A   1      48.546  23.676  36.734  1.00  0.00    -0.744 OA
ENDBRANCH  74  78
ENDBRANCH  57  71
BRANCH  58  82
ATOM     82  C   UNL A   1      44.441  33.187  28.202  1.00  0.00     0.023 A 
ATOM     83  C   UNL A   1      44.583  34.485  28.717  1.00  0.00     0.031 A 
ATOM     84  C   UNL A   1      44.066  33.053  26.852  1.00  0.00     0.131 A 
ATOM     85  C   UNL A   1      44.301  35.596  27.905  1.00  0.00     0.055 A 
ATOM     86  C   UNL A   1      43.847  34.161  26.031  1.00  0.00     0.041 A 
ATOM     87  F   UNL A   1      43.906  31.835  26.309  1.00  0.00    -0.206 F 
ATOM     88  C   UNL A   1      43.950  35.443  26.561  1.00  0.00     0.022 A 
BRANCH  85  89
ATOM     89  S   UNL A   1      44.299  37.247  28.657  1.00  0.00     0.124 S 
ATOM     90  O   UNL A   1      45.723  37.471  28.883  1.00  0.00    -0.237 OA
ATOM     91  O   UNL A   1      43.680  38.055  27.613  1.00  0.00    -0.237 OA
ATOM     92  O   UNL A   1      43.495  37.069  29.865  1.00  0.00    -0.744 OA
ENDBRANCH  85  89
ENDBRANCH  58  82
BRANCH  70  93
ATOM     93  C   UNL A   1      40.278  30.130  32.897  1.00  0.00     0.023 A 
ATOM     94  C   UNL A   1      40.127  30.808  34.119  1.00  0.00     0.031 A 
ATOM     95  C   UNL A   1      39.112  29.783  32.191  1.00  0.00     0.131 A 
ATOM     96  C   UNL A   1      38.843  31.047  34.635  1.00  0.00     0.055 A 
ATOM     97  C   UNL A   1      37.838  30.094  32.670  1.00  0.00     0.041 A 
ATOM     98  F   UNL A   1      39.190  29.132  31.019  1.00  0.00    -0.206 F 
ATOM     99  C   UNL A   1      37.698  30.714  33.908  1.00  0.00     0.022 A 
BRANCH  96 100
ATOM    100  S   UNL A   1      38.690  31.684  36.327  1.00  0.00     0.124 S 
ATOM    101  O   UNL A   1      37.768  30.727  36.928  1.00  0.00    -0.237 OA
ATOM    102  O   UNL A   1      40.068  31.628  36.806  1.00  0.00    -0.237 OA
ATOM    103  O   UNL A   1      38.154  33.030  36.139  1.00  0.00    -0.744 OA
ENDBRANCH  96 100
ENDBRANCH  70  93
ENDBRANCH  44  45
ENDBRANCH  37  39
ENDBRANCH  36  37
ENDBRANCH  35  36
ENDBRANCH  34  35
ENDBRANCH  33  34
ENDBRANCH  32  33
ENDBRANCH  31  32
ENDBRANCH  30  31
ENDBRANCH   1  30
TORSDOF 28
ENDMDL
