MODEL 1
REMARK VINA RESULT:      -8.7      0.000      0.000
REMARK SMILES CSc1ncc(Cl)c(C(=O)Nc2ccsc2C(=O)OCCOCCOCCOCCOC(=O)c2ccc(-c3c4nc(c(-c5cc(S(=O)(=O)[O-])ccc5F)c5ccc([nH]5)c(-c5cc(S(=O)(=O)[O-])ccc5F)c5nc(c(-c6cc(S(=O)(=O)[O-])ccc6F)c6ccc3[nH]6)C=C5)C=C4)cc2)n1
REMARK SMILES IDX 25 1 24 2 23 3 22 4 21 5 20 6 19 7 17 8 18 9 16 10 12 11
REMARK SMILES IDX 13 12 14 13 15 14 11 15 9 16 10 17 8 19 3 20 4 21 97 22 5 23
REMARK SMILES IDX 6 24 7 25 2 26 1 27 26 28 27 29 28 30 29 31 30 32 31 33
REMARK SMILES IDX 32 34 33 35 34 36 35 37 96 38 36 39 95 40 37 41 38 42 39 43
REMARK SMILES IDX 89 44 40 45 94 46 88 47 90 48 41 49 93 50 87 51 86 52 42 54
REMARK SMILES IDX 74 55 54 56 73 57 55 58 58 59 72 60 91 61 56 62 57 63 71 65
REMARK SMILES IDX 92 66 59 67 43 68 44 69 52 70 45 71 51 72 53 73 50 74 46 75
REMARK SMILES IDX 47 76 48 77 49 78 75 79 76 80 84 81 77 82 83 83 85 84 82 85
REMARK SMILES IDX 78 86 79 87 80 88 81 89 60 90 61 91 69 92 62 93 68 94 70 95
REMARK SMILES IDX 67 96 63 97 64 98 65 99 66 100
REMARK H PARENT 11 18 90 53 58 64
REMARK Flexibility Score: inf
ROOT
ATOM      1  O   UNL A   1      41.949  22.479  27.407  1.00  0.00    -0.377 OA
ENDROOT
BRANCH   1   2
ATOM      2  C   UNL A   1      41.458  23.594  28.125  1.00  0.00     0.188 C 
BRANCH   2   3
ATOM      3  C   UNL A   1      40.047  24.072  27.739  1.00  0.00     0.188 C 
BRANCH   3   4
ATOM      4  O   UNL A   1      39.485  23.895  26.440  1.00  0.00    -0.376 OA
BRANCH   4   5
ATOM      5  C   UNL A   1      38.541  22.870  26.189  1.00  0.00     0.202 C 
BRANCH   5   6
ATOM      6  C   UNL A   1      37.225  23.330  25.543  1.00  0.00     0.261 C 
BRANCH   6   7
ATOM      7  O   UNL A   1      36.504  22.312  24.822  1.00  0.00    -0.459 OA
BRANCH   7   8
ATOM      8  C   UNL A   1      35.876  22.731  23.683  1.00  0.00     0.350 C 
ATOM      9  O   UNL A   1      36.452  23.299  22.758  1.00  0.00    -0.245 OA
BRANCH   8  10
ATOM     10  C   UNL A   1      34.450  22.404  23.713  1.00  0.00     0.136 A 
ATOM     11  C   UNL A   1      33.352  22.838  22.965  1.00  0.00     0.067 A 
ATOM     12  C   UNL A   1      32.161  22.140  23.346  1.00  0.00     0.039 A 
ATOM     13  C   UNL A   1      32.336  21.340  24.451  1.00  0.00     0.068 A 
ATOM     14  S   UNL A   1      33.955  21.316  24.961  1.00  0.00    -0.135 S 
BRANCH  11  15
ATOM     15  N   UNL A   1      33.452  23.810  21.975  1.00  0.00    -0.319 N 
ATOM     16  C   UNL A   1      33.173  25.163  21.956  1.00  0.00     0.276 C 
ATOM     17  O   UNL A   1      33.250  25.751  20.874  1.00  0.00    -0.267 OA
ATOM     18  H   UNL A   1      33.787  23.465  21.116  1.00  0.00     0.170 HD
BRANCH  16  19
ATOM     19  C   UNL A   1      32.850  25.991  23.158  1.00  0.00     0.151 A 
ATOM     20  C   UNL A   1      31.415  26.176  24.955  1.00  0.00     0.188 A 
ATOM     21  N   UNL A   1      31.881  27.388  25.287  1.00  0.00    -0.230 NA
ATOM     22  N   UNL A   1      31.897  25.429  23.955  1.00  0.00    -0.216 NA
ATOM     23  C   UNL A   1      32.818  27.909  24.476  1.00  0.00     0.137 A 
ATOM     24  C   UNL A   1      33.308  27.280  23.351  1.00  0.00     0.090 A 
ATOM     25  Cl  UNL A   1      34.316  28.191  22.307  1.00  0.00    -0.080 Cl
BRANCH  20  26
ATOM     26  S   UNL A   1      29.950  25.628  25.782  1.00  0.00    -0.090 SA
ATOM     27  C   UNL A   1      30.603  24.053  26.401  1.00  0.00     0.094 C 
ENDBRANCH  20  26
ENDBRANCH  16  19
ENDBRANCH  11  15
ENDBRANCH   8  10
ENDBRANCH   7   8
ENDBRANCH   6   7
ENDBRANCH   5   6
ENDBRANCH   4   5
ENDBRANCH   3   4
ENDBRANCH   2   3
ENDBRANCH   1   2
BRANCH   1  28
ATOM     28  C   UNL A   1      41.477  21.208  27.839  1.00  0.00     0.188 C 
BRANCH  28  29
ATOM     29  C   UNL A   1      41.038  20.266  26.710  1.00  0.00     0.188 C 
BRANCH  29  30
ATOM     30  O   UNL A   1      41.575  18.948  26.872  1.00  0.00    -0.376 OA
BRANCH  30  31
ATOM     31  C   UNL A   1      42.302  18.438  25.755  1.00  0.00     0.202 C 
BRANCH  31  32
ATOM     32  C   UNL A   1      43.777  18.871  25.718  1.00  0.00     0.261 C 
BRANCH  32  33
ATOM     33  O   UNL A   1      44.095  19.902  24.768  1.00  0.00    -0.460 OA
BRANCH  33  34
ATOM     34  C   UNL A   1      45.402  20.099  24.479  1.00  0.00     0.338 C 
ATOM     35  O   UNL A   1      46.127  19.353  23.849  1.00  0.00    -0.246 OA
BRANCH  34  36
ATOM     36  C   UNL A   1      45.764  21.472  24.890  1.00  0.00     0.060 A 
ATOM     37  C   UNL A   1      45.669  21.813  26.244  1.00  0.00     0.016 A 
ATOM     38  C   UNL A   1      46.175  22.420  23.948  1.00  0.00     0.016 A 
ATOM     39  C   UNL A   1      45.949  23.119  26.656  1.00  0.00     0.010 A 
ATOM     40  C   UNL A   1      46.437  23.730  24.360  1.00  0.00     0.010 A 
ATOM     41  C   UNL A   1      46.294  24.093  25.710  1.00  0.00    -0.014 A 
BRANCH  41  42
ATOM     42  C   UNL A   1      46.313  25.526  26.095  1.00  0.00     0.031 A 
ATOM     43  C   UNL A   1      47.645  26.227  26.161  1.00  0.00     0.074 A 
ATOM     44  C   UNL A   1      45.180  26.192  26.382  1.00  0.00     0.049 A 
ATOM     45  N   UNL A   1      47.924  27.452  26.520  1.00  0.00    -0.248 NA
ATOM     46  C   UNL A   1      48.821  25.430  25.772  1.00  0.00     0.031 C 
ATOM     47  C   UNL A   1      43.831  25.631  26.324  1.00  0.00     0.029 A 
ATOM     48  N   UNL A   1      44.986  27.487  26.794  1.00  0.00    -0.354 N 
ATOM     49  C   UNL A   1      49.305  27.575  26.406  1.00  0.00     0.074 A 
ATOM     50  C   UNL A   1      49.808  26.291  25.969  1.00  0.00     0.031 C 
ATOM     51  C   UNL A   1      42.950  26.574  26.702  1.00  0.00     0.029 A 
ATOM     52  C   UNL A   1      43.671  27.793  27.062  1.00  0.00     0.049 A 
ATOM     53  H   UNL A   1      45.720  28.137  26.890  1.00  0.00     0.167 HD
ATOM     54  C   UNL A   1      50.081  28.659  26.643  1.00  0.00     0.034 A 
ATOM     55  C   UNL A   1      43.124  28.919  27.566  1.00  0.00     0.034 A 
ATOM     56  C   UNL A   1      49.571  29.930  27.090  1.00  0.00     0.049 A 
ATOM     57  C   UNL A   1      44.024  30.089  27.898  1.00  0.00     0.074 A 
ATOM     58  C   UNL A   1      50.268  31.101  27.331  1.00  0.00     0.029 A 
ATOM     59  N   UNL A   1      48.239  30.194  27.378  1.00  0.00    -0.354 N 
ATOM     60  N   UNL A   1      45.325  30.202  27.751  1.00  0.00    -0.248 NA
ATOM     61  C   UNL A   1      43.379  31.285  28.459  1.00  0.00     0.031 C 
ATOM     62  C   UNL A   1      49.371  32.050  27.829  1.00  0.00     0.029 A 
ATOM     63  C   UNL A   1      48.101  31.496  27.829  1.00  0.00     0.049 A 
ATOM     64  H   UNL A   1      47.501  29.549  27.277  1.00  0.00     0.167 HD
ATOM     65  C   UNL A   1      45.643  31.495  28.163  1.00  0.00     0.074 A 
ATOM     66  C   UNL A   1      44.400  32.125  28.555  1.00  0.00     0.031 C 
ATOM     67  C   UNL A   1      46.852  32.112  28.211  1.00  0.00     0.034 A 
BRANCH  54  68
ATOM     68  C   UNL A   1      51.569  28.497  26.477  1.00  0.00     0.023 A 
ATOM     69  C   UNL A   1      52.395  28.099  27.542  1.00  0.00     0.031 A 
ATOM     70  C   UNL A   1      52.171  28.755  25.233  1.00  0.00     0.131 A 
ATOM     71  C   UNL A   1      53.784  28.017  27.356  1.00  0.00     0.055 A 
ATOM     72  C   UNL A   1      53.545  28.607  25.036  1.00  0.00     0.041 A 
ATOM     73  F   UNL A   1      51.432  29.162  24.189  1.00  0.00    -0.206 F 
ATOM     74  C   UNL A   1      54.361  28.246  26.104  1.00  0.00     0.022 A 
BRANCH  71  75
ATOM     75  S   UNL A   1      54.840  27.709  28.797  1.00  0.00     0.124 S 
ATOM     76  O   UNL A   1      53.851  27.582  29.865  1.00  0.00    -0.237 OA
ATOM     77  O   UNL A   1      55.538  26.485  28.423  1.00  0.00    -0.237 OA
ATOM     78  O   UNL A   1      55.677  28.906  28.871  1.00  0.00    -0.744 OA
ENDBRANCH  71  75
ENDBRANCH  54  68
BRANCH  55  79
ATOM     79  C   UNL A   1      41.659  29.003  27.845  1.00  0.00     0.023 A 
ATOM     80  C   UNL A   1      41.161  28.883  29.152  1.00  0.00     0.031 A 
ATOM     81  C   UNL A   1      40.729  29.101  26.794  1.00  0.00     0.131 A 
ATOM     82  C   UNL A   1      39.776  28.798  29.370  1.00  0.00     0.055 A 
ATOM     83  C   UNL A   1      39.352  29.077  27.022  1.00  0.00     0.041 A 
ATOM     84  F   UNL A   1      41.149  29.210  25.523  1.00  0.00    -0.206 F 
ATOM     85  C   UNL A   1      38.868  28.907  28.315  1.00  0.00     0.022 A 
BRANCH  82  86
ATOM     86  S   UNL A   1      39.183  28.422  31.043  1.00  0.00     0.124 S 
ATOM     87  O   UNL A   1      38.588  27.103  30.858  1.00  0.00    -0.237 OA
ATOM     88  O   UNL A   1      40.418  28.466  31.819  1.00  0.00    -0.237 OA
ATOM     89  O   UNL A   1      38.236  29.501  31.319  1.00  0.00    -0.744 OA
ENDBRANCH  82  86
ENDBRANCH  55  79
BRANCH  67  90
ATOM     90  C   UNL A   1      46.873  33.557  28.640  1.00  0.00     0.023 A 
ATOM     91  C   UNL A   1      46.693  34.609  27.725  1.00  0.00     0.031 A 
ATOM     92  C   UNL A   1      47.082  33.885  29.992  1.00  0.00     0.131 A 
ATOM     93  C   UNL A   1      46.774  35.939  28.165  1.00  0.00     0.055 A 
ATOM     94  C   UNL A   1      47.107  35.208  30.433  1.00  0.00     0.041 A 
ATOM     95  F   UNL A   1      47.260  32.920  30.910  1.00  0.00    -0.206 F 
ATOM     96  C   UNL A   1      46.965  36.245  29.516  1.00  0.00     0.022 A 
BRANCH  93  97
ATOM     97  S   UNL A   1      46.708  37.270  26.935  1.00  0.00     0.124 S 
ATOM     98  O   UNL A   1      47.218  36.608  25.739  1.00  0.00    -0.237 OA
ATOM     99  O   UNL A   1      45.289  37.612  26.919  1.00  0.00    -0.237 OA
ATOM    100  O   UNL A   1      47.584  38.299  27.495  1.00  0.00    -0.744 OA
ENDBRANCH  93  97
ENDBRANCH  67  90
ENDBRANCH  41  42
ENDBRANCH  34  36
ENDBRANCH  33  34
ENDBRANCH  32  33
ENDBRANCH  31  32
ENDBRANCH  30  31
ENDBRANCH  29  30
ENDBRANCH  28  29
ENDBRANCH   1  28
TORSDOF 26
ENDMDL
MODEL 2
REMARK VINA RESULT:      -8.4      2.006      2.344
REMARK SMILES CSc1ncc(Cl)c(C(=O)Nc2ccsc2C(=O)OCCOCCOCCOCCOC(=O)c2ccc(-c3c4nc(c(-c5cc(S(=O)(=O)[O-])ccc5F)c5ccc([nH]5)c(-c5cc(S(=O)(=O)[O-])ccc5F)c5nc(c(-c6cc(S(=O)(=O)[O-])ccc6F)c6ccc3[nH]6)C=C5)C=C4)cc2)n1
REMARK SMILES IDX 25 1 24 2 23 3 22 4 21 5 20 6 19 7 17 8 18 9 16 10 12 11
REMARK SMILES IDX 13 12 14 13 15 14 11 15 9 16 10 17 8 19 3 20 4 21 97 22 5 23
REMARK SMILES IDX 6 24 7 25 2 26 1 27 26 28 27 29 28 30 29 31 30 32 31 33
REMARK SMILES IDX 32 34 33 35 34 36 35 37 96 38 36 39 95 40 37 41 38 42 39 43
REMARK SMILES IDX 89 44 40 45 94 46 88 47 90 48 41 49 93 50 87 51 86 52 42 54
REMARK SMILES IDX 74 55 54 56 73 57 55 58 58 59 72 60 91 61 56 62 57 63 71 65
REMARK SMILES IDX 92 66 59 67 43 68 44 69 52 70 45 71 51 72 53 73 50 74 46 75
REMARK SMILES IDX 47 76 48 77 49 78 75 79 76 80 84 81 77 82 83 83 85 84 82 85
REMARK SMILES IDX 78 86 79 87 80 88 81 89 60 90 61 91 69 92 62 93 68 94 70 95
REMARK SMILES IDX 67 96 63 97 64 98 65 99 66 100
REMARK H PARENT 11 18 90 53 58 64
REMARK Flexibility Score: inf
ROOT
ATOM      1  O   UNL A   1      42.058  22.504  27.345  1.00  0.00    -0.377 OA
ENDROOT
BRANCH   1   2
ATOM      2  C   UNL A   1      41.630  23.630  28.086  1.00  0.00     0.188 C 
BRANCH   2   3
ATOM      3  C   UNL A   1      40.191  24.103  27.817  1.00  0.00     0.188 C 
BRANCH   3   4
ATOM      4  O   UNL A   1      39.543  23.970  26.553  1.00  0.00    -0.376 OA
BRANCH   4   5
ATOM      5  C   UNL A   1      38.412  23.132  26.399  1.00  0.00     0.202 C 
BRANCH   5   6
ATOM      6  C   UNL A   1      37.438  23.537  25.282  1.00  0.00     0.261 C 
BRANCH   6   7
ATOM      7  O   UNL A   1      36.669  22.459  24.714  1.00  0.00    -0.459 OA
BRANCH   7   8
ATOM      8  C   UNL A   1      35.955  22.773  23.593  1.00  0.00     0.350 C 
ATOM      9  O   UNL A   1      36.464  23.205  22.561  1.00  0.00    -0.245 OA
BRANCH   8  10
ATOM     10  C   UNL A   1      34.528  22.516  23.783  1.00  0.00     0.136 A 
ATOM     11  C   UNL A   1      33.380  22.932  23.102  1.00  0.00     0.067 A 
ATOM     12  C   UNL A   1      32.206  22.327  23.655  1.00  0.00     0.039 A 
ATOM     13  C   UNL A   1      32.456  21.622  24.809  1.00  0.00     0.068 A 
ATOM     14  S   UNL A   1      34.113  21.569  25.169  1.00  0.00    -0.135 S 
BRANCH  11  15
ATOM     15  N   UNL A   1      33.421  23.806  22.021  1.00  0.00    -0.319 N 
ATOM     16  C   UNL A   1      32.903  25.070  21.814  1.00  0.00     0.276 C 
ATOM     17  O   UNL A   1      33.005  25.555  20.684  1.00  0.00    -0.267 OA
ATOM     18  H   UNL A   1      33.918  23.452  21.247  1.00  0.00     0.170 HD
BRANCH  16  19
ATOM     19  C   UNL A   1      32.287  25.929  22.870  1.00  0.00     0.151 A 
ATOM     20  C   UNL A   1      32.737  27.578  24.419  1.00  0.00     0.188 A 
ATOM     21  N   UNL A   1      31.523  27.479  24.976  1.00  0.00    -0.230 NA
ATOM     22  N   UNL A   1      33.138  26.881  23.350  1.00  0.00    -0.216 NA
ATOM     23  C   UNL A   1      30.713  26.529  24.477  1.00  0.00     0.137 A 
ATOM     24  C   UNL A   1      31.061  25.673  23.453  1.00  0.00     0.090 A 
ATOM     25  Cl  UNL A   1      30.000  24.372  23.112  1.00  0.00    -0.080 Cl
BRANCH  20  26
ATOM     26  S   UNL A   1      33.934  28.560  25.277  1.00  0.00    -0.090 SA
ATOM     27  C   UNL A   1      33.433  28.121  26.965  1.00  0.00     0.094 C 
ENDBRANCH  20  26
ENDBRANCH  16  19
ENDBRANCH  11  15
ENDBRANCH   8  10
ENDBRANCH   7   8
ENDBRANCH   6   7
ENDBRANCH   5   6
ENDBRANCH   4   5
ENDBRANCH   3   4
ENDBRANCH   2   3
ENDBRANCH   1   2
BRANCH   1  28
ATOM     28  C   UNL A   1      41.432  21.269  27.677  1.00  0.00     0.188 C 
BRANCH  28  29
ATOM     29  C   UNL A   1      41.159  20.343  26.484  1.00  0.00     0.188 C 
BRANCH  29  30
ATOM     30  O   UNL A   1      41.636  19.013  26.718  1.00  0.00    -0.376 OA
BRANCH  30  31
ATOM     31  C   UNL A   1      42.441  18.457  25.679  1.00  0.00     0.202 C 
BRANCH  31  32
ATOM     32  C   UNL A   1      43.903  18.932  25.699  1.00  0.00     0.261 C 
BRANCH  32  33
ATOM     33  O   UNL A   1      44.186  20.098  24.907  1.00  0.00    -0.460 OA
BRANCH  33  34
ATOM     34  C   UNL A   1      45.478  20.330  24.581  1.00  0.00     0.338 C 
ATOM     35  O   UNL A   1      46.201  19.607  23.921  1.00  0.00    -0.246 OA
BRANCH  34  36
ATOM     36  C   UNL A   1      45.819  21.707  24.994  1.00  0.00     0.060 A 
ATOM     37  C   UNL A   1      45.664  22.060  26.340  1.00  0.00     0.016 A 
ATOM     38  C   UNL A   1      46.271  22.647  24.063  1.00  0.00     0.016 A 
ATOM     39  C   UNL A   1      45.923  23.370  26.751  1.00  0.00     0.010 A 
ATOM     40  C   UNL A   1      46.512  23.961  24.473  1.00  0.00     0.010 A 
ATOM     41  C   UNL A   1      46.308  24.336  25.812  1.00  0.00    -0.014 A 
BRANCH  41  42
ATOM     42  C   UNL A   1      46.309  25.774  26.184  1.00  0.00     0.031 A 
ATOM     43  C   UNL A   1      47.626  26.504  26.196  1.00  0.00     0.074 A 
ATOM     44  C   UNL A   1      45.171  26.416  26.505  1.00  0.00     0.049 A 
ATOM     45  N   UNL A   1      47.889  27.739  26.535  1.00  0.00    -0.248 NA
ATOM     46  C   UNL A   1      48.805  25.730  25.773  1.00  0.00     0.031 C 
ATOM     47  C   UNL A   1      43.834  25.824  26.499  1.00  0.00     0.029 A 
ATOM     48  N   UNL A   1      44.963  27.710  26.912  1.00  0.00    -0.354 N 
ATOM     49  C   UNL A   1      49.262  27.891  26.372  1.00  0.00     0.074 A 
ATOM     50  C   UNL A   1      49.778  26.615  25.928  1.00  0.00     0.031 C 
ATOM     51  C   UNL A   1      42.946  26.751  26.900  1.00  0.00     0.029 A 
ATOM     52  C   UNL A   1      43.651  27.989  27.224  1.00  0.00     0.049 A 
ATOM     53  H   UNL A   1      45.684  28.377  26.977  1.00  0.00     0.167 HD
ATOM     54  C   UNL A   1      50.021  28.995  26.572  1.00  0.00     0.034 A 
ATOM     55  C   UNL A   1      43.096  29.107  27.738  1.00  0.00     0.034 A 
ATOM     56  C   UNL A   1      49.499  30.258  27.025  1.00  0.00     0.049 A 
ATOM     57  C   UNL A   1      43.981  30.301  28.028  1.00  0.00     0.074 A 
ATOM     58  C   UNL A   1      50.177  31.447  27.231  1.00  0.00     0.029 A 
ATOM     59  N   UNL A   1      48.172  30.495  27.358  1.00  0.00    -0.354 N 
ATOM     60  N   UNL A   1      45.273  30.441  27.834  1.00  0.00    -0.248 NA
ATOM     61  C   UNL A   1      43.329  31.487  28.601  1.00  0.00     0.031 C 
ATOM     62  C   UNL A   1      49.276  32.380  27.753  1.00  0.00     0.029 A 
ATOM     63  C   UNL A   1      48.020  31.798  27.803  1.00  0.00     0.049 A 
ATOM     64  H   UNL A   1      47.446  29.833  27.289  1.00  0.00     0.167 HD
ATOM     65  C   UNL A   1      45.575  31.744  28.224  1.00  0.00     0.074 A 
ATOM     66  C   UNL A   1      44.333  32.350  28.654  1.00  0.00     0.031 C 
ATOM     67  C   UNL A   1      46.771  32.389  28.223  1.00  0.00     0.034 A 
BRANCH  54  68
ATOM     68  C   UNL A   1      51.506  28.865  26.354  1.00  0.00     0.023 A 
ATOM     69  C   UNL A   1      52.086  29.019  25.083  1.00  0.00     0.031 A 
ATOM     70  C   UNL A   1      52.354  28.575  27.438  1.00  0.00     0.131 A 
ATOM     71  C   UNL A   1      53.467  28.832  24.919  1.00  0.00     0.055 A 
ATOM     72  C   UNL A   1      53.735  28.457  27.280  1.00  0.00     0.041 A 
ATOM     73  F   UNL A   1      51.850  28.393  28.669  1.00  0.00    -0.206 F 
ATOM     74  C   UNL A   1      54.298  28.576  26.013  1.00  0.00     0.022 A 
BRANCH  71  75
ATOM     75  S   UNL A   1      54.151  28.827  23.240  1.00  0.00     0.124 S 
ATOM     76  O   UNL A   1      53.932  30.211  22.828  1.00  0.00    -0.237 OA
ATOM     77  O   UNL A   1      55.539  28.440  23.464  1.00  0.00    -0.237 OA
ATOM     78  O   UNL A   1      53.334  27.838  22.540  1.00  0.00    -0.744 OA
ENDBRANCH  71  75
ENDBRANCH  54  68
BRANCH  55  79
ATOM     79  C   UNL A   1      41.641  29.161  28.068  1.00  0.00     0.023 A 
ATOM     80  C   UNL A   1      41.194  29.067  29.396  1.00  0.00     0.031 A 
ATOM     81  C   UNL A   1      40.671  29.203  27.049  1.00  0.00     0.131 A 
ATOM     82  C   UNL A   1      39.821  28.953  29.666  1.00  0.00     0.055 A 
ATOM     83  C   UNL A   1      39.304  29.149  27.328  1.00  0.00     0.041 A 
ATOM     84  F   UNL A   1      41.043  29.284  25.761  1.00  0.00    -0.206 F 
ATOM     85  C   UNL A   1      38.872  29.005  28.643  1.00  0.00     0.022 A 
BRANCH  82  86
ATOM     86  S   UNL A   1      39.298  28.611  31.370  1.00  0.00     0.124 S 
ATOM     87  O   UNL A   1      38.453  29.765  31.659  1.00  0.00    -0.237 OA
ATOM     88  O   UNL A   1      38.610  27.333  31.225  1.00  0.00    -0.237 OA
ATOM     89  O   UNL A   1      40.558  28.559  32.109  1.00  0.00    -0.744 OA
ENDBRANCH  82  86
ENDBRANCH  55  79
BRANCH  67  90
ATOM     90  C   UNL A   1      46.775  33.838  28.639  1.00  0.00     0.023 A 
ATOM     91  C   UNL A   1      46.924  34.227  29.982  1.00  0.00     0.031 A 
ATOM     92  C   UNL A   1      46.623  34.848  27.672  1.00  0.00     0.131 A 
ATOM     93  C   UNL A   1      46.869  35.586  30.326  1.00  0.00     0.055 A 
ATOM     94  C   UNL A   1      46.624  36.200  28.013  1.00  0.00     0.041 A 
ATOM     95  F   UNL A   1      46.476  34.534  26.374  1.00  0.00    -0.206 F 
ATOM     96  C   UNL A   1      46.734  36.576  29.348  1.00  0.00     0.022 A 
BRANCH  93  97
ATOM     97  S   UNL A   1      46.892  36.043  32.081  1.00  0.00     0.124 S 
ATOM     98  O   UNL A   1      47.087  34.752  32.731  1.00  0.00    -0.237 OA
ATOM     99  O   UNL A   1      48.021  36.967  32.148  1.00  0.00    -0.237 OA
ATOM    100  O   UNL A   1      45.582  36.654  32.295  1.00  0.00    -0.744 OA
ENDBRANCH  93  97
ENDBRANCH  67  90
ENDBRANCH  41  42
ENDBRANCH  34  36
ENDBRANCH  33  34
ENDBRANCH  32  33
ENDBRANCH  31  32
ENDBRANCH  30  31
ENDBRANCH  29  30
ENDBRANCH  28  29
ENDBRANCH   1  28
TORSDOF 26
ENDMDL
MODEL 3
REMARK VINA RESULT:      -8.4      5.206      8.422
REMARK SMILES CSc1ncc(Cl)c(C(=O)Nc2ccsc2C(=O)OCCOCCOCCOCCOC(=O)c2ccc(-c3c4nc(c(-c5cc(S(=O)(=O)[O-])ccc5F)c5ccc([nH]5)c(-c5cc(S(=O)(=O)[O-])ccc5F)c5nc(c(-c6cc(S(=O)(=O)[O-])ccc6F)c6ccc3[nH]6)C=C5)C=C4)cc2)n1
REMARK SMILES IDX 25 1 24 2 23 3 22 4 21 5 20 6 19 7 17 8 18 9 16 10 12 11
REMARK SMILES IDX 13 12 14 13 15 14 11 15 9 16 10 17 8 19 3 20 4 21 97 22 5 23
REMARK SMILES IDX 6 24 7 25 2 26 1 27 26 28 27 29 28 30 29 31 30 32 31 33
REMARK SMILES IDX 32 34 33 35 34 36 35 37 96 38 36 39 95 40 37 41 38 42 39 43
REMARK SMILES IDX 89 44 40 45 94 46 88 47 90 48 41 49 93 50 87 51 86 52 42 54
REMARK SMILES IDX 74 55 54 56 73 57 55 58 58 59 72 60 91 61 56 62 57 63 71 65
REMARK SMILES IDX 92 66 59 67 43 68 44 69 52 70 45 71 51 72 53 73 50 74 46 75
REMARK SMILES IDX 47 76 48 77 49 78 75 79 76 80 84 81 77 82 83 83 85 84 82 85
REMARK SMILES IDX 78 86 79 87 80 88 81 89 60 90 61 91 69 92 62 93 68 94 70 95
REMARK SMILES IDX 67 96 63 97 64 98 65 99 66 100
REMARK H PARENT 11 18 90 53 58 64
REMARK Flexibility Score: inf
ROOT
ATOM      1  O   UNL A   1      38.161  29.600  28.885  1.00  0.00    -0.377 OA
ENDROOT
BRANCH   1   2
ATOM      2  C   UNL A   1      36.780  29.701  28.598  1.00  0.00     0.188 C 
BRANCH   2   3
ATOM      3  C   UNL A   1      36.109  31.029  28.991  1.00  0.00     0.188 C 
BRANCH   3   4
ATOM      4  O   UNL A   1      35.285  31.786  28.105  1.00  0.00    -0.376 OA
BRANCH   4   5
ATOM      5  C   UNL A   1      35.607  33.126  27.779  1.00  0.00     0.202 C 
BRANCH   5   6
ATOM      6  C   UNL A   1      35.276  34.164  28.862  1.00  0.00     0.261 C 
BRANCH   6   7
ATOM      7  O   UNL A   1      34.068  33.913  29.607  1.00  0.00    -0.459 OA
BRANCH   7   8
ATOM      8  C   UNL A   1      33.388  35.025  30.016  1.00  0.00     0.350 C 
ATOM      9  O   UNL A   1      32.581  35.627  29.311  1.00  0.00    -0.245 OA
BRANCH   8  10
ATOM     10  C   UNL A   1      33.739  35.386  31.390  1.00  0.00     0.136 A 
ATOM     11  C   UNL A   1      34.283  34.670  32.460  1.00  0.00     0.067 A 
ATOM     12  C   UNL A   1      34.506  35.522  33.589  1.00  0.00     0.039 A 
ATOM     13  C   UNL A   1      33.990  36.785  33.421  1.00  0.00     0.068 A 
ATOM     14  S   UNL A   1      33.351  37.002  31.864  1.00  0.00    -0.135 S 
BRANCH  11  15
ATOM     15  N   UNL A   1      34.572  33.311  32.387  1.00  0.00    -0.319 N 
ATOM     16  C   UNL A   1      35.682  32.567  32.740  1.00  0.00     0.276 C 
ATOM     17  O   UNL A   1      35.691  31.371  32.440  1.00  0.00    -0.267 OA
ATOM     18  H   UNL A   1      33.842  32.772  32.006  1.00  0.00     0.170 HD
BRANCH  16  19
ATOM     19  C   UNL A   1      36.847  33.081  33.523  1.00  0.00     0.151 A 
ATOM     20  C   UNL A   1      37.663  33.378  35.659  1.00  0.00     0.188 A 
ATOM     21  N   UNL A   1      38.702  34.109  35.233  1.00  0.00    -0.230 NA
ATOM     22  N   UNL A   1      36.761  32.805  34.856  1.00  0.00    -0.216 NA
ATOM     23  C   UNL A   1      38.751  34.361  33.913  1.00  0.00     0.137 A 
ATOM     24  C   UNL A   1      37.814  33.920  33.003  1.00  0.00     0.090 A 
ATOM     25  Cl  UNL A   1      37.905  34.537  31.407  1.00  0.00    -0.080 Cl
BRANCH  20  26
ATOM     26  S   UNL A   1      37.380  33.334  37.406  1.00  0.00    -0.090 SA
ATOM     27  C   UNL A   1      38.940  34.105  37.918  1.00  0.00     0.094 C 
ENDBRANCH  20  26
ENDBRANCH  16  19
ENDBRANCH  11  15
ENDBRANCH   8  10
ENDBRANCH   7   8
ENDBRANCH   6   7
ENDBRANCH   5   6
ENDBRANCH   4   5
ENDBRANCH   3   4
ENDBRANCH   2   3
ENDBRANCH   1   2
BRANCH   1  28
ATOM     28  C   UNL A   1      38.582  28.375  29.475  1.00  0.00     0.188 C 
BRANCH  28  29
ATOM     29  C   UNL A   1      39.471  27.500  28.579  1.00  0.00     0.188 C 
BRANCH  29  30
ATOM     30  O   UNL A   1      39.455  26.127  28.988  1.00  0.00    -0.376 OA
BRANCH  30  31
ATOM     31  C   UNL A   1      39.438  25.171  27.928  1.00  0.00     0.202 C 
BRANCH  31  32
ATOM     32  C   UNL A   1      40.409  25.490  26.781  1.00  0.00     0.261 C 
BRANCH  32  33
ATOM     33  O   UNL A   1      41.206  24.385  26.320  1.00  0.00    -0.460 OA
BRANCH  33  34
ATOM     34  C   UNL A   1      42.212  23.967  27.122  1.00  0.00     0.338 C 
ATOM     35  O   UNL A   1      42.247  22.934  27.765  1.00  0.00    -0.246 OA
BRANCH  34  36
ATOM     36  C   UNL A   1      43.358  24.883  26.942  1.00  0.00     0.060 A 
ATOM     37  C   UNL A   1      43.958  25.437  28.079  1.00  0.00     0.016 A 
ATOM     38  C   UNL A   1      43.827  25.206  25.665  1.00  0.00     0.016 A 
ATOM     39  C   UNL A   1      45.005  26.351  27.938  1.00  0.00     0.010 A 
ATOM     40  C   UNL A   1      44.863  26.133  25.527  1.00  0.00     0.010 A 
ATOM     41  C   UNL A   1      45.435  26.734  26.662  1.00  0.00    -0.014 A 
BRANCH  41  42
ATOM     42  C   UNL A   1      46.340  27.900  26.502  1.00  0.00     0.031 A 
ATOM     43  C   UNL A   1      47.811  27.638  26.315  1.00  0.00     0.074 A 
ATOM     44  C   UNL A   1      45.871  29.161  26.525  1.00  0.00     0.049 A 
ATOM     45  N   UNL A   1      48.800  28.486  26.207  1.00  0.00    -0.248 NA
ATOM     46  C   UNL A   1      48.218  26.225  26.245  1.00  0.00     0.031 C 
ATOM     47  C   UNL A   1      44.466  29.539  26.669  1.00  0.00     0.029 A 
ATOM     48  N   UNL A   1      46.533  30.361  26.440  1.00  0.00    -0.354 N 
ATOM     49  C   UNL A   1      49.947  27.713  26.062  1.00  0.00     0.074 A 
ATOM     50  C   UNL A   1      49.533  26.328  26.120  1.00  0.00     0.031 C 
ATOM     51  C   UNL A   1      44.374  30.881  26.677  1.00  0.00     0.029 A 
ATOM     52  C   UNL A   1      45.713  31.458  26.574  1.00  0.00     0.049 A 
ATOM     53  H   UNL A   1      47.505  30.430  26.297  1.00  0.00     0.167 HD
ATOM     54  C   UNL A   1      51.228  28.120  25.894  1.00  0.00     0.034 A 
ATOM     55  C   UNL A   1      46.018  32.771  26.635  1.00  0.00     0.034 A 
ATOM     56  C   UNL A   1      51.632  29.502  25.848  1.00  0.00     0.049 A 
ATOM     57  C   UNL A   1      47.466  33.196  26.525  1.00  0.00     0.074 A 
ATOM     58  C   UNL A   1      52.898  30.023  25.652  1.00  0.00     0.029 A 
ATOM     59  N   UNL A   1      50.778  30.584  26.017  1.00  0.00    -0.354 N 
ATOM     60  N   UNL A   1      48.537  32.453  26.352  1.00  0.00    -0.248 NA
ATOM     61  C   UNL A   1      47.745  34.636  26.613  1.00  0.00     0.031 C 
ATOM     62  C   UNL A   1      52.823  31.415  25.770  1.00  0.00     0.029 A 
ATOM     63  C   UNL A   1      51.498  31.767  25.966  1.00  0.00     0.049 A 
ATOM     64  H   UNL A   1      49.805  30.520  26.153  1.00  0.00     0.167 HD
ATOM     65  C   UNL A   1      49.606  33.343  26.270  1.00  0.00     0.074 A 
ATOM     66  C   UNL A   1      49.053  34.674  26.402  1.00  0.00     0.031 C 
ATOM     67  C   UNL A   1      50.928  33.088  26.095  1.00  0.00     0.034 A 
BRANCH  54  68
ATOM     68  C   UNL A   1      52.289  27.056  25.802  1.00  0.00     0.023 A 
ATOM     69  C   UNL A   1      53.160  26.783  26.871  1.00  0.00     0.031 A 
ATOM     70  C   UNL A   1      52.436  26.307  24.621  1.00  0.00     0.131 A 
ATOM     71  C   UNL A   1      54.171  25.821  26.720  1.00  0.00     0.055 A 
ATOM     72  C   UNL A   1      53.401  25.306  24.500  1.00  0.00     0.041 A 
ATOM     73  F   UNL A   1      51.648  26.544  23.561  1.00  0.00    -0.206 F 
ATOM     74  C   UNL A   1      54.282  25.065  25.551  1.00  0.00     0.022 A 
BRANCH  71  75
ATOM     75  S   UNL A   1      55.407  25.643  28.035  1.00  0.00     0.124 S 
ATOM     76  O   UNL A   1      56.361  26.693  27.687  1.00  0.00    -0.237 OA
ATOM     77  O   UNL A   1      54.621  25.869  29.242  1.00  0.00    -0.237 OA
ATOM     78  O   UNL A   1      55.901  24.279  27.859  1.00  0.00    -0.744 OA
ENDBRANCH  71  75
ENDBRANCH  54  68
BRANCH  55  79
ATOM     79  C   UNL A   1      44.956  33.797  26.859  1.00  0.00     0.023 A 
ATOM     80  C   UNL A   1      44.598  34.199  28.156  1.00  0.00     0.031 A 
ATOM     81  C   UNL A   1      44.211  34.312  25.783  1.00  0.00     0.131 A 
ATOM     82  C   UNL A   1      43.488  35.037  28.349  1.00  0.00     0.055 A 
ATOM     83  C   UNL A   1      43.146  35.193  25.976  1.00  0.00     0.041 A 
ATOM     84  F   UNL A   1      44.505  33.955  24.522  1.00  0.00    -0.206 F 
ATOM     85  C   UNL A   1      42.766  35.546  27.267  1.00  0.00     0.022 A 
BRANCH  82  86
ATOM     86  S   UNL A   1      42.924  35.354  30.045  1.00  0.00     0.124 S 
ATOM     87  O   UNL A   1      43.156  36.788  30.172  1.00  0.00    -0.237 OA
ATOM     88  O   UNL A   1      41.529  34.933  29.983  1.00  0.00    -0.237 OA
ATOM     89  O   UNL A   1      43.795  34.506  30.857  1.00  0.00    -0.744 OA
ENDBRANCH  82  86
ENDBRANCH  55  79
BRANCH  67  90
ATOM     90  C   UNL A   1      51.851  34.275  25.973  1.00  0.00     0.023 A 
ATOM     91  C   UNL A   1      52.392  34.916  27.101  1.00  0.00     0.031 A 
ATOM     92  C   UNL A   1      52.191  34.773  24.702  1.00  0.00     0.131 A 
ATOM     93  C   UNL A   1      53.204  36.049  26.938  1.00  0.00     0.055 A 
ATOM     94  C   UNL A   1      53.043  35.866  24.544  1.00  0.00     0.041 A 
ATOM     95  F   UNL A   1      51.703  34.199  23.590  1.00  0.00    -0.206 F 
ATOM     96  C   UNL A   1      53.544  36.519  25.666  1.00  0.00     0.022 A 
BRANCH  93  97
ATOM     97  S   UNL A   1      53.745  36.954  28.413  1.00  0.00     0.124 S 
ATOM     98  O   UNL A   1      54.831  36.114  28.906  1.00  0.00    -0.237 OA
ATOM     99  O   UNL A   1      54.140  38.246  27.860  1.00  0.00    -0.237 OA
ATOM    100  O   UNL A   1      52.551  36.983  29.256  1.00  0.00    -0.744 OA
ENDBRANCH  93  97
ENDBRANCH  67  90
ENDBRANCH  41  42
ENDBRANCH  34  36
ENDBRANCH  33  34
ENDBRANCH  32  33
ENDBRANCH  31  32
ENDBRANCH  30  31
ENDBRANCH  29  30
ENDBRANCH  28  29
ENDBRANCH   1  28
TORSDOF 26
ENDMDL
