MODEL 1
REMARK VINA RESULT:     -10.3      0.000      0.000
REMARK SMILES Cc1ccccc1C(=O)Nc1ccc(N2CCCCC2)cc1C(=O)OCCOCCOCCOCCOC(=O)c1ccc(-c2c3nc(c(-c4cc(S(=O)(=O)[O-])ccc4F)c4ccc([nH]4)c(-c4cc(S(=O)(=O)[O-])ccc4F)c4nc(c(-c5cc(S(=O)(=O)[O-])ccc5F)c5ccc2[nH]5)C=C4)C=C3)cc1
REMARK SMILES IDX 32 1 31 2 30 3 29 4 28 5 27 6 26 7 25 8 23 9 24 10 22 11
REMARK SMILES IDX 11 12 12 13 13 14 21 15 14 16 10 17 8 18 9 19 7 21 1 22 2 23
REMARK SMILES IDX 3 24 4 25 6 26 5 27 15 28 16 29 20 30 17 31 19 32 18 33
REMARK SMILES IDX 33 34 34 35 35 36 36 37 37 38 38 39 39 40 40 41 41 42 102 43
REMARK SMILES IDX 42 44 101 45 43 46 44 47 45 48 95 49 46 50 100 51 94 52
REMARK SMILES IDX 96 53 47 54 99 55 93 56 92 57 48 59 80 60 60 61 79 62 61 63
REMARK SMILES IDX 64 64 78 65 97 66 62 67 63 68 77 70 98 71 65 72 49 73 50 74
REMARK SMILES IDX 58 75 51 76 57 77 59 78 56 79 52 80 53 81 54 82 55 83 81 84
REMARK SMILES IDX 82 85 90 86 83 87 89 88 91 89 88 90 84 91 85 92 86 93 87 94
REMARK SMILES IDX 66 95 67 96 75 97 68 98 74 99 76 100 73 101 69 102 70 103
REMARK SMILES IDX 71 104 72 105
REMARK H PARENT 10 20 96 58 64 69
REMARK Flexibility Score: inf
ROOT
ATOM      1  C   UNL A   1      37.137  30.614  29.534  1.00  0.00     0.188 C 
ENDROOT
BRANCH   1   2
ATOM      2  O   UNL A   1      36.754  31.814  28.858  1.00  0.00    -0.377 OA
BRANCH   2   3
ATOM      3  C   UNL A   1      35.647  32.535  29.408  1.00  0.00     0.188 C 
BRANCH   3   4
ATOM      4  C   UNL A   1      34.494  32.544  28.407  1.00  0.00     0.188 C 
BRANCH   4   5
ATOM      5  O   UNL A   1      34.512  31.706  27.273  1.00  0.00    -0.376 OA
BRANCH   5   6
ATOM      6  C   UNL A   1      33.427  30.818  27.201  1.00  0.00     0.202 C 
BRANCH   6   7
ATOM      7  C   UNL A   1      33.647  29.299  27.284  1.00  0.00     0.261 C 
BRANCH   7   8
ATOM      8  O   UNL A   1      33.114  28.467  26.268  1.00  0.00    -0.460 OA
BRANCH   8   9
ATOM      9  C   UNL A   1      31.835  28.129  26.510  1.00  0.00     0.340 C 
ATOM     10  O   UNL A   1      31.249  28.078  27.586  1.00  0.00    -0.246 OA
BRANCH   9  11
ATOM     11  C   UNL A   1      31.117  28.104  25.249  1.00  0.00     0.085 A 
ATOM     12  C   UNL A   1      30.554  26.879  24.874  1.00  0.00     0.056 A 
ATOM     13  C   UNL A   1      29.941  26.762  23.648  1.00  0.00     0.029 A 
ATOM     14  C   UNL A   1      29.638  27.921  22.951  1.00  0.00     0.028 A 
ATOM     15  C   UNL A   1      30.719  29.283  24.606  1.00  0.00     0.043 A 
ATOM     16  C   UNL A   1      29.830  29.192  23.530  1.00  0.00     0.038 A 
BRANCH  12  17
ATOM     17  N   UNL A   1      30.477  25.830  25.788  1.00  0.00    -0.321 N 
ATOM     18  C   UNL A   1      31.379  24.810  26.020  1.00  0.00     0.255 C 
ATOM     19  O   UNL A   1      31.374  24.342  27.168  1.00  0.00    -0.269 OA
ATOM     20  H   UNL A   1      29.667  25.814  26.348  1.00  0.00     0.170 HD
BRANCH  18  21
ATOM     21  C   UNL A   1      32.218  24.071  24.946  1.00  0.00     0.043 A 
ATOM     22  C   UNL A   1      33.864  25.813  23.881  1.00  0.00     0.045 C 
ATOM     23  C   UNL A   1      33.324  24.445  24.146  1.00  0.00    -0.038 A 
ATOM     24  C   UNL A   1      33.940  23.510  23.274  1.00  0.00     0.004 A 
ATOM     25  C   UNL A   1      33.327  22.316  22.955  1.00  0.00     0.000 A 
ATOM     26  C   UNL A   1      31.593  22.864  24.532  1.00  0.00     0.014 A 
ATOM     27  C   UNL A   1      32.104  22.031  23.527  1.00  0.00     0.001 A 
ENDBRANCH  18  21
ENDBRANCH  12  17
BRANCH  16  28
ATOM     28  N   UNL A   1      29.000  30.228  23.154  1.00  0.00    -0.372 N 
ATOM     29  C   UNL A   1      27.962  30.015  22.131  1.00  0.00     0.116 C 
ATOM     30  C   UNL A   1      28.838  31.477  23.882  1.00  0.00     0.116 C 
ATOM     31  C   UNL A   1      28.168  31.053  21.041  1.00  0.00     0.021 C 
ATOM     32  C   UNL A   1      29.118  32.582  22.862  1.00  0.00     0.021 C 
ATOM     33  C   UNL A   1      28.207  32.466  21.628  1.00  0.00     0.004 C 
ENDBRANCH  16  28
ENDBRANCH   9  11
ENDBRANCH   8   9
ENDBRANCH   7   8
ENDBRANCH   6   7
ENDBRANCH   5   6
ENDBRANCH   4   5
ENDBRANCH   3   4
ENDBRANCH   2   3
ENDBRANCH   1   2
BRANCH   1  34
ATOM     34  C   UNL A   1      37.570  30.801  30.982  1.00  0.00     0.188 C 
BRANCH  34  35
ATOM     35  O   UNL A   1      38.900  31.315  30.984  1.00  0.00    -0.376 OA
BRANCH  35  36
ATOM     36  C   UNL A   1      39.328  31.935  32.182  1.00  0.00     0.202 C 
BRANCH  36  37
ATOM     37  C   UNL A   1      40.804  31.653  32.448  1.00  0.00     0.261 C 
BRANCH  37  38
ATOM     38  O   UNL A   1      40.895  30.799  33.612  1.00  0.00    -0.460 OA
BRANCH  38  39
ATOM     39  C   UNL A   1      40.227  29.617  33.509  1.00  0.00     0.338 C 
ATOM     40  O   UNL A   1      39.195  29.356  34.105  1.00  0.00    -0.246 OA
BRANCH  39  41
ATOM     41  C   UNL A   1      40.989  28.634  32.674  1.00  0.00     0.060 A 
ATOM     42  C   UNL A   1      42.255  28.184  33.085  1.00  0.00     0.016 A 
ATOM     43  C   UNL A   1      40.568  28.358  31.379  1.00  0.00     0.016 A 
ATOM     44  C   UNL A   1      43.147  27.599  32.160  1.00  0.00     0.010 A 
ATOM     45  C   UNL A   1      41.483  27.870  30.457  1.00  0.00     0.010 A 
ATOM     46  C   UNL A   1      42.798  27.515  30.807  1.00  0.00    -0.014 A 
BRANCH  46  47
ATOM     47  C   UNL A   1      43.761  27.348  29.668  1.00  0.00     0.031 A 
ATOM     48  C   UNL A   1      44.129  25.943  29.174  1.00  0.00     0.074 A 
ATOM     49  C   UNL A   1      43.862  28.449  28.871  1.00  0.00     0.049 A 
ATOM     50  N   UNL A   1      44.915  25.619  28.186  1.00  0.00    -0.248 NA
ATOM     51  C   UNL A   1      43.635  24.736  29.848  1.00  0.00     0.031 C 
ATOM     52  C   UNL A   1      43.714  28.564  27.436  1.00  0.00     0.029 A 
ATOM     53  N   UNL A   1      44.103  29.773  29.212  1.00  0.00    -0.354 N 
ATOM     54  C   UNL A   1      44.778  24.238  27.911  1.00  0.00     0.074 A 
ATOM     55  C   UNL A   1      44.031  23.748  29.040  1.00  0.00     0.031 C 
ATOM     56  C   UNL A   1      44.194  29.704  26.948  1.00  0.00     0.029 A 
ATOM     57  C   UNL A   1      44.651  30.426  28.078  1.00  0.00     0.049 A 
ATOM     58  H   UNL A   1      43.926  30.187  30.087  1.00  0.00     0.167 HD
ATOM     59  C   UNL A   1      45.161  23.680  26.700  1.00  0.00     0.034 A 
ATOM     60  C   UNL A   1      45.799  31.128  28.110  1.00  0.00     0.034 A 
ATOM     61  C   UNL A   1      45.973  24.610  25.865  1.00  0.00     0.049 A 
ATOM     62  C   UNL A   1      46.953  30.249  27.590  1.00  0.00     0.074 A 
ATOM     63  C   UNL A   1      46.150  24.880  24.508  1.00  0.00     0.029 A 
ATOM     64  N   UNL A   1      46.720  25.597  26.498  1.00  0.00    -0.354 N 
ATOM     65  N   UNL A   1      46.831  29.126  26.894  1.00  0.00    -0.248 NA
ATOM     66  C   UNL A   1      48.355  30.568  27.843  1.00  0.00     0.031 C 
ATOM     67  C   UNL A   1      46.920  26.072  24.361  1.00  0.00     0.029 A 
ATOM     68  C   UNL A   1      47.292  26.485  25.623  1.00  0.00     0.049 A 
ATOM     69  H   UNL A   1      46.829  25.651  27.476  1.00  0.00     0.167 HD
ATOM     70  C   UNL A   1      48.079  28.544  26.713  1.00  0.00     0.074 A 
ATOM     71  C   UNL A   1      48.988  29.503  27.322  1.00  0.00     0.031 C 
ATOM     72  C   UNL A   1      48.347  27.322  26.134  1.00  0.00     0.034 A 
BRANCH  59  73
ATOM     73  C   UNL A   1      44.633  22.327  26.083  1.00  0.00     0.023 A 
ATOM     74  C   UNL A   1      43.296  21.915  26.343  1.00  0.00     0.031 A 
ATOM     75  C   UNL A   1      45.370  21.347  25.379  1.00  0.00     0.131 A 
ATOM     76  C   UNL A   1      42.800  20.621  26.052  1.00  0.00     0.055 A 
ATOM     77  C   UNL A   1      44.848  20.087  24.995  1.00  0.00     0.041 A 
ATOM     78  F   UNL A   1      46.646  21.516  25.024  1.00  0.00    -0.206 F 
ATOM     79  C   UNL A   1      43.567  19.704  25.355  1.00  0.00     0.022 A 
BRANCH  76  80
ATOM     80  S   UNL A   1      41.136  20.135  26.618  1.00  0.00     0.124 S 
ATOM     81  O   UNL A   1      41.399  19.641  27.964  1.00  0.00    -0.237 OA
ATOM     82  O   UNL A   1      40.389  21.384  26.524  1.00  0.00    -0.237 OA
ATOM     83  O   UNL A   1      40.736  19.110  25.653  1.00  0.00    -0.744 OA
ENDBRANCH  76  80
ENDBRANCH  59  73
BRANCH  60  84
ATOM     84  C   UNL A   1      45.566  32.185  29.171  1.00  0.00     0.023 A 
ATOM     85  C   UNL A   1      46.672  32.272  30.086  1.00  0.00     0.031 A 
ATOM     86  C   UNL A   1      44.960  33.402  28.806  1.00  0.00     0.131 A 
ATOM     87  C   UNL A   1      47.330  33.503  30.301  1.00  0.00     0.055 A 
ATOM     88  C   UNL A   1      45.590  34.635  29.080  1.00  0.00     0.041 A 
ATOM     89  F   UNL A   1      43.928  33.410  27.948  1.00  0.00    -0.206 F 
ATOM     90  C   UNL A   1      46.810  34.682  29.766  1.00  0.00     0.022 A 
BRANCH  87  91
ATOM     91  S   UNL A   1      49.051  33.523  30.947  1.00  0.00     0.124 S 
ATOM     92  O   UNL A   1      49.003  34.617  31.909  1.00  0.00    -0.237 OA
ATOM     93  O   UNL A   1      49.215  32.187  31.511  1.00  0.00    -0.237 OA
ATOM     94  O   UNL A   1      49.851  33.772  29.747  1.00  0.00    -0.744 OA
ENDBRANCH  87  91
ENDBRANCH  60  84
BRANCH  72  95
ATOM     95  C   UNL A   1      49.714  26.665  26.035  1.00  0.00     0.023 A 
ATOM     96  C   UNL A   1      50.517  26.822  24.914  1.00  0.00     0.031 A 
ATOM     97  C   UNL A   1      50.221  25.795  27.047  1.00  0.00     0.131 A 
ATOM     98  C   UNL A   1      51.815  26.291  24.899  1.00  0.00     0.055 A 
ATOM     99  C   UNL A   1      51.458  25.159  26.965  1.00  0.00     0.041 A 
ATOM    100  F   UNL A   1      49.561  25.544  28.186  1.00  0.00    -0.206 F 
ATOM    101  C   UNL A   1      52.288  25.442  25.900  1.00  0.00     0.022 A 
BRANCH  98 102
ATOM    102  S   UNL A   1      52.930  26.900  23.620  1.00  0.00     0.124 S 
ATOM    103  O   UNL A   1      53.846  27.743  24.380  1.00  0.00    -0.237 OA
ATOM    104  O   UNL A   1      53.493  25.650  23.112  1.00  0.00    -0.237 OA
ATOM    105  O   UNL A   1      52.045  27.603  22.696  1.00  0.00    -0.744 OA
ENDBRANCH  98 102
ENDBRANCH  72  95
ENDBRANCH  46  47
ENDBRANCH  39  41
ENDBRANCH  38  39
ENDBRANCH  37  38
ENDBRANCH  36  37
ENDBRANCH  35  36
ENDBRANCH  34  35
ENDBRANCH   1  34
TORSDOF 26
ENDMDL
MODEL 2
REMARK VINA RESULT:      -9.4      4.260      7.595
REMARK SMILES Cc1ccccc1C(=O)Nc1ccc(N2CCCCC2)cc1C(=O)OCCOCCOCCOCCOC(=O)c1ccc(-c2c3nc(c(-c4cc(S(=O)(=O)[O-])ccc4F)c4ccc([nH]4)c(-c4cc(S(=O)(=O)[O-])ccc4F)c4nc(c(-c5cc(S(=O)(=O)[O-])ccc5F)c5ccc2[nH]5)C=C4)C=C3)cc1
REMARK SMILES IDX 32 1 31 2 30 3 29 4 28 5 27 6 26 7 25 8 23 9 24 10 22 11
REMARK SMILES IDX 11 12 12 13 13 14 21 15 14 16 10 17 8 18 9 19 7 21 1 22 2 23
REMARK SMILES IDX 3 24 4 25 6 26 5 27 15 28 16 29 20 30 17 31 19 32 18 33
REMARK SMILES IDX 33 34 34 35 35 36 36 37 37 38 38 39 39 40 40 41 41 42 102 43
REMARK SMILES IDX 42 44 101 45 43 46 44 47 45 48 95 49 46 50 100 51 94 52
REMARK SMILES IDX 96 53 47 54 99 55 93 56 92 57 48 59 80 60 60 61 79 62 61 63
REMARK SMILES IDX 64 64 78 65 97 66 62 67 63 68 77 70 98 71 65 72 49 73 50 74
REMARK SMILES IDX 58 75 51 76 57 77 59 78 56 79 52 80 53 81 54 82 55 83 81 84
REMARK SMILES IDX 82 85 90 86 83 87 89 88 91 89 88 90 84 91 85 92 86 93 87 94
REMARK SMILES IDX 66 95 67 96 75 97 68 98 74 99 76 100 73 101 69 102 70 103
REMARK SMILES IDX 71 104 72 105
REMARK H PARENT 10 20 96 58 64 69
REMARK Flexibility Score: inf
ROOT
ATOM      1  C   UNL A   1      37.176  32.908  30.141  1.00  0.00     0.188 C 
ENDROOT
BRANCH   1   2
ATOM      2  O   UNL A   1      35.829  32.456  29.981  1.00  0.00    -0.377 OA
BRANCH   2   3
ATOM      3  C   UNL A   1      35.298  32.479  28.652  1.00  0.00     0.188 C 
BRANCH   3   4
ATOM      4  C   UNL A   1      34.714  31.109  28.311  1.00  0.00     0.188 C 
BRANCH   4   5
ATOM      5  O   UNL A   1      34.137  30.862  27.048  1.00  0.00    -0.376 OA
BRANCH   5   6
ATOM      6  C   UNL A   1      34.191  29.517  26.650  1.00  0.00     0.202 C 
BRANCH   6   7
ATOM      7  C   UNL A   1      33.203  28.487  27.220  1.00  0.00     0.261 C 
BRANCH   7   8
ATOM      8  O   UNL A   1      33.094  27.217  26.600  1.00  0.00    -0.460 OA
BRANCH   8   9
ATOM      9  C   UNL A   1      31.923  26.617  26.880  1.00  0.00     0.340 C 
ATOM     10  O   UNL A   1      30.902  27.114  27.341  1.00  0.00    -0.246 OA
BRANCH   9  11
ATOM     11  C   UNL A   1      31.924  25.297  26.275  1.00  0.00     0.085 A 
ATOM     12  C   UNL A   1      30.907  25.032  25.352  1.00  0.00     0.056 A 
ATOM     13  C   UNL A   1      30.795  23.771  24.811  1.00  0.00     0.029 A 
ATOM     14  C   UNL A   1      31.855  22.893  24.965  1.00  0.00     0.028 A 
ATOM     15  C   UNL A   1      33.043  24.459  26.344  1.00  0.00     0.043 A 
ATOM     16  C   UNL A   1      33.071  23.311  25.545  1.00  0.00     0.038 A 
BRANCH  12  17
ATOM     17  N   UNL A   1      30.110  26.066  24.865  1.00  0.00    -0.321 N 
ATOM     18  C   UNL A   1      30.265  26.817  23.716  1.00  0.00     0.255 C 
ATOM     19  O   UNL A   1      29.219  27.271  23.229  1.00  0.00    -0.269 OA
ATOM     20  H   UNL A   1      29.327  26.294  25.417  1.00  0.00     0.170 HD
BRANCH  18  21
ATOM     21  C   UNL A   1      31.609  27.311  23.122  1.00  0.00     0.043 A 
ATOM     22  C   UNL A   1      32.861  25.227  22.140  1.00  0.00     0.045 C 
ATOM     23  C   UNL A   1      32.628  26.686  22.365  1.00  0.00    -0.038 A 
ATOM     24  C   UNL A   1      33.743  27.427  21.893  1.00  0.00     0.004 A 
ATOM     25  C   UNL A   1      34.025  28.686  22.383  1.00  0.00     0.000 A 
ATOM     26  C   UNL A   1      31.980  28.577  23.648  1.00  0.00     0.014 A 
ATOM     27  C   UNL A   1      33.180  29.228  23.329  1.00  0.00     0.001 A 
ENDBRANCH  18  21
ENDBRANCH  12  17
BRANCH  16  28
ATOM     28  N   UNL A   1      34.244  22.706  25.143  1.00  0.00    -0.372 N 
ATOM     29  C   UNL A   1      35.211  22.223  26.142  1.00  0.00     0.116 C 
ATOM     30  C   UNL A   1      34.516  22.217  23.800  1.00  0.00     0.116 C 
ATOM     31  C   UNL A   1      36.554  22.861  25.832  1.00  0.00     0.021 C 
ATOM     32  C   UNL A   1      35.823  22.890  23.379  1.00  0.00     0.021 C 
ATOM     33  C   UNL A   1      36.958  22.610  24.378  1.00  0.00     0.004 C 
ENDBRANCH  16  28
ENDBRANCH   9  11
ENDBRANCH   8   9
ENDBRANCH   7   8
ENDBRANCH   6   7
ENDBRANCH   5   6
ENDBRANCH   4   5
ENDBRANCH   3   4
ENDBRANCH   2   3
ENDBRANCH   1   2
BRANCH   1  34
ATOM     34  C   UNL A   1      38.189  31.813  30.449  1.00  0.00     0.188 C 
BRANCH  34  35
ATOM     35  O   UNL A   1      38.090  30.818  29.432  1.00  0.00    -0.376 OA
BRANCH  35  36
ATOM     36  C   UNL A   1      38.524  29.519  29.786  1.00  0.00     0.202 C 
BRANCH  36  37
ATOM     37  C   UNL A   1      39.297  28.869  28.642  1.00  0.00     0.261 C 
BRANCH  37  38
ATOM     38  O   UNL A   1      39.742  27.565  29.085  1.00  0.00    -0.460 OA
BRANCH  38  39
ATOM     39  C   UNL A   1      39.987  26.673  28.086  1.00  0.00     0.338 C 
ATOM     40  O   UNL A   1      39.119  26.133  27.418  1.00  0.00    -0.246 OA
BRANCH  39  41
ATOM     41  C   UNL A   1      41.445  26.343  27.999  1.00  0.00     0.060 A 
ATOM     42  C   UNL A   1      41.943  25.167  28.584  1.00  0.00     0.016 A 
ATOM     43  C   UNL A   1      42.346  27.308  27.566  1.00  0.00     0.016 A 
ATOM     44  C   UNL A   1      43.319  25.031  28.870  1.00  0.00     0.010 A 
ATOM     45  C   UNL A   1      43.679  27.207  27.934  1.00  0.00     0.010 A 
ATOM     46  C   UNL A   1      44.195  26.095  28.624  1.00  0.00    -0.014 A 
BRANCH  46  47
ATOM     47  C   UNL A   1      45.541  26.279  29.259  1.00  0.00     0.031 A 
ATOM     48  C   UNL A   1      46.796  25.716  28.577  1.00  0.00     0.074 A 
ATOM     49  C   UNL A   1      45.596  27.323  30.134  1.00  0.00     0.049 A 
ATOM     50  N   UNL A   1      48.035  25.812  28.968  1.00  0.00    -0.248 NA
ATOM     51  C   UNL A   1      46.709  24.912  27.352  1.00  0.00     0.031 C 
ATOM     52  C   UNL A   1      46.515  28.440  30.180  1.00  0.00     0.029 A 
ATOM     53  N   UNL A   1      44.769  27.626  31.207  1.00  0.00    -0.354 N 
ATOM     54  C   UNL A   1      48.890  25.380  27.928  1.00  0.00     0.074 A 
ATOM     55  C   UNL A   1      47.987  24.759  26.993  1.00  0.00     0.031 C 
ATOM     56  C   UNL A   1      46.494  29.090  31.339  1.00  0.00     0.029 A 
ATOM     57  C   UNL A   1      45.502  28.438  32.110  1.00  0.00     0.049 A 
ATOM     58  H   UNL A   1      43.838  27.329  31.322  1.00  0.00     0.167 HD
ATOM     59  C   UNL A   1      50.233  25.725  27.877  1.00  0.00     0.034 A 
ATOM     60  C   UNL A   1      45.628  28.160  33.422  1.00  0.00     0.034 A 
ATOM     61  C   UNL A   1      50.721  26.331  29.148  1.00  0.00     0.049 A 
ATOM     62  C   UNL A   1      46.980  27.463  33.670  1.00  0.00     0.074 A 
ATOM     63  C   UNL A   1      51.650  27.300  29.531  1.00  0.00     0.029 A 
ATOM     64  N   UNL A   1      50.084  25.998  30.337  1.00  0.00    -0.354 N 
ATOM     65  N   UNL A   1      48.014  27.440  32.840  1.00  0.00    -0.248 NA
ATOM     66  C   UNL A   1      47.257  26.706  34.887  1.00  0.00     0.031 C 
ATOM     67  C   UNL A   1      51.483  27.591  30.917  1.00  0.00     0.029 A 
ATOM     68  C   UNL A   1      50.517  26.738  31.407  1.00  0.00     0.049 A 
ATOM     69  H   UNL A   1      49.392  25.299  30.404  1.00  0.00     0.167 HD
ATOM     70  C   UNL A   1      49.007  26.610  33.344  1.00  0.00     0.074 A 
ATOM     71  C   UNL A   1      48.473  26.192  34.632  1.00  0.00     0.031 C 
ATOM     72  C   UNL A   1      50.183  26.249  32.721  1.00  0.00     0.034 A 
BRANCH  59  73
ATOM     73  C   UNL A   1      51.148  25.747  26.592  1.00  0.00     0.023 A 
ATOM     74  C   UNL A   1      52.503  25.324  26.691  1.00  0.00     0.031 A 
ATOM     75  C   UNL A   1      50.841  26.276  25.316  1.00  0.00     0.131 A 
ATOM     76  C   UNL A   1      53.469  25.533  25.677  1.00  0.00     0.055 A 
ATOM     77  C   UNL A   1      51.780  26.394  24.263  1.00  0.00     0.041 A 
ATOM     78  F   UNL A   1      49.629  26.733  24.994  1.00  0.00    -0.206 F 
ATOM     79  C   UNL A   1      53.108  26.050  24.445  1.00  0.00     0.022 A 
BRANCH  76  80
ATOM     80  S   UNL A   1      55.221  25.138  25.993  1.00  0.00     0.124 S 
ATOM     81  O   UNL A   1      55.256  25.035  27.447  1.00  0.00    -0.237 OA
ATOM     82  O   UNL A   1      55.408  23.895  25.254  1.00  0.00    -0.237 OA
ATOM     83  O   UNL A   1      55.933  26.291  25.440  1.00  0.00    -0.744 OA
ENDBRANCH  76  80
ENDBRANCH  59  73
BRANCH  60  84
ATOM     84  C   UNL A   1      44.202  28.089  33.932  1.00  0.00     0.023 A 
ATOM     85  C   UNL A   1      43.830  26.744  34.279  1.00  0.00     0.031 A 
ATOM     86  C   UNL A   1      43.724  29.108  34.776  1.00  0.00     0.131 A 
ATOM     87  C   UNL A   1      43.342  26.447  35.572  1.00  0.00     0.055 A 
ATOM     88  C   UNL A   1      43.177  28.803  36.041  1.00  0.00     0.041 A 
ATOM     89  F   UNL A   1      44.035  30.390  34.528  1.00  0.00    -0.206 F 
ATOM     90  C   UNL A   1      43.050  27.476  36.467  1.00  0.00     0.022 A 
BRANCH  87  91
ATOM     91  S   UNL A   1      43.445  24.729  36.218  1.00  0.00     0.124 S 
ATOM     92  O   UNL A   1      42.163  24.170  35.806  1.00  0.00    -0.237 OA
ATOM     93  O   UNL A   1      44.620  24.185  35.545  1.00  0.00    -0.237 OA
ATOM     94  O   UNL A   1      43.614  24.928  37.658  1.00  0.00    -0.744 OA
ENDBRANCH  87  91
ENDBRANCH  60  84
BRANCH  72  95
ATOM     95  C   UNL A   1      51.207  25.263  33.256  1.00  0.00     0.023 A 
ATOM     96  C   UNL A   1      50.959  23.898  33.279  1.00  0.00     0.031 A 
ATOM     97  C   UNL A   1      52.445  25.681  33.831  1.00  0.00     0.131 A 
ATOM     98  C   UNL A   1      51.966  23.006  33.680  1.00  0.00     0.055 A 
ATOM     99  C   UNL A   1      53.388  24.797  34.353  1.00  0.00     0.041 A 
ATOM    100  F   UNL A   1      52.825  26.965  33.882  1.00  0.00    -0.206 F 
ATOM    101  C   UNL A   1      53.169  23.440  34.239  1.00  0.00     0.022 A 
BRANCH  98 102
ATOM    102  S   UNL A   1      51.726  21.268  33.271  1.00  0.00     0.124 S 
ATOM    103  O   UNL A   1      50.273  21.144  33.273  1.00  0.00    -0.237 OA
ATOM    104  O   UNL A   1      52.368  21.191  31.960  1.00  0.00    -0.237 OA
ATOM    105  O   UNL A   1      52.420  20.562  34.344  1.00  0.00    -0.744 OA
ENDBRANCH  98 102
ENDBRANCH  72  95
ENDBRANCH  46  47
ENDBRANCH  39  41
ENDBRANCH  38  39
ENDBRANCH  37  38
ENDBRANCH  36  37
ENDBRANCH  35  36
ENDBRANCH  34  35
ENDBRANCH   1  34
TORSDOF 26
ENDMDL
MODEL 3
REMARK VINA RESULT:      -9.0      2.466      3.126
REMARK SMILES Cc1ccccc1C(=O)Nc1ccc(N2CCCCC2)cc1C(=O)OCCOCCOCCOCCOC(=O)c1ccc(-c2c3nc(c(-c4cc(S(=O)(=O)[O-])ccc4F)c4ccc([nH]4)c(-c4cc(S(=O)(=O)[O-])ccc4F)c4nc(c(-c5cc(S(=O)(=O)[O-])ccc5F)c5ccc2[nH]5)C=C4)C=C3)cc1
REMARK SMILES IDX 32 1 31 2 30 3 29 4 28 5 27 6 26 7 25 8 23 9 24 10 22 11
REMARK SMILES IDX 11 12 12 13 13 14 21 15 14 16 10 17 8 18 9 19 7 21 1 22 2 23
REMARK SMILES IDX 3 24 4 25 6 26 5 27 15 28 16 29 20 30 17 31 19 32 18 33
REMARK SMILES IDX 33 34 34 35 35 36 36 37 37 38 38 39 39 40 40 41 41 42 102 43
REMARK SMILES IDX 42 44 101 45 43 46 44 47 45 48 95 49 46 50 100 51 94 52
REMARK SMILES IDX 96 53 47 54 99 55 93 56 92 57 48 59 80 60 60 61 79 62 61 63
REMARK SMILES IDX 64 64 78 65 97 66 62 67 63 68 77 70 98 71 65 72 49 73 50 74
REMARK SMILES IDX 58 75 51 76 57 77 59 78 56 79 52 80 53 81 54 82 55 83 81 84
REMARK SMILES IDX 82 85 90 86 83 87 89 88 91 89 88 90 84 91 85 92 86 93 87 94
REMARK SMILES IDX 66 95 67 96 75 97 68 98 74 99 76 100 73 101 69 102 70 103
REMARK SMILES IDX 71 104 72 105
REMARK H PARENT 10 20 96 58 64 69
REMARK Flexibility Score: inf
ROOT
ATOM      1  C   UNL A   1      36.522  30.778  30.677  1.00  0.00     0.188 C 
ENDROOT
BRANCH   1   2
ATOM      2  O   UNL A   1      36.383  32.053  30.046  1.00  0.00    -0.377 OA
BRANCH   2   3
ATOM      3  C   UNL A   1      35.076  32.635  30.056  1.00  0.00     0.188 C 
BRANCH   3   4
ATOM      4  C   UNL A   1      34.396  32.391  28.711  1.00  0.00     0.188 C 
BRANCH   4   5
ATOM      5  O   UNL A   1      34.846  31.371  27.847  1.00  0.00    -0.376 OA
BRANCH   5   6
ATOM      6  C   UNL A   1      33.813  30.680  27.193  1.00  0.00     0.202 C 
BRANCH   6   7
ATOM      7  C   UNL A   1      33.763  29.144  27.207  1.00  0.00     0.261 C 
BRANCH   7   8
ATOM      8  O   UNL A   1      33.143  28.463  26.129  1.00  0.00    -0.460 OA
BRANCH   8   9
ATOM      9  C   UNL A   1      31.876  28.113  26.414  1.00  0.00     0.340 C 
ATOM     10  O   UNL A   1      31.324  28.068  27.507  1.00  0.00    -0.246 OA
BRANCH   9  11
ATOM     11  C   UNL A   1      31.121  28.064  25.175  1.00  0.00     0.085 A 
ATOM     12  C   UNL A   1      30.530  26.839  24.851  1.00  0.00     0.056 A 
ATOM     13  C   UNL A   1      29.878  26.697  23.647  1.00  0.00     0.029 A 
ATOM     14  C   UNL A   1      29.572  27.841  22.927  1.00  0.00     0.028 A 
ATOM     15  C   UNL A   1      30.721  29.231  24.511  1.00  0.00     0.043 A 
ATOM     16  C   UNL A   1      29.799  29.125  23.464  1.00  0.00     0.038 A 
BRANCH  12  17
ATOM     17  N   UNL A   1      30.465  25.817  25.796  1.00  0.00    -0.321 N 
ATOM     18  C   UNL A   1      31.375  24.810  26.053  1.00  0.00     0.255 C 
ATOM     19  O   UNL A   1      31.379  24.376  27.214  1.00  0.00    -0.269 OA
ATOM     20  H   UNL A   1      29.657  25.811  26.360  1.00  0.00     0.170 HD
BRANCH  18  21
ATOM     21  C   UNL A   1      32.214  24.045  24.997  1.00  0.00     0.043 A 
ATOM     22  C   UNL A   1      33.689  25.802  23.726  1.00  0.00     0.045 C 
ATOM     23  C   UNL A   1      33.256  24.427  24.118  1.00  0.00    -0.038 A 
ATOM     24  C   UNL A   1      33.895  23.469  23.288  1.00  0.00     0.004 A 
ATOM     25  C   UNL A   1      33.351  22.217  23.089  1.00  0.00     0.000 A 
ATOM     26  C   UNL A   1      31.654  22.773  24.705  1.00  0.00     0.014 A 
ATOM     27  C   UNL A   1      32.176  21.899  23.741  1.00  0.00     0.001 A 
ENDBRANCH  18  21
ENDBRANCH  12  17
BRANCH  16  28
ATOM     28  N   UNL A   1      28.974  30.162  23.085  1.00  0.00    -0.372 N 
ATOM     29  C   UNL A   1      27.911  29.940  22.089  1.00  0.00     0.116 C 
ATOM     30  C   UNL A   1      28.843  31.428  23.788  1.00  0.00     0.116 C 
ATOM     31  C   UNL A   1      28.105  30.952  20.973  1.00  0.00     0.021 C 
ATOM     32  C   UNL A   1      29.113  32.508  22.738  1.00  0.00     0.021 C 
ATOM     33  C   UNL A   1      28.174  32.376  21.528  1.00  0.00     0.004 C 
ENDBRANCH  16  28
ENDBRANCH   9  11
ENDBRANCH   8   9
ENDBRANCH   7   8
ENDBRANCH   6   7
ENDBRANCH   5   6
ENDBRANCH   4   5
ENDBRANCH   3   4
ENDBRANCH   2   3
ENDBRANCH   1   2
BRANCH   1  34
ATOM     34  C   UNL A   1      36.573  30.816  32.199  1.00  0.00     0.188 C 
BRANCH  34  35
ATOM     35  O   UNL A   1      37.893  31.191  32.590  1.00  0.00    -0.376 OA
BRANCH  35  36
ATOM     36  C   UNL A   1      37.995  31.991  33.752  1.00  0.00     0.202 C 
BRANCH  36  37
ATOM     37  C   UNL A   1      39.449  32.357  34.039  1.00  0.00     0.261 C 
BRANCH  37  38
ATOM     38  O   UNL A   1      39.749  31.970  35.399  1.00  0.00    -0.460 OA
BRANCH  38  39
ATOM     39  C   UNL A   1      39.721  30.628  35.633  1.00  0.00     0.338 C 
ATOM     40  O   UNL A   1      38.992  30.087  36.448  1.00  0.00    -0.246 OA
BRANCH  39  41
ATOM     41  C   UNL A   1      40.788  29.920  34.856  1.00  0.00     0.060 A 
ATOM     42  C   UNL A   1      42.145  30.145  35.144  1.00  0.00     0.016 A 
ATOM     43  C   UNL A   1      40.456  29.240  33.691  1.00  0.00     0.016 A 
ATOM     44  C   UNL A   1      43.145  29.827  34.200  1.00  0.00     0.010 A 
ATOM     45  C   UNL A   1      41.434  29.016  32.732  1.00  0.00     0.010 A 
ATOM     46  C   UNL A   1      42.788  29.334  32.940  1.00  0.00    -0.014 A 
BRANCH  46  47
ATOM     47  C   UNL A   1      43.652  29.372  31.714  1.00  0.00     0.031 A 
ATOM     48  C   UNL A   1      43.920  28.083  30.923  1.00  0.00     0.074 A 
ATOM     49  C   UNL A   1      43.738  30.606  31.142  1.00  0.00     0.049 A 
ATOM     50  N   UNL A   1      44.612  27.942  29.829  1.00  0.00    -0.248 NA
ATOM     51  C   UNL A   1      43.427  26.780  31.386  1.00  0.00     0.031 C 
ATOM     52  C   UNL A   1      43.485  31.009  29.775  1.00  0.00     0.029 A 
ATOM     53  N   UNL A   1      44.063  31.828  31.715  1.00  0.00    -0.354 N 
ATOM     54  C   UNL A   1      44.395  26.648  29.300  1.00  0.00     0.074 A 
ATOM     55  C   UNL A   1      43.716  25.963  30.370  1.00  0.00     0.031 C 
ATOM     56  C   UNL A   1      43.976  32.210  29.482  1.00  0.00     0.029 A 
ATOM     57  C   UNL A   1      44.549  32.679  30.689  1.00  0.00     0.049 A 
ATOM     58  H   UNL A   1      43.972  32.064  32.666  1.00  0.00     0.167 HD
ATOM     59  C   UNL A   1      44.658  26.331  27.975  1.00  0.00     0.034 A 
ATOM     60  C   UNL A   1      45.726  33.329  30.762  1.00  0.00     0.034 A 
ATOM     61  C   UNL A   1      45.442  27.387  27.274  1.00  0.00     0.049 A 
ATOM     62  C   UNL A   1      46.796  32.540  29.984  1.00  0.00     0.074 A 
ATOM     63  C   UNL A   1      45.526  27.917  25.986  1.00  0.00     0.029 A 
ATOM     64  N   UNL A   1      46.278  28.207  28.023  1.00  0.00    -0.354 N 
ATOM     65  N   UNL A   1      46.573  31.583  29.094  1.00  0.00    -0.248 NA
ATOM     66  C   UNL A   1      48.226  32.764  30.176  1.00  0.00     0.031 C 
ATOM     67  C   UNL A   1      46.333  29.093  26.012  1.00  0.00     0.029 A 
ATOM     68  C   UNL A   1      46.819  29.236  27.294  1.00  0.00     0.049 A 
ATOM     69  H   UNL A   1      46.465  28.063  28.980  1.00  0.00     0.167 HD
ATOM     70  C   UNL A   1      47.776  31.014  28.697  1.00  0.00     0.074 A 
ATOM     71  C   UNL A   1      48.771  31.808  29.404  1.00  0.00     0.031 C 
ATOM     72  C   UNL A   1      47.946  29.925  27.869  1.00  0.00     0.034 A 
BRANCH  59  73
ATOM     73  C   UNL A   1      44.025  25.143  27.151  1.00  0.00     0.023 A 
ATOM     74  C   UNL A   1      44.871  24.309  26.368  1.00  0.00     0.031 A 
ATOM     75  C   UNL A   1      42.655  24.849  26.963  1.00  0.00     0.131 A 
ATOM     76  C   UNL A   1      44.393  23.383  25.409  1.00  0.00     0.055 A 
ATOM     77  C   UNL A   1      42.174  23.853  26.078  1.00  0.00     0.041 A 
ATOM     78  F   UNL A   1      41.680  25.504  27.596  1.00  0.00    -0.206 F 
ATOM     79  C   UNL A   1      43.039  23.132  25.273  1.00  0.00     0.022 A 
BRANCH  76  80
ATOM     80  S   UNL A   1      45.568  22.516  24.316  1.00  0.00     0.124 S 
ATOM     81  O   UNL A   1      46.396  23.611  23.823  1.00  0.00    -0.237 OA
ATOM     82  O   UNL A   1      46.216  21.576  25.224  1.00  0.00    -0.237 OA
ATOM     83  O   UNL A   1      44.703  21.898  23.311  1.00  0.00    -0.744 OA
ENDBRANCH  76  80
ENDBRANCH  59  73
BRANCH  60  84
ATOM     84  C   UNL A   1      45.621  34.160  32.026  1.00  0.00     0.023 A 
ATOM     85  C   UNL A   1      46.556  33.721  33.027  1.00  0.00     0.031 A 
ATOM     86  C   UNL A   1      45.424  35.549  31.920  1.00  0.00     0.131 A 
ATOM     87  C   UNL A   1      47.477  34.631  33.595  1.00  0.00     0.055 A 
ATOM     88  C   UNL A   1      46.309  36.455  32.542  1.00  0.00     0.041 A 
ATOM     89  F   UNL A   1      44.576  36.041  31.004  1.00  0.00    -0.206 F 
ATOM     90  C   UNL A   1      47.376  35.995  33.323  1.00  0.00     0.022 A 
BRANCH  87  91
ATOM     91  S   UNL A   1      49.020  34.007  34.373  1.00  0.00     0.124 S 
ATOM     92  O   UNL A   1      49.315  32.828  33.566  1.00  0.00    -0.237 OA
ATOM     93  O   UNL A   1      49.948  35.124  34.228  1.00  0.00    -0.237 OA
ATOM     94  O   UNL A   1      48.610  33.741  35.753  1.00  0.00    -0.744 OA
ENDBRANCH  87  91
ENDBRANCH  60  84
BRANCH  72  95
ATOM     95  C   UNL A   1      49.272  29.264  27.528  1.00  0.00     0.023 A 
ATOM     96  C   UNL A   1      49.554  27.961  27.911  1.00  0.00     0.031 A 
ATOM     97  C   UNL A   1      50.327  29.962  26.867  1.00  0.00     0.131 A 
ATOM     98  C   UNL A   1      50.742  27.346  27.489  1.00  0.00     0.055 A 
ATOM     99  C   UNL A   1      51.561  29.387  26.569  1.00  0.00     0.041 A 
ATOM    100  F   UNL A   1      50.205  31.226  26.439  1.00  0.00    -0.206 F 
ATOM    101  C   UNL A   1      51.760  28.049  26.842  1.00  0.00     0.022 A 
BRANCH  98 102
ATOM    102  S   UNL A   1      50.833  25.553  27.646  1.00  0.00     0.124 S 
ATOM    103  O   UNL A   1      50.867  25.367  29.092  1.00  0.00    -0.237 OA
ATOM    104  O   UNL A   1      49.596  25.144  26.983  1.00  0.00    -0.237 OA
ATOM    105  O   UNL A   1      52.061  25.206  26.936  1.00  0.00    -0.744 OA
ENDBRANCH  98 102
ENDBRANCH  72  95
ENDBRANCH  46  47
ENDBRANCH  39  41
ENDBRANCH  38  39
ENDBRANCH  37  38
ENDBRANCH  36  37
ENDBRANCH  35  36
ENDBRANCH  34  35
ENDBRANCH   1  34
TORSDOF 26
ENDMDL
