MODEL 1
REMARK VINA RESULT:      -7.9      0.000      0.000
REMARK SMILES Cc1ccc(Cl)c(Nc2ccccc2C(=O)N[C@@H](C)C(=O)OCCOCCOCCOCCOC(=O)c2ccc(-c3c4nc(c(-c5cc(S(=O)(=O)[O-])ccc5F)c5ccc([nH]5)c(-c5cc(S(=O)(=O)[O-])ccc5F)c5nc(c(-c6cc(S(=O)(=O)[O-])ccc6F)c6ccc3[nH]6)C=C5)C=C4)cc2)c1Cl
REMARK SMILES IDX 27 1 26 2 25 3 24 4 23 5 22 6 20 7 21 8 18 9 19 10 17 11
REMARK SMILES IDX 15 12 16 13 14 15 9 16 10 17 11 18 13 19 12 20 8 21 7 23
REMARK SMILES IDX 1 24 2 25 3 26 100 27 4 28 101 29 5 30 6 31 28 32 29 33
REMARK SMILES IDX 30 34 31 35 32 36 33 37 34 38 35 39 36 40 37 41 38 42 99 43
REMARK SMILES IDX 39 44 98 45 40 46 41 47 42 48 92 49 43 50 97 51 91 52 93 53
REMARK SMILES IDX 44 54 96 55 90 56 89 57 45 59 77 60 57 61 76 62 58 63 61 64
REMARK SMILES IDX 75 65 94 66 59 67 60 68 74 70 95 71 62 72 46 73 47 74 55 75
REMARK SMILES IDX 48 76 54 77 56 78 53 79 49 80 50 81 51 82 52 83 78 84 79 85
REMARK SMILES IDX 87 86 80 87 86 88 88 89 85 90 81 91 82 92 83 93 84 94 63 95
REMARK SMILES IDX 64 96 72 97 65 98 71 99 73 100 70 101 66 102 67 103 68 104
REMARK SMILES IDX 69 105
REMARK H PARENT 17 14 8 22 93 58 61 69
REMARK Flexibility Score: inf
ROOT
ATOM      1  C   UNL A   1      41.161  29.862  29.893  1.00  0.00     0.188 C 
ENDROOT
BRANCH   1   2
ATOM      2  C   UNL A   1      40.409  29.283  28.627  1.00  0.00     0.188 C 
BRANCH   2   3
ATOM      3  O   UNL A   1      38.988  28.982  28.639  1.00  0.00    -0.376 OA
BRANCH   3   4
ATOM      4  C   UNL A   1      38.058  29.416  27.626  1.00  0.00     0.202 C 
BRANCH   4   5
ATOM      5  C   UNL A   1      36.605  30.060  28.078  1.00  0.00     0.261 C 
BRANCH   5   6
ATOM      6  O   UNL A   1      35.323  29.541  27.491  1.00  0.00    -0.462 OA
BRANCH   6   7
ATOM      7  C   UNL A   1      34.204  30.363  27.426  1.00  0.00     0.328 C 
ATOM      8  O   UNL A   1      34.265  31.560  27.710  1.00  0.00    -0.250 OA
BRANCH   7   9
ATOM      9  C   UNL A   1      32.877  29.750  26.683  1.00  0.00     0.189 C 
ATOM     10  C   UNL A   1      31.783  30.801  26.491  1.00  0.00     0.043 C 
BRANCH   9  11
ATOM     11  N   UNL A   1      32.216  28.484  27.054  1.00  0.00    -0.339 N 
ATOM     12  C   UNL A   1      31.566  27.451  26.388  1.00  0.00     0.254 C 
ATOM     13  O   UNL A   1      30.995  26.695  27.196  1.00  0.00    -0.269 OA
ATOM     14  H   UNL A   1      32.242  28.331  28.026  1.00  0.00     0.164 HD
BRANCH  12  15
ATOM     15  C   UNL A   1      31.471  27.031  24.896  1.00  0.00     0.063 A 
ATOM     16  C   UNL A   1      31.702  25.836  24.162  1.00  0.00     0.051 A 
ATOM     17  C   UNL A   1      31.499  25.817  22.739  1.00  0.00     0.027 A 
ATOM     18  C   UNL A   1      31.029  26.910  22.022  1.00  0.00     0.002 A 
ATOM     19  C   UNL A   1      31.036  28.139  24.090  1.00  0.00     0.016 A 
ATOM     20  C   UNL A   1      30.809  28.086  22.702  1.00  0.00     0.001 A 
BRANCH  16  21
ATOM     21  N   UNL A   1      31.988  24.542  24.669  1.00  0.00    -0.352 N 
ATOM     22  H   UNL A   1      31.309  24.110  25.236  1.00  0.00     0.167 HD
BRANCH  21  23
ATOM     23  C   UNL A   1      33.209  23.819  24.410  1.00  0.00     0.077 A 
ATOM     24  C   UNL A   1      32.213  20.756  24.992  1.00  0.00     0.046 C 
ATOM     25  C   UNL A   1      33.425  21.572  24.721  1.00  0.00    -0.030 A 
ATOM     26  C   UNL A   1      34.541  21.702  25.539  1.00  0.00     0.006 A 
ATOM     27  C   UNL A   1      33.153  22.577  23.833  1.00  0.00     0.069 A 
ATOM     28  C   UNL A   1      35.087  22.970  25.692  1.00  0.00     0.023 A 
ATOM     29  Cl  UNL A   1      32.372  22.198  22.337  1.00  0.00    -0.082 Cl
ATOM     30  C   UNL A   1      34.334  24.047  25.220  1.00  0.00     0.066 A 
ATOM     31  Cl  UNL A   1      34.709  25.638  25.756  1.00  0.00    -0.082 Cl
ENDBRANCH  21  23
ENDBRANCH  16  21
ENDBRANCH  12  15
ENDBRANCH   9  11
ENDBRANCH   7   9
ENDBRANCH   6   7
ENDBRANCH   5   6
ENDBRANCH   4   5
ENDBRANCH   3   4
ENDBRANCH   2   3
ENDBRANCH   1   2
BRANCH   1  32
ATOM     32  O   UNL A   1      41.984  31.014  29.713  1.00  0.00    -0.377 OA
BRANCH  32  33
ATOM     33  C   UNL A   1      41.470  32.220  30.252  1.00  0.00     0.188 C 
BRANCH  33  34
ATOM     34  C   UNL A   1      40.383  32.004  31.301  1.00  0.00     0.188 C 
BRANCH  34  35
ATOM     35  O   UNL A   1      39.051  32.029  30.830  1.00  0.00    -0.376 OA
BRANCH  35  36
ATOM     36  C   UNL A   1      38.620  32.959  29.844  1.00  0.00     0.202 C 
BRANCH  36  37
ATOM     37  C   UNL A   1      37.195  33.541  29.768  1.00  0.00     0.261 C 
BRANCH  37  38
ATOM     38  O   UNL A   1      36.092  32.710  30.166  1.00  0.00    -0.460 OA
BRANCH  38  39
ATOM     39  C   UNL A   1      35.167  33.229  31.007  1.00  0.00     0.338 C 
ATOM     40  O   UNL A   1      34.027  33.520  30.743  1.00  0.00    -0.246 OA
BRANCH  39  41
ATOM     41  C   UNL A   1      35.716  33.114  32.384  1.00  0.00     0.060 A 
ATOM     42  C   UNL A   1      35.547  34.202  33.255  1.00  0.00     0.016 A 
ATOM     43  C   UNL A   1      36.404  31.975  32.805  1.00  0.00     0.016 A 
ATOM     44  C   UNL A   1      36.101  34.180  34.526  1.00  0.00     0.010 A 
ATOM     45  C   UNL A   1      37.027  31.981  34.057  1.00  0.00     0.010 A 
ATOM     46  C   UNL A   1      36.924  33.112  34.889  1.00  0.00    -0.014 A 
BRANCH  46  47
ATOM     47  C   UNL A   1      37.935  33.384  35.935  1.00  0.00     0.031 A 
ATOM     48  C   UNL A   1      39.234  34.006  35.486  1.00  0.00     0.074 A 
ATOM     49  C   UNL A   1      37.661  33.227  37.241  1.00  0.00     0.049 A 
ATOM     50  N   UNL A   1      40.271  34.372  36.188  1.00  0.00    -0.248 NA
ATOM     51  C   UNL A   1      39.369  34.257  34.041  1.00  0.00     0.031 C 
ATOM     52  C   UNL A   1      36.397  32.737  37.786  1.00  0.00     0.029 A 
ATOM     53  N   UNL A   1      38.432  33.481  38.345  1.00  0.00    -0.354 N 
ATOM     54  C   UNL A   1      41.183  34.888  35.272  1.00  0.00     0.074 A 
ATOM     55  C   UNL A   1      40.591  34.754  33.960  1.00  0.00     0.031 C 
ATOM     56  C   UNL A   1      36.483  32.718  39.129  1.00  0.00     0.029 A 
ATOM     57  C   UNL A   1      37.819  33.156  39.532  1.00  0.00     0.049 A 
ATOM     58  H   UNL A   1      39.339  33.861  38.294  1.00  0.00     0.167 HD
ATOM     59  C   UNL A   1      42.402  35.430  35.504  1.00  0.00     0.034 A 
ATOM     60  C   UNL A   1      38.299  33.184  40.791  1.00  0.00     0.034 A 
ATOM     61  C   UNL A   1      42.979  35.538  36.819  1.00  0.00     0.049 A 
ATOM     62  C   UNL A   1      39.708  33.685  41.017  1.00  0.00     0.074 A 
ATOM     63  C   UNL A   1      44.215  36.042  37.181  1.00  0.00     0.029 A 
ATOM     64  N   UNL A   1      42.361  35.122  37.993  1.00  0.00    -0.354 N 
ATOM     65  N   UNL A   1      40.578  34.140  40.141  1.00  0.00    -0.248 NA
ATOM     66  C   UNL A   1      40.193  33.691  42.403  1.00  0.00     0.031 C 
ATOM     67  C   UNL A   1      44.378  35.853  38.556  1.00  0.00     0.029 A 
ATOM     68  C   UNL A   1      43.203  35.329  39.074  1.00  0.00     0.049 A 
ATOM     69  H   UNL A   1      41.457  34.737  38.049  1.00  0.00     0.167 HD
ATOM     70  C   UNL A   1      41.697  34.524  40.880  1.00  0.00     0.074 A 
ATOM     71  C   UNL A   1      41.381  34.260  42.269  1.00  0.00     0.031 C 
ATOM     72  C   UNL A   1      42.873  35.054  40.453  1.00  0.00     0.034 A 
BRANCH  59  73
ATOM     73  C   UNL A   1      43.208  35.865  34.303  1.00  0.00     0.023 A 
ATOM     74  C   UNL A   1      44.109  35.003  33.654  1.00  0.00     0.031 A 
ATOM     75  C   UNL A   1      43.108  37.186  33.830  1.00  0.00     0.131 A 
ATOM     76  C   UNL A   1      44.924  35.490  32.619  1.00  0.00     0.055 A 
ATOM     77  C   UNL A   1      43.856  37.640  32.744  1.00  0.00     0.041 A 
ATOM     78  F   UNL A   1      42.290  38.065  34.430  1.00  0.00    -0.206 F 
ATOM     79  C   UNL A   1      44.782  36.795  32.140  1.00  0.00     0.022 A 
BRANCH  76  80
ATOM     80  S   UNL A   1      46.279  34.446  32.013  1.00  0.00     0.124 S 
ATOM     81  O   UNL A   1      45.983  33.173  32.663  1.00  0.00    -0.237 OA
ATOM     82  O   UNL A   1      46.087  34.487  30.568  1.00  0.00    -0.237 OA
ATOM     83  O   UNL A   1      47.479  35.123  32.503  1.00  0.00    -0.744 OA
ENDBRANCH  76  80
ENDBRANCH  59  73
BRANCH  60  84
ATOM     84  C   UNL A   1      37.474  32.685  41.930  1.00  0.00     0.023 A 
ATOM     85  C   UNL A   1      36.541  33.511  42.578  1.00  0.00     0.031 A 
ATOM     86  C   UNL A   1      37.657  31.382  42.432  1.00  0.00     0.131 A 
ATOM     87  C   UNL A   1      35.866  33.046  43.718  1.00  0.00     0.055 A 
ATOM     88  C   UNL A   1      36.937  30.903  43.528  1.00  0.00     0.041 A 
ATOM     89  F   UNL A   1      38.540  30.551  41.858  1.00  0.00    -0.206 F 
ATOM     90  C   UNL A   1      36.046  31.742  44.188  1.00  0.00     0.022 A 
BRANCH  87  91
ATOM     91  S   UNL A   1      34.821  34.205  44.643  1.00  0.00     0.124 S 
ATOM     92  O   UNL A   1      35.741  35.310  44.879  1.00  0.00    -0.237 OA
ATOM     93  O   UNL A   1      33.740  34.459  43.695  1.00  0.00    -0.237 OA
ATOM     94  O   UNL A   1      34.439  33.444  45.831  1.00  0.00    -0.744 OA
ENDBRANCH  87  91
ENDBRANCH  60  84
BRANCH  72  95
ATOM     95  C   UNL A   1      43.877  35.446  41.513  1.00  0.00     0.023 A 
ATOM     96  C   UNL A   1      43.898  36.730  42.084  1.00  0.00     0.031 A 
ATOM     97  C   UNL A   1      44.844  34.518  41.943  1.00  0.00     0.131 A 
ATOM     98  C   UNL A   1      44.914  37.076  42.988  1.00  0.00     0.055 A 
ATOM     99  C   UNL A   1      45.801  34.843  42.904  1.00  0.00     0.041 A 
ATOM    100  F   UNL A   1      44.874  33.276  41.434  1.00  0.00    -0.206 F 
ATOM    101  C   UNL A   1      45.852  36.135  43.418  1.00  0.00     0.022 A 
BRANCH  98 102
ATOM    102  S   UNL A   1      45.076  38.812  43.488  1.00  0.00     0.124 S 
ATOM    103  O   UNL A   1      43.752  39.092  44.036  1.00  0.00    -0.237 OA
ATOM    104  O   UNL A   1      46.167  38.757  44.455  1.00  0.00    -0.237 OA
ATOM    105  O   UNL A   1      45.388  39.500  42.238  1.00  0.00    -0.744 OA
ENDBRANCH  98 102
ENDBRANCH  72  95
ENDBRANCH  46  47
ENDBRANCH  39  41
ENDBRANCH  38  39
ENDBRANCH  37  38
ENDBRANCH  36  37
ENDBRANCH  35  36
ENDBRANCH  34  35
ENDBRANCH  33  34
ENDBRANCH  32  33
ENDBRANCH   1  32
TORSDOF 27
ENDMDL
MODEL 2
REMARK VINA RESULT:      -7.7      4.766      9.457
REMARK SMILES Cc1ccc(Cl)c(Nc2ccccc2C(=O)N[C@@H](C)C(=O)OCCOCCOCCOCCOC(=O)c2ccc(-c3c4nc(c(-c5cc(S(=O)(=O)[O-])ccc5F)c5ccc([nH]5)c(-c5cc(S(=O)(=O)[O-])ccc5F)c5nc(c(-c6cc(S(=O)(=O)[O-])ccc6F)c6ccc3[nH]6)C=C5)C=C4)cc2)c1Cl
REMARK SMILES IDX 27 1 26 2 25 3 24 4 23 5 22 6 20 7 21 8 18 9 19 10 17 11
REMARK SMILES IDX 15 12 16 13 14 15 9 16 10 17 11 18 13 19 12 20 8 21 7 23
REMARK SMILES IDX 1 24 2 25 3 26 100 27 4 28 101 29 5 30 6 31 28 32 29 33
REMARK SMILES IDX 30 34 31 35 32 36 33 37 34 38 35 39 36 40 37 41 38 42 99 43
REMARK SMILES IDX 39 44 98 45 40 46 41 47 42 48 92 49 43 50 97 51 91 52 93 53
REMARK SMILES IDX 44 54 96 55 90 56 89 57 45 59 77 60 57 61 76 62 58 63 61 64
REMARK SMILES IDX 75 65 94 66 59 67 60 68 74 70 95 71 62 72 46 73 47 74 55 75
REMARK SMILES IDX 48 76 54 77 56 78 53 79 49 80 50 81 51 82 52 83 78 84 79 85
REMARK SMILES IDX 87 86 80 87 86 88 88 89 85 90 81 91 82 92 83 93 84 94 63 95
REMARK SMILES IDX 64 96 72 97 65 98 71 99 73 100 70 101 66 102 67 103 68 104
REMARK SMILES IDX 69 105
REMARK H PARENT 17 14 8 22 93 58 61 69
REMARK Flexibility Score: inf
ROOT
ATOM      1  C   UNL A   1      47.483  28.565  27.092  1.00  0.00     0.188 C 
ENDROOT
BRANCH   1   2
ATOM      2  C   UNL A   1      47.205  27.009  27.033  1.00  0.00     0.188 C 
BRANCH   2   3
ATOM      3  O   UNL A   1      47.741  26.164  25.981  1.00  0.00    -0.376 OA
BRANCH   3   4
ATOM      4  C   UNL A   1      47.357  24.790  25.768  1.00  0.00     0.202 C 
BRANCH   4   5
ATOM      5  C   UNL A   1      45.969  24.454  24.936  1.00  0.00     0.261 C 
BRANCH   5   6
ATOM      6  O   UNL A   1      45.593  23.033  24.619  1.00  0.00    -0.462 OA
BRANCH   6   7
ATOM      7  C   UNL A   1      44.285  22.601  24.807  1.00  0.00     0.328 C 
ATOM      8  O   UNL A   1      43.413  22.794  23.958  1.00  0.00    -0.250 OA
BRANCH   7   9
ATOM      9  C   UNL A   1      44.016  21.580  26.060  1.00  0.00     0.189 C 
ATOM     10  C   UNL A   1      43.252  20.326  25.632  1.00  0.00     0.043 C 
BRANCH   9  11
ATOM     11  N   UNL A   1      43.496  21.986  27.380  1.00  0.00    -0.339 N 
ATOM     12  C   UNL A   1      42.392  22.682  27.860  1.00  0.00     0.254 C 
ATOM     13  O   UNL A   1      42.523  22.937  29.071  1.00  0.00    -0.269 OA
ATOM     14  H   UNL A   1      44.083  21.687  28.111  1.00  0.00     0.164 HD
BRANCH  12  15
ATOM     15  C   UNL A   1      41.047  23.128  27.223  1.00  0.00     0.063 A 
ATOM     16  C   UNL A   1      40.489  24.365  26.797  1.00  0.00     0.051 A 
ATOM     17  C   UNL A   1      39.168  24.397  26.230  1.00  0.00     0.027 A 
ATOM     18  C   UNL A   1      38.402  23.258  26.019  1.00  0.00     0.002 A 
ATOM     19  C   UNL A   1      40.185  21.996  27.025  1.00  0.00     0.016 A 
ATOM     20  C   UNL A   1      38.910  22.048  26.433  1.00  0.00     0.001 A 
BRANCH  16  21
ATOM     21  N   UNL A   1      41.127  25.628  26.714  1.00  0.00    -0.352 N 
ATOM     22  H   UNL A   1      41.352  25.973  25.820  1.00  0.00     0.167 HD
BRANCH  21  23
ATOM     23  C   UNL A   1      41.469  26.442  27.855  1.00  0.00     0.077 A 
ATOM     24  C   UNL A   1      39.855  29.193  27.120  1.00  0.00     0.046 C 
ATOM     25  C   UNL A   1      40.842  28.622  28.073  1.00  0.00    -0.030 A 
ATOM     26  C   UNL A   1      42.141  29.066  28.293  1.00  0.00     0.006 A 
ATOM     27  C   UNL A   1      40.546  27.319  28.365  1.00  0.00     0.069 A 
ATOM     28  C   UNL A   1      43.139  28.110  28.422  1.00  0.00     0.023 A 
ATOM     29  Cl  UNL A   1      38.949  26.907  28.882  1.00  0.00    -0.082 Cl
ATOM     30  C   UNL A   1      42.810  26.798  28.075  1.00  0.00     0.066 A 
ATOM     31  Cl  UNL A   1      44.069  25.663  27.778  1.00  0.00    -0.082 Cl
ENDBRANCH  21  23
ENDBRANCH  16  21
ENDBRANCH  12  15
ENDBRANCH   9  11
ENDBRANCH   7   9
ENDBRANCH   6   7
ENDBRANCH   5   6
ENDBRANCH   4   5
ENDBRANCH   3   4
ENDBRANCH   2   3
ENDBRANCH   1   2
BRANCH   1  32
ATOM     32  O   UNL A   1      46.593  29.431  26.388  1.00  0.00    -0.377 OA
BRANCH  32  33
ATOM     33  C   UNL A   1      45.804  30.284  27.199  1.00  0.00     0.188 C 
BRANCH  33  34
ATOM     34  C   UNL A   1      45.790  31.734  26.722  1.00  0.00     0.188 C 
BRANCH  34  35
ATOM     35  O   UNL A   1      44.518  32.288  26.455  1.00  0.00    -0.376 OA
BRANCH  35  36
ATOM     36  C   UNL A   1      44.320  33.257  25.433  1.00  0.00     0.202 C 
BRANCH  36  37
ATOM     37  C   UNL A   1      43.314  34.422  25.529  1.00  0.00     0.261 C 
BRANCH  37  38
ATOM     38  O   UNL A   1      43.366  35.281  26.681  1.00  0.00    -0.460 OA
BRANCH  38  39
ATOM     39  C   UNL A   1      44.578  35.695  27.119  1.00  0.00     0.338 C 
ATOM     40  O   UNL A   1      45.482  36.131  26.451  1.00  0.00    -0.246 OA
BRANCH  39  41
ATOM     41  C   UNL A   1      44.500  35.781  28.601  1.00  0.00     0.060 A 
ATOM     42  C   UNL A   1      44.684  34.603  29.342  1.00  0.00     0.016 A 
ATOM     43  C   UNL A   1      44.226  36.987  29.250  1.00  0.00     0.016 A 
ATOM     44  C   UNL A   1      44.550  34.611  30.722  1.00  0.00     0.010 A 
ATOM     45  C   UNL A   1      44.016  36.982  30.633  1.00  0.00     0.010 A 
ATOM     46  C   UNL A   1      44.120  35.778  31.356  1.00  0.00    -0.014 A 
BRANCH  46  47
ATOM     47  C   UNL A   1      43.430  35.608  32.655  1.00  0.00     0.031 A 
ATOM     48  C   UNL A   1      42.042  35.020  32.621  1.00  0.00     0.074 A 
ATOM     49  C   UNL A   1      44.059  35.825  33.823  1.00  0.00     0.049 A 
ATOM     50  N   UNL A   1      41.230  34.739  33.604  1.00  0.00    -0.248 NA
ATOM     51  C   UNL A   1      41.505  34.697  31.288  1.00  0.00     0.031 C 
ATOM     52  C   UNL A   1      45.438  36.287  33.966  1.00  0.00     0.029 A 
ATOM     53  N   UNL A   1      43.619  35.665  35.110  1.00  0.00    -0.354 N 
ATOM     54  C   UNL A   1      40.087  34.214  33.009  1.00  0.00     0.074 A 
ATOM     55  C   UNL A   1      40.295  34.250  31.579  1.00  0.00     0.031 C 
ATOM     56  C   UNL A   1      45.728  36.383  35.276  1.00  0.00     0.029 A 
ATOM     57  C   UNL A   1      44.545  36.027  36.059  1.00  0.00     0.049 A 
ATOM     58  H   UNL A   1      42.723  35.323  35.335  1.00  0.00     0.167 HD
ATOM     59  C   UNL A   1      38.965  33.740  33.602  1.00  0.00     0.034 A 
ATOM     60  C   UNL A   1      44.432  36.089  37.401  1.00  0.00     0.034 A 
ATOM     61  C   UNL A   1      38.773  33.729  35.029  1.00  0.00     0.049 A 
ATOM     62  C   UNL A   1      43.128  35.663  38.037  1.00  0.00     0.074 A 
ATOM     63  C   UNL A   1      37.672  33.300  35.748  1.00  0.00     0.029 A 
ATOM     64  N   UNL A   1      39.703  34.181  35.958  1.00  0.00    -0.354 N 
ATOM     65  N   UNL A   1      42.037  35.200  37.466  1.00  0.00    -0.248 NA
ATOM     66  C   UNL A   1      43.046  35.754  39.500  1.00  0.00     0.031 C 
ATOM     67  C   UNL A   1      37.902  33.570  37.100  1.00  0.00     0.029 A 
ATOM     68  C   UNL A   1      39.188  34.071  37.240  1.00  0.00     0.049 A 
ATOM     69  H   UNL A   1      40.597  34.528  35.738  1.00  0.00     0.167 HD
ATOM     70  C   UNL A   1      41.157  34.906  38.506  1.00  0.00     0.074 A 
ATOM     71  C   UNL A   1      41.853  35.231  39.735  1.00  0.00     0.031 C 
ATOM     72  C   UNL A   1      39.895  34.406  38.455  1.00  0.00     0.034 A 
BRANCH  59  73
ATOM     73  C   UNL A   1      37.846  33.276  32.700  1.00  0.00     0.023 A 
ATOM     74  C   UNL A   1      37.809  31.979  32.158  1.00  0.00     0.031 A 
ATOM     75  C   UNL A   1      36.821  34.168  32.336  1.00  0.00     0.131 A 
ATOM     76  C   UNL A   1      36.814  31.635  31.229  1.00  0.00     0.055 A 
ATOM     77  C   UNL A   1      35.785  33.793  31.481  1.00  0.00     0.041 A 
ATOM     78  F   UNL A   1      36.821  35.430  32.793  1.00  0.00    -0.206 F 
ATOM     79  C   UNL A   1      35.784  32.524  30.910  1.00  0.00     0.022 A 
BRANCH  76  80
ATOM     80  S   UNL A   1      36.970  30.069  30.326  1.00  0.00     0.124 S 
ATOM     81  O   UNL A   1      38.415  29.988  30.126  1.00  0.00    -0.237 OA
ATOM     82  O   UNL A   1      36.398  29.107  31.260  1.00  0.00    -0.237 OA
ATOM     83  O   UNL A   1      36.193  30.297  29.109  1.00  0.00    -0.744 OA
ENDBRANCH  76  80
ENDBRANCH  59  73
BRANCH  60  84
ATOM     84  C   UNL A   1      45.554  36.613  38.234  1.00  0.00     0.023 A 
ATOM     85  C   UNL A   1      46.512  35.755  38.797  1.00  0.00     0.031 A 
ATOM     86  C   UNL A   1      45.644  37.985  38.535  1.00  0.00     0.131 A 
ATOM     87  C   UNL A   1      47.486  36.268  39.670  1.00  0.00     0.055 A 
ATOM     88  C   UNL A   1      46.651  38.499  39.354  1.00  0.00     0.041 A 
ATOM     89  F   UNL A   1      44.750  38.851  38.032  1.00  0.00    -0.206 F 
ATOM     90  C   UNL A   1      47.571  37.636  39.940  1.00  0.00     0.022 A 
BRANCH  87  91
ATOM     91  S   UNL A   1      48.580  35.106  40.532  1.00  0.00     0.124 S 
ATOM     92  O   UNL A   1      48.646  34.002  39.584  1.00  0.00    -0.237 OA
ATOM     93  O   UNL A   1      49.798  35.896  40.686  1.00  0.00    -0.237 OA
ATOM     94  O   UNL A   1      47.863  34.823  41.774  1.00  0.00    -0.744 OA
ENDBRANCH  87  91
ENDBRANCH  60  84
BRANCH  72  95
ATOM     95  C   UNL A   1      39.214  34.117  39.773  1.00  0.00     0.023 A 
ATOM     96  C   UNL A   1      39.160  32.823  40.318  1.00  0.00     0.031 A 
ATOM     97  C   UNL A   1      38.588  35.157  40.484  1.00  0.00     0.131 A 
ATOM     98  C   UNL A   1      38.428  32.588  41.492  1.00  0.00     0.055 A 
ATOM     99  C   UNL A   1      37.931  34.932  41.693  1.00  0.00     0.041 A 
ATOM    100  F   UNL A   1      38.604  36.414  40.013  1.00  0.00    -0.206 F 
ATOM    101  C   UNL A   1      37.832  33.638  42.194  1.00  0.00     0.022 A 
BRANCH  98 102
ATOM    102  S   UNL A   1      38.148  30.874  42.013  1.00  0.00     0.124 S 
ATOM    103  O   UNL A   1      39.510  30.406  42.253  1.00  0.00    -0.237 OA
ATOM    104  O   UNL A   1      37.313  31.040  43.198  1.00  0.00    -0.237 OA
ATOM    105  O   UNL A   1      37.479  30.271  40.862  1.00  0.00    -0.744 OA
ENDBRANCH  98 102
ENDBRANCH  72  95
ENDBRANCH  46  47
ENDBRANCH  39  41
ENDBRANCH  38  39
ENDBRANCH  37  38
ENDBRANCH  36  37
ENDBRANCH  35  36
ENDBRANCH  34  35
ENDBRANCH  33  34
ENDBRANCH  32  33
ENDBRANCH   1  32
TORSDOF 27
ENDMDL
MODEL 3
REMARK VINA RESULT:      -7.7      8.518     13.967
REMARK SMILES Cc1ccc(Cl)c(Nc2ccccc2C(=O)N[C@@H](C)C(=O)OCCOCCOCCOCCOC(=O)c2ccc(-c3c4nc(c(-c5cc(S(=O)(=O)[O-])ccc5F)c5ccc([nH]5)c(-c5cc(S(=O)(=O)[O-])ccc5F)c5nc(c(-c6cc(S(=O)(=O)[O-])ccc6F)c6ccc3[nH]6)C=C5)C=C4)cc2)c1Cl
REMARK SMILES IDX 27 1 26 2 25 3 24 4 23 5 22 6 20 7 21 8 18 9 19 10 17 11
REMARK SMILES IDX 15 12 16 13 14 15 9 16 10 17 11 18 13 19 12 20 8 21 7 23
REMARK SMILES IDX 1 24 2 25 3 26 100 27 4 28 101 29 5 30 6 31 28 32 29 33
REMARK SMILES IDX 30 34 31 35 32 36 33 37 34 38 35 39 36 40 37 41 38 42 99 43
REMARK SMILES IDX 39 44 98 45 40 46 41 47 42 48 92 49 43 50 97 51 91 52 93 53
REMARK SMILES IDX 44 54 96 55 90 56 89 57 45 59 77 60 57 61 76 62 58 63 61 64
REMARK SMILES IDX 75 65 94 66 59 67 60 68 74 70 95 71 62 72 46 73 47 74 55 75
REMARK SMILES IDX 48 76 54 77 56 78 53 79 49 80 50 81 51 82 52 83 78 84 79 85
REMARK SMILES IDX 87 86 80 87 86 88 88 89 85 90 81 91 82 92 83 93 84 94 63 95
REMARK SMILES IDX 64 96 72 97 65 98 71 99 73 100 70 101 66 102 67 103 68 104
REMARK SMILES IDX 69 105
REMARK H PARENT 17 14 8 22 93 58 61 69
REMARK Flexibility Score: inf
ROOT
ATOM      1  C   UNL A   1      39.372  31.888  34.550  1.00  0.00     0.188 C 
ENDROOT
BRANCH   1   2
ATOM      2  C   UNL A   1      38.947  30.366  34.483  1.00  0.00     0.188 C 
BRANCH   2   3
ATOM      3  O   UNL A   1      38.894  29.630  33.233  1.00  0.00    -0.376 OA
BRANCH   3   4
ATOM      4  C   UNL A   1      37.675  29.171  32.612  1.00  0.00     0.202 C 
BRANCH   4   5
ATOM      5  C   UNL A   1      37.736  28.485  31.110  1.00  0.00     0.261 C 
BRANCH   5   6
ATOM      6  O   UNL A   1      39.057  28.205  30.449  1.00  0.00    -0.462 OA
BRANCH   6   7
ATOM      7  C   UNL A   1      39.135  28.105  29.065  1.00  0.00     0.328 C 
ATOM      8  O   UNL A   1      38.625  28.948  28.327  1.00  0.00    -0.250 OA
BRANCH   7   9
ATOM      9  C   UNL A   1      40.173  26.988  28.463  1.00  0.00     0.189 C 
ATOM     10  C   UNL A   1      41.475  26.917  29.263  1.00  0.00     0.043 C 
BRANCH   9  11
ATOM     11  N   UNL A   1      40.522  26.848  27.036  1.00  0.00    -0.339 N 
ATOM     12  C   UNL A   1      41.158  25.901  26.240  1.00  0.00     0.254 C 
ATOM     13  O   UNL A   1      41.385  26.360  25.105  1.00  0.00    -0.269 OA
ATOM     14  H   UNL A   1      40.226  27.626  26.510  1.00  0.00     0.164 HD
BRANCH  12  15
ATOM     15  C   UNL A   1      41.567  24.419  26.457  1.00  0.00     0.063 A 
ATOM     16  C   UNL A   1      42.676  23.609  26.089  1.00  0.00     0.051 A 
ATOM     17  C   UNL A   1      42.717  22.227  26.484  1.00  0.00     0.027 A 
ATOM     18  C   UNL A   1      41.738  21.630  27.268  1.00  0.00     0.002 A 
ATOM     19  C   UNL A   1      40.566  23.729  27.223  1.00  0.00     0.016 A 
ATOM     20  C   UNL A   1      40.646  22.384  27.629  1.00  0.00     0.001 A 
BRANCH  16  21
ATOM     21  N   UNL A   1      43.886  24.015  25.471  1.00  0.00    -0.352 N 
ATOM     22  H   UNL A   1      43.877  24.170  24.499  1.00  0.00     0.167 HD
BRANCH  21  23
ATOM     23  C   UNL A   1      45.129  24.218  26.174  1.00  0.00     0.077 A 
ATOM     24  C   UNL A   1      44.706  27.283  27.245  1.00  0.00     0.046 C 
ATOM     25  C   UNL A   1      45.718  26.200  27.134  1.00  0.00    -0.030 A 
ATOM     26  C   UNL A   1      46.935  26.264  26.466  1.00  0.00     0.006 A 
ATOM     27  C   UNL A   1      45.146  24.971  27.321  1.00  0.00     0.069 A 
ATOM     28  C   UNL A   1      47.312  25.168  25.702  1.00  0.00     0.023 A 
ATOM     29  Cl  UNL A   1      44.166  24.695  28.718  1.00  0.00    -0.082 Cl
ATOM     30  C   UNL A   1      46.339  24.195  25.461  1.00  0.00     0.066 A 
ATOM     31  Cl  UNL A   1      46.575  23.062  24.189  1.00  0.00    -0.082 Cl
ENDBRANCH  21  23
ENDBRANCH  16  21
ENDBRANCH  12  15
ENDBRANCH   9  11
ENDBRANCH   7   9
ENDBRANCH   6   7
ENDBRANCH   5   6
ENDBRANCH   4   5
ENDBRANCH   3   4
ENDBRANCH   2   3
ENDBRANCH   1   2
BRANCH   1  32
ATOM     32  O   UNL A   1      38.868  32.768  33.545  1.00  0.00    -0.377 OA
BRANCH  32  33
ATOM     33  C   UNL A   1      37.456  32.862  33.469  1.00  0.00     0.188 C 
BRANCH  33  34
ATOM     34  C   UNL A   1      36.969  34.051  32.645  1.00  0.00     0.188 C 
BRANCH  34  35
ATOM     35  O   UNL A   1      36.830  33.829  31.256  1.00  0.00    -0.376 OA
BRANCH  35  36
ATOM     36  C   UNL A   1      37.762  34.347  30.315  1.00  0.00     0.202 C 
BRANCH  36  37
ATOM     37  C   UNL A   1      39.277  34.463  30.574  1.00  0.00     0.261 C 
BRANCH  37  38
ATOM     38  O   UNL A   1      40.163  33.567  29.881  1.00  0.00    -0.460 OA
BRANCH  38  39
ATOM     39  C   UNL A   1      40.197  32.271  30.269  1.00  0.00     0.338 C 
ATOM     40  O   UNL A   1      39.254  31.555  30.495  1.00  0.00    -0.246 OA
BRANCH  39  41
ATOM     41  C   UNL A   1      41.597  31.800  30.095  1.00  0.00     0.060 A 
ATOM     42  C   UNL A   1      41.804  30.564  29.462  1.00  0.00     0.016 A 
ATOM     43  C   UNL A   1      42.682  32.542  30.565  1.00  0.00     0.016 A 
ATOM     44  C   UNL A   1      43.082  30.042  29.338  1.00  0.00     0.010 A 
ATOM     45  C   UNL A   1      43.962  31.983  30.509  1.00  0.00     0.010 A 
ATOM     46  C   UNL A   1      44.148  30.704  29.949  1.00  0.00    -0.014 A 
BRANCH  46  47
ATOM     47  C   UNL A   1      45.318  29.874  30.315  1.00  0.00     0.031 A 
ATOM     48  C   UNL A   1      45.222  29.084  31.596  1.00  0.00     0.074 A 
ATOM     49  C   UNL A   1      46.358  29.711  29.479  1.00  0.00     0.049 A 
ATOM     50  N   UNL A   1      46.080  28.261  32.135  1.00  0.00    -0.248 NA
ATOM     51  C   UNL A   1      43.976  29.240  32.364  1.00  0.00     0.031 C 
ATOM     52  C   UNL A   1      46.496  30.343  28.169  1.00  0.00     0.029 A 
ATOM     53  N   UNL A   1      47.487  28.946  29.608  1.00  0.00    -0.354 N 
ATOM     54  C   UNL A   1      45.482  27.809  33.307  1.00  0.00     0.074 A 
ATOM     55  C   UNL A   1      44.205  28.476  33.419  1.00  0.00     0.031 C 
ATOM     56  C   UNL A   1      47.656  29.944  27.616  1.00  0.00     0.029 A 
ATOM     57  C   UNL A   1      48.357  29.063  28.550  1.00  0.00     0.049 A 
ATOM     58  H   UNL A   1      47.660  28.366  30.386  1.00  0.00     0.167 HD
ATOM     59  C   UNL A   1      45.953  26.914  34.208  1.00  0.00     0.034 A 
ATOM     60  C   UNL A   1      49.586  28.538  28.377  1.00  0.00     0.034 A 
ATOM     61  C   UNL A   1      47.238  26.274  34.085  1.00  0.00     0.049 A 
ATOM     62  C   UNL A   1      50.143  27.631  29.451  1.00  0.00     0.074 A 
ATOM     63  C   UNL A   1      47.837  25.370  34.943  1.00  0.00     0.029 A 
ATOM     64  N   UNL A   1      48.129  26.479  33.037  1.00  0.00    -0.354 N 
ATOM     65  N   UNL A   1      49.586  27.234  30.574  1.00  0.00    -0.248 NA
ATOM     66  C   UNL A   1      51.489  27.088  29.225  1.00  0.00     0.031 C 
ATOM     67  C   UNL A   1      49.121  25.097  34.461  1.00  0.00     0.029 A 
ATOM     68  C   UNL A   1      49.285  25.745  33.246  1.00  0.00     0.049 A 
ATOM     69  H   UNL A   1      47.963  27.061  32.261  1.00  0.00     0.167 HD
ATOM     70  C   UNL A   1      50.499  26.363  31.166  1.00  0.00     0.074 A 
ATOM     71  C   UNL A   1      51.632  26.284  30.267  1.00  0.00     0.031 C 
ATOM     72  C   UNL A   1      50.409  25.683  32.339  1.00  0.00     0.034 A 
BRANCH  59  73
ATOM     73  C   UNL A   1      45.107  26.648  35.430  1.00  0.00     0.023 A 
ATOM     74  C   UNL A   1      43.869  25.986  35.355  1.00  0.00     0.031 A 
ATOM     75  C   UNL A   1      45.528  27.112  36.690  1.00  0.00     0.131 A 
ATOM     76  C   UNL A   1      43.065  25.871  36.501  1.00  0.00     0.055 A 
ATOM     77  C   UNL A   1      44.764  26.916  37.841  1.00  0.00     0.041 A 
ATOM     78  F   UNL A   1      46.684  27.781  36.820  1.00  0.00    -0.206 F 
ATOM     79  C   UNL A   1      43.517  26.305  37.749  1.00  0.00     0.022 A 
BRANCH  76  80
ATOM     80  S   UNL A   1      41.357  25.289  36.310  1.00  0.00     0.124 S 
ATOM     81  O   UNL A   1      41.560  23.874  36.007  1.00  0.00    -0.237 OA
ATOM     82  O   UNL A   1      40.774  25.587  37.613  1.00  0.00    -0.237 OA
ATOM     83  O   UNL A   1      40.844  26.088  35.198  1.00  0.00    -0.744 OA
ENDBRANCH  76  80
ENDBRANCH  59  73
BRANCH  60  84
ATOM     84  C   UNL A   1      50.398  28.886  27.174  1.00  0.00     0.023 A 
ATOM     85  C   UNL A   1      50.163  28.279  25.930  1.00  0.00     0.031 A 
ATOM     86  C   UNL A   1      51.472  29.791  27.270  1.00  0.00     0.131 A 
ATOM     87  C   UNL A   1      51.019  28.544  24.848  1.00  0.00     0.055 A 
ATOM     88  C   UNL A   1      52.282  30.099  26.176  1.00  0.00     0.041 A 
ATOM     89  F   UNL A   1      51.748  30.396  28.436  1.00  0.00    -0.206 F 
ATOM     90  C   UNL A   1      52.067  29.461  24.959  1.00  0.00     0.022 A 
BRANCH  87  91
ATOM     91  S   UNL A   1      50.807  27.592  23.318  1.00  0.00     0.124 S 
ATOM     92  O   UNL A   1      50.154  28.566  22.452  1.00  0.00    -0.237 OA
ATOM     93  O   UNL A   1      52.186  27.253  22.981  1.00  0.00    -0.237 OA
ATOM     94  O   UNL A   1      49.974  26.465  23.733  1.00  0.00    -0.744 OA
ENDBRANCH  87  91
ENDBRANCH  60  84
BRANCH  72  95
ATOM     95  C   UNL A   1      51.541  24.741  32.679  1.00  0.00     0.023 A 
ATOM     96  C   UNL A   1      51.372  23.347  32.702  1.00  0.00     0.031 A 
ATOM     97  C   UNL A   1      52.810  25.256  33.007  1.00  0.00     0.131 A 
ATOM     98  C   UNL A   1      52.426  22.521  33.124  1.00  0.00     0.055 A 
ATOM     99  C   UNL A   1      53.877  24.425  33.345  1.00  0.00     0.041 A 
ATOM    100  F   UNL A   1      53.032  26.580  33.003  1.00  0.00    -0.206 F 
ATOM    101  C   UNL A   1      53.683  23.050  33.424  1.00  0.00     0.022 A 
BRANCH  98 102
ATOM    102  S   UNL A   1      52.090  20.762  33.408  1.00  0.00     0.124 S 
ATOM    103  O   UNL A   1      52.098  20.684  34.866  1.00  0.00    -0.237 OA
ATOM    104  O   UNL A   1      50.790  20.585  32.768  1.00  0.00    -0.237 OA
ATOM    105  O   UNL A   1      53.205  20.089  32.744  1.00  0.00    -0.744 OA
ENDBRANCH  98 102
ENDBRANCH  72  95
ENDBRANCH  46  47
ENDBRANCH  39  41
ENDBRANCH  38  39
ENDBRANCH  37  38
ENDBRANCH  36  37
ENDBRANCH  35  36
ENDBRANCH  34  35
ENDBRANCH  33  34
ENDBRANCH  32  33
ENDBRANCH   1  32
TORSDOF 27
ENDMDL
