MODEL 1
REMARK VINA RESULT:      -9.4      0.000      0.000
REMARK SMILES Cc1ccnc(C(=O)c2[nH]c3ccc(C(C)(C)C)cc3c2CC(=O)OCCOCCOCCOCCOC(=O)c2ccc(-c3c4nc(c(-c5cc(S(=O)(=O)[O-])ccc5F)c5ccc([nH]5)c(-c5cc(S(=O)(=O)[O-])ccc5F)c5nc(c(-c6cc(S(=O)(=O)[O-])ccc6F)c6ccc3[nH]6)C=C5)C=C4)cc2)c1
REMARK SMILES IDX 31 1 30 2 29 3 28 4 27 5 26 6 25 7 23 8 24 9 22 10 21 11
REMARK SMILES IDX 9 12 10 13 11 14 20 16 12 17 19 18 13 19 14 20 7 21 8 22
REMARK SMILES IDX 6 23 1 24 2 25 3 26 103 27 4 28 5 29 15 30 16 31 17 32 18 33
REMARK SMILES IDX 32 34 33 35 34 36 35 37 36 38 37 39 38 40 39 41 40 42 41 43
REMARK SMILES IDX 102 44 42 45 101 46 43 47 44 48 45 49 95 50 46 51 100 52
REMARK SMILES IDX 94 53 96 54 47 55 99 56 93 57 92 58 48 60 80 61 60 62 79 63
REMARK SMILES IDX 61 64 64 65 78 66 97 67 62 68 63 69 77 71 98 72 65 73 49 74
REMARK SMILES IDX 50 75 58 76 51 77 57 78 59 79 56 80 52 81 53 82 54 83 55 84
REMARK SMILES IDX 81 85 82 86 90 87 83 88 89 89 91 90 88 91 84 92 85 93 86 94
REMARK SMILES IDX 87 95 66 96 67 97 75 98 68 99 74 100 76 101 73 102 69 103
REMARK SMILES IDX 70 104 71 105 72 106
REMARK H PARENT 10 15 96 59 64 70
REMARK Flexibility Score: inf
ROOT
ATOM      1  O   UNL A   1      45.320  42.408  25.992  1.00  0.00    -0.377 OA
ENDROOT
BRANCH   1   2
ATOM      2  C   UNL A   1      44.566  42.012  24.860  1.00  0.00     0.188 C 
BRANCH   2   3
ATOM      3  C   UNL A   1      43.044  42.141  24.904  1.00  0.00     0.188 C 
BRANCH   3   4
ATOM      4  O   UNL A   1      42.297  41.461  23.916  1.00  0.00    -0.376 OA
BRANCH   4   5
ATOM      5  C   UNL A   1      41.752  42.246  22.854  1.00  0.00     0.202 C 
BRANCH   5   6
ATOM      6  C   UNL A   1      42.523  43.471  22.323  1.00  0.00     0.261 C 
BRANCH   6   7
ATOM      7  O   UNL A   1      43.757  43.162  21.621  1.00  0.00    -0.463 OA
BRANCH   7   8
ATOM      8  C   UNL A   1      44.033  43.926  20.535  1.00  0.00     0.310 C 
ATOM      9  O   UNL A   1      43.341  43.909  19.514  1.00  0.00    -0.252 OA
BRANCH   8  10
ATOM     10  C   UNL A   1      45.208  44.883  20.616  1.00  0.00     0.161 C 
BRANCH  10  11
ATOM     11  C   UNL A   1      46.140  45.127  19.451  1.00  0.00     0.000 A 
ATOM     12  C   UNL A   1      47.505  44.807  19.343  1.00  0.00     0.093 A 
ATOM     13  N   UNL A   1      47.879  45.170  18.061  1.00  0.00    -0.352 N 
ATOM     14  C   UNL A   1      47.005  46.114  17.575  1.00  0.00     0.046 A 
ATOM     15  H   UNL A   1      48.653  44.808  17.572  1.00  0.00     0.167 HD
ATOM     16  C   UNL A   1      45.898  46.087  18.411  1.00  0.00     0.004 A 
ATOM     17  C   UNL A   1      47.113  46.997  16.496  1.00  0.00     0.027 A 
ATOM     18  C   UNL A   1      44.870  47.024  18.187  1.00  0.00     0.015 A 
ATOM     19  C   UNL A   1      46.108  47.968  16.349  1.00  0.00     0.006 A 
ATOM     20  C   UNL A   1      44.999  48.030  17.207  1.00  0.00    -0.042 A 
BRANCH  12  21
ATOM     21  C   UNL A   1      48.374  44.225  20.365  1.00  0.00     0.227 C 
ATOM     22  O   UNL A   1      48.358  43.026  20.646  1.00  0.00    -0.285 OA
BRANCH  21  23
ATOM     23  C   UNL A   1      49.279  45.062  21.203  1.00  0.00     0.113 A 
ATOM     24  C   UNL A   1      49.421  48.539  22.687  1.00  0.00     0.044 C 
ATOM     25  C   UNL A   1      49.722  47.102  22.378  1.00  0.00    -0.047 A 
ATOM     26  C   UNL A   1      50.614  46.390  23.184  1.00  0.00     0.023 A 
ATOM     27  C   UNL A   1      49.035  46.422  21.366  1.00  0.00     0.036 A 
ATOM     28  C   UNL A   1      50.812  45.043  22.932  1.00  0.00     0.112 A 
ATOM     29  N   UNL A   1      50.173  44.370  21.957  1.00  0.00    -0.253 NA
ENDBRANCH  21  23
ENDBRANCH  12  21
BRANCH  20  30
ATOM     30  C   UNL A   1      43.973  49.179  17.187  1.00  0.00    -0.013 C 
ATOM     31  C   UNL A   1      42.772  48.801  16.298  1.00  0.00     0.016 C 
ATOM     32  C   UNL A   1      43.479  49.426  18.635  1.00  0.00     0.016 C 
ATOM     33  C   UNL A   1      44.534  50.520  16.671  1.00  0.00     0.016 C 
ENDBRANCH  20  30
ENDBRANCH  10  11
ENDBRANCH   8  10
ENDBRANCH   7   8
ENDBRANCH   6   7
ENDBRANCH   5   6
ENDBRANCH   4   5
ENDBRANCH   3   4
ENDBRANCH   2   3
ENDBRANCH   1   2
BRANCH   1  34
ATOM     34  C   UNL A   1      44.652  42.799  27.185  1.00  0.00     0.188 C 
BRANCH  34  35
ATOM     35  C   UNL A   1      45.247  42.354  28.521  1.00  0.00     0.188 C 
BRANCH  35  36
ATOM     36  O   UNL A   1      44.840  41.088  29.048  1.00  0.00    -0.376 OA
BRANCH  36  37
ATOM     37  C   UNL A   1      44.182  40.162  28.188  1.00  0.00     0.202 C 
BRANCH  37  38
ATOM     38  C   UNL A   1      45.049  38.993  27.731  1.00  0.00     0.261 C 
BRANCH  38  39
ATOM     39  O   UNL A   1      44.908  37.867  28.606  1.00  0.00    -0.460 OA
BRANCH  39  40
ATOM     40  C   UNL A   1      46.028  37.127  28.781  1.00  0.00     0.338 C 
ATOM     41  O   UNL A   1      47.124  37.520  29.147  1.00  0.00    -0.246 OA
BRANCH  40  42
ATOM     42  C   UNL A   1      45.676  35.704  28.635  1.00  0.00     0.060 A 
ATOM     43  C   UNL A   1      44.794  35.339  27.610  1.00  0.00     0.016 A 
ATOM     44  C   UNL A   1      46.196  34.742  29.503  1.00  0.00     0.016 A 
ATOM     45  C   UNL A   1      44.418  34.009  27.455  1.00  0.00     0.010 A 
ATOM     46  C   UNL A   1      45.802  33.412  29.362  1.00  0.00     0.010 A 
ATOM     47  C   UNL A   1      44.896  33.046  28.352  1.00  0.00    -0.014 A 
BRANCH  47  48
ATOM     48  C   UNL A   1      44.331  31.681  28.340  1.00  0.00     0.031 A 
ATOM     49  C   UNL A   1      45.069  30.613  27.585  1.00  0.00     0.074 A 
ATOM     50  C   UNL A   1      43.178  31.414  28.977  1.00  0.00     0.049 A 
ATOM     51  N   UNL A   1      44.715  29.383  27.330  1.00  0.00    -0.248 NA
ATOM     52  C   UNL A   1      46.384  30.989  27.042  1.00  0.00     0.031 C 
ATOM     53  C   UNL A   1      42.423  32.369  29.789  1.00  0.00     0.029 A 
ATOM     54  N   UNL A   1      42.434  30.264  29.029  1.00  0.00    -0.354 N 
ATOM     55  C   UNL A   1      45.755  28.839  26.584  1.00  0.00     0.074 A 
ATOM     56  C   UNL A   1      46.744  29.881  26.412  1.00  0.00     0.031 C 
ATOM     57  C   UNL A   1      41.310  31.767  30.243  1.00  0.00     0.029 A 
ATOM     58  C   UNL A   1      41.248  30.408  29.711  1.00  0.00     0.049 A 
ATOM     59  H   UNL A   1      42.720  29.417  28.616  1.00  0.00     0.167 HD
ATOM     60  C   UNL A   1      45.865  27.584  26.088  1.00  0.00     0.034 A 
ATOM     61  C   UNL A   1      40.218  29.548  29.847  1.00  0.00     0.034 A 
ATOM     62  C   UNL A   1      44.855  26.571  26.264  1.00  0.00     0.049 A 
ATOM     63  C   UNL A   1      40.319  28.192  29.186  1.00  0.00     0.074 A 
ATOM     64  C   UNL A   1      44.866  25.258  25.831  1.00  0.00     0.029 A 
ATOM     65  N   UNL A   1      43.640  26.765  26.911  1.00  0.00    -0.354 N 
ATOM     66  N   UNL A   1      41.312  27.680  28.495  1.00  0.00    -0.248 NA
ATOM     67  C   UNL A   1      39.158  27.303  29.319  1.00  0.00     0.031 C 
ATOM     68  C   UNL A   1      43.627  24.687  26.136  1.00  0.00     0.029 A 
ATOM     69  C   UNL A   1      42.874  25.612  26.842  1.00  0.00     0.049 A 
ATOM     70  H   UNL A   1      43.364  27.600  27.355  1.00  0.00     0.167 HD
ATOM     71  C   UNL A   1      40.904  26.397  28.137  1.00  0.00     0.074 A 
ATOM     72  C   UNL A   1      39.585  26.208  28.707  1.00  0.00     0.031 C 
ATOM     73  C   UNL A   1      41.555  25.456  27.406  1.00  0.00     0.034 A 
BRANCH  60  74
ATOM     74  C   UNL A   1      47.081  27.263  25.255  1.00  0.00     0.023 A 
ATOM     75  C   UNL A   1      47.238  27.748  23.945  1.00  0.00     0.031 A 
ATOM     76  C   UNL A   1      48.097  26.447  25.783  1.00  0.00     0.131 A 
ATOM     77  C   UNL A   1      48.358  27.369  23.190  1.00  0.00     0.055 A 
ATOM     78  C   UNL A   1      49.245  26.134  25.052  1.00  0.00     0.041 A 
ATOM     79  F   UNL A   1      47.987  25.929  27.016  1.00  0.00    -0.206 F 
ATOM     80  C   UNL A   1      49.376  26.588  23.743  1.00  0.00     0.022 A 
BRANCH  77  81
ATOM     81  S   UNL A   1      48.411  27.809  21.431  1.00  0.00     0.124 S 
ATOM     82  O   UNL A   1      48.976  26.598  20.840  1.00  0.00    -0.237 OA
ATOM     83  O   UNL A   1      47.008  28.071  21.129  1.00  0.00    -0.237 OA
ATOM     84  O   UNL A   1      49.286  28.978  21.395  1.00  0.00    -0.744 OA
ENDBRANCH  77  81
ENDBRANCH  60  74
BRANCH  61  85
ATOM     85  C   UNL A   1      38.982  29.945  30.583  1.00  0.00     0.023 A 
ATOM     86  C   UNL A   1      38.015  30.764  29.980  1.00  0.00     0.031 A 
ATOM     87  C   UNL A   1      38.785  29.577  31.926  1.00  0.00     0.131 A 
ATOM     88  C   UNL A   1      36.929  31.237  30.732  1.00  0.00     0.055 A 
ATOM     89  C   UNL A   1      37.667  29.995  32.652  1.00  0.00     0.041 A 
ATOM     90  F   UNL A   1      39.681  28.802  32.560  1.00  0.00    -0.206 F 
ATOM     91  C   UNL A   1      36.739  30.845  32.059  1.00  0.00     0.022 A 
BRANCH  88  92
ATOM     92  S   UNL A   1      35.829  32.468  29.983  1.00  0.00     0.124 S 
ATOM     93  O   UNL A   1      36.500  33.715  30.332  1.00  0.00    -0.237 OA
ATOM     94  O   UNL A   1      35.868  32.091  28.573  1.00  0.00    -0.237 OA
ATOM     95  O   UNL A   1      34.551  32.237  30.653  1.00  0.00    -0.744 OA
ENDBRANCH  88  92
ENDBRANCH  61  85
BRANCH  73  96
ATOM     96  C   UNL A   1      40.856  24.131  27.214  1.00  0.00     0.023 A 
ATOM     97  C   UNL A   1      39.734  24.004  26.378  1.00  0.00     0.031 A 
ATOM     98  C   UNL A   1      41.321  22.981  27.877  1.00  0.00     0.131 A 
ATOM     99  C   UNL A   1      39.080  22.769  26.268  1.00  0.00     0.055 A 
ATOM    100  C   UNL A   1      40.708  21.739  27.711  1.00  0.00     0.041 A 
ATOM    101  F   UNL A   1      42.388  23.045  28.690  1.00  0.00    -0.206 F 
ATOM    102  C   UNL A   1      39.572  21.630  26.914  1.00  0.00     0.022 A 
BRANCH  99 103
ATOM    103  S   UNL A   1      37.522  22.687  25.345  1.00  0.00     0.124 S 
ATOM    104  O   UNL A   1      37.655  23.813  24.426  1.00  0.00    -0.237 OA
ATOM    105  O   UNL A   1      37.585  21.361  24.741  1.00  0.00    -0.237 OA
ATOM    106  O   UNL A   1      36.501  22.849  26.380  1.00  0.00    -0.744 OA
ENDBRANCH  99 103
ENDBRANCH  73  96
ENDBRANCH  47  48
ENDBRANCH  40  42
ENDBRANCH  39  40
ENDBRANCH  38  39
ENDBRANCH  37  38
ENDBRANCH  36  37
ENDBRANCH  35  36
ENDBRANCH  34  35
ENDBRANCH   1  34
TORSDOF 27
ENDMDL
MODEL 2
REMARK VINA RESULT:      -8.3      8.170     16.965
REMARK SMILES Cc1ccnc(C(=O)c2[nH]c3ccc(C(C)(C)C)cc3c2CC(=O)OCCOCCOCCOCCOC(=O)c2ccc(-c3c4nc(c(-c5cc(S(=O)(=O)[O-])ccc5F)c5ccc([nH]5)c(-c5cc(S(=O)(=O)[O-])ccc5F)c5nc(c(-c6cc(S(=O)(=O)[O-])ccc6F)c6ccc3[nH]6)C=C5)C=C4)cc2)c1
REMARK SMILES IDX 31 1 30 2 29 3 28 4 27 5 26 6 25 7 23 8 24 9 22 10 21 11
REMARK SMILES IDX 9 12 10 13 11 14 20 16 12 17 19 18 13 19 14 20 7 21 8 22
REMARK SMILES IDX 6 23 1 24 2 25 3 26 103 27 4 28 5 29 15 30 16 31 17 32 18 33
REMARK SMILES IDX 32 34 33 35 34 36 35 37 36 38 37 39 38 40 39 41 40 42 41 43
REMARK SMILES IDX 102 44 42 45 101 46 43 47 44 48 45 49 95 50 46 51 100 52
REMARK SMILES IDX 94 53 96 54 47 55 99 56 93 57 92 58 48 60 80 61 60 62 79 63
REMARK SMILES IDX 61 64 64 65 78 66 97 67 62 68 63 69 77 71 98 72 65 73 49 74
REMARK SMILES IDX 50 75 58 76 51 77 57 78 59 79 56 80 52 81 53 82 54 83 55 84
REMARK SMILES IDX 81 85 82 86 90 87 83 88 89 89 91 90 88 91 84 92 85 93 86 94
REMARK SMILES IDX 87 95 66 96 67 97 75 98 68 99 74 100 76 101 73 102 69 103
REMARK SMILES IDX 70 104 71 105 72 106
REMARK H PARENT 10 15 96 59 64 70
REMARK Flexibility Score: inf
ROOT
ATOM      1  O   UNL A   1      44.720  26.145  32.947  1.00  0.00    -0.377 OA
ENDROOT
BRANCH   1   2
ATOM      2  C   UNL A   1      45.529  26.711  31.930  1.00  0.00     0.188 C 
BRANCH   2   3
ATOM      3  C   UNL A   1      45.320  26.262  30.485  1.00  0.00     0.188 C 
BRANCH   3   4
ATOM      4  O   UNL A   1      46.228  26.734  29.511  1.00  0.00    -0.376 OA
BRANCH   4   5
ATOM      5  C   UNL A   1      45.714  26.977  28.201  1.00  0.00     0.202 C 
BRANCH   5   6
ATOM      6  C   UNL A   1      44.205  27.219  27.995  1.00  0.00     0.261 C 
BRANCH   6   7
ATOM      7  O   UNL A   1      43.876  28.366  27.164  1.00  0.00    -0.463 OA
BRANCH   7   8
ATOM      8  C   UNL A   1      43.566  28.097  25.872  1.00  0.00     0.310 C 
ATOM      9  O   UNL A   1      44.423  27.894  25.008  1.00  0.00    -0.252 OA
BRANCH   8  10
ATOM     10  C   UNL A   1      42.099  27.981  25.499  1.00  0.00     0.161 C 
BRANCH  10  11
ATOM     11  C   UNL A   1      41.190  26.927  26.090  1.00  0.00     0.000 A 
ATOM     12  C   UNL A   1      40.177  27.088  27.051  1.00  0.00     0.093 A 
ATOM     13  N   UNL A   1      39.596  25.842  27.202  1.00  0.00    -0.352 N 
ATOM     14  C   UNL A   1      40.478  24.869  26.794  1.00  0.00     0.046 A 
ATOM     15  H   UNL A   1      38.689  25.676  27.548  1.00  0.00     0.167 HD
ATOM     16  C   UNL A   1      41.469  25.519  26.073  1.00  0.00     0.004 A 
ATOM     17  C   UNL A   1      40.495  23.489  27.023  1.00  0.00     0.027 A 
ATOM     18  C   UNL A   1      42.558  24.760  25.601  1.00  0.00     0.015 A 
ATOM     19  C   UNL A   1      41.632  22.776  26.607  1.00  0.00     0.006 A 
ATOM     20  C   UNL A   1      42.696  23.396  25.933  1.00  0.00    -0.042 A 
BRANCH  12  21
ATOM     21  C   UNL A   1      39.807  28.307  27.771  1.00  0.00     0.227 C 
ATOM     22  O   UNL A   1      39.268  29.267  27.217  1.00  0.00    -0.285 OA
BRANCH  21  23
ATOM     23  C   UNL A   1      40.140  28.508  29.210  1.00  0.00     0.113 A 
ATOM     24  C   UNL A   1      38.403  28.651  32.567  1.00  0.00     0.044 C 
ATOM     25  C   UNL A   1      39.461  28.584  31.506  1.00  0.00    -0.047 A 
ATOM     26  C   UNL A   1      40.781  28.290  31.857  1.00  0.00     0.023 A 
ATOM     27  C   UNL A   1      39.131  28.692  30.150  1.00  0.00     0.036 A 
ATOM     28  C   UNL A   1      41.723  28.149  30.853  1.00  0.00     0.112 A 
ATOM     29  N   UNL A   1      41.433  28.261  29.544  1.00  0.00    -0.253 NA
ENDBRANCH  21  23
ENDBRANCH  12  21
BRANCH  20  30
ATOM     30  C   UNL A   1      44.028  22.690  25.619  1.00  0.00    -0.013 C 
ATOM     31  C   UNL A   1      44.583  23.184  24.268  1.00  0.00     0.016 C 
ATOM     32  C   UNL A   1      45.043  23.024  26.741  1.00  0.00     0.016 C 
ATOM     33  C   UNL A   1      43.929  21.151  25.549  1.00  0.00     0.016 C 
ENDBRANCH  20  30
ENDBRANCH  10  11
ENDBRANCH   8  10
ENDBRANCH   7   8
ENDBRANCH   6   7
ENDBRANCH   5   6
ENDBRANCH   4   5
ENDBRANCH   3   4
ENDBRANCH   2   3
ENDBRANCH   1   2
BRANCH   1  34
ATOM     34  C   UNL A   1      45.128  24.941  33.585  1.00  0.00     0.188 C 
BRANCH  34  35
ATOM     35  C   UNL A   1      44.254  23.700  33.402  1.00  0.00     0.188 C 
BRANCH  35  36
ATOM     36  O   UNL A   1      43.159  23.512  34.303  1.00  0.00    -0.376 OA
BRANCH  36  37
ATOM     37  C   UNL A   1      42.932  24.479  35.324  1.00  0.00     0.202 C 
BRANCH  37  38
ATOM     38  C   UNL A   1      41.721  25.378  35.091  1.00  0.00     0.261 C 
BRANCH  38  39
ATOM     39  O   UNL A   1      42.110  26.752  34.971  1.00  0.00    -0.460 OA
BRANCH  39  40
ATOM     40  C   UNL A   1      41.606  27.580  35.918  1.00  0.00     0.338 C 
ATOM     41  O   UNL A   1      41.171  27.268  37.015  1.00  0.00    -0.246 OA
BRANCH  40  42
ATOM     42  C   UNL A   1      41.832  28.971  35.491  1.00  0.00     0.060 A 
ATOM     43  C   UNL A   1      43.151  29.431  35.391  1.00  0.00     0.016 A 
ATOM     44  C   UNL A   1      40.758  29.818  35.205  1.00  0.00     0.016 A 
ATOM     45  C   UNL A   1      43.403  30.747  35.016  1.00  0.00     0.010 A 
ATOM     46  C   UNL A   1      41.011  31.143  34.851  1.00  0.00     0.010 A 
ATOM     47  C   UNL A   1      42.332  31.615  34.776  1.00  0.00    -0.014 A 
BRANCH  47  48
ATOM     48  C   UNL A   1      42.579  33.061  34.601  1.00  0.00     0.031 A 
ATOM     49  C   UNL A   1      42.761  33.587  33.207  1.00  0.00     0.074 A 
ATOM     50  C   UNL A   1      42.653  33.875  35.668  1.00  0.00     0.049 A 
ATOM     51  N   UNL A   1      43.106  34.782  32.809  1.00  0.00    -0.248 NA
ATOM     52  C   UNL A   1      42.526  32.631  32.113  1.00  0.00     0.031 C 
ATOM     53  C   UNL A   1      42.426  33.468  37.055  1.00  0.00     0.029 A 
ATOM     54  N   UNL A   1      42.954  35.210  35.752  1.00  0.00    -0.354 N 
ATOM     55  C   UNL A   1      43.143  34.720  31.420  1.00  0.00     0.074 A 
ATOM     56  C   UNL A   1      42.806  33.364  31.046  1.00  0.00     0.031 C 
ATOM     57  C   UNL A   1      42.616  34.532  37.855  1.00  0.00     0.029 A 
ATOM     58  C   UNL A   1      43.029  35.675  37.044  1.00  0.00     0.049 A 
ATOM     59  H   UNL A   1      43.104  35.779  34.963  1.00  0.00     0.167 HD
ATOM     60  C   UNL A   1      43.438  35.710  30.544  1.00  0.00     0.034 A 
ATOM     61  C   UNL A   1      43.427  36.876  37.510  1.00  0.00     0.034 A 
ATOM     62  C   UNL A   1      43.785  37.049  30.950  1.00  0.00     0.049 A 
ATOM     63  C   UNL A   1      43.861  37.928  36.514  1.00  0.00     0.074 A 
ATOM     64  C   UNL A   1      44.078  38.142  30.154  1.00  0.00     0.029 A 
ATOM     65  N   UNL A   1      43.907  37.474  32.267  1.00  0.00    -0.354 N 
ATOM     66  N   UNL A   1      43.880  37.867  35.202  1.00  0.00    -0.248 NA
ATOM     67  C   UNL A   1      44.331  39.206  37.063  1.00  0.00     0.031 C 
ATOM     68  C   UNL A   1      44.462  39.197  30.986  1.00  0.00     0.029 A 
ATOM     69  C   UNL A   1      44.321  38.796  32.305  1.00  0.00     0.049 A 
ATOM     70  H   UNL A   1      43.725  36.917  33.059  1.00  0.00     0.167 HD
ATOM     71  C   UNL A   1      44.337  39.110  34.770  1.00  0.00     0.074 A 
ATOM     72  C   UNL A   1      44.561  39.904  35.961  1.00  0.00     0.031 C 
ATOM     73  C   UNL A   1      44.553  39.560  33.508  1.00  0.00     0.034 A 
BRANCH  60  74
ATOM     74  C   UNL A   1      43.465  35.363  29.077  1.00  0.00     0.023 A 
ATOM     75  C   UNL A   1      44.568  34.727  28.481  1.00  0.00     0.031 A 
ATOM     76  C   UNL A   1      42.368  35.685  28.260  1.00  0.00     0.131 A 
ATOM     77  C   UNL A   1      44.569  34.482  27.099  1.00  0.00     0.055 A 
ATOM     78  C   UNL A   1      42.345  35.371  26.900  1.00  0.00     0.041 A 
ATOM     79  F   UNL A   1      41.300  36.321  28.768  1.00  0.00    -0.206 F 
ATOM     80  C   UNL A   1      43.455  34.775  26.309  1.00  0.00     0.022 A 
BRANCH  77  81
ATOM     81  S   UNL A   1      46.097  33.887  26.322  1.00  0.00     0.124 S 
ATOM     82  O   UNL A   1      46.134  34.681  25.097  1.00  0.00    -0.237 OA
ATOM     83  O   UNL A   1      47.107  34.210  27.323  1.00  0.00    -0.237 OA
ATOM     84  O   UNL A   1      45.849  32.461  26.125  1.00  0.00    -0.744 OA
ENDBRANCH  77  81
ENDBRANCH  60  74
BRANCH  61  85
ATOM     85  C   UNL A   1      43.497  37.144  38.977  1.00  0.00     0.023 A 
ATOM     86  C   UNL A   1      44.664  36.873  39.705  1.00  0.00     0.031 A 
ATOM     87  C   UNL A   1      42.372  37.601  39.687  1.00  0.00     0.131 A 
ATOM     88  C   UNL A   1      44.666  37.003  41.102  1.00  0.00     0.055 A 
ATOM     89  C   UNL A   1      42.397  37.793  41.070  1.00  0.00     0.041 A 
ATOM     90  F   UNL A   1      41.222  37.868  39.045  1.00  0.00    -0.206 F 
ATOM     91  C   UNL A   1      43.546  37.476  41.789  1.00  0.00     0.022 A 
BRANCH  88  92
ATOM     92  S   UNL A   1      46.119  36.429  42.023  1.00  0.00     0.124 S 
ATOM     93  O   UNL A   1      45.557  36.200  43.349  1.00  0.00    -0.237 OA
ATOM     94  O   UNL A   1      46.502  35.237  41.273  1.00  0.00    -0.237 OA
ATOM     95  O   UNL A   1      47.050  37.552  41.924  1.00  0.00    -0.744 OA
ENDBRANCH  88  92
ENDBRANCH  61  85
BRANCH  73  96
ATOM     96  C   UNL A   1      45.025  40.987  33.359  1.00  0.00     0.023 A 
ATOM     97  C   UNL A   1      44.140  42.072  33.482  1.00  0.00     0.031 A 
ATOM     98  C   UNL A   1      46.378  41.263  33.091  1.00  0.00     0.131 A 
ATOM     99  C   UNL A   1      44.607  43.379  33.283  1.00  0.00     0.055 A 
ATOM    100  C   UNL A   1      46.850  42.569  32.961  1.00  0.00     0.041 A 
ATOM    101  F   UNL A   1      47.266  40.264  32.961  1.00  0.00    -0.206 F 
ATOM    102  C   UNL A   1      45.960  43.637  33.043  1.00  0.00     0.022 A 
BRANCH  99 103
ATOM    103  S   UNL A   1      43.405  44.736  33.248  1.00  0.00     0.124 S 
ATOM    104  O   UNL A   1      44.239  45.889  33.567  1.00  0.00    -0.237 OA
ATOM    105  O   UNL A   1      42.901  44.674  31.880  1.00  0.00    -0.237 OA
ATOM    106  O   UNL A   1      42.438  44.365  34.281  1.00  0.00    -0.744 OA
ENDBRANCH  99 103
ENDBRANCH  73  96
ENDBRANCH  47  48
ENDBRANCH  40  42
ENDBRANCH  39  40
ENDBRANCH  38  39
ENDBRANCH  37  38
ENDBRANCH  36  37
ENDBRANCH  35  36
ENDBRANCH  34  35
ENDBRANCH   1  34
TORSDOF 27
ENDMDL
MODEL 3
REMARK VINA RESULT:      -8.3      7.891     15.340
REMARK SMILES Cc1ccnc(C(=O)c2[nH]c3ccc(C(C)(C)C)cc3c2CC(=O)OCCOCCOCCOCCOC(=O)c2ccc(-c3c4nc(c(-c5cc(S(=O)(=O)[O-])ccc5F)c5ccc([nH]5)c(-c5cc(S(=O)(=O)[O-])ccc5F)c5nc(c(-c6cc(S(=O)(=O)[O-])ccc6F)c6ccc3[nH]6)C=C5)C=C4)cc2)c1
REMARK SMILES IDX 31 1 30 2 29 3 28 4 27 5 26 6 25 7 23 8 24 9 22 10 21 11
REMARK SMILES IDX 9 12 10 13 11 14 20 16 12 17 19 18 13 19 14 20 7 21 8 22
REMARK SMILES IDX 6 23 1 24 2 25 3 26 103 27 4 28 5 29 15 30 16 31 17 32 18 33
REMARK SMILES IDX 32 34 33 35 34 36 35 37 36 38 37 39 38 40 39 41 40 42 41 43
REMARK SMILES IDX 102 44 42 45 101 46 43 47 44 48 45 49 95 50 46 51 100 52
REMARK SMILES IDX 94 53 96 54 47 55 99 56 93 57 92 58 48 60 80 61 60 62 79 63
REMARK SMILES IDX 61 64 64 65 78 66 97 67 62 68 63 69 77 71 98 72 65 73 49 74
REMARK SMILES IDX 50 75 58 76 51 77 57 78 59 79 56 80 52 81 53 82 54 83 55 84
REMARK SMILES IDX 81 85 82 86 90 87 83 88 89 89 91 90 88 91 84 92 85 93 86 94
REMARK SMILES IDX 87 95 66 96 67 97 75 98 68 99 74 100 76 101 73 102 69 103
REMARK SMILES IDX 70 104 71 105 72 106
REMARK H PARENT 10 15 96 59 64 70
REMARK Flexibility Score: inf
ROOT
ATOM      1  O   UNL A   1      41.741  25.143  26.090  1.00  0.00    -0.377 OA
ENDROOT
BRANCH   1   2
ATOM      2  C   UNL A   1      40.544  25.883  26.248  1.00  0.00     0.188 C 
BRANCH   2   3
ATOM      3  C   UNL A   1      39.554  25.466  27.334  1.00  0.00     0.188 C 
BRANCH   3   4
ATOM      4  O   UNL A   1      39.476  26.266  28.496  1.00  0.00    -0.376 OA
BRANCH   4   5
ATOM      5  C   UNL A   1      40.707  26.707  29.070  1.00  0.00     0.202 C 
BRANCH   5   6
ATOM      6  C   UNL A   1      40.811  28.115  29.690  1.00  0.00     0.261 C 
BRANCH   6   7
ATOM      7  O   UNL A   1      40.409  29.202  28.814  1.00  0.00    -0.463 OA
BRANCH   7   8
ATOM      8  C   UNL A   1      39.294  29.882  29.180  1.00  0.00     0.310 C 
ATOM      9  O   UNL A   1      38.451  30.268  28.367  1.00  0.00    -0.252 OA
BRANCH   8  10
ATOM     10  C   UNL A   1      39.056  30.117  30.661  1.00  0.00     0.161 C 
BRANCH  10  11
ATOM     11  C   UNL A   1      39.521  31.368  31.371  1.00  0.00     0.000 A 
ATOM     12  C   UNL A   1      40.684  31.554  32.139  1.00  0.00     0.093 A 
ATOM     13  N   UNL A   1      40.683  32.887  32.509  1.00  0.00    -0.352 N 
ATOM     14  C   UNL A   1      39.402  33.382  32.452  1.00  0.00     0.046 A 
ATOM     15  H   UNL A   1      41.479  33.403  32.774  1.00  0.00     0.167 HD
ATOM     16  C   UNL A   1      38.662  32.463  31.721  1.00  0.00     0.004 A 
ATOM     17  C   UNL A   1      38.837  34.538  33.001  1.00  0.00     0.027 A 
ATOM     18  C   UNL A   1      37.278  32.685  31.576  1.00  0.00     0.015 A 
ATOM     19  C   UNL A   1      37.443  34.688  32.904  1.00  0.00     0.006 A 
ATOM     20  C   UNL A   1      36.637  33.755  32.235  1.00  0.00    -0.042 A 
BRANCH  12  21
ATOM     21  C   UNL A   1      41.691  30.557  32.500  1.00  0.00     0.227 C 
ATOM     22  O   UNL A   1      42.610  30.238  31.744  1.00  0.00    -0.285 OA
BRANCH  21  23
ATOM     23  C   UNL A   1      41.623  29.790  33.776  1.00  0.00     0.113 A 
ATOM     24  C   UNL A   1      42.138  26.261  35.038  1.00  0.00     0.044 C 
ATOM     25  C   UNL A   1      41.926  27.745  34.987  1.00  0.00    -0.047 A 
ATOM     26  C   UNL A   1      42.072  28.509  36.148  1.00  0.00     0.023 A 
ATOM     27  C   UNL A   1      41.700  28.401  33.771  1.00  0.00     0.036 A 
ATOM     28  C   UNL A   1      41.955  29.886  36.060  1.00  0.00     0.112 A 
ATOM     29  N   UNL A   1      41.726  30.538  34.906  1.00  0.00    -0.253 NA
ENDBRANCH  21  23
ENDBRANCH  12  21
BRANCH  20  30
ATOM     30  C   UNL A   1      35.097  33.791  32.258  1.00  0.00    -0.013 C 
ATOM     31  C   UNL A   1      34.529  32.843  31.183  1.00  0.00     0.016 C 
ATOM     32  C   UNL A   1      34.611  33.329  33.655  1.00  0.00     0.016 C 
ATOM     33  C   UNL A   1      34.493  35.190  32.015  1.00  0.00     0.016 C 
ENDBRANCH  20  30
ENDBRANCH  10  11
ENDBRANCH   8  10
ENDBRANCH   7   8
ENDBRANCH   6   7
ENDBRANCH   5   6
ENDBRANCH   4   5
ENDBRANCH   3   4
ENDBRANCH   2   3
ENDBRANCH   1   2
BRANCH   1  34
ATOM     34  C   UNL A   1      42.998  25.791  26.241  1.00  0.00     0.188 C 
BRANCH  34  35
ATOM     35  C   UNL A   1      43.803  26.103  24.979  1.00  0.00     0.188 C 
BRANCH  35  36
ATOM     36  O   UNL A   1      45.178  26.462  25.133  1.00  0.00    -0.376 OA
BRANCH  36  37
ATOM     37  C   UNL A   1      46.168  25.438  25.093  1.00  0.00     0.202 C 
BRANCH  37  38
ATOM     38  C   UNL A   1      47.607  25.943  25.142  1.00  0.00     0.261 C 
BRANCH  38  39
ATOM     39  O   UNL A   1      48.224  25.634  26.399  1.00  0.00    -0.460 OA
BRANCH  39  40
ATOM     40  C   UNL A   1      47.377  25.227  27.373  1.00  0.00     0.338 C 
ATOM     41  O   UNL A   1      47.111  24.079  27.689  1.00  0.00    -0.246 OA
BRANCH  40  42
ATOM     42  C   UNL A   1      46.944  26.408  28.141  1.00  0.00     0.060 A 
ATOM     43  C   UNL A   1      47.886  27.409  28.406  1.00  0.00     0.016 A 
ATOM     44  C   UNL A   1      45.632  26.522  28.605  1.00  0.00     0.016 A 
ATOM     45  C   UNL A   1      47.522  28.528  29.150  1.00  0.00     0.010 A 
ATOM     46  C   UNL A   1      45.274  27.633  29.369  1.00  0.00     0.010 A 
ATOM     47  C   UNL A   1      46.223  28.626  29.660  1.00  0.00    -0.014 A 
BRANCH  47  48
ATOM     48  C   UNL A   1      45.891  29.687  30.634  1.00  0.00     0.031 A 
ATOM     49  C   UNL A   1      46.053  29.386  32.096  1.00  0.00     0.074 A 
ATOM     50  C   UNL A   1      45.440  30.882  30.215  1.00  0.00     0.049 A 
ATOM     51  N   UNL A   1      45.715  30.103  33.133  1.00  0.00    -0.248 NA
ATOM     52  C   UNL A   1      46.679  28.097  32.430  1.00  0.00     0.031 C 
ATOM     53  C   UNL A   1      45.310  31.290  28.815  1.00  0.00     0.029 A 
ATOM     54  N   UNL A   1      44.995  31.967  30.925  1.00  0.00    -0.354 N 
ATOM     55  C   UNL A   1      46.073  29.349  34.245  1.00  0.00     0.074 A 
ATOM     56  C   UNL A   1      46.636  28.110  33.754  1.00  0.00     0.031 C 
ATOM     57  C   UNL A   1      44.799  32.532  28.771  1.00  0.00     0.029 A 
ATOM     58  C   UNL A   1      44.517  32.983  30.132  1.00  0.00     0.049 A 
ATOM     59  H   UNL A   1      45.015  32.012  31.908  1.00  0.00     0.167 HD
ATOM     60  C   UNL A   1      45.937  29.667  35.554  1.00  0.00     0.034 A 
ATOM     61  C   UNL A   1      43.885  34.124  30.474  1.00  0.00     0.034 A 
ATOM     62  C   UNL A   1      45.358  30.905  36.012  1.00  0.00     0.049 A 
ATOM     63  C   UNL A   1      43.644  34.402  31.941  1.00  0.00     0.074 A 
ATOM     64  C   UNL A   1      45.191  31.350  37.311  1.00  0.00     0.029 A 
ATOM     65  N   UNL A   1      44.831  31.890  35.184  1.00  0.00    -0.354 N 
ATOM     66  N   UNL A   1      43.998  33.691  32.987  1.00  0.00    -0.248 NA
ATOM     67  C   UNL A   1      42.912  35.632  32.270  1.00  0.00     0.031 C 
ATOM     68  C   UNL A   1      44.486  32.556  37.272  1.00  0.00     0.029 A 
ATOM     69  C   UNL A   1      44.292  32.914  35.946  1.00  0.00     0.049 A 
ATOM     70  H   UNL A   1      44.839  31.864  34.200  1.00  0.00     0.167 HD
ATOM     71  C   UNL A   1      43.557  34.405  34.099  1.00  0.00     0.074 A 
ATOM     72  C   UNL A   1      42.931  35.610  33.595  1.00  0.00     0.031 C 
ATOM     73  C   UNL A   1      43.658  34.099  35.418  1.00  0.00     0.034 A 
BRANCH  60  74
ATOM     74  C   UNL A   1      46.356  28.638  36.573  1.00  0.00     0.023 A 
ATOM     75  C   UNL A   1      45.427  27.794  37.207  1.00  0.00     0.031 A 
ATOM     76  C   UNL A   1      47.711  28.507  36.923  1.00  0.00     0.131 A 
ATOM     77  C   UNL A   1      45.860  26.895  38.194  1.00  0.00     0.055 A 
ATOM     78  C   UNL A   1      48.145  27.560  37.852  1.00  0.00     0.041 A 
ATOM     79  F   UNL A   1      48.638  29.308  36.374  1.00  0.00    -0.206 F 
ATOM     80  C   UNL A   1      47.215  26.753  38.501  1.00  0.00     0.022 A 
BRANCH  77  81
ATOM     81  S   UNL A   1      44.615  25.999  39.162  1.00  0.00     0.124 S 
ATOM     82  O   UNL A   1      45.221  24.674  39.269  1.00  0.00    -0.237 OA
ATOM     83  O   UNL A   1      44.554  26.775  40.395  1.00  0.00    -0.237 OA
ATOM     84  O   UNL A   1      43.419  26.064  38.325  1.00  0.00    -0.744 OA
ENDBRANCH  77  81
ENDBRANCH  60  74
BRANCH  61  85
ATOM     85  C   UNL A   1      43.382  35.065  29.430  1.00  0.00     0.023 A 
ATOM     86  C   UNL A   1      44.221  36.044  28.877  1.00  0.00     0.031 A 
ATOM     87  C   UNL A   1      42.034  35.052  29.027  1.00  0.00     0.131 A 
ATOM     88  C   UNL A   1      43.695  37.004  27.999  1.00  0.00     0.055 A 
ATOM     89  C   UNL A   1      41.530  35.968  28.101  1.00  0.00     0.041 A 
ATOM     90  F   UNL A   1      41.181  34.144  29.530  1.00  0.00    -0.206 F 
ATOM     91  C   UNL A   1      42.359  36.963  27.595  1.00  0.00     0.022 A 
BRANCH  88  92
ATOM     92  S   UNL A   1      44.758  38.380  27.484  1.00  0.00     0.124 S 
ATOM     93  O   UNL A   1      45.002  39.055  28.753  1.00  0.00    -0.237 OA
ATOM     94  O   UNL A   1      45.898  37.680  26.900  1.00  0.00    -0.237 OA
ATOM     95  O   UNL A   1      43.926  39.116  26.534  1.00  0.00    -0.744 OA
ENDBRANCH  88  92
ENDBRANCH  61  85
BRANCH  73  96
ATOM     96  C   UNL A   1      43.106  35.103  36.400  1.00  0.00     0.023 A 
ATOM     97  C   UNL A   1      41.827  34.955  36.964  1.00  0.00     0.031 A 
ATOM     98  C   UNL A   1      43.870  36.222  36.778  1.00  0.00     0.131 A 
ATOM     99  C   UNL A   1      41.328  35.938  37.831  1.00  0.00     0.055 A 
ATOM    100  C   UNL A   1      43.395  37.162  37.693  1.00  0.00     0.041 A 
ATOM    101  F   UNL A   1      45.097  36.415  36.268  1.00  0.00    -0.206 F 
ATOM    102  C   UNL A   1      42.111  37.030  38.215  1.00  0.00     0.022 A 
BRANCH  99 103
ATOM    103  S   UNL A   1      39.603  35.820  38.379  1.00  0.00     0.124 S 
ATOM    104  O   UNL A   1      38.979  35.113  37.265  1.00  0.00    -0.237 OA
ATOM    105  O   UNL A   1      39.721  35.070  39.624  1.00  0.00    -0.237 OA
ATOM    106  O   UNL A   1      39.196  37.216  38.533  1.00  0.00    -0.744 OA
ENDBRANCH  99 103
ENDBRANCH  73  96
ENDBRANCH  47  48
ENDBRANCH  40  42
ENDBRANCH  39  40
ENDBRANCH  38  39
ENDBRANCH  37  38
ENDBRANCH  36  37
ENDBRANCH  35  36
ENDBRANCH  34  35
ENDBRANCH   1  34
TORSDOF 27
ENDMDL
