MODEL 1
REMARK VINA RESULT:      -9.9      0.000      0.000
REMARK SMILES COc1ccc2c(c1)C=C(C(=O)OCCOCCOCCOCCOC(=O)c1ccc(-c3c4nc(c(-c5cc(S(=O)(=O)[O-])ccc5F)c5ccc([nH]5)c(-c5cc(S(=O)(=O)[O-])ccc5F)c5nc(c(-c6cc(S(=O)(=O)[O-])ccc6F)c6ccc3[nH]6)C=C5)C=C4)cc1)[C@H](C(F)(F)F)O2
REMARK SMILES IDX 20 1 19 2 18 3 17 4 16 5 15 6 14 7 13 8 11 9 12 10 10 11
REMARK SMILES IDX 3 12 4 13 8 14 5 15 7 16 6 17 9 18 96 19 91 20 2 21 1 22
REMARK SMILES IDX 92 23 93 24 94 25 95 26 21 27 22 28 23 29 24 30 25 31 26 32
REMARK SMILES IDX 27 33 28 34 29 35 90 36 30 37 89 38 31 39 32 40 33 41 83 42
REMARK SMILES IDX 34 43 88 44 82 45 84 46 35 47 87 48 81 49 80 50 36 52 68 53
REMARK SMILES IDX 48 54 67 55 49 56 52 57 66 58 85 59 50 60 51 61 65 63 86 64
REMARK SMILES IDX 53 65 37 66 38 67 46 68 39 69 45 70 47 71 44 72 40 73 41 74
REMARK SMILES IDX 42 75 43 76 69 77 70 78 78 79 71 80 77 81 79 82 76 83 72 84
REMARK SMILES IDX 73 85 74 86 75 87 54 88 55 89 63 90 56 91 62 92 64 93 61 94
REMARK SMILES IDX 57 95 58 96 59 97 60 98
REMARK H PARENT 84 51 52 62
REMARK Flexibility Score: inf
ROOT
ATOM      1  C   UNL A   1      34.307  19.684  24.663  1.00  0.00     0.188 C 
ENDROOT
BRANCH   1   2
ATOM      2  O   UNL A   1      33.708  20.935  24.330  1.00  0.00    -0.377 OA
BRANCH   2   3
ATOM      3  C   UNL A   1      33.209  21.766  25.362  1.00  0.00     0.188 C 
BRANCH   3   4
ATOM      4  C   UNL A   1      31.682  21.934  25.463  1.00  0.00     0.188 C 
BRANCH   4   5
ATOM      5  O   UNL A   1      31.208  23.190  25.011  1.00  0.00    -0.376 OA
BRANCH   5   6
ATOM      6  C   UNL A   1      31.044  23.389  23.618  1.00  0.00     0.202 C 
BRANCH   6   7
ATOM      7  C   UNL A   1      31.807  24.546  22.955  1.00  0.00     0.261 C 
BRANCH   7   8
ATOM      8  O   UNL A   1      31.690  25.819  23.606  1.00  0.00    -0.460 OA
BRANCH   8   9
ATOM      9  C   UNL A   1      32.475  26.826  23.168  1.00  0.00     0.338 C 
ATOM     10  O   UNL A   1      33.542  26.714  22.594  1.00  0.00    -0.246 OA
BRANCH   9  11
ATOM     11  C   UNL A   1      31.756  28.106  23.342  1.00  0.00     0.087 C 
ATOM     12  C   UNL A   1      28.303  31.270  22.165  1.00  0.00     0.119 A 
ATOM     13  C   UNL A   1      28.461  31.884  23.408  1.00  0.00     0.050 A 
ATOM     14  C   UNL A   1      29.090  30.157  21.836  1.00  0.00     0.058 A 
ATOM     15  C   UNL A   1      29.418  31.409  24.308  1.00  0.00     0.051 A 
ATOM     16  C   UNL A   1      30.036  29.666  22.741  1.00  0.00     0.021 A 
ATOM     17  C   UNL A   1      30.207  30.316  23.967  1.00  0.00     0.128 A 
ATOM     18  C   UNL A   1      30.761  28.423  22.495  1.00  0.00     0.027 C 
ATOM     19  O   UNL A   1      31.087  29.873  24.918  1.00  0.00    -0.475 OA
ATOM     20  C   UNL A   1      32.202  29.094  24.399  1.00  0.00     0.316 C 
BRANCH  12  21
ATOM     21  O   UNL A   1      27.377  31.621  21.221  1.00  0.00    -0.497 OA
ATOM     22  C   UNL A   1      27.882  32.167  20.008  1.00  0.00     0.278 C 
ENDBRANCH  12  21
BRANCH  20  23
ATOM     23  C   UNL A   1      33.020  28.588  25.599  1.00  0.00     0.430 C 
ATOM     24  F   UNL A   1      33.191  29.544  26.539  1.00  0.00    -0.167 F 
ATOM     25  F   UNL A   1      32.345  27.584  26.226  1.00  0.00    -0.167 F 
ATOM     26  F   UNL A   1      34.225  28.095  25.254  1.00  0.00    -0.167 F 
ENDBRANCH  20  23
ENDBRANCH   9  11
ENDBRANCH   8   9
ENDBRANCH   7   8
ENDBRANCH   6   7
ENDBRANCH   5   6
ENDBRANCH   4   5
ENDBRANCH   3   4
ENDBRANCH   2   3
ENDBRANCH   1   2
BRANCH   1  27
ATOM     27  C   UNL A   1      35.820  19.543  24.966  1.00  0.00     0.188 C 
BRANCH  27  28
ATOM     28  O   UNL A   1      36.625  20.637  24.546  1.00  0.00    -0.376 OA
BRANCH  28  29
ATOM     29  C   UNL A   1      37.710  20.998  25.383  1.00  0.00     0.202 C 
BRANCH  29  30
ATOM     30  C   UNL A   1      38.866  19.992  25.430  1.00  0.00     0.261 C 
BRANCH  30  31
ATOM     31  O   UNL A   1      39.608  19.954  26.659  1.00  0.00    -0.460 OA
BRANCH  31  32
ATOM     32  C   UNL A   1      40.923  20.263  26.592  1.00  0.00     0.338 C 
ATOM     33  O   UNL A   1      41.816  19.562  26.149  1.00  0.00    -0.246 OA
BRANCH  32  34
ATOM     34  C   UNL A   1      41.068  21.685  26.965  1.00  0.00     0.060 A 
ATOM     35  C   UNL A   1      40.631  22.673  26.073  1.00  0.00     0.016 A 
ATOM     36  C   UNL A   1      41.608  22.037  28.203  1.00  0.00     0.016 A 
ATOM     37  C   UNL A   1      40.761  24.021  26.408  1.00  0.00     0.010 A 
ATOM     38  C   UNL A   1      41.760  23.387  28.527  1.00  0.00     0.010 A 
ATOM     39  C   UNL A   1      41.366  24.386  27.618  1.00  0.00    -0.014 A 
BRANCH  39  40
ATOM     40  C   UNL A   1      41.770  25.795  27.844  1.00  0.00     0.031 A 
ATOM     41  C   UNL A   1      43.108  26.241  27.316  1.00  0.00     0.074 A 
ATOM     42  C   UNL A   1      40.966  26.666  28.479  1.00  0.00     0.049 A 
ATOM     43  N   UNL A   1      43.705  27.399  27.428  1.00  0.00    -0.248 NA
ATOM     44  C   UNL A   1      43.876  25.239  26.560  1.00  0.00     0.031 C 
ATOM     45  C   UNL A   1      39.630  26.363  28.991  1.00  0.00     0.029 A 
ATOM     46  N   UNL A   1      41.160  27.986  28.807  1.00  0.00    -0.354 N 
ATOM     47  C   UNL A   1      44.919  27.264  26.763  1.00  0.00     0.074 A 
ATOM     48  C   UNL A   1      44.988  25.901  26.283  1.00  0.00     0.031 C 
ATOM     49  C   UNL A   1      39.129  27.465  29.578  1.00  0.00     0.029 A 
ATOM     50  C   UNL A   1      40.122  28.538  29.522  1.00  0.00     0.049 A 
ATOM     51  H   UNL A   1      41.967  28.490  28.554  1.00  0.00     0.167 HD
ATOM     52  C   UNL A   1      45.883  28.196  26.565  1.00  0.00     0.034 A 
ATOM     53  C   UNL A   1      40.003  29.756  30.089  1.00  0.00     0.034 A 
ATOM     54  C   UNL A   1      45.804  29.546  27.061  1.00  0.00     0.049 A 
ATOM     55  C   UNL A   1      41.136  30.749  29.935  1.00  0.00     0.074 A 
ATOM     56  C   UNL A   1      46.717  30.575  26.907  1.00  0.00     0.029 A 
ATOM     57  N   UNL A   1      44.760  30.056  27.824  1.00  0.00    -0.354 N 
ATOM     58  N   UNL A   1      42.274  30.614  29.292  1.00  0.00    -0.248 NA
ATOM     59  C   UNL A   1      40.962  32.058  30.577  1.00  0.00     0.031 C 
ATOM     60  C   UNL A   1      46.268  31.676  27.643  1.00  0.00     0.029 A 
ATOM     61  C   UNL A   1      45.027  31.369  28.179  1.00  0.00     0.049 A 
ATOM     62  H   UNL A   1      43.950  29.557  28.075  1.00  0.00     0.167 HD
ATOM     63  C   UNL A   1      42.933  31.836  29.425  1.00  0.00     0.074 A 
ATOM     64  C   UNL A   1      42.057  32.697  30.191  1.00  0.00     0.031 C 
ATOM     65  C   UNL A   1      44.148  32.215  28.953  1.00  0.00     0.034 A 
BRANCH  52  66
ATOM     66  C   UNL A   1      47.126  27.763  25.827  1.00  0.00     0.023 A 
ATOM     67  C   UNL A   1      47.299  28.007  24.454  1.00  0.00     0.031 A 
ATOM     68  C   UNL A   1      48.149  27.078  26.508  1.00  0.00     0.131 A 
ATOM     69  C   UNL A   1      48.438  27.518  23.793  1.00  0.00     0.055 A 
ATOM     70  C   UNL A   1      49.315  26.664  25.863  1.00  0.00     0.041 A 
ATOM     71  F   UNL A   1      48.027  26.791  27.814  1.00  0.00    -0.206 F 
ATOM     72  C   UNL A   1      49.459  26.873  24.495  1.00  0.00     0.022 A 
BRANCH  69  73
ATOM     73  S   UNL A   1      48.502  27.616  21.984  1.00  0.00     0.124 S 
ATOM     74  O   UNL A   1      47.186  28.170  21.671  1.00  0.00    -0.237 OA
ATOM     75  O   UNL A   1      49.638  28.501  21.756  1.00  0.00    -0.237 OA
ATOM     76  O   UNL A   1      48.698  26.228  21.573  1.00  0.00    -0.744 OA
ENDBRANCH  69  73
ENDBRANCH  52  66
BRANCH  53  77
ATOM     77  C   UNL A   1      38.797  30.109  30.898  1.00  0.00     0.023 A 
ATOM     78  C   UNL A   1      37.785  30.932  30.378  1.00  0.00     0.031 A 
ATOM     79  C   UNL A   1      38.681  29.693  32.236  1.00  0.00     0.131 A 
ATOM     80  C   UNL A   1      36.734  31.359  31.206  1.00  0.00     0.055 A 
ATOM     81  C   UNL A   1      37.601  30.067  33.037  1.00  0.00     0.041 A 
ATOM     82  F   UNL A   1      39.623  28.912  32.789  1.00  0.00    -0.206 F 
ATOM     83  C   UNL A   1      36.627  30.920  32.527  1.00  0.00     0.022 A 
BRANCH  80  84
ATOM     84  S   UNL A   1      35.566  32.589  30.563  1.00  0.00     0.124 S 
ATOM     85  O   UNL A   1      36.303  33.830  30.765  1.00  0.00    -0.237 OA
ATOM     86  O   UNL A   1      35.402  32.157  29.179  1.00  0.00    -0.237 OA
ATOM     87  O   UNL A   1      34.388  32.416  31.411  1.00  0.00    -0.744 OA
ENDBRANCH  80  84
ENDBRANCH  53  77
BRANCH  65  88
ATOM     88  C   UNL A   1      44.577  33.642  29.210  1.00  0.00     0.023 A 
ATOM     89  C   UNL A   1      45.343  33.998  30.335  1.00  0.00     0.031 A 
ATOM     90  C   UNL A   1      44.202  34.665  28.318  1.00  0.00     0.131 A 
ATOM     91  C   UNL A   1      45.654  35.346  30.571  1.00  0.00     0.055 A 
ATOM     92  C   UNL A   1      44.576  35.994  28.521  1.00  0.00     0.041 A 
ATOM     93  F   UNL A   1      43.468  34.386  27.229  1.00  0.00    -0.206 F 
ATOM     94  C   UNL A   1      45.293  36.343  29.662  1.00  0.00     0.022 A 
BRANCH  91  95
ATOM     95  S   UNL A   1      46.444  35.795  32.142  1.00  0.00     0.124 S 
ATOM     96  O   UNL A   1      47.210  36.978  31.768  1.00  0.00    -0.237 OA
ATOM     97  O   UNL A   1      45.295  36.028  33.012  1.00  0.00    -0.237 OA
ATOM     98  O   UNL A   1      47.242  34.616  32.473  1.00  0.00    -0.744 OA
ENDBRANCH  91  95
ENDBRANCH  65  88
ENDBRANCH  39  40
ENDBRANCH  32  34
ENDBRANCH  31  32
ENDBRANCH  30  31
ENDBRANCH  29  30
ENDBRANCH  28  29
ENDBRANCH  27  28
ENDBRANCH   1  27
TORSDOF 25
ENDMDL
MODEL 2
REMARK VINA RESULT:      -9.9      1.569      1.986
REMARK SMILES COc1ccc2c(c1)C=C(C(=O)OCCOCCOCCOCCOC(=O)c1ccc(-c3c4nc(c(-c5cc(S(=O)(=O)[O-])ccc5F)c5ccc([nH]5)c(-c5cc(S(=O)(=O)[O-])ccc5F)c5nc(c(-c6cc(S(=O)(=O)[O-])ccc6F)c6ccc3[nH]6)C=C5)C=C4)cc1)[C@H](C(F)(F)F)O2
REMARK SMILES IDX 20 1 19 2 18 3 17 4 16 5 15 6 14 7 13 8 11 9 12 10 10 11
REMARK SMILES IDX 3 12 4 13 8 14 5 15 7 16 6 17 9 18 96 19 91 20 2 21 1 22
REMARK SMILES IDX 92 23 93 24 94 25 95 26 21 27 22 28 23 29 24 30 25 31 26 32
REMARK SMILES IDX 27 33 28 34 29 35 90 36 30 37 89 38 31 39 32 40 33 41 83 42
REMARK SMILES IDX 34 43 88 44 82 45 84 46 35 47 87 48 81 49 80 50 36 52 68 53
REMARK SMILES IDX 48 54 67 55 49 56 52 57 66 58 85 59 50 60 51 61 65 63 86 64
REMARK SMILES IDX 53 65 37 66 38 67 46 68 39 69 45 70 47 71 44 72 40 73 41 74
REMARK SMILES IDX 42 75 43 76 69 77 70 78 78 79 71 80 77 81 79 82 76 83 72 84
REMARK SMILES IDX 73 85 74 86 75 87 54 88 55 89 63 90 56 91 62 92 64 93 61 94
REMARK SMILES IDX 57 95 58 96 59 97 60 98
REMARK H PARENT 84 51 52 62
REMARK Flexibility Score: inf
ROOT
ATOM      1  C   UNL A   1      34.100  19.854  24.763  1.00  0.00     0.188 C 
ENDROOT
BRANCH   1   2
ATOM      2  O   UNL A   1      33.512  21.128  25.018  1.00  0.00    -0.377 OA
BRANCH   2   3
ATOM      3  C   UNL A   1      33.065  21.919  23.933  1.00  0.00     0.188 C 
BRANCH   3   4
ATOM      4  C   UNL A   1      34.130  22.451  22.955  1.00  0.00     0.188 C 
BRANCH   4   5
ATOM      5  O   UNL A   1      33.751  23.637  22.279  1.00  0.00    -0.376 OA
BRANCH   5   6
ATOM      6  C   UNL A   1      33.872  24.873  22.962  1.00  0.00     0.202 C 
BRANCH   6   7
ATOM      7  C   UNL A   1      33.571  26.164  22.186  1.00  0.00     0.261 C 
BRANCH   7   8
ATOM      8  O   UNL A   1      33.883  27.385  22.871  1.00  0.00    -0.460 OA
BRANCH   8   9
ATOM      9  C   UNL A   1      33.287  27.611  24.062  1.00  0.00     0.338 C 
ATOM     10  O   UNL A   1      33.818  27.569  25.156  1.00  0.00    -0.246 OA
BRANCH   9  11
ATOM     11  C   UNL A   1      31.907  28.088  23.826  1.00  0.00     0.087 C 
ATOM     12  C   UNL A   1      28.615  30.610  21.353  1.00  0.00     0.119 A 
ATOM     13  C   UNL A   1      27.606  29.851  21.950  1.00  0.00     0.050 A 
ATOM     14  C   UNL A   1      29.956  30.352  21.671  1.00  0.00     0.058 A 
ATOM     15  C   UNL A   1      27.931  28.861  22.879  1.00  0.00     0.051 A 
ATOM     16  C   UNL A   1      30.287  29.349  22.586  1.00  0.00     0.021 A 
ATOM     17  C   UNL A   1      29.262  28.624  23.203  1.00  0.00     0.128 A 
ATOM     18  C   UNL A   1      31.672  28.953  22.824  1.00  0.00     0.027 C 
ATOM     19  O   UNL A   1      29.510  27.603  24.081  1.00  0.00    -0.475 OA
ATOM     20  C   UNL A   1      30.791  27.687  24.766  1.00  0.00     0.316 C 
BRANCH  12  21
ATOM     21  O   UNL A   1      28.422  31.577  20.406  1.00  0.00    -0.497 OA
ATOM     22  C   UNL A   1      27.620  32.689  20.786  1.00  0.00     0.278 C 
ENDBRANCH  12  21
BRANCH  20  23
ATOM     23  C   UNL A   1      30.950  26.417  25.620  1.00  0.00     0.430 C 
ATOM     24  F   UNL A   1      31.626  26.655  26.766  1.00  0.00    -0.167 F 
ATOM     25  F   UNL A   1      29.725  25.967  26.011  1.00  0.00    -0.167 F 
ATOM     26  F   UNL A   1      31.549  25.405  24.963  1.00  0.00    -0.167 F 
ENDBRANCH  20  23
ENDBRANCH   9  11
ENDBRANCH   8   9
ENDBRANCH   7   8
ENDBRANCH   6   7
ENDBRANCH   5   6
ENDBRANCH   4   5
ENDBRANCH   3   4
ENDBRANCH   2   3
ENDBRANCH   1   2
BRANCH   1  27
ATOM     27  C   UNL A   1      35.612  19.582  24.969  1.00  0.00     0.188 C 
BRANCH  27  28
ATOM     28  O   UNL A   1      36.482  20.566  24.425  1.00  0.00    -0.376 OA
BRANCH  28  29
ATOM     29  C   UNL A   1      37.637  20.892  25.178  1.00  0.00     0.202 C 
BRANCH  29  30
ATOM     30  C   UNL A   1      38.673  19.768  25.311  1.00  0.00     0.261 C 
BRANCH  30  31
ATOM     31  O   UNL A   1      39.472  19.797  26.504  1.00  0.00    -0.460 OA
BRANCH  31  32
ATOM     32  C   UNL A   1      40.781  20.103  26.358  1.00  0.00     0.338 C 
ATOM     33  O   UNL A   1      41.634  19.423  25.813  1.00  0.00    -0.246 OA
BRANCH  32  34
ATOM     34  C   UNL A   1      40.966  21.500  26.799  1.00  0.00     0.060 A 
ATOM     35  C   UNL A   1      40.377  22.534  26.058  1.00  0.00     0.016 A 
ATOM     36  C   UNL A   1      41.695  21.784  27.956  1.00  0.00     0.016 A 
ATOM     37  C   UNL A   1      40.542  23.860  26.459  1.00  0.00     0.010 A 
ATOM     38  C   UNL A   1      41.880  23.114  28.342  1.00  0.00     0.010 A 
ATOM     39  C   UNL A   1      41.330  24.159  27.578  1.00  0.00    -0.014 A 
BRANCH  39  40
ATOM     40  C   UNL A   1      41.748  25.561  27.831  1.00  0.00     0.031 A 
ATOM     41  C   UNL A   1      43.098  25.998  27.330  1.00  0.00     0.074 A 
ATOM     42  C   UNL A   1      40.944  26.431  28.467  1.00  0.00     0.049 A 
ATOM     43  N   UNL A   1      43.706  27.148  27.469  1.00  0.00    -0.248 NA
ATOM     44  C   UNL A   1      43.866  24.999  26.571  1.00  0.00     0.031 C 
ATOM     45  C   UNL A   1      39.597  26.136  28.955  1.00  0.00     0.029 A 
ATOM     46  N   UNL A   1      41.148  27.743  28.819  1.00  0.00    -0.354 N 
ATOM     47  C   UNL A   1      44.928  27.009  26.820  1.00  0.00     0.074 A 
ATOM     48  C   UNL A   1      44.989  25.652  26.321  1.00  0.00     0.031 C 
ATOM     49  C   UNL A   1      39.100  27.235  29.552  1.00  0.00     0.029 A 
ATOM     50  C   UNL A   1      40.106  28.297  29.527  1.00  0.00     0.049 A 
ATOM     51  H   UNL A   1      41.964  28.241  28.586  1.00  0.00     0.167 HD
ATOM     52  C   UNL A   1      45.906  27.932  26.650  1.00  0.00     0.034 A 
ATOM     53  C   UNL A   1      39.992  29.508  30.110  1.00  0.00     0.034 A 
ATOM     54  C   UNL A   1      45.836  29.276  27.166  1.00  0.00     0.049 A 
ATOM     55  C   UNL A   1      41.138  30.489  29.988  1.00  0.00     0.074 A 
ATOM     56  C   UNL A   1      46.763  30.295  27.040  1.00  0.00     0.029 A 
ATOM     57  N   UNL A   1      44.786  29.786  27.920  1.00  0.00    -0.354 N 
ATOM     58  N   UNL A   1      42.285  30.350  29.360  1.00  0.00    -0.248 NA
ATOM     59  C   UNL A   1      40.971  31.790  30.647  1.00  0.00     0.031 C 
ATOM     60  C   UNL A   1      46.315  31.390  27.786  1.00  0.00     0.029 A 
ATOM     61  C   UNL A   1      45.063  31.090  28.300  1.00  0.00     0.049 A 
ATOM     62  H   UNL A   1      43.967  29.293  28.152  1.00  0.00     0.167 HD
ATOM     63  C   UNL A   1      42.956  31.562  29.522  1.00  0.00     0.074 A 
ATOM     64  C   UNL A   1      42.078  32.422  30.288  1.00  0.00     0.031 C 
ATOM     65  C   UNL A   1      44.182  31.935  29.073  1.00  0.00     0.034 A 
BRANCH  52  66
ATOM     66  C   UNL A   1      47.155  27.496  25.924  1.00  0.00     0.023 A 
ATOM     67  C   UNL A   1      47.372  27.798  24.569  1.00  0.00     0.031 A 
ATOM     68  C   UNL A   1      48.138  26.749  26.598  1.00  0.00     0.131 A 
ATOM     69  C   UNL A   1      48.512  27.305  23.915  1.00  0.00     0.055 A 
ATOM     70  C   UNL A   1      49.309  26.330  25.963  1.00  0.00     0.041 A 
ATOM     71  F   UNL A   1      47.974  26.406  27.885  1.00  0.00    -0.206 F 
ATOM     72  C   UNL A   1      49.495  26.597  24.611  1.00  0.00     0.022 A 
BRANCH  69  73
ATOM     73  S   UNL A   1      48.627  27.485  22.114  1.00  0.00     0.124 S 
ATOM     74  O   UNL A   1      48.815  26.100  21.690  1.00  0.00    -0.237 OA
ATOM     75  O   UNL A   1      47.345  28.090  21.775  1.00  0.00    -0.237 OA
ATOM     76  O   UNL A   1      49.793  28.348  21.930  1.00  0.00    -0.744 OA
ENDBRANCH  69  73
ENDBRANCH  52  66
BRANCH  53  77
ATOM     77  C   UNL A   1      38.779  29.862  30.906  1.00  0.00     0.023 A 
ATOM     78  C   UNL A   1      37.750  30.645  30.359  1.00  0.00     0.031 A 
ATOM     79  C   UNL A   1      38.670  29.489  32.258  1.00  0.00     0.131 A 
ATOM     80  C   UNL A   1      36.689  31.078  31.171  1.00  0.00     0.055 A 
ATOM     81  C   UNL A   1      37.582  29.868  33.046  1.00  0.00     0.041 A 
ATOM     82  F   UNL A   1      39.628  28.748  32.838  1.00  0.00    -0.206 F 
ATOM     83  C   UNL A   1      36.590  30.682  32.507  1.00  0.00     0.022 A 
BRANCH  80  84
ATOM     84  S   UNL A   1      35.496  32.260  30.487  1.00  0.00     0.124 S 
ATOM     85  O   UNL A   1      35.099  31.598  29.251  1.00  0.00    -0.237 OA
ATOM     86  O   UNL A   1      34.488  32.316  31.540  1.00  0.00    -0.237 OA
ATOM     87  O   UNL A   1      36.284  33.479  30.317  1.00  0.00    -0.744 OA
ENDBRANCH  80  84
ENDBRANCH  53  77
BRANCH  65  88
ATOM     88  C   UNL A   1      44.623  33.352  29.358  1.00  0.00     0.023 A 
ATOM     89  C   UNL A   1      44.452  34.388  28.422  1.00  0.00     0.031 A 
ATOM     90  C   UNL A   1      45.235  33.669  30.585  1.00  0.00     0.131 A 
ATOM     91  C   UNL A   1      44.944  35.672  28.701  1.00  0.00     0.055 A 
ATOM     92  C   UNL A   1      45.658  34.965  30.886  1.00  0.00     0.041 A 
ATOM     93  F   UNL A   1      45.429  32.722  31.518  1.00  0.00    -0.206 F 
ATOM     94  C   UNL A   1      45.528  35.972  29.934  1.00  0.00     0.022 A 
BRANCH  91  95
ATOM     95  S   UNL A   1      44.910  36.922  27.387  1.00  0.00     0.124 S 
ATOM     96  O   UNL A   1      45.777  37.960  27.934  1.00  0.00    -0.237 OA
ATOM     97  O   UNL A   1      45.440  36.186  26.243  1.00  0.00    -0.237 OA
ATOM     98  O   UNL A   1      43.497  37.281  27.291  1.00  0.00    -0.744 OA
ENDBRANCH  91  95
ENDBRANCH  65  88
ENDBRANCH  39  40
ENDBRANCH  32  34
ENDBRANCH  31  32
ENDBRANCH  30  31
ENDBRANCH  29  30
ENDBRANCH  28  29
ENDBRANCH  27  28
ENDBRANCH   1  27
TORSDOF 25
ENDMDL
MODEL 3
REMARK VINA RESULT:      -9.8      2.226      2.999
REMARK SMILES COc1ccc2c(c1)C=C(C(=O)OCCOCCOCCOCCOC(=O)c1ccc(-c3c4nc(c(-c5cc(S(=O)(=O)[O-])ccc5F)c5ccc([nH]5)c(-c5cc(S(=O)(=O)[O-])ccc5F)c5nc(c(-c6cc(S(=O)(=O)[O-])ccc6F)c6ccc3[nH]6)C=C5)C=C4)cc1)[C@H](C(F)(F)F)O2
REMARK SMILES IDX 20 1 19 2 18 3 17 4 16 5 15 6 14 7 13 8 11 9 12 10 10 11
REMARK SMILES IDX 3 12 4 13 8 14 5 15 7 16 6 17 9 18 96 19 91 20 2 21 1 22
REMARK SMILES IDX 92 23 93 24 94 25 95 26 21 27 22 28 23 29 24 30 25 31 26 32
REMARK SMILES IDX 27 33 28 34 29 35 90 36 30 37 89 38 31 39 32 40 33 41 83 42
REMARK SMILES IDX 34 43 88 44 82 45 84 46 35 47 87 48 81 49 80 50 36 52 68 53
REMARK SMILES IDX 48 54 67 55 49 56 52 57 66 58 85 59 50 60 51 61 65 63 86 64
REMARK SMILES IDX 53 65 37 66 38 67 46 68 39 69 45 70 47 71 44 72 40 73 41 74
REMARK SMILES IDX 42 75 43 76 69 77 70 78 78 79 71 80 77 81 79 82 76 83 72 84
REMARK SMILES IDX 73 85 74 86 75 87 54 88 55 89 63 90 56 91 62 92 64 93 61 94
REMARK SMILES IDX 57 95 58 96 59 97 60 98
REMARK H PARENT 84 51 52 62
REMARK Flexibility Score: inf
ROOT
ATOM      1  C   UNL A   1      34.759  22.504  26.663  1.00  0.00     0.188 C 
ENDROOT
BRANCH   1   2
ATOM      2  O   UNL A   1      33.687  23.244  27.245  1.00  0.00    -0.377 OA
BRANCH   2   3
ATOM      3  C   UNL A   1      33.037  24.246  26.484  1.00  0.00     0.188 C 
BRANCH   3   4
ATOM      4  C   UNL A   1      31.508  24.362  26.620  1.00  0.00     0.188 C 
BRANCH   4   5
ATOM      5  O   UNL A   1      30.971  25.562  26.094  1.00  0.00    -0.376 OA
BRANCH   5   6
ATOM      6  C   UNL A   1      29.629  25.561  25.639  1.00  0.00     0.202 C 
BRANCH   6   7
ATOM      7  C   UNL A   1      29.302  26.312  24.340  1.00  0.00     0.261 C 
BRANCH   7   8
ATOM      8  O   UNL A   1      30.293  26.222  23.306  1.00  0.00    -0.460 OA
BRANCH   8   9
ATOM      9  C   UNL A   1      30.796  27.373  22.811  1.00  0.00     0.338 C 
ATOM     10  O   UNL A   1      30.377  27.992  21.851  1.00  0.00    -0.246 OA
BRANCH   9  11
ATOM     11  C   UNL A   1      31.848  27.870  23.724  1.00  0.00     0.087 C 
ATOM     12  C   UNL A   1      33.445  30.772  27.237  1.00  0.00     0.119 A 
ATOM     13  C   UNL A   1      34.516  29.903  27.449  1.00  0.00     0.050 A 
ATOM     14  C   UNL A   1      32.497  30.475  26.248  1.00  0.00     0.058 A 
ATOM     15  C   UNL A   1      34.657  28.759  26.660  1.00  0.00     0.051 A 
ATOM     16  C   UNL A   1      32.623  29.322  25.469  1.00  0.00     0.021 A 
ATOM     17  C   UNL A   1      33.723  28.481  25.669  1.00  0.00     0.128 A 
ATOM     18  C   UNL A   1      31.578  28.905  24.539  1.00  0.00     0.027 C 
ATOM     19  O   UNL A   1      33.896  27.317  24.970  1.00  0.00    -0.475 OA
ATOM     20  C   UNL A   1      33.244  27.285  23.669  1.00  0.00     0.316 C 
BRANCH  12  21
ATOM     21  O   UNL A   1      33.183  31.897  27.969  1.00  0.00    -0.497 OA
ATOM     22  C   UNL A   1      32.395  32.898  27.335  1.00  0.00     0.278 C 
ENDBRANCH  12  21
BRANCH  20  23
ATOM     23  C   UNL A   1      33.444  25.880  23.077  1.00  0.00     0.430 C 
ATOM     24  F   UNL A   1      34.563  25.284  23.547  1.00  0.00    -0.167 F 
ATOM     25  F   UNL A   1      32.418  25.068  23.458  1.00  0.00    -0.167 F 
ATOM     26  F   UNL A   1      33.476  25.868  21.731  1.00  0.00    -0.167 F 
ENDBRANCH  20  23
ENDBRANCH   9  11
ENDBRANCH   8   9
ENDBRANCH   7   8
ENDBRANCH   6   7
ENDBRANCH   5   6
ENDBRANCH   4   5
ENDBRANCH   3   4
ENDBRANCH   2   3
ENDBRANCH   1   2
BRANCH   1  27
ATOM     27  C   UNL A   1      34.522  21.221  25.827  1.00  0.00     0.188 C 
BRANCH  27  28
ATOM     28  O   UNL A   1      35.108  21.226  24.532  1.00  0.00    -0.376 OA
BRANCH  28  29
ATOM     29  C   UNL A   1      36.444  21.686  24.431  1.00  0.00     0.202 C 
BRANCH  29  30
ATOM     30  C   UNL A   1      37.521  20.670  24.832  1.00  0.00     0.261 C 
BRANCH  30  31
ATOM     31  O   UNL A   1      38.086  20.846  26.141  1.00  0.00    -0.460 OA
BRANCH  31  32
ATOM     32  C   UNL A   1      39.434  20.808  26.237  1.00  0.00     0.338 C 
ATOM     33  O   UNL A   1      40.174  19.944  25.798  1.00  0.00    -0.246 OA
BRANCH  32  34
ATOM     34  C   UNL A   1      39.879  22.101  26.796  1.00  0.00     0.060 A 
ATOM     35  C   UNL A   1      39.182  23.268  26.457  1.00  0.00     0.016 A 
ATOM     36  C   UNL A   1      40.964  22.153  27.673  1.00  0.00     0.016 A 
ATOM     37  C   UNL A   1      39.588  24.498  26.974  1.00  0.00     0.010 A 
ATOM     38  C   UNL A   1      41.385  23.389  28.171  1.00  0.00     0.010 A 
ATOM     39  C   UNL A   1      40.719  24.570  27.800  1.00  0.00    -0.014 A 
BRANCH  39  40
ATOM     40  C   UNL A   1      41.323  25.890  28.107  1.00  0.00     0.031 A 
ATOM     41  C   UNL A   1      42.724  26.157  27.625  1.00  0.00     0.074 A 
ATOM     42  C   UNL A   1      40.642  26.839  28.775  1.00  0.00     0.049 A 
ATOM     43  N   UNL A   1      43.483  27.206  27.808  1.00  0.00    -0.248 NA
ATOM     44  C   UNL A   1      43.352  25.091  26.828  1.00  0.00     0.031 C 
ATOM     45  C   UNL A   1      39.264  26.713  29.249  1.00  0.00     0.029 A 
ATOM     46  N   UNL A   1      41.022  28.096  29.176  1.00  0.00    -0.354 N 
ATOM     47  C   UNL A   1      44.679  26.925  27.156  1.00  0.00     0.074 A 
ATOM     48  C   UNL A   1      44.556  25.593  26.605  1.00  0.00     0.031 C 
ATOM     49  C   UNL A   1      38.919  27.846  29.886  1.00  0.00     0.029 A 
ATOM     50  C   UNL A   1      40.061  28.760  29.904  1.00  0.00     0.049 A 
ATOM     51  H   UNL A   1      41.900  28.486  28.964  1.00  0.00     0.167 HD
ATOM     52  C   UNL A   1      45.775  27.711  27.023  1.00  0.00     0.034 A 
ATOM     53  C   UNL A   1      40.111  29.952  30.533  1.00  0.00     0.034 A 
ATOM     54  C   UNL A   1      45.886  29.031  27.590  1.00  0.00     0.049 A 
ATOM     55  C   UNL A   1      41.381  30.770  30.450  1.00  0.00     0.074 A 
ATOM     56  C   UNL A   1      46.945  29.918  27.505  1.00  0.00     0.029 A 
ATOM     57  N   UNL A   1      44.912  29.652  28.362  1.00  0.00    -0.354 N 
ATOM     58  N   UNL A   1      42.502  30.500  29.819  1.00  0.00    -0.248 NA
ATOM     59  C   UNL A   1      41.390  32.057  31.158  1.00  0.00     0.031 C 
ATOM     60  C   UNL A   1      46.647  31.035  28.292  1.00  0.00     0.029 A 
ATOM     61  C   UNL A   1      45.362  30.890  28.792  1.00  0.00     0.049 A 
ATOM     62  H   UNL A   1      44.031  29.268  28.574  1.00  0.00     0.167 HD
ATOM     63  C   UNL A   1      43.332  31.601  30.028  1.00  0.00     0.074 A 
ATOM     64  C   UNL A   1      42.576  32.543  30.825  1.00  0.00     0.031 C 
ATOM     65  C   UNL A   1      44.601  31.818  29.596  1.00  0.00     0.034 A 
BRANCH  52  66
ATOM     66  C   UNL A   1      46.957  27.135  26.282  1.00  0.00     0.023 A 
ATOM     67  C   UNL A   1      47.995  26.460  26.947  1.00  0.00     0.031 A 
ATOM     68  C   UNL A   1      47.054  27.281  24.886  1.00  0.00     0.131 A 
ATOM     69  C   UNL A   1      49.112  26.009  26.226  1.00  0.00     0.055 A 
ATOM     70  C   UNL A   1      48.129  26.760  24.164  1.00  0.00     0.041 A 
ATOM     71  F   UNL A   1      46.107  27.941  24.200  1.00  0.00    -0.206 F 
ATOM     72  C   UNL A   1      49.172  26.130  24.835  1.00  0.00     0.022 A 
BRANCH  69  73
ATOM     73  S   UNL A   1      50.546  25.386  27.145  1.00  0.00     0.124 S 
ATOM     74  O   UNL A   1      49.964  24.260  27.871  1.00  0.00    -0.237 OA
ATOM     75  O   UNL A   1      51.480  25.045  26.079  1.00  0.00    -0.237 OA
ATOM     76  O   UNL A   1      50.937  26.520  27.979  1.00  0.00    -0.744 OA
ENDBRANCH  69  73
ENDBRANCH  52  66
BRANCH  53  77
ATOM     77  C   UNL A   1      38.952  30.440  31.340  1.00  0.00     0.023 A 
ATOM     78  C   UNL A   1      37.942  31.228  30.765  1.00  0.00     0.031 A 
ATOM     79  C   UNL A   1      38.882  30.191  32.723  1.00  0.00     0.131 A 
ATOM     80  C   UNL A   1      36.941  31.786  31.576  1.00  0.00     0.055 A 
ATOM     81  C   UNL A   1      37.849  30.695  33.515  1.00  0.00     0.041 A 
ATOM     82  F   UNL A   1      39.825  29.452  33.329  1.00  0.00    -0.206 F 
ATOM     83  C   UNL A   1      36.878  31.513  32.945  1.00  0.00     0.022 A 
BRANCH  80  84
ATOM     84  S   UNL A   1      35.781  32.969  30.836  1.00  0.00     0.124 S 
ATOM     85  O   UNL A   1      36.264  34.234  31.377  1.00  0.00    -0.237 OA
ATOM     86  O   UNL A   1      36.000  32.754  29.410  1.00  0.00    -0.237 OA
ATOM     87  O   UNL A   1      34.481  32.530  31.338  1.00  0.00    -0.744 OA
ENDBRANCH  80  84
ENDBRANCH  53  77
BRANCH  65  88
ATOM     88  C   UNL A   1      45.230  33.150  29.936  1.00  0.00     0.023 A 
ATOM     89  C   UNL A   1      46.013  33.330  31.090  1.00  0.00     0.031 A 
ATOM     90  C   UNL A   1      45.033  34.261  29.094  1.00  0.00     0.131 A 
ATOM     91  C   UNL A   1      46.516  34.603  31.403  1.00  0.00     0.055 A 
ATOM     92  C   UNL A   1      45.595  35.507  29.374  1.00  0.00     0.041 A 
ATOM     93  F   UNL A   1      44.292  34.151  27.979  1.00  0.00    -0.206 F 
ATOM     94  C   UNL A   1      46.328  35.687  30.543  1.00  0.00     0.022 A 
BRANCH  91  95
ATOM     95  S   UNL A   1      47.326  34.848  33.008  1.00  0.00     0.124 S 
ATOM     96  O   UNL A   1      46.188  34.872  33.920  1.00  0.00    -0.237 OA
ATOM     97  O   UNL A   1      48.193  33.678  33.101  1.00  0.00    -0.237 OA
ATOM     98  O   UNL A   1      48.022  36.123  32.849  1.00  0.00    -0.744 OA
ENDBRANCH  91  95
ENDBRANCH  65  88
ENDBRANCH  39  40
ENDBRANCH  32  34
ENDBRANCH  31  32
ENDBRANCH  30  31
ENDBRANCH  29  30
ENDBRANCH  28  29
ENDBRANCH  27  28
ENDBRANCH   1  27
TORSDOF 25
ENDMDL
