MODEL 1
REMARK VINA RESULT:      -9.0      0.000      0.000
REMARK SMILES O=C(OCCOCCOCCOCCOC(=O)[C@@H]1[C@H](C(=O)Nc2ccccc2OC(F)F)[C@@H]2C=C[C@H]1C2)c1ccc(-c2c3nc(c(-c4cc(S(=O)(=O)[O-])ccc4F)c4ccc([nH]4)c(-c4cc(S(=O)(=O)[O-])ccc4F)c4nc(c(-c5cc(S(=O)(=O)[O-])ccc5F)c5ccc2[nH]5)C=C4)C=C3)cc1
REMARK SMILES IDX 10 1 9 2 8 3 7 4 6 5 5 6 4 7 3 8 2 9 1 10 38 11 39 12 100 13
REMARK SMILES IDX 40 14 99 15 41 16 42 17 43 18 93 19 44 20 98 21 92 22 94 23
REMARK SMILES IDX 45 24 97 25 91 26 90 27 46 29 78 30 58 31 77 32 59 33 62 34
REMARK SMILES IDX 76 35 95 36 60 37 61 38 75 40 96 41 63 42 47 43 48 44 56 45
REMARK SMILES IDX 49 46 55 47 57 48 54 49 50 50 51 51 52 52 53 53 79 54 80 55
REMARK SMILES IDX 88 56 81 57 87 58 89 59 86 60 82 61 83 62 84 63 85 64 64 65
REMARK SMILES IDX 65 66 73 67 66 68 72 69 74 70 71 71 67 72 68 73 69 74 70 75
REMARK SMILES IDX 11 76 12 77 13 78 14 79 15 80 16 81 17 82 18 83 19 84 36 85
REMARK SMILES IDX 33 86 35 87 37 88 34 89 20 90 21 91 22 92 23 94 24 95 28 96
REMARK SMILES IDX 25 97 27 98 26 99 29 100 30 101 31 102 32 103
REMARK H PARENT 94 28 62 39 22 93
REMARK Flexibility Score: inf
ROOT
ATOM      1  C   UNL A   1      33.140  33.588  27.884  1.00  0.00     0.188 C 
ENDROOT
BRANCH   1   2
ATOM      2  O   UNL A   1      32.542  34.664  28.598  1.00  0.00    -0.377 OA
BRANCH   2   3
ATOM      3  C   UNL A   1      33.275  35.073  29.746  1.00  0.00     0.188 C 
BRANCH   3   4
ATOM      4  C   UNL A   1      34.655  34.420  29.827  1.00  0.00     0.188 C 
BRANCH   4   5
ATOM      5  O   UNL A   1      34.905  33.697  31.031  1.00  0.00    -0.376 OA
BRANCH   5   6
ATOM      6  C   UNL A   1      35.853  32.642  31.022  1.00  0.00     0.202 C 
BRANCH   6   7
ATOM      7  C   UNL A   1      35.921  31.719  32.254  1.00  0.00     0.261 C 
BRANCH   7   8
ATOM      8  O   UNL A   1      36.611  30.479  32.027  1.00  0.00    -0.460 OA
BRANCH   8   9
ATOM      9  C   UNL A   1      37.818  30.097  32.512  1.00  0.00     0.338 C 
ATOM     10  O   UNL A   1      37.869  29.558  33.614  1.00  0.00    -0.246 OA
BRANCH   9  11
ATOM     11  C   UNL A   1      39.098  30.551  31.873  1.00  0.00     0.060 A 
ATOM     12  C   UNL A   1      40.267  30.869  32.567  1.00  0.00     0.016 A 
ATOM     13  C   UNL A   1      39.154  30.550  30.467  1.00  0.00     0.016 A 
ATOM     14  C   UNL A   1      41.478  31.040  31.922  1.00  0.00     0.010 A 
ATOM     15  C   UNL A   1      40.347  30.841  29.795  1.00  0.00     0.010 A 
ATOM     16  C   UNL A   1      41.508  31.088  30.534  1.00  0.00    -0.014 A 
BRANCH  16  17
ATOM     17  C   UNL A   1      42.677  31.777  29.973  1.00  0.00     0.031 A 
ATOM     18  C   UNL A   1      43.772  30.882  29.465  1.00  0.00     0.074 A 
ATOM     19  C   UNL A   1      42.627  33.090  29.697  1.00  0.00     0.049 A 
ATOM     20  N   UNL A   1      44.895  31.186  28.883  1.00  0.00    -0.248 NA
ATOM     21  C   UNL A   1      43.537  29.430  29.597  1.00  0.00     0.031 C 
ATOM     22  C   UNL A   1      41.487  33.968  29.971  1.00  0.00     0.029 A 
ATOM     23  N   UNL A   1      43.538  33.904  29.085  1.00  0.00    -0.354 N 
ATOM     24  C   UNL A   1      45.496  29.969  28.577  1.00  0.00     0.074 A 
ATOM     25  C   UNL A   1      44.620  28.922  29.040  1.00  0.00     0.031 C 
ATOM     26  C   UNL A   1      41.776  35.206  29.533  1.00  0.00     0.029 A 
ATOM     27  C   UNL A   1      43.138  35.219  29.007  1.00  0.00     0.049 A 
ATOM     28  H   UNL A   1      44.399  33.582  28.734  1.00  0.00     0.167 HD
ATOM     29  C   UNL A   1      46.686  29.755  27.974  1.00  0.00     0.034 A 
ATOM     30  C   UNL A   1      43.833  36.298  28.599  1.00  0.00     0.034 A 
ATOM     31  C   UNL A   1      47.551  30.840  27.600  1.00  0.00     0.049 A 
ATOM     32  C   UNL A   1      45.242  36.053  28.103  1.00  0.00     0.074 A 
ATOM     33  C   UNL A   1      48.857  30.806  27.159  1.00  0.00     0.029 A 
ATOM     34  N   UNL A   1      47.174  32.181  27.647  1.00  0.00    -0.354 N 
ATOM     35  N   UNL A   1      45.874  34.908  27.945  1.00  0.00    -0.248 NA
ATOM     36  C   UNL A   1      46.034  37.231  27.741  1.00  0.00     0.031 C 
ATOM     37  C   UNL A   1      49.287  32.128  26.990  1.00  0.00     0.029 A 
ATOM     38  C   UNL A   1      48.226  32.984  27.255  1.00  0.00     0.049 A 
ATOM     39  H   UNL A   1      46.286  32.507  27.918  1.00  0.00     0.167 HD
ATOM     40  C   UNL A   1      47.132  35.230  27.447  1.00  0.00     0.074 A 
ATOM     41  C   UNL A   1      47.156  36.675  27.307  1.00  0.00     0.031 C 
ATOM     42  C   UNL A   1      48.183  34.424  27.140  1.00  0.00     0.034 A 
BRANCH  29  43
ATOM     43  C   UNL A   1      47.122  28.318  27.842  1.00  0.00     0.023 A 
ATOM     44  C   UNL A   1      46.773  27.541  26.719  1.00  0.00     0.031 A 
ATOM     45  C   UNL A   1      47.755  27.673  28.918  1.00  0.00     0.131 A 
ATOM     46  C   UNL A   1      46.978  26.151  26.741  1.00  0.00     0.055 A 
ATOM     47  C   UNL A   1      48.032  26.304  28.896  1.00  0.00     0.041 A 
ATOM     48  F   UNL A   1      48.068  28.352  30.033  1.00  0.00    -0.206 F 
ATOM     49  C   UNL A   1      47.626  25.532  27.811  1.00  0.00     0.022 A 
BRANCH  46  50
ATOM     50  S   UNL A   1      46.226  25.147  25.429  1.00  0.00     0.124 S 
ATOM     51  O   UNL A   1      46.022  23.869  26.118  1.00  0.00    -0.237 OA
ATOM     52  O   UNL A   1      45.031  25.890  25.097  1.00  0.00    -0.237 OA
ATOM     53  O   UNL A   1      47.261  25.117  24.388  1.00  0.00    -0.744 OA
ENDBRANCH  46  50
ENDBRANCH  29  43
BRANCH  30  54
ATOM     54  C   UNL A   1      43.277  37.680  28.734  1.00  0.00     0.023 A 
ATOM     55  C   UNL A   1      43.550  38.486  29.851  1.00  0.00     0.031 A 
ATOM     56  C   UNL A   1      42.381  38.189  27.772  1.00  0.00     0.131 A 
ATOM     57  C   UNL A   1      42.903  39.727  30.002  1.00  0.00     0.055 A 
ATOM     58  C   UNL A   1      41.789  39.448  27.894  1.00  0.00     0.041 A 
ATOM     59  F   UNL A   1      42.060  37.463  26.688  1.00  0.00    -0.206 F 
ATOM     60  C   UNL A   1      42.037  40.218  29.023  1.00  0.00     0.022 A 
BRANCH  57  61
ATOM     61  S   UNL A   1      43.113  40.641  31.557  1.00  0.00     0.124 S 
ATOM     62  O   UNL A   1      44.144  41.607  31.197  1.00  0.00    -0.237 OA
ATOM     63  O   UNL A   1      41.774  41.179  31.773  1.00  0.00    -0.237 OA
ATOM     64  O   UNL A   1      43.528  39.608  32.504  1.00  0.00    -0.744 OA
ENDBRANCH  57  61
ENDBRANCH  30  54
BRANCH  42  65
ATOM     65  C   UNL A   1      49.407  35.102  26.590  1.00  0.00     0.023 A 
ATOM     66  C   UNL A   1      50.481  35.458  27.421  1.00  0.00     0.031 A 
ATOM     67  C   UNL A   1      49.493  35.395  25.218  1.00  0.00     0.131 A 
ATOM     68  C   UNL A   1      51.575  36.144  26.880  1.00  0.00     0.055 A 
ATOM     69  C   UNL A   1      50.613  36.021  24.676  1.00  0.00     0.041 A 
ATOM     70  F   UNL A   1      48.491  35.068  24.386  1.00  0.00    -0.206 F 
ATOM     71  C   UNL A   1      51.656  36.413  25.511  1.00  0.00     0.022 A 
BRANCH  68  72
ATOM     72  S   UNL A   1      52.848  36.764  28.009  1.00  0.00     0.124 S 
ATOM     73  O   UNL A   1      52.928  38.172  27.632  1.00  0.00    -0.237 OA
ATOM     74  O   UNL A   1      52.266  36.489  29.319  1.00  0.00    -0.237 OA
ATOM     75  O   UNL A   1      54.024  35.963  27.673  1.00  0.00    -0.744 OA
ENDBRANCH  68  72
ENDBRANCH  42  65
ENDBRANCH  16  17
ENDBRANCH   9  11
ENDBRANCH   8   9
ENDBRANCH   7   8
ENDBRANCH   6   7
ENDBRANCH   5   6
ENDBRANCH   4   5
ENDBRANCH   3   4
ENDBRANCH   2   3
ENDBRANCH   1   2
BRANCH   1  76
ATOM     76  C   UNL A   1      32.055  32.637  27.397  1.00  0.00     0.188 C 
BRANCH  76  77
ATOM     77  O   UNL A   1      32.546  31.595  26.558  1.00  0.00    -0.376 OA
BRANCH  77  78
ATOM     78  C   UNL A   1      32.503  30.263  27.083  1.00  0.00     0.202 C 
BRANCH  78  79
ATOM     79  C   UNL A   1      33.685  29.342  26.711  1.00  0.00     0.261 C 
BRANCH  79  80
ATOM     80  O   UNL A   1      33.526  27.920  27.009  1.00  0.00    -0.463 OA
BRANCH  80  81
ATOM     81  C   UNL A   1      33.471  27.059  25.973  1.00  0.00     0.310 C 
ATOM     82  O   UNL A   1      34.159  26.032  25.956  1.00  0.00    -0.252 OA
BRANCH  81  83
ATOM     83  C   UNL A   1      32.655  27.399  24.701  1.00  0.00     0.119 C 
ATOM     84  C   UNL A   1      31.272  27.198  23.924  1.00  0.00     0.100 C 
ATOM     85  C   UNL A   1      33.643  27.737  23.525  1.00  0.00     0.027 C 
ATOM     86  C   UNL A   1      31.687  27.541  22.445  1.00  0.00     0.025 C 
ATOM     87  C   UNL A   1      33.773  26.594  22.554  1.00  0.00    -0.027 C 
ATOM     88  C   UNL A   1      32.748  28.634  22.659  1.00  0.00     0.017 C 
ATOM     89  C   UNL A   1      32.610  26.490  21.895  1.00  0.00    -0.027 C 
BRANCH  84  90
ATOM     90  C   UNL A   1      29.941  26.358  23.926  1.00  0.00     0.229 C 
ATOM     91  O   UNL A   1      28.871  26.986  23.810  1.00  0.00    -0.274 OA
ATOM     92  N   UNL A   1      29.791  25.005  23.793  1.00  0.00    -0.323 N 
ATOM     93  H   UNL A   1      28.889  24.703  23.536  1.00  0.00     0.170 HD
BRANCH  92  94
ATOM     94  C   UNL A   1      30.728  23.999  23.968  1.00  0.00     0.084 A 
ATOM     95  C   UNL A   1      31.300  23.345  22.872  1.00  0.00     0.030 A 
ATOM     96  C   UNL A   1      31.193  23.744  25.223  1.00  0.00     0.149 A 
ATOM     97  C   UNL A   1      32.546  22.731  23.020  1.00  0.00     0.002 A 
ATOM     98  C   UNL A   1      32.503  23.360  25.321  1.00  0.00     0.049 A 
ATOM     99  C   UNL A   1      33.200  22.845  24.234  1.00  0.00     0.004 A 
BRANCH  96 100
ATOM    100  O   UNL A   1      30.517  23.966  26.366  1.00  0.00    -0.433 OA
BRANCH 100 101
ATOM    101  C   UNL A   1      30.007  22.853  27.104  1.00  0.00     0.542 C 
ATOM    102  F   UNL A   1      28.888  23.246  27.762  1.00  0.00    -0.167 F 
ATOM    103  F   UNL A   1      29.680  21.806  26.310  1.00  0.00    -0.167 F 
ENDBRANCH 100 101
ENDBRANCH  96 100
ENDBRANCH  92  94
ENDBRANCH  84  90
ENDBRANCH  81  83
ENDBRANCH  80  81
ENDBRANCH  79  80
ENDBRANCH  78  79
ENDBRANCH  77  78
ENDBRANCH  76  77
ENDBRANCH   1  76
TORSDOF 27
ENDMDL
MODEL 2
REMARK VINA RESULT:      -8.7      1.960      2.167
REMARK SMILES O=C(OCCOCCOCCOCCOC(=O)[C@@H]1[C@H](C(=O)Nc2ccccc2OC(F)F)[C@@H]2C=C[C@H]1C2)c1ccc(-c2c3nc(c(-c4cc(S(=O)(=O)[O-])ccc4F)c4ccc([nH]4)c(-c4cc(S(=O)(=O)[O-])ccc4F)c4nc(c(-c5cc(S(=O)(=O)[O-])ccc5F)c5ccc2[nH]5)C=C4)C=C3)cc1
REMARK SMILES IDX 10 1 9 2 8 3 7 4 6 5 5 6 4 7 3 8 2 9 1 10 38 11 39 12 100 13
REMARK SMILES IDX 40 14 99 15 41 16 42 17 43 18 93 19 44 20 98 21 92 22 94 23
REMARK SMILES IDX 45 24 97 25 91 26 90 27 46 29 78 30 58 31 77 32 59 33 62 34
REMARK SMILES IDX 76 35 95 36 60 37 61 38 75 40 96 41 63 42 47 43 48 44 56 45
REMARK SMILES IDX 49 46 55 47 57 48 54 49 50 50 51 51 52 52 53 53 79 54 80 55
REMARK SMILES IDX 88 56 81 57 87 58 89 59 86 60 82 61 83 62 84 63 85 64 64 65
REMARK SMILES IDX 65 66 73 67 66 68 72 69 74 70 71 71 67 72 68 73 69 74 70 75
REMARK SMILES IDX 11 76 12 77 13 78 14 79 15 80 16 81 17 82 18 83 19 84 36 85
REMARK SMILES IDX 33 86 35 87 37 88 34 89 20 90 21 91 22 92 23 94 24 95 28 96
REMARK SMILES IDX 25 97 27 98 26 99 29 100 30 101 31 102 32 103
REMARK H PARENT 94 28 62 39 22 93
REMARK Flexibility Score: inf
ROOT
ATOM      1  C   UNL A   1      33.032  33.278  27.891  1.00  0.00     0.188 C 
ENDROOT
BRANCH   1   2
ATOM      2  O   UNL A   1      32.611  34.515  28.454  1.00  0.00    -0.377 OA
BRANCH   2   3
ATOM      3  C   UNL A   1      33.315  34.883  29.633  1.00  0.00     0.188 C 
BRANCH   3   4
ATOM      4  C   UNL A   1      34.704  34.246  29.712  1.00  0.00     0.188 C 
BRANCH   4   5
ATOM      5  O   UNL A   1      34.969  33.538  30.922  1.00  0.00    -0.376 OA
BRANCH   5   6
ATOM      6  C   UNL A   1      35.912  32.479  30.912  1.00  0.00     0.202 C 
BRANCH   6   7
ATOM      7  C   UNL A   1      35.927  31.513  32.113  1.00  0.00     0.261 C 
BRANCH   7   8
ATOM      8  O   UNL A   1      36.817  30.395  31.961  1.00  0.00    -0.460 OA
BRANCH   8   9
ATOM      9  C   UNL A   1      38.023  30.205  32.551  1.00  0.00     0.338 C 
ATOM     10  O   UNL A   1      38.057  29.816  33.715  1.00  0.00    -0.246 OA
BRANCH   9  11
ATOM     11  C   UNL A   1      39.290  30.707  31.922  1.00  0.00     0.060 A 
ATOM     12  C   UNL A   1      40.397  31.181  32.628  1.00  0.00     0.016 A 
ATOM     13  C   UNL A   1      39.410  30.587  30.525  1.00  0.00     0.016 A 
ATOM     14  C   UNL A   1      41.619  31.396  32.016  1.00  0.00     0.010 A 
ATOM     15  C   UNL A   1      40.604  30.917  29.875  1.00  0.00     0.010 A 
ATOM     16  C   UNL A   1      41.707  31.325  30.632  1.00  0.00    -0.014 A 
BRANCH  16  17
ATOM     17  C   UNL A   1      42.842  32.057  30.055  1.00  0.00     0.031 A 
ATOM     18  C   UNL A   1      43.978  31.205  29.564  1.00  0.00     0.074 A 
ATOM     19  C   UNL A   1      42.729  33.361  29.752  1.00  0.00     0.049 A 
ATOM     20  N   UNL A   1      45.085  31.551  28.973  1.00  0.00    -0.248 NA
ATOM     21  C   UNL A   1      43.813  29.747  29.725  1.00  0.00     0.031 C 
ATOM     22  C   UNL A   1      41.548  34.188  30.011  1.00  0.00     0.029 A 
ATOM     23  N   UNL A   1      43.600  34.205  29.123  1.00  0.00    -0.354 N 
ATOM     24  C   UNL A   1      45.744  30.358  28.692  1.00  0.00     0.074 A 
ATOM     25  C   UNL A   1      44.919  29.280  29.177  1.00  0.00     0.031 C 
ATOM     26  C   UNL A   1      41.777  35.429  29.547  1.00  0.00     0.029 A 
ATOM     27  C   UNL A   1      43.136  35.497  29.019  1.00  0.00     0.049 A 
ATOM     28  H   UNL A   1      44.474  33.917  28.777  1.00  0.00     0.167 HD
ATOM     29  C   UNL A   1      46.942  30.189  28.091  1.00  0.00     0.034 A 
ATOM     30  C   UNL A   1      43.779  36.600  28.588  1.00  0.00     0.034 A 
ATOM     31  C   UNL A   1      47.754  31.307  27.694  1.00  0.00     0.049 A 
ATOM     32  C   UNL A   1      45.197  36.413  28.095  1.00  0.00     0.074 A 
ATOM     33  C   UNL A   1      49.060  31.326  27.252  1.00  0.00     0.029 A 
ATOM     34  N   UNL A   1      47.313  32.629  27.714  1.00  0.00    -0.354 N 
ATOM     35  N   UNL A   1      45.884  35.296  27.959  1.00  0.00    -0.248 NA
ATOM     36  C   UNL A   1      45.932  37.620  27.708  1.00  0.00     0.031 C 
ATOM     37  C   UNL A   1      49.426  32.665  27.056  1.00  0.00     0.029 A 
ATOM     38  C   UNL A   1      48.324  33.474  27.305  1.00  0.00     0.049 A 
ATOM     39  H   UNL A   1      46.411  32.917  27.980  1.00  0.00     0.167 HD
ATOM     40  C   UNL A   1      47.124  35.668  27.453  1.00  0.00     0.074 A 
ATOM     41  C   UNL A   1      47.078  37.109  27.283  1.00  0.00     0.031 C 
ATOM     42  C   UNL A   1      48.212  34.907  27.161  1.00  0.00     0.034 A 
BRANCH  29  43
ATOM     43  C   UNL A   1      47.447  28.772  27.988  1.00  0.00     0.023 A 
ATOM     44  C   UNL A   1      48.365  28.247  28.919  1.00  0.00     0.031 A 
ATOM     45  C   UNL A   1      47.131  27.994  26.862  1.00  0.00     0.131 A 
ATOM     46  C   UNL A   1      49.001  27.022  28.656  1.00  0.00     0.055 A 
ATOM     47  C   UNL A   1      47.705  26.737  26.652  1.00  0.00     0.041 A 
ATOM     48  F   UNL A   1      46.300  28.462  25.919  1.00  0.00    -0.206 F 
ATOM     49  C   UNL A   1      48.660  26.253  27.542  1.00  0.00     0.022 A 
BRANCH  46  50
ATOM     50  S   UNL A   1      50.405  26.536  29.701  1.00  0.00     0.124 S 
ATOM     51  O   UNL A   1      50.278  27.477  30.818  1.00  0.00    -0.237 OA
ATOM     52  O   UNL A   1      50.121  25.150  29.999  1.00  0.00    -0.237 OA
ATOM     53  O   UNL A   1      51.569  26.771  28.837  1.00  0.00    -0.744 OA
ENDBRANCH  46  50
ENDBRANCH  29  43
BRANCH  30  54
ATOM     54  C   UNL A   1      43.156  37.956  28.696  1.00  0.00     0.023 A 
ATOM     55  C   UNL A   1      42.368  38.496  27.667  1.00  0.00     0.031 A 
ATOM     56  C   UNL A   1      43.416  38.776  29.813  1.00  0.00     0.131 A 
ATOM     57  C   UNL A   1      41.911  39.825  27.752  1.00  0.00     0.055 A 
ATOM     58  C   UNL A   1      42.908  40.072  29.921  1.00  0.00     0.041 A 
ATOM     59  F   UNL A   1      44.178  38.329  30.824  1.00  0.00    -0.206 F 
ATOM     60  C   UNL A   1      42.163  40.609  28.879  1.00  0.00     0.022 A 
BRANCH  57  61
ATOM     61  S   UNL A   1      41.082  40.560  26.313  1.00  0.00     0.124 S 
ATOM     62  O   UNL A   1      42.159  41.342  25.717  1.00  0.00    -0.237 OA
ATOM     63  O   UNL A   1      40.659  39.376  25.572  1.00  0.00    -0.237 OA
ATOM     64  O   UNL A   1      39.999  41.340  26.908  1.00  0.00    -0.744 OA
ENDBRANCH  57  61
ENDBRANCH  30  54
BRANCH  42  65
ATOM     65  C   UNL A   1      49.402  35.632  26.595  1.00  0.00     0.023 A 
ATOM     66  C   UNL A   1      50.356  36.235  27.430  1.00  0.00     0.031 A 
ATOM     67  C   UNL A   1      49.578  35.718  25.203  1.00  0.00     0.131 A 
ATOM     68  C   UNL A   1      51.415  36.954  26.863  1.00  0.00     0.055 A 
ATOM     69  C   UNL A   1      50.669  36.380  24.647  1.00  0.00     0.041 A 
ATOM     70  F   UNL A   1      48.693  35.152  24.367  1.00  0.00    -0.206 F 
ATOM     71  C   UNL A   1      51.588  37.016  25.478  1.00  0.00     0.022 A 
BRANCH  68  72
ATOM     72  S   UNL A   1      52.511  37.886  27.964  1.00  0.00     0.124 S 
ATOM     73  O   UNL A   1      52.570  39.186  27.302  1.00  0.00    -0.237 OA
ATOM     74  O   UNL A   1      51.788  37.850  29.230  1.00  0.00    -0.237 OA
ATOM     75  O   UNL A   1      53.755  37.119  27.938  1.00  0.00    -0.744 OA
ENDBRANCH  68  72
ENDBRANCH  42  65
ENDBRANCH  16  17
ENDBRANCH   9  11
ENDBRANCH   8   9
ENDBRANCH   7   8
ENDBRANCH   6   7
ENDBRANCH   5   6
ENDBRANCH   4   5
ENDBRANCH   3   4
ENDBRANCH   2   3
ENDBRANCH   1   2
BRANCH   1  76
ATOM     76  C   UNL A   1      31.869  32.636  27.147  1.00  0.00     0.188 C 
BRANCH  76  77
ATOM     77  O   UNL A   1      32.234  31.465  26.421  1.00  0.00    -0.376 OA
BRANCH  77  78
ATOM     78  C   UNL A   1      32.645  30.326  27.186  1.00  0.00     0.202 C 
BRANCH  78  79
ATOM     79  C   UNL A   1      33.661  29.378  26.513  1.00  0.00     0.261 C 
BRANCH  79  80
ATOM     80  O   UNL A   1      33.622  27.977  26.926  1.00  0.00    -0.463 OA
BRANCH  80  81
ATOM     81  C   UNL A   1      33.410  27.044  25.976  1.00  0.00     0.310 C 
ATOM     82  O   UNL A   1      34.037  25.978  25.974  1.00  0.00    -0.252 OA
BRANCH  81  83
ATOM     83  C   UNL A   1      32.481  27.334  24.771  1.00  0.00     0.119 C 
ATOM     84  C   UNL A   1      31.153  26.903  23.991  1.00  0.00     0.100 C 
ATOM     85  C   UNL A   1      33.307  28.047  23.639  1.00  0.00     0.027 C 
ATOM     86  C   UNL A   1      31.408  27.521  22.566  1.00  0.00     0.025 C 
ATOM     87  C   UNL A   1      33.662  27.101  22.522  1.00  0.00    -0.027 C 
ATOM     88  C   UNL A   1      32.186  28.802  22.911  1.00  0.00     0.017 C 
ATOM     89  C   UNL A   1      32.530  26.803  21.869  1.00  0.00    -0.027 C 
BRANCH  84  90
ATOM     90  C   UNL A   1      30.062  25.772  23.898  1.00  0.00     0.229 C 
ATOM     91  O   UNL A   1      28.869  26.131  23.889  1.00  0.00    -0.274 OA
ATOM     92  N   UNL A   1      30.232  24.453  23.579  1.00  0.00    -0.323 N 
ATOM     93  H   UNL A   1      29.417  23.978  23.297  1.00  0.00     0.170 HD
BRANCH  92  94
ATOM     94  C   UNL A   1      31.390  23.691  23.595  1.00  0.00     0.084 A 
ATOM     95  C   UNL A   1      32.297  23.732  22.531  1.00  0.00     0.030 A 
ATOM     96  C   UNL A   1      31.707  23.000  24.726  1.00  0.00     0.149 A 
ATOM     97  C   UNL A   1      33.631  23.385  22.761  1.00  0.00     0.002 A 
ATOM     98  C   UNL A   1      33.039  22.890  25.018  1.00  0.00     0.049 A 
ATOM     99  C   UNL A   1      34.020  23.072  24.051  1.00  0.00     0.004 A 
BRANCH  96 100
ATOM    100  O   UNL A   1      30.825  22.541  25.633  1.00  0.00    -0.433 OA
BRANCH 100 101
ATOM    101  C   UNL A   1      30.700  23.214  26.888  1.00  0.00     0.542 C 
ATOM    102  F   UNL A   1      31.077  24.507  26.726  1.00  0.00    -0.167 F 
ATOM    103  F   UNL A   1      29.430  23.205  27.361  1.00  0.00    -0.167 F 
ENDBRANCH 100 101
ENDBRANCH  96 100
ENDBRANCH  92  94
ENDBRANCH  84  90
ENDBRANCH  81  83
ENDBRANCH  80  81
ENDBRANCH  79  80
ENDBRANCH  78  79
ENDBRANCH  77  78
ENDBRANCH  76  77
ENDBRANCH   1  76
TORSDOF 27
ENDMDL
MODEL 3
REMARK VINA RESULT:      -8.6      5.644     10.104
REMARK SMILES O=C(OCCOCCOCCOCCOC(=O)[C@@H]1[C@H](C(=O)Nc2ccccc2OC(F)F)[C@@H]2C=C[C@H]1C2)c1ccc(-c2c3nc(c(-c4cc(S(=O)(=O)[O-])ccc4F)c4ccc([nH]4)c(-c4cc(S(=O)(=O)[O-])ccc4F)c4nc(c(-c5cc(S(=O)(=O)[O-])ccc5F)c5ccc2[nH]5)C=C4)C=C3)cc1
REMARK SMILES IDX 10 1 9 2 8 3 7 4 6 5 5 6 4 7 3 8 2 9 1 10 38 11 39 12 100 13
REMARK SMILES IDX 40 14 99 15 41 16 42 17 43 18 93 19 44 20 98 21 92 22 94 23
REMARK SMILES IDX 45 24 97 25 91 26 90 27 46 29 78 30 58 31 77 32 59 33 62 34
REMARK SMILES IDX 76 35 95 36 60 37 61 38 75 40 96 41 63 42 47 43 48 44 56 45
REMARK SMILES IDX 49 46 55 47 57 48 54 49 50 50 51 51 52 52 53 53 79 54 80 55
REMARK SMILES IDX 88 56 81 57 87 58 89 59 86 60 82 61 83 62 84 63 85 64 64 65
REMARK SMILES IDX 65 66 73 67 66 68 72 69 74 70 71 71 67 72 68 73 69 74 70 75
REMARK SMILES IDX 11 76 12 77 13 78 14 79 15 80 16 81 17 82 18 83 19 84 36 85
REMARK SMILES IDX 33 86 35 87 37 88 34 89 20 90 21 91 22 92 23 94 24 95 28 96
REMARK SMILES IDX 25 97 27 98 26 99 29 100 30 101 31 102 32 103
REMARK H PARENT 94 28 62 39 22 93
REMARK Flexibility Score: inf
ROOT
ATOM      1  C   UNL A   1      41.099  24.245  28.199  1.00  0.00     0.188 C 
ENDROOT
BRANCH   1   2
ATOM      2  O   UNL A   1      42.340  24.167  27.509  1.00  0.00    -0.377 OA
BRANCH   2   3
ATOM      3  C   UNL A   1      43.445  24.668  28.250  1.00  0.00     0.188 C 
BRANCH   3   4
ATOM      4  C   UNL A   1      44.482  23.588  28.564  1.00  0.00     0.188 C 
BRANCH   4   5
ATOM      5  O   UNL A   1      45.665  23.646  27.768  1.00  0.00    -0.376 OA
BRANCH   5   6
ATOM      6  C   UNL A   1      45.614  23.213  26.419  1.00  0.00     0.202 C 
BRANCH   6   7
ATOM      7  C   UNL A   1      45.024  24.176  25.371  1.00  0.00     0.261 C 
BRANCH   7   8
ATOM      8  O   UNL A   1      46.005  24.946  24.656  1.00  0.00    -0.460 OA
BRANCH   8   9
ATOM      9  C   UNL A   1      46.268  26.270  24.771  1.00  0.00     0.338 C 
ATOM     10  O   UNL A   1      47.136  26.766  24.057  1.00  0.00    -0.246 OA
BRANCH   9  11
ATOM     11  C   UNL A   1      45.729  27.080  25.915  1.00  0.00     0.060 A 
ATOM     12  C   UNL A   1      44.469  27.682  25.940  1.00  0.00     0.016 A 
ATOM     13  C   UNL A   1      46.506  27.142  27.086  1.00  0.00     0.016 A 
ATOM     14  C   UNL A   1      43.930  28.201  27.104  1.00  0.00     0.010 A 
ATOM     15  C   UNL A   1      46.021  27.772  28.238  1.00  0.00     0.010 A 
ATOM     16  C   UNL A   1      44.727  28.303  28.236  1.00  0.00    -0.014 A 
BRANCH  16  17
ATOM     17  C   UNL A   1      44.277  29.304  29.211  1.00  0.00     0.031 A 
ATOM     18  C   UNL A   1      43.942  28.772  30.576  1.00  0.00     0.074 A 
ATOM     19  C   UNL A   1      44.425  30.615  28.959  1.00  0.00     0.049 A 
ATOM     20  N   UNL A   1      43.563  29.406  31.648  1.00  0.00    -0.248 NA
ATOM     21  C   UNL A   1      44.104  27.317  30.763  1.00  0.00     0.031 C 
ATOM     22  C   UNL A   1      44.960  31.182  27.719  1.00  0.00     0.029 A 
ATOM     23  N   UNL A   1      44.181  31.704  29.748  1.00  0.00    -0.354 N 
ATOM     24  C   UNL A   1      43.446  28.430  32.633  1.00  0.00     0.074 A 
ATOM     25  C   UNL A   1      43.788  27.164  32.035  1.00  0.00     0.031 C 
ATOM     26  C   UNL A   1      44.995  32.521  27.832  1.00  0.00     0.029 A 
ATOM     27  C   UNL A   1      44.429  32.904  29.122  1.00  0.00     0.049 A 
ATOM     28  H   UNL A   1      43.859  31.637  30.675  1.00  0.00     0.167 HD
ATOM     29  C   UNL A   1      43.069  28.587  33.921  1.00  0.00     0.034 A 
ATOM     30  C   UNL A   1      44.172  34.156  29.548  1.00  0.00     0.034 A 
ATOM     31  C   UNL A   1      42.669  29.866  34.442  1.00  0.00     0.049 A 
ATOM     32  C   UNL A   1      43.569  34.295  30.930  1.00  0.00     0.074 A 
ATOM     33  C   UNL A   1      42.084  30.173  35.652  1.00  0.00     0.029 A 
ATOM     34  N   UNL A   1      42.810  31.064  33.744  1.00  0.00    -0.354 N 
ATOM     35  N   UNL A   1      43.319  33.356  31.820  1.00  0.00    -0.248 NA
ATOM     36  C   UNL A   1      43.205  35.646  31.364  1.00  0.00     0.031 C 
ATOM     37  C   UNL A   1      41.823  31.549  35.665  1.00  0.00     0.029 A 
ATOM     38  C   UNL A   1      42.311  32.111  34.492  1.00  0.00     0.049 A 
ATOM     39  H   UNL A   1      43.208  31.150  32.849  1.00  0.00     0.167 HD
ATOM     40  C   UNL A   1      42.786  34.008  32.926  1.00  0.00     0.074 A 
ATOM     41  C   UNL A   1      42.777  35.423  32.598  1.00  0.00     0.031 C 
ATOM     42  C   UNL A   1      42.331  33.502  34.103  1.00  0.00     0.034 A 
BRANCH  29  43
ATOM     43  C   UNL A   1      42.955  27.330  34.745  1.00  0.00     0.023 A 
ATOM     44  C   UNL A   1      44.079  26.752  35.368  1.00  0.00     0.031 A 
ATOM     45  C   UNL A   1      41.745  26.616  34.775  1.00  0.00     0.131 A 
ATOM     46  C   UNL A   1      43.988  25.460  35.913  1.00  0.00     0.055 A 
ATOM     47  C   UNL A   1      41.642  25.368  35.394  1.00  0.00     0.041 A 
ATOM     48  F   UNL A   1      40.654  27.095  34.157  1.00  0.00    -0.206 F 
ATOM     49  C   UNL A   1      42.772  24.775  35.951  1.00  0.00     0.022 A 
BRANCH  46  50
ATOM     50  S   UNL A   1      45.520  24.622  36.410  1.00  0.00     0.124 S 
ATOM     51  O   UNL A   1      46.531  25.621  36.049  1.00  0.00    -0.237 OA
ATOM     52  O   UNL A   1      45.321  24.398  37.825  1.00  0.00    -0.237 OA
ATOM     53  O   UNL A   1      45.534  23.414  35.576  1.00  0.00    -0.744 OA
ENDBRANCH  46  50
ENDBRANCH  29  43
BRANCH  30  54
ATOM     54  C   UNL A   1      44.371  35.339  28.655  1.00  0.00     0.023 A 
ATOM     55  C   UNL A   1      45.594  36.025  28.590  1.00  0.00     0.031 A 
ATOM     56  C   UNL A   1      43.296  35.860  27.905  1.00  0.00     0.131 A 
ATOM     57  C   UNL A   1      45.701  37.210  27.838  1.00  0.00     0.055 A 
ATOM     58  C   UNL A   1      43.423  37.000  27.111  1.00  0.00     0.041 A 
ATOM     59  F   UNL A   1      42.092  35.265  27.937  1.00  0.00    -0.206 F 
ATOM     60  C   UNL A   1      44.627  37.692  27.087  1.00  0.00     0.022 A 
BRANCH  57  61
ATOM     61  S   UNL A   1      47.229  38.184  27.949  1.00  0.00     0.124 S 
ATOM     62  O   UNL A   1      48.074  37.527  26.958  1.00  0.00    -0.237 OA
ATOM     63  O   UNL A   1      46.759  39.523  27.608  1.00  0.00    -0.237 OA
ATOM     64  O   UNL A   1      47.644  38.006  29.339  1.00  0.00    -0.744 OA
ENDBRANCH  57  61
ENDBRANCH  30  54
BRANCH  42  65
ATOM     65  C   UNL A   1      41.835  34.501  35.112  1.00  0.00     0.023 A 
ATOM     66  C   UNL A   1      42.654  34.946  36.162  1.00  0.00     0.031 A 
ATOM     67  C   UNL A   1      40.528  35.007  35.018  1.00  0.00     0.131 A 
ATOM     68  C   UNL A   1      42.134  35.828  37.117  1.00  0.00     0.055 A 
ATOM     69  C   UNL A   1      40.038  35.935  35.936  1.00  0.00     0.041 A 
ATOM     70  F   UNL A   1      39.712  34.613  34.028  1.00  0.00    -0.206 F 
ATOM     71  C   UNL A   1      40.839  36.339  37.002  1.00  0.00     0.022 A 
BRANCH  68  72
ATOM     72  S   UNL A   1      43.147  36.226  38.565  1.00  0.00     0.124 S 
ATOM     73  O   UNL A   1      43.831  34.960  38.813  1.00  0.00    -0.237 OA
ATOM     74  O   UNL A   1      43.983  37.315  38.073  1.00  0.00    -0.237 OA
ATOM     75  O   UNL A   1      42.163  36.609  39.576  1.00  0.00    -0.744 OA
ENDBRANCH  68  72
ENDBRANCH  42  65
ENDBRANCH  16  17
ENDBRANCH   9  11
ENDBRANCH   8   9
ENDBRANCH   7   8
ENDBRANCH   6   7
ENDBRANCH   5   6
ENDBRANCH   4   5
ENDBRANCH   3   4
ENDBRANCH   2   3
ENDBRANCH   1   2
BRANCH   1  76
ATOM     76  C   UNL A   1      40.854  25.682  28.643  1.00  0.00     0.188 C 
BRANCH  76  77
ATOM     77  O   UNL A   1      39.613  26.215  28.188  1.00  0.00    -0.376 OA
BRANCH  77  78
ATOM     78  C   UNL A   1      39.353  27.594  28.477  1.00  0.00     0.202 C 
BRANCH  78  79
ATOM     79  C   UNL A   1      38.607  27.888  29.796  1.00  0.00     0.261 C 
BRANCH  79  80
ATOM     80  O   UNL A   1      38.657  29.265  30.282  1.00  0.00    -0.463 OA
BRANCH  80  81
ATOM     81  C   UNL A   1      37.491  29.926  30.431  1.00  0.00     0.310 C 
ATOM     82  O   UNL A   1      36.579  29.467  31.129  1.00  0.00    -0.252 OA
BRANCH  81  83
ATOM     83  C   UNL A   1      37.197  31.210  29.617  1.00  0.00     0.119 C 
ATOM     84  C   UNL A   1      37.518  32.766  29.439  1.00  0.00     0.100 C 
ATOM     85  C   UNL A   1      35.770  31.096  28.965  1.00  0.00     0.027 C 
ATOM     86  C   UNL A   1      36.258  33.261  28.638  1.00  0.00     0.025 C 
ATOM     87  C   UNL A   1      34.745  31.910  29.710  1.00  0.00    -0.027 C 
ATOM     88  C   UNL A   1      35.937  32.037  27.763  1.00  0.00     0.017 C 
ATOM     89  C   UNL A   1      35.025  33.204  29.497  1.00  0.00    -0.027 C 
BRANCH  84  90
ATOM     90  C   UNL A   1      38.226  33.990  30.133  1.00  0.00     0.229 C 
ATOM     91  O   UNL A   1      39.114  34.577  29.484  1.00  0.00    -0.274 OA
ATOM     92  N   UNL A   1      37.845  34.665  31.260  1.00  0.00    -0.323 N 
ATOM     93  H   UNL A   1      38.243  35.558  31.372  1.00  0.00     0.170 HD
BRANCH  92  94
ATOM     94  C   UNL A   1      36.977  34.269  32.265  1.00  0.00     0.084 A 
ATOM     95  C   UNL A   1      35.875  35.055  32.620  1.00  0.00     0.030 A 
ATOM     96  C   UNL A   1      37.128  33.032  32.815  1.00  0.00     0.149 A 
ATOM     97  C   UNL A   1      34.777  34.449  33.235  1.00  0.00     0.002 A 
ATOM     98  C   UNL A   1      35.980  32.389  33.194  1.00  0.00     0.049 A 
ATOM     99  C   UNL A   1      34.793  33.077  33.415  1.00  0.00     0.004 A 
BRANCH  96 100
ATOM    100  O   UNL A   1      38.285  32.347  32.892  1.00  0.00    -0.433 OA
BRANCH 100 101
ATOM    101  C   UNL A   1      38.390  31.253  33.805  1.00  0.00     0.542 C 
ATOM    102  F   UNL A   1      39.329  30.391  33.341  1.00  0.00    -0.167 F 
ATOM    103  F   UNL A   1      38.760  31.644  35.048  1.00  0.00    -0.167 F 
ENDBRANCH 100 101
ENDBRANCH  96 100
ENDBRANCH  92  94
ENDBRANCH  84  90
ENDBRANCH  81  83
ENDBRANCH  80  81
ENDBRANCH  79  80
ENDBRANCH  78  79
ENDBRANCH  77  78
ENDBRANCH  76  77
ENDBRANCH   1  76
TORSDOF 27
ENDMDL
