MODEL 1
REMARK VINA RESULT:      -9.8      0.000      0.000
REMARK SMILES Cc1cccc(Cl)c1Nc1ccccc1CC(=O)OCCOCCOCCOCCOC(=O)c1ccc(-c2c3nc(c(-c4cc(S(=O)(=O)[O-])ccc4F)c4ccc([nH]4)c(-c4cc(S(=O)(=O)[O-])ccc4F)c4nc(c(-c5cc(S(=O)(=O)[O-])ccc5F)c5ccc2[nH]5)C=C4)C=C3)cc1
REMARK SMILES IDX 25 1 24 2 23 3 22 4 21 5 20 6 19 7 17 8 18 9 16 10 15 11
REMARK SMILES IDX 10 12 11 13 12 14 14 15 13 16 9 17 8 19 1 20 2 21 3 22 4 23
REMARK SMILES IDX 6 24 5 25 7 26 26 27 27 28 28 29 29 30 30 31 31 32 32 33
REMARK SMILES IDX 33 34 34 35 35 36 96 37 36 38 95 39 37 40 38 41 39 42 89 43
REMARK SMILES IDX 40 44 94 45 88 46 90 47 41 48 93 49 87 50 86 51 42 53 74 54
REMARK SMILES IDX 54 55 73 56 55 57 58 58 72 59 91 60 56 61 57 62 71 64 92 65
REMARK SMILES IDX 59 66 43 67 44 68 52 69 45 70 51 71 53 72 50 73 46 74 47 75
REMARK SMILES IDX 48 76 49 77 75 78 76 79 84 80 77 81 83 82 85 83 82 84 78 85
REMARK SMILES IDX 79 86 80 87 81 88 60 89 61 90 69 91 62 92 68 93 70 94 67 95
REMARK SMILES IDX 63 96 64 97 65 98 66 99
REMARK H PARENT 9 18 90 52 58 63
REMARK Flexibility Score: inf
ROOT
ATOM      1  O   UNL A   1      29.724  29.948  22.950  1.00  0.00    -0.377 OA
ENDROOT
BRANCH   1   2
ATOM      2  C   UNL A   1      29.394  28.606  23.243  1.00  0.00     0.188 C 
BRANCH   2   3
ATOM      3  C   UNL A   1      30.448  27.579  22.769  1.00  0.00     0.188 C 
BRANCH   3   4
ATOM      4  O   UNL A   1      31.444  27.059  23.650  1.00  0.00    -0.376 OA
BRANCH   4   5
ATOM      5  C   UNL A   1      32.813  27.208  23.311  1.00  0.00     0.202 C 
BRANCH   5   6
ATOM      6  C   UNL A   1      33.431  26.082  22.458  1.00  0.00     0.261 C 
BRANCH   6   7
ATOM      7  O   UNL A   1      32.570  24.943  22.212  1.00  0.00    -0.463 OA
BRANCH   7   8
ATOM      8  C   UNL A   1      33.171  23.743  22.053  1.00  0.00     0.310 C 
ATOM      9  O   UNL A   1      33.623  23.357  20.974  1.00  0.00    -0.252 OA
BRANCH   8  10
ATOM     10  C   UNL A   1      33.392  22.913  23.310  1.00  0.00     0.160 C 
BRANCH  10  11
ATOM     11  C   UNL A   1      32.593  23.079  24.603  1.00  0.00    -0.013 A 
ATOM     12  C   UNL A   1      33.078  22.764  25.891  1.00  0.00     0.042 A 
ATOM     13  C   UNL A   1      32.209  22.849  27.002  1.00  0.00     0.026 A 
ATOM     14  C   UNL A   1      30.919  23.357  26.879  1.00  0.00     0.002 A 
ATOM     15  C   UNL A   1      31.310  23.672  24.523  1.00  0.00     0.006 A 
ATOM     16  C   UNL A   1      30.484  23.807  25.644  1.00  0.00     0.000 A 
BRANCH  12  17
ATOM     17  N   UNL A   1      34.443  22.578  26.184  1.00  0.00    -0.354 N 
ATOM     18  H   UNL A   1      34.780  23.088  26.956  1.00  0.00     0.167 HD
BRANCH  17  19
ATOM     19  C   UNL A   1      35.401  21.767  25.531  1.00  0.00     0.060 A 
ATOM     20  C   UNL A   1      36.978  23.764  25.562  1.00  0.00     0.046 C 
ATOM     21  C   UNL A   1      36.697  22.299  25.348  1.00  0.00    -0.026 A 
ATOM     22  C   UNL A   1      37.762  21.442  25.025  1.00  0.00     0.005 A 
ATOM     23  C   UNL A   1      37.555  20.077  24.846  1.00  0.00     0.002 A 
ATOM     24  C   UNL A   1      35.192  20.401  25.211  1.00  0.00     0.064 A 
ATOM     25  C   UNL A   1      36.268  19.561  24.908  1.00  0.00     0.023 A 
ATOM     26  Cl  UNL A   1      33.620  19.668  25.137  1.00  0.00    -0.082 Cl
ENDBRANCH  17  19
ENDBRANCH  12  17
ENDBRANCH  10  11
ENDBRANCH   8  10
ENDBRANCH   7   8
ENDBRANCH   6   7
ENDBRANCH   5   6
ENDBRANCH   4   5
ENDBRANCH   3   4
ENDBRANCH   2   3
ENDBRANCH   1   2
BRANCH   1  27
ATOM     27  C   UNL A   1      30.050  30.744  24.067  1.00  0.00     0.188 C 
BRANCH  27  28
ATOM     28  C   UNL A   1      30.743  29.984  25.205  1.00  0.00     0.188 C 
BRANCH  28  29
ATOM     29  O   UNL A   1      32.098  30.388  25.390  1.00  0.00    -0.376 OA
BRANCH  29  30
ATOM     30  C   UNL A   1      32.485  30.944  26.634  1.00  0.00     0.202 C 
BRANCH  30  31
ATOM     31  C   UNL A   1      31.962  32.343  27.002  1.00  0.00     0.261 C 
BRANCH  31  32
ATOM     32  O   UNL A   1      32.891  33.432  26.940  1.00  0.00    -0.460 OA
BRANCH  32  33
ATOM     33  C   UNL A   1      33.332  33.943  28.116  1.00  0.00     0.338 C 
ATOM     34  O   UNL A   1      32.765  34.756  28.805  1.00  0.00    -0.246 OA
BRANCH  33  35
ATOM     35  C   UNL A   1      34.532  33.160  28.512  1.00  0.00     0.060 A 
ATOM     36  C   UNL A   1      34.348  31.898  29.090  1.00  0.00     0.016 A 
ATOM     37  C   UNL A   1      35.822  33.643  28.272  1.00  0.00     0.016 A 
ATOM     38  C   UNL A   1      35.451  31.119  29.443  1.00  0.00     0.010 A 
ATOM     39  C   UNL A   1      36.927  32.878  28.663  1.00  0.00     0.010 A 
ATOM     40  C   UNL A   1      36.746  31.626  29.276  1.00  0.00    -0.014 A 
BRANCH  40  41
ATOM     41  C   UNL A   1      37.882  30.957  29.958  1.00  0.00     0.031 A 
ATOM     42  C   UNL A   1      38.165  31.346  31.385  1.00  0.00     0.074 A 
ATOM     43  C   UNL A   1      38.620  30.009  29.352  1.00  0.00     0.049 A 
ATOM     44  N   UNL A   1      39.118  30.948  32.185  1.00  0.00    -0.248 NA
ATOM     45  C   UNL A   1      37.243  32.324  31.984  1.00  0.00     0.031 C 
ATOM     46  C   UNL A   1      38.402  29.506  27.998  1.00  0.00     0.029 A 
ATOM     47  N   UNL A   1      39.708  29.303  29.803  1.00  0.00    -0.354 N 
ATOM     48  C   UNL A   1      38.911  31.625  33.382  1.00  0.00     0.074 A 
ATOM     49  C   UNL A   1      37.767  32.489  33.186  1.00  0.00     0.031 C 
ATOM     50  C   UNL A   1      39.337  28.579  27.723  1.00  0.00     0.029 A 
ATOM     51  C   UNL A   1      40.243  28.451  28.864  1.00  0.00     0.049 A 
ATOM     52  H   UNL A   1      40.071  29.397  30.713  1.00  0.00     0.167 HD
ATOM     53  C   UNL A   1      39.606  31.530  34.541  1.00  0.00     0.034 A 
ATOM     54  C   UNL A   1      41.352  27.683  28.915  1.00  0.00     0.034 A 
ATOM     55  C   UNL A   1      40.759  30.682  34.711  1.00  0.00     0.049 A 
ATOM     56  C   UNL A   1      42.180  27.675  30.182  1.00  0.00     0.074 A 
ATOM     57  C   UNL A   1      41.541  30.507  35.839  1.00  0.00     0.029 A 
ATOM     58  N   UNL A   1      41.307  29.877  33.720  1.00  0.00    -0.354 N 
ATOM     59  N   UNL A   1      41.975  28.319  31.310  1.00  0.00    -0.248 NA
ATOM     60  C   UNL A   1      43.384  26.834  30.184  1.00  0.00     0.031 C 
ATOM     61  C   UNL A   1      42.608  29.666  35.505  1.00  0.00     0.029 A 
ATOM     62  C   UNL A   1      42.439  29.236  34.198  1.00  0.00     0.049 A 
ATOM     63  H   UNL A   1      40.945  29.778  32.809  1.00  0.00     0.167 HD
ATOM     64  C   UNL A   1      43.003  27.926  32.165  1.00  0.00     0.074 A 
ATOM     65  C   UNL A   1      43.818  26.984  31.427  1.00  0.00     0.031 C 
ATOM     66  C   UNL A   1      43.247  28.302  33.448  1.00  0.00     0.034 A 
BRANCH  53  67
ATOM     67  C   UNL A   1      39.171  32.415  35.684  1.00  0.00     0.023 A 
ATOM     68  C   UNL A   1      39.604  33.748  35.798  1.00  0.00     0.031 A 
ATOM     69  C   UNL A   1      38.338  31.905  36.696  1.00  0.00     0.131 A 
ATOM     70  C   UNL A   1      39.266  34.498  36.935  1.00  0.00     0.055 A 
ATOM     71  C   UNL A   1      37.934  32.686  37.780  1.00  0.00     0.041 A 
ATOM     72  F   UNL A   1      37.916  30.632  36.657  1.00  0.00    -0.206 F 
ATOM     73  C   UNL A   1      38.411  33.986  37.913  1.00  0.00     0.022 A 
BRANCH  70  74
ATOM     74  S   UNL A   1      40.085  36.096  37.193  1.00  0.00     0.124 S 
ATOM     75  O   UNL A   1      40.054  36.664  35.847  1.00  0.00    -0.237 OA
ATOM     76  O   UNL A   1      39.222  36.738  38.178  1.00  0.00    -0.237 OA
ATOM     77  O   UNL A   1      41.415  35.727  37.673  1.00  0.00    -0.744 OA
ENDBRANCH  70  74
ENDBRANCH  53  67
BRANCH  54  78
ATOM     78  C   UNL A   1      41.783  26.889  27.725  1.00  0.00     0.023 A 
ATOM     79  C   UNL A   1      41.499  25.517  27.620  1.00  0.00     0.031 A 
ATOM     80  C   UNL A   1      42.553  27.478  26.706  1.00  0.00     0.131 A 
ATOM     81  C   UNL A   1      42.023  24.773  26.550  1.00  0.00     0.055 A 
ATOM     82  C   UNL A   1      43.019  26.747  25.612  1.00  0.00     0.041 A 
ATOM     83  F   UNL A   1      42.865  28.784  26.758  1.00  0.00    -0.206 F 
ATOM     84  C   UNL A   1      42.767  25.381  25.538  1.00  0.00     0.022 A 
BRANCH  81  85
ATOM     85  S   UNL A   1      41.804  22.971  26.555  1.00  0.00     0.124 S 
ATOM     86  O   UNL A   1      40.370  22.849  26.785  1.00  0.00    -0.237 OA
ATOM     87  O   UNL A   1      42.275  22.606  25.222  1.00  0.00    -0.237 OA
ATOM     88  O   UNL A   1      42.656  22.528  27.657  1.00  0.00    -0.744 OA
ENDBRANCH  81  85
ENDBRANCH  54  78
BRANCH  66  89
ATOM     89  C   UNL A   1      44.412  27.647  34.155  1.00  0.00     0.023 A 
ATOM     90  C   UNL A   1      44.292  26.402  34.795  1.00  0.00     0.031 A 
ATOM     91  C   UNL A   1      45.665  28.287  34.184  1.00  0.00     0.131 A 
ATOM     92  C   UNL A   1      45.390  25.862  35.483  1.00  0.00     0.055 A 
ATOM     93  C   UNL A   1      46.772  27.712  34.811  1.00  0.00     0.041 A 
ATOM     94  F   UNL A   1      45.838  29.480  33.593  1.00  0.00    -0.206 F 
ATOM     95  C   UNL A   1      46.634  26.499  35.478  1.00  0.00     0.022 A 
BRANCH  92  96
ATOM     96  S   UNL A   1      45.147  24.362  36.473  1.00  0.00     0.124 S 
ATOM     97  O   UNL A   1      46.450  23.713  36.366  1.00  0.00    -0.237 OA
ATOM     98  O   UNL A   1      44.811  24.905  37.785  1.00  0.00    -0.237 OA
ATOM     99  O   UNL A   1      44.053  23.672  35.790  1.00  0.00    -0.744 OA
ENDBRANCH  92  96
ENDBRANCH  66  89
ENDBRANCH  40  41
ENDBRANCH  33  35
ENDBRANCH  32  33
ENDBRANCH  31  32
ENDBRANCH  30  31
ENDBRANCH  29  30
ENDBRANCH  28  29
ENDBRANCH  27  28
ENDBRANCH   1  27
TORSDOF 26
ENDMDL
MODEL 2
REMARK VINA RESULT:      -9.4      5.302     10.071
REMARK SMILES Cc1cccc(Cl)c1Nc1ccccc1CC(=O)OCCOCCOCCOCCOC(=O)c1ccc(-c2c3nc(c(-c4cc(S(=O)(=O)[O-])ccc4F)c4ccc([nH]4)c(-c4cc(S(=O)(=O)[O-])ccc4F)c4nc(c(-c5cc(S(=O)(=O)[O-])ccc5F)c5ccc2[nH]5)C=C4)C=C3)cc1
REMARK SMILES IDX 25 1 24 2 23 3 22 4 21 5 20 6 19 7 17 8 18 9 16 10 15 11
REMARK SMILES IDX 10 12 11 13 12 14 14 15 13 16 9 17 8 19 1 20 2 21 3 22 4 23
REMARK SMILES IDX 6 24 5 25 7 26 26 27 27 28 28 29 29 30 30 31 31 32 32 33
REMARK SMILES IDX 33 34 34 35 35 36 96 37 36 38 95 39 37 40 38 41 39 42 89 43
REMARK SMILES IDX 40 44 94 45 88 46 90 47 41 48 93 49 87 50 86 51 42 53 74 54
REMARK SMILES IDX 54 55 73 56 55 57 58 58 72 59 91 60 56 61 57 62 71 64 92 65
REMARK SMILES IDX 59 66 43 67 44 68 52 69 45 70 51 71 53 72 50 73 46 74 47 75
REMARK SMILES IDX 48 76 49 77 75 78 76 79 84 80 77 81 83 82 85 83 82 84 78 85
REMARK SMILES IDX 79 86 80 87 81 88 60 89 61 90 69 91 62 92 68 93 70 94 67 95
REMARK SMILES IDX 63 96 64 97 65 98 66 99
REMARK H PARENT 9 18 90 52 58 63
REMARK Flexibility Score: inf
ROOT
ATOM      1  O   UNL A   1      36.494  22.372  26.097  1.00  0.00    -0.377 OA
ENDROOT
BRANCH   1   2
ATOM      2  C   UNL A   1      35.381  21.517  26.255  1.00  0.00     0.188 C 
BRANCH   2   3
ATOM      3  C   UNL A   1      35.081  20.637  25.020  1.00  0.00     0.188 C 
BRANCH   3   4
ATOM      4  O   UNL A   1      33.772  20.549  24.456  1.00  0.00    -0.376 OA
BRANCH   4   5
ATOM      5  C   UNL A   1      32.645  20.551  25.318  1.00  0.00     0.202 C 
BRANCH   5   6
ATOM      6  C   UNL A   1      31.761  21.814  25.283  1.00  0.00     0.261 C 
BRANCH   6   7
ATOM      7  O   UNL A   1      32.220  22.917  26.104  1.00  0.00    -0.463 OA
BRANCH   7   8
ATOM      8  C   UNL A   1      31.306  23.856  26.434  1.00  0.00     0.310 C 
ATOM      9  O   UNL A   1      30.526  23.730  27.379  1.00  0.00    -0.252 OA
BRANCH   8  10
ATOM     10  C   UNL A   1      31.358  25.167  25.662  1.00  0.00     0.160 C 
BRANCH  10  11
ATOM     11  C   UNL A   1      32.002  26.450  26.186  1.00  0.00    -0.013 A 
ATOM     12  C   UNL A   1      33.291  26.904  25.832  1.00  0.00     0.042 A 
ATOM     13  C   UNL A   1      33.828  28.045  26.469  1.00  0.00     0.026 A 
ATOM     14  C   UNL A   1      33.069  28.811  27.350  1.00  0.00     0.002 A 
ATOM     15  C   UNL A   1      31.226  27.295  27.017  1.00  0.00     0.006 A 
ATOM     16  C   UNL A   1      31.752  28.457  27.591  1.00  0.00     0.000 A 
BRANCH  12  17
ATOM     17  N   UNL A   1      34.005  26.423  24.716  1.00  0.00    -0.354 N 
ATOM     18  H   UNL A   1      34.941  26.174  24.892  1.00  0.00     0.167 HD
BRANCH  17  19
ATOM     19  C   UNL A   1      33.573  26.248  23.380  1.00  0.00     0.060 A 
ATOM     20  C   UNL A   1      34.504  23.882  23.488  1.00  0.00     0.046 C 
ATOM     21  C   UNL A   1      33.690  24.957  22.817  1.00  0.00    -0.026 A 
ATOM     22  C   UNL A   1      32.981  24.643  21.645  1.00  0.00     0.005 A 
ATOM     23  C   UNL A   1      32.193  25.596  21.007  1.00  0.00     0.002 A 
ATOM     24  C   UNL A   1      32.875  27.236  22.639  1.00  0.00     0.064 A 
ATOM     25  C   UNL A   1      32.164  26.900  21.484  1.00  0.00     0.023 A 
ATOM     26  Cl  UNL A   1      32.863  28.918  23.068  1.00  0.00    -0.082 Cl
ENDBRANCH  17  19
ENDBRANCH  12  17
ENDBRANCH  10  11
ENDBRANCH   8  10
ENDBRANCH   7   8
ENDBRANCH   6   7
ENDBRANCH   5   6
ENDBRANCH   4   5
ENDBRANCH   3   4
ENDBRANCH   2   3
ENDBRANCH   1   2
BRANCH   1  27
ATOM     27  C   UNL A   1      37.348  22.053  25.021  1.00  0.00     0.188 C 
BRANCH  27  28
ATOM     28  C   UNL A   1      38.654  21.363  25.433  1.00  0.00     0.188 C 
BRANCH  28  29
ATOM     29  O   UNL A   1      39.203  21.900  26.635  1.00  0.00    -0.376 OA
BRANCH  29  30
ATOM     30  C   UNL A   1      40.344  22.736  26.554  1.00  0.00     0.202 C 
BRANCH  30  31
ATOM     31  C   UNL A   1      41.726  22.072  26.420  1.00  0.00     0.261 C 
BRANCH  31  32
ATOM     32  O   UNL A   1      42.478  22.350  25.232  1.00  0.00    -0.460 OA
BRANCH  32  33
ATOM     33  C   UNL A   1      43.811  22.560  25.373  1.00  0.00     0.338 C 
ATOM     34  O   UNL A   1      44.698  21.833  24.996  1.00  0.00    -0.246 OA
BRANCH  33  35
ATOM     35  C   UNL A   1      43.985  23.947  25.877  1.00  0.00     0.060 A 
ATOM     36  C   UNL A   1      44.502  24.132  27.165  1.00  0.00     0.016 A 
ATOM     37  C   UNL A   1      43.689  25.051  25.071  1.00  0.00     0.016 A 
ATOM     38  C   UNL A   1      44.712  25.421  27.659  1.00  0.00     0.010 A 
ATOM     39  C   UNL A   1      43.863  26.343  25.583  1.00  0.00     0.010 A 
ATOM     40  C   UNL A   1      44.348  26.533  26.889  1.00  0.00    -0.014 A 
BRANCH  40  41
ATOM     41  C   UNL A   1      44.247  27.864  27.537  1.00  0.00     0.031 A 
ATOM     42  C   UNL A   1      45.503  28.688  27.635  1.00  0.00     0.074 A 
ATOM     43  C   UNL A   1      43.078  28.349  27.993  1.00  0.00     0.049 A 
ATOM     44  N   UNL A   1      45.694  29.856  28.190  1.00  0.00    -0.248 NA
ATOM     45  C   UNL A   1      46.708  28.106  27.024  1.00  0.00     0.031 C 
ATOM     46  C   UNL A   1      41.787  27.670  27.898  1.00  0.00     0.029 A 
ATOM     47  N   UNL A   1      42.792  29.530  28.632  1.00  0.00    -0.354 N 
ATOM     48  C   UNL A   1      47.040  30.149  27.995  1.00  0.00     0.074 A 
ATOM     49  C   UNL A   1      47.624  29.017  27.307  1.00  0.00     0.031 C 
ATOM     50  C   UNL A   1      40.847  28.443  28.470  1.00  0.00     0.029 A 
ATOM     51  C   UNL A   1      41.473  29.650  29.009  1.00  0.00     0.049 A 
ATOM     52  H   UNL A   1      43.466  30.225  28.806  1.00  0.00     0.167 HD
ATOM     53  C   UNL A   1      47.725  31.262  28.350  1.00  0.00     0.034 A 
ATOM     54  C   UNL A   1      40.856  30.611  29.729  1.00  0.00     0.034 A 
ATOM     55  C   UNL A   1      47.132  32.370  29.056  1.00  0.00     0.049 A 
ATOM     56  C   UNL A   1      41.664  31.796  30.213  1.00  0.00     0.074 A 
ATOM     57  C   UNL A   1      47.730  33.549  29.467  1.00  0.00     0.029 A 
ATOM     58  N   UNL A   1      45.808  32.432  29.472  1.00  0.00    -0.354 N 
ATOM     59  N   UNL A   1      42.937  32.064  30.022  1.00  0.00    -0.248 NA
ATOM     60  C   UNL A   1      40.952  32.808  31.004  1.00  0.00     0.031 C 
ATOM     61  C   UNL A   1      46.794  34.281  30.204  1.00  0.00     0.029 A 
ATOM     62  C   UNL A   1      45.582  33.608  30.170  1.00  0.00     0.049 A 
ATOM     63  H   UNL A   1      45.130  31.739  29.298  1.00  0.00     0.167 HD
ATOM     64  C   UNL A   1      43.163  33.296  30.636  1.00  0.00     0.074 A 
ATOM     65  C   UNL A   1      41.895  33.719  31.192  1.00  0.00     0.031 C 
ATOM     66  C   UNL A   1      44.311  34.016  30.724  1.00  0.00     0.034 A 
BRANCH  53  67
ATOM     67  C   UNL A   1      49.201  31.298  28.033  1.00  0.00     0.023 A 
ATOM     68  C   UNL A   1      49.713  32.051  26.961  1.00  0.00     0.031 A 
ATOM     69  C   UNL A   1      50.106  30.537  28.793  1.00  0.00     0.131 A 
ATOM     70  C   UNL A   1      51.074  31.965  26.634  1.00  0.00     0.055 A 
ATOM     71  C   UNL A   1      51.474  30.526  28.516  1.00  0.00     0.041 A 
ATOM     72  F   UNL A   1      49.673  29.775  29.810  1.00  0.00    -0.206 F 
ATOM     73  C   UNL A   1      51.963  31.231  27.421  1.00  0.00     0.022 A 
BRANCH  70  74
ATOM     74  S   UNL A   1      51.638  32.704  25.076  1.00  0.00     0.124 S 
ATOM     75  O   UNL A   1      52.991  33.130  25.424  1.00  0.00    -0.237 OA
ATOM     76  O   UNL A   1      51.540  31.586  24.143  1.00  0.00    -0.237 OA
ATOM     77  O   UNL A   1      50.689  33.792  24.849  1.00  0.00    -0.744 OA
ENDBRANCH  70  74
ENDBRANCH  53  67
BRANCH  54  78
ATOM     78  C   UNL A   1      39.411  30.486  30.085  1.00  0.00     0.023 A 
ATOM     79  C   UNL A   1      38.428  31.236  29.419  1.00  0.00     0.031 A 
ATOM     80  C   UNL A   1      38.999  29.664  31.150  1.00  0.00     0.131 A 
ATOM     81  C   UNL A   1      37.093  31.189  29.857  1.00  0.00     0.055 A 
ATOM     82  C   UNL A   1      37.662  29.573  31.541  1.00  0.00     0.041 A 
ATOM     83  F   UNL A   1      39.896  28.932  31.830  1.00  0.00    -0.206 F 
ATOM     84  C   UNL A   1      36.701  30.351  30.902  1.00  0.00     0.022 A 
BRANCH  81  85
ATOM     85  S   UNL A   1      35.890  32.320  29.105  1.00  0.00     0.124 S 
ATOM     86  O   UNL A   1      34.673  31.985  29.835  1.00  0.00    -0.237 OA
ATOM     87  O   UNL A   1      36.477  33.624  29.398  1.00  0.00    -0.237 OA
ATOM     88  O   UNL A   1      35.900  31.938  27.694  1.00  0.00    -0.744 OA
ENDBRANCH  81  85
ENDBRANCH  54  78
BRANCH  66  89
ATOM     89  C   UNL A   1      44.235  35.367  31.399  1.00  0.00     0.023 A 
ATOM     90  C   UNL A   1      44.428  35.522  32.783  1.00  0.00     0.031 A 
ATOM     91  C   UNL A   1      43.967  36.519  30.636  1.00  0.00     0.131 A 
ATOM     92  C   UNL A   1      44.295  36.791  33.368  1.00  0.00     0.055 A 
ATOM     93  C   UNL A   1      43.904  37.787  31.215  1.00  0.00     0.041 A 
ATOM     94  F   UNL A   1      43.770  36.431  29.311  1.00  0.00    -0.206 F 
ATOM     95  C   UNL A   1      44.054  37.927  32.590  1.00  0.00     0.022 A 
BRANCH  92  96
ATOM     96  S   UNL A   1      44.339  36.926  35.176  1.00  0.00     0.124 S 
ATOM     97  O   UNL A   1      45.265  38.036  35.375  1.00  0.00    -0.237 OA
ATOM     98  O   UNL A   1      42.943  37.193  35.504  1.00  0.00    -0.237 OA
ATOM     99  O   UNL A   1      44.837  35.620  35.607  1.00  0.00    -0.744 OA
ENDBRANCH  92  96
ENDBRANCH  66  89
ENDBRANCH  40  41
ENDBRANCH  33  35
ENDBRANCH  32  33
ENDBRANCH  31  32
ENDBRANCH  30  31
ENDBRANCH  29  30
ENDBRANCH  28  29
ENDBRANCH  27  28
ENDBRANCH   1  27
TORSDOF 26
ENDMDL
MODEL 3
REMARK VINA RESULT:      -9.4      5.833     10.419
REMARK SMILES Cc1cccc(Cl)c1Nc1ccccc1CC(=O)OCCOCCOCCOCCOC(=O)c1ccc(-c2c3nc(c(-c4cc(S(=O)(=O)[O-])ccc4F)c4ccc([nH]4)c(-c4cc(S(=O)(=O)[O-])ccc4F)c4nc(c(-c5cc(S(=O)(=O)[O-])ccc5F)c5ccc2[nH]5)C=C4)C=C3)cc1
REMARK SMILES IDX 25 1 24 2 23 3 22 4 21 5 20 6 19 7 17 8 18 9 16 10 15 11
REMARK SMILES IDX 10 12 11 13 12 14 14 15 13 16 9 17 8 19 1 20 2 21 3 22 4 23
REMARK SMILES IDX 6 24 5 25 7 26 26 27 27 28 28 29 29 30 30 31 31 32 32 33
REMARK SMILES IDX 33 34 34 35 35 36 96 37 36 38 95 39 37 40 38 41 39 42 89 43
REMARK SMILES IDX 40 44 94 45 88 46 90 47 41 48 93 49 87 50 86 51 42 53 74 54
REMARK SMILES IDX 54 55 73 56 55 57 58 58 72 59 91 60 56 61 57 62 71 64 92 65
REMARK SMILES IDX 59 66 43 67 44 68 52 69 45 70 51 71 53 72 50 73 46 74 47 75
REMARK SMILES IDX 48 76 49 77 75 78 76 79 84 80 77 81 83 82 85 83 82 84 78 85
REMARK SMILES IDX 79 86 80 87 81 88 60 89 61 90 69 91 62 92 68 93 70 94 67 95
REMARK SMILES IDX 63 96 64 97 65 98 66 99
REMARK H PARENT 9 18 90 52 58 63
REMARK Flexibility Score: inf
ROOT
ATOM      1  O   UNL A   1      46.400  20.493  24.836  1.00  0.00    -0.377 OA
ENDROOT
BRANCH   1   2
ATOM      2  C   UNL A   1      45.484  19.573  24.279  1.00  0.00     0.188 C 
BRANCH   2   3
ATOM      3  C   UNL A   1      44.313  19.204  25.218  1.00  0.00     0.188 C 
BRANCH   3   4
ATOM      4  O   UNL A   1      43.022  19.800  25.084  1.00  0.00    -0.376 OA
BRANCH   4   5
ATOM      5  C   UNL A   1      42.079  19.652  26.133  1.00  0.00     0.202 C 
BRANCH   5   6
ATOM      6  C   UNL A   1      42.093  20.744  27.222  1.00  0.00     0.261 C 
BRANCH   6   7
ATOM      7  O   UNL A   1      41.438  21.986  26.866  1.00  0.00    -0.463 OA
BRANCH   7   8
ATOM      8  C   UNL A   1      41.445  22.970  27.793  1.00  0.00     0.310 C 
ATOM      9  O   UNL A   1      42.149  22.935  28.803  1.00  0.00    -0.252 OA
BRANCH   8  10
ATOM     10  C   UNL A   1      40.630  24.217  27.478  1.00  0.00     0.160 C 
BRANCH  10  11
ATOM     11  C   UNL A   1      41.184  25.449  26.764  1.00  0.00    -0.013 A 
ATOM     12  C   UNL A   1      40.699  26.763  26.939  1.00  0.00     0.042 A 
ATOM     13  C   UNL A   1      41.213  27.808  26.139  1.00  0.00     0.026 A 
ATOM     14  C   UNL A   1      42.276  27.600  25.265  1.00  0.00     0.002 A 
ATOM     15  C   UNL A   1      42.319  25.286  25.934  1.00  0.00     0.006 A 
ATOM     16  C   UNL A   1      42.857  26.345  25.194  1.00  0.00     0.000 A 
BRANCH  12  17
ATOM     17  N   UNL A   1      39.885  27.154  28.021  1.00  0.00    -0.354 N 
ATOM     18  H   UNL A   1      39.113  26.569  28.199  1.00  0.00     0.167 HD
BRANCH  17  19
ATOM     19  C   UNL A   1      40.013  28.265  28.887  1.00  0.00     0.060 A 
ATOM     20  C   UNL A   1      42.143  27.201  29.786  1.00  0.00     0.046 C 
ATOM     21  C   UNL A   1      41.194  28.364  29.658  1.00  0.00    -0.026 A 
ATOM     22  C   UNL A   1      41.529  29.586  30.264  1.00  0.00     0.005 A 
ATOM     23  C   UNL A   1      40.696  30.696  30.148  1.00  0.00     0.002 A 
ATOM     24  C   UNL A   1      39.119  29.366  28.898  1.00  0.00     0.064 A 
ATOM     25  C   UNL A   1      39.478  30.579  29.493  1.00  0.00     0.023 A 
ATOM     26  Cl  UNL A   1      37.523  29.305  28.217  1.00  0.00    -0.082 Cl
ENDBRANCH  17  19
ENDBRANCH  12  17
ENDBRANCH  10  11
ENDBRANCH   8  10
ENDBRANCH   7   8
ENDBRANCH   6   7
ENDBRANCH   5   6
ENDBRANCH   4   5
ENDBRANCH   3   4
ENDBRANCH   2   3
ENDBRANCH   1   2
BRANCH   1  27
ATOM     27  C   UNL A   1      45.848  21.733  25.219  1.00  0.00     0.188 C 
BRANCH  27  28
ATOM     28  C   UNL A   1      45.159  22.497  24.081  1.00  0.00     0.188 C 
BRANCH  28  29
ATOM     29  O   UNL A   1      45.500  23.882  24.064  1.00  0.00    -0.376 OA
BRANCH  29  30
ATOM     30  C   UNL A   1      46.418  24.374  25.024  1.00  0.00     0.202 C 
BRANCH  30  31
ATOM     31  C   UNL A   1      47.660  25.132  24.524  1.00  0.00     0.261 C 
BRANCH  31  32
ATOM     32  O   UNL A   1      47.449  26.402  23.894  1.00  0.00    -0.460 OA
BRANCH  32  33
ATOM     33  C   UNL A   1      48.221  27.438  24.305  1.00  0.00     0.338 C 
ATOM     34  O   UNL A   1      49.225  27.844  23.772  1.00  0.00    -0.246 OA
BRANCH  33  35
ATOM     35  C   UNL A   1      47.488  28.121  25.403  1.00  0.00     0.060 A 
ATOM     36  C   UNL A   1      48.228  28.733  26.424  1.00  0.00     0.016 A 
ATOM     37  C   UNL A   1      46.093  28.201  25.401  1.00  0.00     0.016 A 
ATOM     38  C   UNL A   1      47.576  29.414  27.453  1.00  0.00     0.010 A 
ATOM     39  C   UNL A   1      45.438  28.850  26.455  1.00  0.00     0.010 A 
ATOM     40  C   UNL A   1      46.176  29.434  27.500  1.00  0.00    -0.014 A 
BRANCH  40  41
ATOM     41  C   UNL A   1      45.497  29.849  28.753  1.00  0.00     0.031 A 
ATOM     42  C   UNL A   1      44.836  31.201  28.774  1.00  0.00     0.074 A 
ATOM     43  C   UNL A   1      45.433  29.043  29.829  1.00  0.00     0.049 A 
ATOM     44  N   UNL A   1      44.220  31.814  29.749  1.00  0.00    -0.248 NA
ATOM     45  C   UNL A   1      44.885  31.964  27.516  1.00  0.00     0.031 C 
ATOM     46  C   UNL A   1      45.980  27.691  29.906  1.00  0.00     0.029 A 
ATOM     47  N   UNL A   1      44.879  29.254  31.068  1.00  0.00    -0.354 N 
ATOM     48  C   UNL A   1      43.807  33.035  29.225  1.00  0.00     0.074 A 
ATOM     49  C   UNL A   1      44.280  33.089  27.858  1.00  0.00     0.031 C 
ATOM     50  C   UNL A   1      45.744  27.196  31.134  1.00  0.00     0.029 A 
ATOM     51  C   UNL A   1      45.066  28.208  31.943  1.00  0.00     0.049 A 
ATOM     52  H   UNL A   1      44.393  30.075  31.307  1.00  0.00     0.167 HD
ATOM     53  C   UNL A   1      43.093  34.017  29.825  1.00  0.00     0.034 A 
ATOM     54  C   UNL A   1      44.752  28.100  33.252  1.00  0.00     0.034 A 
ATOM     55  C   UNL A   1      42.651  33.956  31.196  1.00  0.00     0.049 A 
ATOM     56  C   UNL A   1      44.052  29.255  33.935  1.00  0.00     0.074 A 
ATOM     57  C   UNL A   1      41.922  34.892  31.908  1.00  0.00     0.029 A 
ATOM     58  N   UNL A   1      42.910  32.907  32.069  1.00  0.00    -0.354 N 
ATOM     59  N   UNL A   1      43.664  30.404  33.429  1.00  0.00    -0.248 NA
ATOM     60  C   UNL A   1      43.742  29.094  35.362  1.00  0.00     0.031 C 
ATOM     61  C   UNL A   1      41.815  34.450  33.230  1.00  0.00     0.029 A 
ATOM     62  C   UNL A   1      42.391  33.192  33.323  1.00  0.00     0.049 A 
ATOM     63  H   UNL A   1      43.393  32.082  31.832  1.00  0.00     0.167 HD
ATOM     64  C   UNL A   1      43.030  31.084  34.469  1.00  0.00     0.074 A 
ATOM     65  C   UNL A   1      43.080  30.211  35.623  1.00  0.00     0.031 C 
ATOM     66  C   UNL A   1      42.452  32.313  34.468  1.00  0.00     0.034 A 
BRANCH  53  67
ATOM     67  C   UNL A   1      42.808  35.259  29.016  1.00  0.00     0.023 A 
ATOM     68  C   UNL A   1      43.797  36.228  28.770  1.00  0.00     0.031 A 
ATOM     69  C   UNL A   1      41.517  35.496  28.513  1.00  0.00     0.131 A 
ATOM     70  C   UNL A   1      43.460  37.420  28.110  1.00  0.00     0.055 A 
ATOM     71  C   UNL A   1      41.210  36.644  27.781  1.00  0.00     0.041 A 
ATOM     72  F   UNL A   1      40.524  34.621  28.740  1.00  0.00    -0.206 F 
ATOM     73  C   UNL A   1      42.180  37.622  27.589  1.00  0.00     0.022 A 
BRANCH  70  74
ATOM     74  S   UNL A   1      44.676  38.766  28.079  1.00  0.00     0.124 S 
ATOM     75  O   UNL A   1      45.679  38.280  29.023  1.00  0.00    -0.237 OA
ATOM     76  O   UNL A   1      45.078  38.796  26.678  1.00  0.00    -0.237 OA
ATOM     77  O   UNL A   1      43.913  39.927  28.535  1.00  0.00    -0.744 OA
ENDBRANCH  70  74
ENDBRANCH  53  67
BRANCH  54  78
ATOM     78  C   UNL A   1      45.130  26.880  34.026  1.00  0.00     0.023 A 
ATOM     79  C   UNL A   1      44.376  25.698  33.942  1.00  0.00     0.031 A 
ATOM     80  C   UNL A   1      46.214  26.903  34.923  1.00  0.00     0.131 A 
ATOM     81  C   UNL A   1      44.684  24.609  34.774  1.00  0.00     0.055 A 
ATOM     82  C   UNL A   1      46.554  25.796  35.703  1.00  0.00     0.041 A 
ATOM     83  F   UNL A   1      46.965  28.009  35.054  1.00  0.00    -0.206 F 
ATOM     84  C   UNL A   1      45.777  24.644  35.641  1.00  0.00     0.022 A 
BRANCH  81  85
ATOM     85  S   UNL A   1      43.570  23.177  34.781  1.00  0.00     0.124 S 
ATOM     86  O   UNL A   1      42.411  23.708  35.489  1.00  0.00    -0.237 OA
ATOM     87  O   UNL A   1      43.391  22.925  33.354  1.00  0.00    -0.237 OA
ATOM     88  O   UNL A   1      44.330  22.157  35.500  1.00  0.00    -0.744 OA
ENDBRANCH  81  85
ENDBRANCH  54  78
BRANCH  66  89
ATOM     89  C   UNL A   1      41.772  32.763  35.741  1.00  0.00     0.023 A 
ATOM     90  C   UNL A   1      40.459  32.379  36.063  1.00  0.00     0.031 A 
ATOM     91  C   UNL A   1      42.459  33.591  36.649  1.00  0.00     0.131 A 
ATOM     92  C   UNL A   1      39.855  32.867  37.232  1.00  0.00     0.055 A 
ATOM     93  C   UNL A   1      41.876  34.016  37.844  1.00  0.00     0.041 A 
ATOM     94  F   UNL A   1      43.715  33.993  36.394  1.00  0.00    -0.206 F 
ATOM     95  C   UNL A   1      40.562  33.667  38.134  1.00  0.00     0.022 A 
BRANCH  92  96
ATOM     96  S   UNL A   1      38.095  32.527  37.511  1.00  0.00     0.124 S 
ATOM     97  O   UNL A   1      37.845  31.435  36.576  1.00  0.00    -0.237 OA
ATOM     98  O   UNL A   1      38.066  32.175  38.927  1.00  0.00    -0.237 OA
ATOM     99  O   UNL A   1      37.443  33.792  37.174  1.00  0.00    -0.744 OA
ENDBRANCH  92  96
ENDBRANCH  66  89
ENDBRANCH  40  41
ENDBRANCH  33  35
ENDBRANCH  32  33
ENDBRANCH  31  32
ENDBRANCH  30  31
ENDBRANCH  29  30
ENDBRANCH  28  29
ENDBRANCH  27  28
ENDBRANCH   1  27
TORSDOF 26
ENDMDL
