MODEL 1
REMARK VINA RESULT:      -9.8      0.000      0.000
REMARK SMILES CSCC[C@@H](CO)n1ccnc1-c1ccccc1C(=O)OCCOCCOCCOCCOC(=O)c1ccc(-c2c3nc(c(-c4cc(S(=O)(=O)[O-])ccc4F)c4ccc([nH]4)c(-c4cc(S(=O)(=O)[O-])ccc4F)c4nc(c(-c5cc(S(=O)(=O)[O-])ccc5F)c5ccc2[nH]5)C=C4)C=C3)cc1
REMARK SMILES IDX 26 1 25 2 24 3 23 4 22 5 21 6 19 7 20 8 18 9 13 10 14 11
REMARK SMILES IDX 15 12 17 13 16 14 12 15 8 16 9 17 10 18 11 19 5 20 4 21 3 22
REMARK SMILES IDX 2 23 1 24 6 25 7 26 27 28 28 29 29 30 30 31 31 32 32 33
REMARK SMILES IDX 33 34 34 35 35 36 36 37 37 38 98 39 38 40 97 41 39 42 40 43
REMARK SMILES IDX 41 44 91 45 42 46 96 47 90 48 92 49 43 50 95 51 89 52 88 53
REMARK SMILES IDX 44 55 76 56 56 57 75 58 57 59 60 60 74 61 93 62 58 63 59 64
REMARK SMILES IDX 73 66 94 67 61 68 45 69 46 70 54 71 47 72 53 73 55 74 52 75
REMARK SMILES IDX 48 76 49 77 50 78 51 79 77 80 78 81 86 82 79 83 85 84 87 85
REMARK SMILES IDX 84 86 80 87 81 88 82 89 83 90 62 91 63 92 71 93 64 94 70 95
REMARK SMILES IDX 72 96 69 97 65 98 66 99 67 100 68 101
REMARK H PARENT 7 27 92 54 60 65
REMARK Flexibility Score: inf
ROOT
ATOM      1  C   UNL A   1      33.546  20.459  25.730  1.00  0.00     0.188 C 
ENDROOT
BRANCH   1   2
ATOM      2  C   UNL A   1      32.170  21.173  25.710  1.00  0.00     0.188 C 
BRANCH   2   3
ATOM      3  O   UNL A   1      31.797  22.004  24.609  1.00  0.00    -0.376 OA
BRANCH   3   4
ATOM      4  C   UNL A   1      31.298  23.307  24.889  1.00  0.00     0.202 C 
BRANCH   4   5
ATOM      5  C   UNL A   1      30.521  23.428  26.193  1.00  0.00     0.261 C 
BRANCH   5   6
ATOM      6  O   UNL A   1      30.905  24.628  26.894  1.00  0.00    -0.460 OA
BRANCH   6   7
ATOM      7  C   UNL A   1      30.657  25.777  26.251  1.00  0.00     0.338 C 
ATOM      8  O   UNL A   1      29.592  26.087  25.743  1.00  0.00    -0.246 OA
BRANCH   7   9
ATOM      9  C   UNL A   1      31.755  26.744  26.430  1.00  0.00     0.071 A 
ATOM     10  C   UNL A   1      32.984  26.799  25.753  1.00  0.00     0.032 A 
ATOM     11  C   UNL A   1      33.795  27.934  26.024  1.00  0.00     0.013 A 
ATOM     12  C   UNL A   1      33.448  28.918  26.952  1.00  0.00     0.001 A 
ATOM     13  C   UNL A   1      31.423  27.728  27.392  1.00  0.00     0.016 A 
ATOM     14  C   UNL A   1      32.270  28.798  27.665  1.00  0.00     0.001 A 
BRANCH  10  15
ATOM     15  C   UNL A   1      33.658  25.793  24.892  1.00  0.00     0.141 A 
ATOM     16  N   UNL A   1      33.814  25.705  23.514  1.00  0.00    -0.326 N 
ATOM     17  C   UNL A   1      34.688  24.674  23.251  1.00  0.00     0.108 A 
ATOM     18  C   UNL A   1      34.994  24.128  24.466  1.00  0.00     0.131 A 
ATOM     19  N   UNL A   1      34.369  24.821  25.457  1.00  0.00    -0.237 NA
BRANCH  16  20
ATOM     20  C   UNL A   1      33.101  26.445  22.471  1.00  0.00     0.115 C 
BRANCH  20  21
ATOM     21  C   UNL A   1      31.566  26.479  22.641  1.00  0.00     0.039 C 
BRANCH  21  22
ATOM     22  C   UNL A   1      30.932  27.825  22.269  1.00  0.00     0.071 C 
BRANCH  22  23
ATOM     23  S   UNL A   1      30.593  28.922  23.690  1.00  0.00    -0.165 SA
ATOM     24  C   UNL A   1      29.135  29.809  23.092  1.00  0.00     0.085 C 
ENDBRANCH  22  23
ENDBRANCH  21  22
ENDBRANCH  20  21
BRANCH  20  25
ATOM     25  C   UNL A   1      33.720  27.852  22.364  1.00  0.00     0.181 C 
BRANCH  25  26
ATOM     26  O   UNL A   1      34.047  28.221  21.028  1.00  0.00    -0.394 OA
ATOM     27  H   UNL A   1      33.748  27.526  20.418  1.00  0.00     0.210 HD
ENDBRANCH  25  26
ENDBRANCH  20  25
ENDBRANCH  16  20
ENDBRANCH  10  15
ENDBRANCH   7   9
ENDBRANCH   6   7
ENDBRANCH   5   6
ENDBRANCH   4   5
ENDBRANCH   3   4
ENDBRANCH   2   3
ENDBRANCH   1   2
BRANCH   1  28
ATOM     28  O   UNL A   1      34.303  20.548  24.525  1.00  0.00    -0.377 OA
BRANCH  28  29
ATOM     29  C   UNL A   1      35.715  20.591  24.746  1.00  0.00     0.188 C 
BRANCH  29  30
ATOM     30  C   UNL A   1      36.142  21.412  25.982  1.00  0.00     0.188 C 
BRANCH  30  31
ATOM     31  O   UNL A   1      37.373  22.110  25.795  1.00  0.00    -0.376 OA
BRANCH  31  32
ATOM     32  C   UNL A   1      38.565  21.365  25.593  1.00  0.00     0.202 C 
BRANCH  32  33
ATOM     33  C   UNL A   1      39.768  21.902  26.369  1.00  0.00     0.261 C 
BRANCH  33  34
ATOM     34  O   UNL A   1      39.907  23.315  26.299  1.00  0.00    -0.460 OA
BRANCH  34  35
ATOM     35  C   UNL A   1      41.105  23.784  26.704  1.00  0.00     0.338 C 
ATOM     36  O   UNL A   1      42.193  23.543  26.215  1.00  0.00    -0.246 OA
BRANCH  35  37
ATOM     37  C   UNL A   1      40.926  24.595  27.910  1.00  0.00     0.060 A 
ATOM     38  C   UNL A   1      39.642  25.110  28.066  1.00  0.00     0.016 A 
ATOM     39  C   UNL A   1      42.048  25.136  28.556  1.00  0.00     0.016 A 
ATOM     40  C   UNL A   1      39.536  26.372  28.582  1.00  0.00     0.010 A 
ATOM     41  C   UNL A   1      41.939  26.402  29.074  1.00  0.00     0.010 A 
ATOM     42  C   UNL A   1      40.708  27.037  28.958  1.00  0.00    -0.014 A 
BRANCH  42  43
ATOM     43  C   UNL A   1      40.582  28.455  29.169  1.00  0.00     0.031 A 
ATOM     44  C   UNL A   1      41.696  29.235  28.630  1.00  0.00     0.074 A 
ATOM     45  C   UNL A   1      39.563  29.008  29.844  1.00  0.00     0.049 A 
ATOM     46  N   UNL A   1      42.649  29.794  29.291  1.00  0.00    -0.248 NA
ATOM     47  C   UNL A   1      41.858  29.252  27.174  1.00  0.00     0.031 C 
ATOM     48  C   UNL A   1      38.277  28.409  30.205  1.00  0.00     0.029 A 
ATOM     49  N   UNL A   1      39.453  30.291  30.274  1.00  0.00    -0.354 N 
ATOM     50  C   UNL A   1      43.425  30.433  28.340  1.00  0.00     0.074 A 
ATOM     51  C   UNL A   1      43.010  29.911  27.063  1.00  0.00     0.031 C 
ATOM     52  C   UNL A   1      37.437  29.393  30.601  1.00  0.00     0.029 A 
ATOM     53  C   UNL A   1      38.170  30.650  30.649  1.00  0.00     0.049 A 
ATOM     54  H   UNL A   1      40.217  30.911  30.315  1.00  0.00     0.167 HD
ATOM     55  C   UNL A   1      44.181  31.512  28.667  1.00  0.00     0.034 A 
ATOM     56  C   UNL A   1      37.734  31.911  30.880  1.00  0.00     0.034 A 
ATOM     57  C   UNL A   1      44.411  31.586  30.094  1.00  0.00     0.049 A 
ATOM     58  C   UNL A   1      38.917  32.737  31.235  1.00  0.00     0.074 A 
ATOM     59  C   UNL A   1      44.973  30.730  31.024  1.00  0.00     0.029 A 
ATOM     60  N   UNL A   1      43.712  32.519  30.827  1.00  0.00    -0.354 N 
ATOM     61  N   UNL A   1      39.617  32.568  32.325  1.00  0.00    -0.248 NA
ATOM     62  C   UNL A   1      39.599  33.477  30.182  1.00  0.00     0.031 C 
ATOM     63  C   UNL A   1      44.208  30.911  32.213  1.00  0.00     0.029 A 
ATOM     64  C   UNL A   1      43.247  31.891  31.958  1.00  0.00     0.049 A 
ATOM     65  H   UNL A   1      43.572  33.463  30.586  1.00  0.00     0.167 HD
ATOM     66  C   UNL A   1      40.933  32.795  31.954  1.00  0.00     0.074 A 
ATOM     67  C   UNL A   1      40.846  33.466  30.661  1.00  0.00     0.031 C 
ATOM     68  C   UNL A   1      41.971  32.175  32.592  1.00  0.00     0.034 A 
BRANCH  55  69
ATOM     69  C   UNL A   1      44.432  32.663  27.730  1.00  0.00     0.023 A 
ATOM     70  C   UNL A   1      43.828  33.892  28.045  1.00  0.00     0.031 A 
ATOM     71  C   UNL A   1      44.993  32.565  26.434  1.00  0.00     0.131 A 
ATOM     72  C   UNL A   1      43.730  34.911  27.084  1.00  0.00     0.055 A 
ATOM     73  C   UNL A   1      44.967  33.612  25.511  1.00  0.00     0.041 A 
ATOM     74  F   UNL A   1      45.507  31.429  25.947  1.00  0.00    -0.206 F 
ATOM     75  C   UNL A   1      44.305  34.785  25.823  1.00  0.00     0.022 A 
BRANCH  72  76
ATOM     76  S   UNL A   1      42.664  36.326  27.452  1.00  0.00     0.124 S 
ATOM     77  O   UNL A   1      42.764  37.099  26.218  1.00  0.00    -0.237 OA
ATOM     78  O   UNL A   1      41.383  35.677  27.704  1.00  0.00    -0.237 OA
ATOM     79  O   UNL A   1      43.300  36.932  28.620  1.00  0.00    -0.744 OA
ENDBRANCH  72  76
ENDBRANCH  55  69
BRANCH  56  80
ATOM     80  C   UNL A   1      36.419  32.459  30.468  1.00  0.00     0.023 A 
ATOM     81  C   UNL A   1      35.633  33.245  31.328  1.00  0.00     0.031 A 
ATOM     82  C   UNL A   1      36.013  32.394  29.114  1.00  0.00     0.131 A 
ATOM     83  C   UNL A   1      34.492  33.912  30.831  1.00  0.00     0.055 A 
ATOM     84  C   UNL A   1      34.873  33.037  28.632  1.00  0.00     0.041 A 
ATOM     85  F   UNL A   1      36.759  31.768  28.189  1.00  0.00    -0.206 F 
ATOM     86  C   UNL A   1      34.109  33.808  29.491  1.00  0.00     0.022 A 
BRANCH  83  87
ATOM     87  S   UNL A   1      33.551  35.029  31.915  1.00  0.00     0.124 S 
ATOM     88  O   UNL A   1      32.520  35.535  31.016  1.00  0.00    -0.237 OA
ATOM     89  O   UNL A   1      33.105  34.133  32.975  1.00  0.00    -0.237 OA
ATOM     90  O   UNL A   1      34.546  36.018  32.329  1.00  0.00    -0.744 OA
ENDBRANCH  83  87
ENDBRANCH  56  80
BRANCH  68  91
ATOM     91  C   UNL A   1      41.706  31.519  33.933  1.00  0.00     0.023 A 
ATOM     92  C   UNL A   1      41.794  32.178  35.179  1.00  0.00     0.031 A 
ATOM     93  C   UNL A   1      41.231  30.195  33.931  1.00  0.00     0.131 A 
ATOM     94  C   UNL A   1      41.428  31.508  36.361  1.00  0.00     0.055 A 
ATOM     95  C   UNL A   1      40.850  29.539  35.103  1.00  0.00     0.041 A 
ATOM     96  F   UNL A   1      41.093  29.521  32.776  1.00  0.00    -0.206 F 
ATOM     97  C   UNL A   1      40.955  30.192  36.324  1.00  0.00     0.022 A 
BRANCH  94  98
ATOM     98  S   UNL A   1      41.568  32.338  37.976  1.00  0.00     0.124 S 
ATOM     99  O   UNL A   1      42.081  33.660  37.639  1.00  0.00    -0.237 OA
ATOM    100  O   UNL A   1      40.194  32.291  38.471  1.00  0.00    -0.237 OA
ATOM    101  O   UNL A   1      42.507  31.490  38.713  1.00  0.00    -0.744 OA
ENDBRANCH  94  98
ENDBRANCH  68  91
ENDBRANCH  42  43
ENDBRANCH  35  37
ENDBRANCH  34  35
ENDBRANCH  33  34
ENDBRANCH  32  33
ENDBRANCH  31  32
ENDBRANCH  30  31
ENDBRANCH  29  30
ENDBRANCH  28  29
ENDBRANCH   1  28
TORSDOF 30
ENDMDL
MODEL 2
REMARK VINA RESULT:      -8.9      2.396      2.715
REMARK SMILES CSCC[C@@H](CO)n1ccnc1-c1ccccc1C(=O)OCCOCCOCCOCCOC(=O)c1ccc(-c2c3nc(c(-c4cc(S(=O)(=O)[O-])ccc4F)c4ccc([nH]4)c(-c4cc(S(=O)(=O)[O-])ccc4F)c4nc(c(-c5cc(S(=O)(=O)[O-])ccc5F)c5ccc2[nH]5)C=C4)C=C3)cc1
REMARK SMILES IDX 26 1 25 2 24 3 23 4 22 5 21 6 19 7 20 8 18 9 13 10 14 11
REMARK SMILES IDX 15 12 17 13 16 14 12 15 8 16 9 17 10 18 11 19 5 20 4 21 3 22
REMARK SMILES IDX 2 23 1 24 6 25 7 26 27 28 28 29 29 30 30 31 31 32 32 33
REMARK SMILES IDX 33 34 34 35 35 36 36 37 37 38 98 39 38 40 97 41 39 42 40 43
REMARK SMILES IDX 41 44 91 45 42 46 96 47 90 48 92 49 43 50 95 51 89 52 88 53
REMARK SMILES IDX 44 55 76 56 56 57 75 58 57 59 60 60 74 61 93 62 58 63 59 64
REMARK SMILES IDX 73 66 94 67 61 68 45 69 46 70 54 71 47 72 53 73 55 74 52 75
REMARK SMILES IDX 48 76 49 77 50 78 51 79 77 80 78 81 86 82 79 83 85 84 87 85
REMARK SMILES IDX 84 86 80 87 81 88 82 89 83 90 62 91 63 92 71 93 64 94 70 95
REMARK SMILES IDX 72 96 69 97 65 98 66 99 67 100 68 101
REMARK H PARENT 7 27 92 54 60 65
REMARK Flexibility Score: inf
ROOT
ATOM      1  C   UNL A   1      33.458  20.522  25.752  1.00  0.00     0.188 C 
ENDROOT
BRANCH   1   2
ATOM      2  C   UNL A   1      32.226  21.462  25.743  1.00  0.00     0.188 C 
BRANCH   2   3
ATOM      3  O   UNL A   1      32.035  22.402  24.684  1.00  0.00    -0.376 OA
BRANCH   3   4
ATOM      4  C   UNL A   1      31.024  23.393  24.838  1.00  0.00     0.202 C 
BRANCH   4   5
ATOM      5  C   UNL A   1      30.560  23.615  26.271  1.00  0.00     0.261 C 
BRANCH   5   6
ATOM      6  O   UNL A   1      31.315  24.682  26.881  1.00  0.00    -0.460 OA
BRANCH   6   7
ATOM      7  C   UNL A   1      30.930  25.922  26.553  1.00  0.00     0.338 C 
ATOM      8  O   UNL A   1      29.774  26.301  26.455  1.00  0.00    -0.246 OA
BRANCH   7   9
ATOM      9  C   UNL A   1      32.067  26.859  26.555  1.00  0.00     0.071 A 
ATOM     10  C   UNL A   1      33.200  26.853  25.723  1.00  0.00     0.032 A 
ATOM     11  C   UNL A   1      34.069  27.970  25.846  1.00  0.00     0.013 A 
ATOM     12  C   UNL A   1      33.873  28.995  26.775  1.00  0.00     0.001 A 
ATOM     13  C   UNL A   1      31.890  27.884  27.515  1.00  0.00     0.016 A 
ATOM     14  C   UNL A   1      32.794  28.935  27.637  1.00  0.00     0.001 A 
BRANCH  10  15
ATOM     15  C   UNL A   1      33.728  25.799  24.820  1.00  0.00     0.141 A 
ATOM     16  N   UNL A   1      33.649  25.631  23.442  1.00  0.00    -0.326 N 
ATOM     17  C   UNL A   1      34.476  24.586  23.095  1.00  0.00     0.108 A 
ATOM     18  C   UNL A   1      34.990  24.113  24.269  1.00  0.00     0.131 A 
ATOM     19  N   UNL A   1      34.536  24.863  25.310  1.00  0.00    -0.237 NA
BRANCH  16  20
ATOM     20  C   UNL A   1      32.762  26.307  22.495  1.00  0.00     0.115 C 
BRANCH  20  21
ATOM     21  C   UNL A   1      31.415  26.771  23.093  1.00  0.00     0.039 C 
BRANCH  21  22
ATOM     22  C   UNL A   1      30.617  27.703  22.173  1.00  0.00     0.071 C 
BRANCH  22  23
ATOM     23  S   UNL A   1      29.571  28.918  23.048  1.00  0.00    -0.165 SA
ATOM     24  C   UNL A   1      30.731  29.528  24.294  1.00  0.00     0.085 C 
ENDBRANCH  22  23
ENDBRANCH  21  22
ENDBRANCH  20  21
BRANCH  20  25
ATOM     25  C   UNL A   1      33.545  27.456  21.831  1.00  0.00     0.181 C 
BRANCH  25  26
ATOM     26  O   UNL A   1      33.756  28.566  22.697  1.00  0.00    -0.394 OA
ATOM     27  H   UNL A   1      34.452  29.135  22.330  1.00  0.00     0.210 HD
ENDBRANCH  25  26
ENDBRANCH  20  25
ENDBRANCH  16  20
ENDBRANCH  10  15
ENDBRANCH   7   9
ENDBRANCH   6   7
ENDBRANCH   5   6
ENDBRANCH   4   5
ENDBRANCH   3   4
ENDBRANCH   2   3
ENDBRANCH   1   2
BRANCH   1  28
ATOM     28  O   UNL A   1      34.277  20.569  24.585  1.00  0.00    -0.377 OA
BRANCH  28  29
ATOM     29  C   UNL A   1      35.676  20.592  24.876  1.00  0.00     0.188 C 
BRANCH  29  30
ATOM     30  C   UNL A   1      36.059  21.458  26.094  1.00  0.00     0.188 C 
BRANCH  30  31
ATOM     31  O   UNL A   1      37.252  22.216  25.892  1.00  0.00    -0.376 OA
BRANCH  31  32
ATOM     32  C   UNL A   1      38.460  21.534  25.590  1.00  0.00     0.202 C 
BRANCH  32  33
ATOM     33  C   UNL A   1      39.664  22.021  26.397  1.00  0.00     0.261 C 
BRANCH  33  34
ATOM     34  O   UNL A   1      40.112  23.319  26.027  1.00  0.00    -0.460 OA
BRANCH  34  35
ATOM     35  C   UNL A   1      41.306  23.672  26.545  1.00  0.00     0.338 C 
ATOM     36  O   UNL A   1      42.407  23.330  26.154  1.00  0.00    -0.246 OA
BRANCH  35  37
ATOM     37  C   UNL A   1      41.093  24.494  27.737  1.00  0.00     0.060 A 
ATOM     38  C   UNL A   1      39.930  25.258  27.704  1.00  0.00     0.016 A 
ATOM     39  C   UNL A   1      42.177  24.791  28.577  1.00  0.00     0.016 A 
ATOM     40  C   UNL A   1      39.993  26.512  28.246  1.00  0.00     0.010 A 
ATOM     41  C   UNL A   1      42.238  26.050  29.121  1.00  0.00     0.010 A 
ATOM     42  C   UNL A   1      41.195  26.922  28.834  1.00  0.00    -0.014 A 
BRANCH  42  43
ATOM     43  C   UNL A   1      41.320  28.335  29.078  1.00  0.00     0.031 A 
ATOM     44  C   UNL A   1      42.454  28.956  28.393  1.00  0.00     0.074 A 
ATOM     45  C   UNL A   1      40.504  29.012  29.901  1.00  0.00     0.049 A 
ATOM     46  N   UNL A   1      43.566  29.341  28.916  1.00  0.00    -0.248 NA
ATOM     47  C   UNL A   1      42.409  28.998  26.929  1.00  0.00     0.031 C 
ATOM     48  C   UNL A   1      39.205  28.603  30.436  1.00  0.00     0.029 A 
ATOM     49  N   UNL A   1      40.656  30.282  30.357  1.00  0.00    -0.354 N 
ATOM     50  C   UNL A   1      44.288  29.889  27.870  1.00  0.00     0.074 A 
ATOM     51  C   UNL A   1      43.622  29.479  26.660  1.00  0.00     0.031 C 
ATOM     52  C   UNL A   1      38.592  29.687  30.962  1.00  0.00     0.029 A 
ATOM     53  C   UNL A   1      39.510  30.817  30.918  1.00  0.00     0.049 A 
ATOM     54  H   UNL A   1      41.504  30.777  30.295  1.00  0.00     0.167 HD
ATOM     55  C   UNL A   1      45.241  30.829  28.097  1.00  0.00     0.034 A 
ATOM     56  C   UNL A   1      39.311  32.121  31.226  1.00  0.00     0.034 A 
ATOM     57  C   UNL A   1      45.679  30.818  29.477  1.00  0.00     0.049 A 
ATOM     58  C   UNL A   1      40.645  32.745  31.416  1.00  0.00     0.074 A 
ATOM     59  C   UNL A   1      46.227  29.856  30.305  1.00  0.00     0.029 A 
ATOM     60  N   UNL A   1      45.243  31.820  30.315  1.00  0.00    -0.354 N 
ATOM     61  N   UNL A   1      41.457  32.436  32.391  1.00  0.00    -0.248 NA
ATOM     62  C   UNL A   1      41.277  33.410  30.285  1.00  0.00     0.031 C 
ATOM     63  C   UNL A   1      45.675  30.109  31.595  1.00  0.00     0.029 A 
ATOM     64  C   UNL A   1      44.851  31.231  31.494  1.00  0.00     0.049 A 
ATOM     65  H   UNL A   1      45.218  32.782  30.108  1.00  0.00     0.167 HD
ATOM     66  C   UNL A   1      42.727  32.474  31.836  1.00  0.00     0.074 A 
ATOM     67  C   UNL A   1      42.563  33.194  30.578  1.00  0.00     0.031 C 
ATOM     68  C   UNL A   1      43.736  31.683  32.309  1.00  0.00     0.034 A 
BRANCH  55  69
ATOM     69  C   UNL A   1      45.531  31.961  27.148  1.00  0.00     0.023 A 
ATOM     70  C   UNL A   1      46.881  32.241  26.876  1.00  0.00     0.031 A 
ATOM     71  C   UNL A   1      44.599  32.932  26.713  1.00  0.00     0.131 A 
ATOM     72  C   UNL A   1      47.256  33.456  26.281  1.00  0.00     0.055 A 
ATOM     73  C   UNL A   1      44.971  34.101  26.046  1.00  0.00     0.041 A 
ATOM     74  F   UNL A   1      43.292  32.863  26.992  1.00  0.00    -0.206 F 
ATOM     75  C   UNL A   1      46.311  34.384  25.854  1.00  0.00     0.022 A 
BRANCH  72  76
ATOM     76  S   UNL A   1      49.014  33.884  26.258  1.00  0.00     0.124 S 
ATOM     77  O   UNL A   1      49.116  34.641  25.014  1.00  0.00    -0.237 OA
ATOM     78  O   UNL A   1      49.151  34.649  27.491  1.00  0.00    -0.237 OA
ATOM     79  O   UNL A   1      49.677  32.582  26.251  1.00  0.00    -0.744 OA
ENDBRANCH  72  76
ENDBRANCH  55  69
BRANCH  56  80
ATOM     80  C   UNL A   1      38.052  32.875  31.015  1.00  0.00     0.023 A 
ATOM     81  C   UNL A   1      37.320  32.790  29.817  1.00  0.00     0.031 A 
ATOM     82  C   UNL A   1      37.427  33.537  32.098  1.00  0.00     0.131 A 
ATOM     83  C   UNL A   1      36.031  33.359  29.735  1.00  0.00     0.055 A 
ATOM     84  C   UNL A   1      36.162  34.117  32.005  1.00  0.00     0.041 A 
ATOM     85  F   UNL A   1      37.990  33.569  33.317  1.00  0.00    -0.206 F 
ATOM     86  C   UNL A   1      35.453  34.024  30.820  1.00  0.00     0.022 A 
BRANCH  83  87
ATOM     87  S   UNL A   1      35.037  33.136  28.228  1.00  0.00     0.124 S 
ATOM     88  O   UNL A   1      35.565  34.176  27.353  1.00  0.00    -0.237 OA
ATOM     89  O   UNL A   1      35.338  31.759  27.856  1.00  0.00    -0.237 OA
ATOM     90  O   UNL A   1      33.666  33.359  28.690  1.00  0.00    -0.744 OA
ENDBRANCH  83  87
ENDBRANCH  56  80
BRANCH  68  91
ATOM     91  C   UNL A   1      43.566  31.028  33.666  1.00  0.00     0.023 A 
ATOM     92  C   UNL A   1      42.758  29.896  33.913  1.00  0.00     0.031 A 
ATOM     93  C   UNL A   1      44.353  31.509  34.728  1.00  0.00     0.131 A 
ATOM     94  C   UNL A   1      42.747  29.300  35.189  1.00  0.00     0.055 A 
ATOM     95  C   UNL A   1      44.355  30.904  35.987  1.00  0.00     0.041 A 
ATOM     96  F   UNL A   1      45.168  32.562  34.551  1.00  0.00    -0.206 F 
ATOM     97  C   UNL A   1      43.545  29.800  36.223  1.00  0.00     0.022 A 
BRANCH  94  98
ATOM     98  S   UNL A   1      41.684  27.861  35.528  1.00  0.00     0.124 S 
ATOM     99  O   UNL A   1      41.157  27.507  34.216  1.00  0.00    -0.237 OA
ATOM    100  O   UNL A   1      42.625  26.911  36.117  1.00  0.00    -0.237 OA
ATOM    101  O   UNL A   1      40.688  28.387  36.463  1.00  0.00    -0.744 OA
ENDBRANCH  94  98
ENDBRANCH  68  91
ENDBRANCH  42  43
ENDBRANCH  35  37
ENDBRANCH  34  35
ENDBRANCH  33  34
ENDBRANCH  32  33
ENDBRANCH  31  32
ENDBRANCH  30  31
ENDBRANCH  29  30
ENDBRANCH  28  29
ENDBRANCH   1  28
TORSDOF 30
ENDMDL
MODEL 3
REMARK VINA RESULT:      -8.3      2.989      8.254
REMARK SMILES CSCC[C@@H](CO)n1ccnc1-c1ccccc1C(=O)OCCOCCOCCOCCOC(=O)c1ccc(-c2c3nc(c(-c4cc(S(=O)(=O)[O-])ccc4F)c4ccc([nH]4)c(-c4cc(S(=O)(=O)[O-])ccc4F)c4nc(c(-c5cc(S(=O)(=O)[O-])ccc5F)c5ccc2[nH]5)C=C4)C=C3)cc1
REMARK SMILES IDX 26 1 25 2 24 3 23 4 22 5 21 6 19 7 20 8 18 9 13 10 14 11
REMARK SMILES IDX 15 12 17 13 16 14 12 15 8 16 9 17 10 18 11 19 5 20 4 21 3 22
REMARK SMILES IDX 2 23 1 24 6 25 7 26 27 28 28 29 29 30 30 31 31 32 32 33
REMARK SMILES IDX 33 34 34 35 35 36 36 37 37 38 98 39 38 40 97 41 39 42 40 43
REMARK SMILES IDX 41 44 91 45 42 46 96 47 90 48 92 49 43 50 95 51 89 52 88 53
REMARK SMILES IDX 44 55 76 56 56 57 75 58 57 59 60 60 74 61 93 62 58 63 59 64
REMARK SMILES IDX 73 66 94 67 61 68 45 69 46 70 54 71 47 72 53 73 55 74 52 75
REMARK SMILES IDX 48 76 49 77 50 78 51 79 77 80 78 81 86 82 79 83 85 84 87 85
REMARK SMILES IDX 84 86 80 87 81 88 82 89 83 90 62 91 63 92 71 93 64 94 70 95
REMARK SMILES IDX 72 96 69 97 65 98 66 99 67 100 68 101
REMARK H PARENT 7 27 92 54 60 65
REMARK Flexibility Score: inf
ROOT
ATOM      1  C   UNL A   1      35.233  30.593  28.307  1.00  0.00     0.188 C 
ENDROOT
BRANCH   1   2
ATOM      2  C   UNL A   1      34.637  29.773  27.134  1.00  0.00     0.188 C 
BRANCH   2   3
ATOM      3  O   UNL A   1      33.263  29.916  26.770  1.00  0.00    -0.376 OA
BRANCH   3   4
ATOM      4  C   UNL A   1      32.555  28.758  26.340  1.00  0.00     0.202 C 
BRANCH   4   5
ATOM      5  C   UNL A   1      33.285  27.910  25.307  1.00  0.00     0.261 C 
BRANCH   5   6
ATOM      6  O   UNL A   1      34.009  26.845  25.956  1.00  0.00    -0.460 OA
BRANCH   6   7
ATOM      7  C   UNL A   1      33.349  25.685  26.072  1.00  0.00     0.338 C 
ATOM      8  O   UNL A   1      32.238  25.550  26.558  1.00  0.00    -0.246 OA
BRANCH   7   9
ATOM      9  C   UNL A   1      34.017  24.606  25.323  1.00  0.00     0.071 A 
ATOM     10  C   UNL A   1      34.051  24.406  23.932  1.00  0.00     0.032 A 
ATOM     11  C   UNL A   1      34.902  23.363  23.474  1.00  0.00     0.013 A 
ATOM     12  C   UNL A   1      35.620  22.528  24.333  1.00  0.00     0.001 A 
ATOM     13  C   UNL A   1      34.723  23.737  26.189  1.00  0.00     0.016 A 
ATOM     14  C   UNL A   1      35.505  22.695  25.700  1.00  0.00     0.001 A 
BRANCH  10  15
ATOM     15  C   UNL A   1      33.237  25.013  22.850  1.00  0.00     0.141 A 
ATOM     16  N   UNL A   1      31.926  25.474  22.820  1.00  0.00    -0.326 N 
ATOM     17  C   UNL A   1      31.730  26.119  21.619  1.00  0.00     0.108 A 
ATOM     18  C   UNL A   1      32.902  25.985  20.931  1.00  0.00     0.131 A 
ATOM     19  N   UNL A   1      33.814  25.319  21.691  1.00  0.00    -0.237 NA
BRANCH  16  20
ATOM     20  C   UNL A   1      30.856  25.228  23.789  1.00  0.00     0.115 C 
BRANCH  20  21
ATOM     21  C   UNL A   1      29.543  25.991  23.505  1.00  0.00     0.039 C 
BRANCH  21  22
ATOM     22  C   UNL A   1      29.517  27.413  24.079  1.00  0.00     0.071 C 
BRANCH  22  23
ATOM     23  S   UNL A   1      29.620  28.739  22.826  1.00  0.00    -0.165 SA
ATOM     24  C   UNL A   1      28.022  29.551  23.062  1.00  0.00     0.085 C 
ENDBRANCH  22  23
ENDBRANCH  21  22
ENDBRANCH  20  21
BRANCH  20  25
ATOM     25  C   UNL A   1      30.648  23.706  23.906  1.00  0.00     0.181 C 
BRANCH  25  26
ATOM     26  O   UNL A   1      30.615  23.246  25.253  1.00  0.00    -0.394 OA
ATOM     27  H   UNL A   1      30.626  24.008  25.855  1.00  0.00     0.210 HD
ENDBRANCH  25  26
ENDBRANCH  20  25
ENDBRANCH  16  20
ENDBRANCH  10  15
ENDBRANCH   7   9
ENDBRANCH   6   7
ENDBRANCH   5   6
ENDBRANCH   4   5
ENDBRANCH   3   4
ENDBRANCH   2   3
ENDBRANCH   1   2
BRANCH   1  28
ATOM     28  O   UNL A   1      36.200  31.575  27.942  1.00  0.00    -0.377 OA
BRANCH  28  29
ATOM     29  C   UNL A   1      35.824  32.904  28.311  1.00  0.00     0.188 C 
BRANCH  29  30
ATOM     30  C   UNL A   1      34.323  33.214  28.129  1.00  0.00     0.188 C 
BRANCH  30  31
ATOM     31  O   UNL A   1      33.665  33.545  29.353  1.00  0.00    -0.376 OA
BRANCH  31  32
ATOM     32  C   UNL A   1      34.286  34.457  30.246  1.00  0.00     0.202 C 
BRANCH  32  33
ATOM     33  C   UNL A   1      34.393  33.943  31.682  1.00  0.00     0.261 C 
BRANCH  33  34
ATOM     34  O   UNL A   1      35.367  34.625  32.461  1.00  0.00    -0.460 OA
BRANCH  34  35
ATOM     35  C   UNL A   1      36.132  33.827  33.232  1.00  0.00     0.338 C 
ATOM     36  O   UNL A   1      35.751  33.019  34.060  1.00  0.00    -0.246 OA
BRANCH  35  37
ATOM     37  C   UNL A   1      37.544  34.125  32.988  1.00  0.00     0.060 A 
ATOM     38  C   UNL A   1      37.812  34.619  31.715  1.00  0.00     0.016 A 
ATOM     39  C   UNL A   1      38.527  33.543  33.803  1.00  0.00     0.016 A 
ATOM     40  C   UNL A   1      38.974  34.211  31.121  1.00  0.00     0.010 A 
ATOM     41  C   UNL A   1      39.694  33.135  33.205  1.00  0.00     0.010 A 
ATOM     42  C   UNL A   1      39.831  33.372  31.842  1.00  0.00    -0.014 A 
BRANCH  42  43
ATOM     43  C   UNL A   1      40.849  32.707  31.072  1.00  0.00     0.031 A 
ATOM     44  C   UNL A   1      40.512  31.329  30.711  1.00  0.00     0.074 A 
ATOM     45  C   UNL A   1      42.021  33.279  30.758  1.00  0.00     0.049 A 
ATOM     46  N   UNL A   1      40.992  30.250  31.223  1.00  0.00    -0.248 NA
ATOM     47  C   UNL A   1      39.390  31.134  29.790  1.00  0.00     0.031 C 
ATOM     48  C   UNL A   1      42.390  34.694  30.816  1.00  0.00     0.029 A 
ATOM     49  N   UNL A   1      43.117  32.681  30.224  1.00  0.00    -0.354 N 
ATOM     50  C   UNL A   1      40.388  29.218  30.526  1.00  0.00     0.074 A 
ATOM     51  C   UNL A   1      39.287  29.807  29.807  1.00  0.00     0.031 C 
ATOM     52  C   UNL A   1      43.542  34.870  30.130  1.00  0.00     0.029 A 
ATOM     53  C   UNL A   1      44.047  33.570  29.713  1.00  0.00     0.049 A 
ATOM     54  H   UNL A   1      43.239  31.705  30.201  1.00  0.00     0.167 HD
ATOM     55  C   UNL A   1      40.989  28.006  30.415  1.00  0.00     0.034 A 
ATOM     56  C   UNL A   1      45.098  33.250  28.920  1.00  0.00     0.034 A 
ATOM     57  C   UNL A   1      42.006  27.823  31.428  1.00  0.00     0.049 A 
ATOM     58  C   UNL A   1      45.425  31.821  29.162  1.00  0.00     0.074 A 
ATOM     59  C   UNL A   1      42.004  27.855  32.811  1.00  0.00     0.029 A 
ATOM     60  N   UNL A   1      43.329  27.920  31.059  1.00  0.00    -0.354 N 
ATOM     61  N   UNL A   1      45.889  31.367  30.295  1.00  0.00    -0.248 NA
ATOM     62  C   UNL A   1      44.837  30.809  28.296  1.00  0.00     0.031 C 
ATOM     63  C   UNL A   1      43.254  28.437  33.177  1.00  0.00     0.029 A 
ATOM     64  C   UNL A   1      43.965  28.693  32.003  1.00  0.00     0.049 A 
ATOM     65  H   UNL A   1      43.744  27.511  30.266  1.00  0.00     0.167 HD
ATOM     66  C   UNL A   1      45.289  30.130  30.468  1.00  0.00     0.074 A 
ATOM     67  C   UNL A   1      44.750  29.790  29.155  1.00  0.00     0.031 C 
ATOM     68  C   UNL A   1      45.041  29.625  31.715  1.00  0.00     0.034 A 
BRANCH  55  69
ATOM     69  C   UNL A   1      40.873  27.132  29.195  1.00  0.00     0.023 A 
ATOM     70  C   UNL A   1      41.807  27.339  28.166  1.00  0.00     0.031 A 
ATOM     71  C   UNL A   1      39.767  26.312  28.869  1.00  0.00     0.131 A 
ATOM     72  C   UNL A   1      41.586  26.818  26.881  1.00  0.00     0.055 A 
ATOM     73  C   UNL A   1      39.595  25.727  27.613  1.00  0.00     0.041 A 
ATOM     74  F   UNL A   1      38.740  26.108  29.704  1.00  0.00    -0.206 F 
ATOM     75  C   UNL A   1      40.493  26.004  26.599  1.00  0.00     0.022 A 
BRANCH  72  76
ATOM     76  S   UNL A   1      42.654  27.389  25.536  1.00  0.00     0.124 S 
ATOM     77  O   UNL A   1      41.919  28.551  25.049  1.00  0.00    -0.237 OA
ATOM     78  O   UNL A   1      43.900  27.665  26.243  1.00  0.00    -0.237 OA
ATOM     79  O   UNL A   1      42.690  26.247  24.626  1.00  0.00    -0.744 OA
ENDBRANCH  72  76
ENDBRANCH  55  69
BRANCH  56  80
ATOM     80  C   UNL A   1      45.566  34.033  27.751  1.00  0.00     0.023 A 
ATOM     81  C   UNL A   1      46.864  34.571  27.682  1.00  0.00     0.031 A 
ATOM     82  C   UNL A   1      44.794  34.078  26.567  1.00  0.00     0.131 A 
ATOM     83  C   UNL A   1      47.334  35.130  26.474  1.00  0.00     0.055 A 
ATOM     84  C   UNL A   1      45.254  34.652  25.382  1.00  0.00     0.041 A 
ATOM     85  F   UNL A   1      43.590  33.488  26.495  1.00  0.00    -0.206 F 
ATOM     86  C   UNL A   1      46.534  35.176  25.329  1.00  0.00     0.022 A 
BRANCH  83  87
ATOM     87  S   UNL A   1      49.054  35.708  26.351  1.00  0.00     0.124 S 
ATOM     88  O   UNL A   1      49.704  34.972  27.429  1.00  0.00    -0.237 OA
ATOM     89  O   UNL A   1      49.416  35.324  24.991  1.00  0.00    -0.237 OA
ATOM     90  O   UNL A   1      48.944  37.150  26.570  1.00  0.00    -0.744 OA
ENDBRANCH  83  87
ENDBRANCH  56  80
BRANCH  68  91
ATOM     91  C   UNL A   1      45.745  30.253  32.901  1.00  0.00     0.023 A 
ATOM     92  C   UNL A   1      45.379  31.483  33.491  1.00  0.00     0.031 A 
ATOM     93  C   UNL A   1      46.759  29.508  33.530  1.00  0.00     0.131 A 
ATOM     94  C   UNL A   1      46.031  31.931  34.656  1.00  0.00     0.055 A 
ATOM     95  C   UNL A   1      47.391  29.945  34.695  1.00  0.00     0.041 A 
ATOM     96  F   UNL A   1      47.133  28.314  33.038  1.00  0.00    -0.206 F 
ATOM     97  C   UNL A   1      47.033  31.163  35.259  1.00  0.00     0.022 A 
BRANCH  94  98
ATOM     98  S   UNL A   1      45.590  33.530  35.406  1.00  0.00     0.124 S 
ATOM     99  O   UNL A   1      46.783  33.898  36.157  1.00  0.00    -0.237 OA
ATOM    100  O   UNL A   1      45.291  34.352  34.235  1.00  0.00    -0.237 OA
ATOM    101  O   UNL A   1      44.425  33.208  36.233  1.00  0.00    -0.744 OA
ENDBRANCH  94  98
ENDBRANCH  68  91
ENDBRANCH  42  43
ENDBRANCH  35  37
ENDBRANCH  34  35
ENDBRANCH  33  34
ENDBRANCH  32  33
ENDBRANCH  31  32
ENDBRANCH  30  31
ENDBRANCH  29  30
ENDBRANCH  28  29
ENDBRANCH   1  28
TORSDOF 30
ENDMDL
