MODEL 1
REMARK VINA RESULT:      -9.6      0.000      0.000
REMARK SMILES C/C(=N\[NH+]=C1/NC(=O)[C@@H](CC(=O)OCCOCCOCCOCCOC(=O)c2ccc(-c3c4nc(c(-c5cc(S(=O)(=O)[O-])ccc5F)c5ccc([nH]5)c(-c5cc(S(=O)(=O)[O-])ccc5F)c5nc(c(-c6cc(S(=O)(=O)[O-])ccc6F)c6ccc3[nH]6)C=C5)C=C4)cc2)S1)c1ccc(Br)cc1
REMARK SMILES IDX 19 1 18 2 17 3 16 4 15 5 14 6 13 7 11 8 12 9 10 10 9 11 4 12
REMARK SMILES IDX 5 13 6 15 91 16 7 17 8 19 3 20 1 21 2 22 92 23 93 24 98 25
REMARK SMILES IDX 94 26 97 27 95 28 96 29 20 30 21 31 22 32 23 33 24 34 25 35
REMARK SMILES IDX 26 36 27 37 28 38 29 39 90 40 30 41 89 42 31 43 32 44 33 45
REMARK SMILES IDX 83 46 34 47 88 48 82 49 84 50 35 51 87 52 81 53 80 54 36 56
REMARK SMILES IDX 68 57 48 58 67 59 49 60 52 61 66 62 85 63 50 64 51 65 65 67
REMARK SMILES IDX 86 68 53 69 37 70 38 71 46 72 39 73 45 74 47 75 44 76 40 77
REMARK SMILES IDX 41 78 42 79 43 80 69 81 70 82 78 83 71 84 77 85 79 86 76 87
REMARK SMILES IDX 72 88 73 89 74 90 75 91 54 92 55 93 63 94 56 95 62 96 64 97
REMARK SMILES IDX 61 98 57 99 58 100 59 101 60 102
REMARK H PARENT 4 14 6 18 84 55 52 66
REMARK Flexibility Score: inf
ROOT
ATOM      1  O   UNL A   1      42.574  19.129  25.274  1.00  0.00    -0.377 OA
ENDROOT
BRANCH   1   2
ATOM      2  C   UNL A   1      41.991  19.251  26.564  1.00  0.00     0.188 C 
BRANCH   2   3
ATOM      3  C   UNL A   1      40.885  20.298  26.741  1.00  0.00     0.188 C 
BRANCH   3   4
ATOM      4  O   UNL A   1      39.781  20.191  25.857  1.00  0.00    -0.376 OA
BRANCH   4   5
ATOM      5  C   UNL A   1      38.952  21.333  25.619  1.00  0.00     0.202 C 
BRANCH   5   6
ATOM      6  C   UNL A   1      37.476  21.157  25.225  1.00  0.00     0.261 C 
BRANCH   6   7
ATOM      7  O   UNL A   1      37.036  22.194  24.328  1.00  0.00    -0.463 OA
BRANCH   7   8
ATOM      8  C   UNL A   1      36.390  23.244  24.891  1.00  0.00     0.307 C 
ATOM      9  O   UNL A   1      36.686  23.741  25.972  1.00  0.00    -0.252 OA
BRANCH   8  10
ATOM     10  C   UNL A   1      35.426  23.914  23.933  1.00  0.00     0.150 C 
BRANCH  10  11
ATOM     11  C   UNL A   1      33.954  24.023  24.306  1.00  0.00     0.184 C 
ATOM     12  N   UNL A   1      31.791  26.960  25.610  1.00  0.00    -0.142 N 
ATOM     13  C   UNL A   1      32.444  26.033  24.991  1.00  0.00     0.337 C 
ATOM     14  H   UNL A   1      31.965  27.159  26.558  1.00  0.00     0.343 HD
ATOM     15  N   UNL A   1      32.224  25.582  23.738  1.00  0.00    -0.202 N 
ATOM     16  S   UNL A   1      33.733  25.144  25.753  1.00  0.00    -0.020 SA
ATOM     17  C   UNL A   1      32.956  24.520  23.279  1.00  0.00     0.322 C 
ATOM     18  H   UNL A   1      31.547  26.010  23.163  1.00  0.00     0.316 HD
ATOM     19  O   UNL A   1      32.733  23.971  22.207  1.00  0.00    -0.246 OA
BRANCH  12  20
ATOM     20  N   UNL A   1      30.823  27.676  24.885  1.00  0.00    -0.090 NA
ATOM     21  C   UNL A   1      32.246  29.671  25.211  1.00  0.00     0.071 C 
ATOM     22  C   UNL A   1      31.106  28.911  24.567  1.00  0.00     0.088 C 
BRANCH  22  23
ATOM     23  C   UNL A   1      30.179  29.663  23.631  1.00  0.00    -0.000 A 
ATOM     24  C   UNL A   1      29.516  30.808  24.097  1.00  0.00     0.011 A 
ATOM     25  C   UNL A   1      30.043  29.332  22.278  1.00  0.00     0.011 A 
ATOM     26  C   UNL A   1      28.845  31.673  23.225  1.00  0.00     0.016 A 
ATOM     27  C   UNL A   1      29.331  30.170  21.406  1.00  0.00     0.016 A 
ATOM     28  C   UNL A   1      28.766  31.353  21.876  1.00  0.00     0.018 A 
ATOM     29  Br  UNL A   1      27.907  32.532  20.679  1.00  0.00    -0.051 Br
ENDBRANCH  22  23
ENDBRANCH  12  20
ENDBRANCH  10  11
ENDBRANCH   8  10
ENDBRANCH   7   8
ENDBRANCH   6   7
ENDBRANCH   5   6
ENDBRANCH   4   5
ENDBRANCH   3   4
ENDBRANCH   2   3
ENDBRANCH   1   2
BRANCH   1  30
ATOM     30  C   UNL A   1      43.905  18.618  25.176  1.00  0.00     0.188 C 
BRANCH  30  31
ATOM     31  C   UNL A   1      44.737  18.996  23.950  1.00  0.00     0.188 C 
BRANCH  31  32
ATOM     32  O   UNL A   1      44.620  20.350  23.511  1.00  0.00    -0.376 OA
BRANCH  32  33
ATOM     33  C   UNL A   1      44.982  21.365  24.443  1.00  0.00     0.202 C 
BRANCH  33  34
ATOM     34  C   UNL A   1      45.007  22.762  23.844  1.00  0.00     0.261 C 
BRANCH  34  35
ATOM     35  O   UNL A   1      44.586  23.774  24.787  1.00  0.00    -0.460 OA
BRANCH  35  36
ATOM     36  C   UNL A   1      43.322  23.643  25.257  1.00  0.00     0.338 C 
ATOM     37  O   UNL A   1      42.543  22.750  24.964  1.00  0.00    -0.246 OA
BRANCH  36  38
ATOM     38  C   UNL A   1      42.966  24.699  26.241  1.00  0.00     0.060 A 
ATOM     39  C   UNL A   1      43.903  25.717  26.448  1.00  0.00     0.016 A 
ATOM     40  C   UNL A   1      41.826  24.645  27.046  1.00  0.00     0.016 A 
ATOM     41  C   UNL A   1      43.759  26.598  27.518  1.00  0.00     0.010 A 
ATOM     42  C   UNL A   1      41.691  25.509  28.139  1.00  0.00     0.010 A 
ATOM     43  C   UNL A   1      42.686  26.457  28.407  1.00  0.00    -0.014 A 
BRANCH  43  44
ATOM     44  C   UNL A   1      42.670  27.261  29.651  1.00  0.00     0.031 A 
ATOM     45  C   UNL A   1      43.534  26.853  30.812  1.00  0.00     0.074 A 
ATOM     46  C   UNL A   1      41.913  28.370  29.713  1.00  0.00     0.049 A 
ATOM     47  N   UNL A   1      43.749  27.472  31.945  1.00  0.00    -0.248 NA
ATOM     48  C   UNL A   1      44.249  25.574  30.680  1.00  0.00     0.031 C 
ATOM     49  C   UNL A   1      41.036  28.844  28.643  1.00  0.00     0.029 A 
ATOM     50  N   UNL A   1      41.762  29.295  30.711  1.00  0.00    -0.354 N 
ATOM     51  C   UNL A   1      44.641  26.673  32.654  1.00  0.00     0.074 A 
ATOM     52  C   UNL A   1      44.885  25.499  31.841  1.00  0.00     0.031 C 
ATOM     53  C   UNL A   1      40.434  29.975  29.045  1.00  0.00     0.029 A 
ATOM     54  C   UNL A   1      40.874  30.296  30.402  1.00  0.00     0.049 A 
ATOM     55  H   UNL A   1      42.244  29.248  31.569  1.00  0.00     0.167 HD
ATOM     56  C   UNL A   1      45.210  26.910  33.862  1.00  0.00     0.034 A 
ATOM     57  C   UNL A   1      40.464  31.352  31.131  1.00  0.00     0.034 A 
ATOM     58  C   UNL A   1      44.924  28.080  34.662  1.00  0.00     0.049 A 
ATOM     59  C   UNL A   1      41.077  31.577  32.488  1.00  0.00     0.074 A 
ATOM     60  C   UNL A   1      45.465  28.449  35.882  1.00  0.00     0.029 A 
ATOM     61  N   UNL A   1      43.999  29.064  34.329  1.00  0.00    -0.354 N 
ATOM     62  N   UNL A   1      41.973  30.851  33.120  1.00  0.00    -0.248 NA
ATOM     63  C   UNL A   1      40.649  32.775  33.218  1.00  0.00     0.031 C 
ATOM     64  C   UNL A   1      44.816  29.610  36.319  1.00  0.00     0.029 A 
ATOM     65  C   UNL A   1      43.926  30.015  35.336  1.00  0.00     0.049 A 
ATOM     66  H   UNL A   1      43.470  29.083  33.498  1.00  0.00     0.167 HD
ATOM     67  C   UNL A   1      42.237  31.524  34.309  1.00  0.00     0.074 A 
ATOM     68  C   UNL A   1      41.416  32.719  34.297  1.00  0.00     0.031 C 
ATOM     69  C   UNL A   1      43.086  31.190  35.316  1.00  0.00     0.034 A 
BRANCH  56  70
ATOM     70  C   UNL A   1      46.164  25.871  34.409  1.00  0.00     0.023 A 
ATOM     71  C   UNL A   1      45.715  24.786  35.184  1.00  0.00     0.031 A 
ATOM     72  C   UNL A   1      47.543  25.965  34.155  1.00  0.00     0.131 A 
ATOM     73  C   UNL A   1      46.638  23.875  35.722  1.00  0.00     0.055 A 
ATOM     74  C   UNL A   1      48.451  25.015  34.633  1.00  0.00     0.041 A 
ATOM     75  F   UNL A   1      48.039  26.987  33.440  1.00  0.00    -0.206 F 
ATOM     76  C   UNL A   1      48.001  23.969  35.432  1.00  0.00     0.022 A 
BRANCH  73  77
ATOM     77  S   UNL A   1      46.049  22.633  36.907  1.00  0.00     0.124 S 
ATOM     78  O   UNL A   1      47.305  22.065  37.391  1.00  0.00    -0.237 OA
ATOM     79  O   UNL A   1      45.302  23.441  37.865  1.00  0.00    -0.237 OA
ATOM     80  O   UNL A   1      45.242  21.731  36.088  1.00  0.00    -0.744 OA
ENDBRANCH  73  77
ENDBRANCH  56  70
BRANCH  57  81
ATOM     81  C   UNL A   1      39.426  32.271  30.587  1.00  0.00     0.023 A 
ATOM     82  C   UNL A   1      38.062  31.944  30.638  1.00  0.00     0.031 A 
ATOM     83  C   UNL A   1      39.791  33.496  29.999  1.00  0.00     0.131 A 
ATOM     84  C   UNL A   1      37.114  32.816  30.080  1.00  0.00     0.055 A 
ATOM     85  C   UNL A   1      38.840  34.381  29.488  1.00  0.00     0.041 A 
ATOM     86  F   UNL A   1      41.082  33.859  29.931  1.00  0.00    -0.206 F 
ATOM     87  C   UNL A   1      37.493  34.038  29.518  1.00  0.00     0.022 A 
BRANCH  84  88
ATOM     88  S   UNL A   1      35.377  32.297  30.040  1.00  0.00     0.124 S 
ATOM     89  O   UNL A   1      34.916  32.696  31.365  1.00  0.00    -0.237 OA
ATOM     90  O   UNL A   1      34.857  33.073  28.919  1.00  0.00    -0.237 OA
ATOM     91  O   UNL A   1      35.458  30.856  29.814  1.00  0.00    -0.744 OA
ENDBRANCH  84  88
ENDBRANCH  57  81
BRANCH  69  92
ATOM     92  C   UNL A   1      43.185  32.159  36.470  1.00  0.00     0.023 A 
ATOM     93  C   UNL A   1      42.437  31.984  37.647  1.00  0.00     0.031 A 
ATOM     94  C   UNL A   1      44.023  33.284  36.379  1.00  0.00     0.131 A 
ATOM     95  C   UNL A   1      42.495  32.951  38.662  1.00  0.00     0.055 A 
ATOM     96  C   UNL A   1      44.123  34.211  37.417  1.00  0.00     0.041 A 
ATOM     97  F   UNL A   1      44.757  33.502  35.277  1.00  0.00    -0.206 F 
ATOM     98  C   UNL A   1      43.345  34.056  38.561  1.00  0.00     0.022 A 
BRANCH  95  99
ATOM     99  S   UNL A   1      41.366  32.799  40.074  1.00  0.00     0.124 S 
ATOM    100  O   UNL A   1      41.587  34.059  40.775  1.00  0.00    -0.237 OA
ATOM    101  O   UNL A   1      40.069  32.652  39.421  1.00  0.00    -0.237 OA
ATOM    102  O   UNL A   1      41.847  31.608  40.772  1.00  0.00    -0.744 OA
ENDBRANCH  95  99
ENDBRANCH  69  92
ENDBRANCH  43  44
ENDBRANCH  36  38
ENDBRANCH  35  36
ENDBRANCH  34  35
ENDBRANCH  33  34
ENDBRANCH  32  33
ENDBRANCH  31  32
ENDBRANCH  30  31
ENDBRANCH   1  30
TORSDOF 26
ENDMDL
MODEL 2
REMARK VINA RESULT:      -9.0      4.897     10.195
REMARK SMILES C/C(=N\[NH+]=C1/NC(=O)[C@@H](CC(=O)OCCOCCOCCOCCOC(=O)c2ccc(-c3c4nc(c(-c5cc(S(=O)(=O)[O-])ccc5F)c5ccc([nH]5)c(-c5cc(S(=O)(=O)[O-])ccc5F)c5nc(c(-c6cc(S(=O)(=O)[O-])ccc6F)c6ccc3[nH]6)C=C5)C=C4)cc2)S1)c1ccc(Br)cc1
REMARK SMILES IDX 19 1 18 2 17 3 16 4 15 5 14 6 13 7 11 8 12 9 10 10 9 11 4 12
REMARK SMILES IDX 5 13 6 15 91 16 7 17 8 19 3 20 1 21 2 22 92 23 93 24 98 25
REMARK SMILES IDX 94 26 97 27 95 28 96 29 20 30 21 31 22 32 23 33 24 34 25 35
REMARK SMILES IDX 26 36 27 37 28 38 29 39 90 40 30 41 89 42 31 43 32 44 33 45
REMARK SMILES IDX 83 46 34 47 88 48 82 49 84 50 35 51 87 52 81 53 80 54 36 56
REMARK SMILES IDX 68 57 48 58 67 59 49 60 52 61 66 62 85 63 50 64 51 65 65 67
REMARK SMILES IDX 86 68 53 69 37 70 38 71 46 72 39 73 45 74 47 75 44 76 40 77
REMARK SMILES IDX 41 78 42 79 43 80 69 81 70 82 78 83 71 84 77 85 79 86 76 87
REMARK SMILES IDX 72 88 73 89 74 90 75 91 54 92 55 93 63 94 56 95 62 96 64 97
REMARK SMILES IDX 61 98 57 99 58 100 59 101 60 102
REMARK H PARENT 4 14 6 18 84 55 52 66
REMARK Flexibility Score: inf
ROOT
ATOM      1  O   UNL A   1      35.394  31.251  30.316  1.00  0.00    -0.377 OA
ENDROOT
BRANCH   1   2
ATOM      2  C   UNL A   1      36.526  30.396  30.396  1.00  0.00     0.188 C 
BRANCH   2   3
ATOM      3  C   UNL A   1      37.004  29.736  29.099  1.00  0.00     0.188 C 
BRANCH   3   4
ATOM      4  O   UNL A   1      38.178  30.282  28.520  1.00  0.00    -0.376 OA
BRANCH   4   5
ATOM      5  C   UNL A   1      39.326  30.520  29.341  1.00  0.00     0.202 C 
BRANCH   5   6
ATOM      6  C   UNL A   1      40.039  29.351  30.043  1.00  0.00     0.261 C 
BRANCH   6   7
ATOM      7  O   UNL A   1      40.768  28.533  29.110  1.00  0.00    -0.463 OA
BRANCH   7   8
ATOM      8  C   UNL A   1      42.090  28.367  29.358  1.00  0.00     0.307 C 
ATOM      9  O   UNL A   1      42.568  28.176  30.472  1.00  0.00    -0.252 OA
BRANCH   8  10
ATOM     10  C   UNL A   1      42.900  28.183  28.092  1.00  0.00     0.150 C 
BRANCH  10  11
ATOM     11  C   UNL A   1      42.650  26.966  27.213  1.00  0.00     0.184 C 
ATOM     12  N   UNL A   1      39.986  24.156  27.323  1.00  0.00    -0.142 N 
ATOM     13  C   UNL A   1      40.750  25.184  27.154  1.00  0.00     0.337 C 
ATOM     14  H   UNL A   1      40.161  23.505  28.041  1.00  0.00     0.343 HD
ATOM     15  N   UNL A   1      40.695  26.080  26.146  1.00  0.00    -0.202 N 
ATOM     16  S   UNL A   1      42.073  25.540  28.229  1.00  0.00    -0.020 SA
ATOM     17  C   UNL A   1      41.653  27.056  26.075  1.00  0.00     0.322 C 
ATOM     18  H   UNL A   1      39.976  26.034  25.473  1.00  0.00     0.316 HD
ATOM     19  O   UNL A   1      41.749  27.827  25.128  1.00  0.00    -0.246 OA
BRANCH  12  20
ATOM     20  N   UNL A   1      38.896  23.997  26.450  1.00  0.00    -0.090 NA
ATOM     21  C   UNL A   1      39.531  21.612  26.305  1.00  0.00     0.071 C 
ATOM     22  C   UNL A   1      38.590  22.779  26.091  1.00  0.00     0.088 C 
BRANCH  22  23
ATOM     23  C   UNL A   1      37.317  22.541  25.302  1.00  0.00    -0.000 A 
ATOM     24  C   UNL A   1      36.561  21.386  25.552  1.00  0.00     0.011 A 
ATOM     25  C   UNL A   1      36.794  23.487  24.411  1.00  0.00     0.011 A 
ATOM     26  C   UNL A   1      35.269  21.230  25.037  1.00  0.00     0.016 A 
ATOM     27  C   UNL A   1      35.518  23.314  23.854  1.00  0.00     0.016 A 
ATOM     28  C   UNL A   1      34.748  22.205  24.197  1.00  0.00     0.018 A 
ATOM     29  Br  UNL A   1      32.989  22.033  23.534  1.00  0.00    -0.051 Br
ENDBRANCH  22  23
ENDBRANCH  12  20
ENDBRANCH  10  11
ENDBRANCH   8  10
ENDBRANCH   7   8
ENDBRANCH   6   7
ENDBRANCH   5   6
ENDBRANCH   4   5
ENDBRANCH   3   4
ENDBRANCH   2   3
ENDBRANCH   1   2
BRANCH   1  30
ATOM     30  C   UNL A   1      35.459  32.383  29.446  1.00  0.00     0.188 C 
BRANCH  30  31
ATOM     31  C   UNL A   1      34.475  33.531  29.677  1.00  0.00     0.188 C 
BRANCH  31  32
ATOM     32  O   UNL A   1      34.855  34.488  30.667  1.00  0.00    -0.376 OA
BRANCH  32  33
ATOM     33  C   UNL A   1      33.825  34.982  31.518  1.00  0.00     0.202 C 
BRANCH  33  34
ATOM     34  C   UNL A   1      34.127  34.820  32.998  1.00  0.00     0.261 C 
BRANCH  34  35
ATOM     35  O   UNL A   1      35.462  35.257  33.340  1.00  0.00    -0.460 OA
BRANCH  35  36
ATOM     36  C   UNL A   1      36.187  34.387  34.086  1.00  0.00     0.338 C 
ATOM     37  O   UNL A   1      35.801  33.826  35.099  1.00  0.00    -0.246 OA
BRANCH  36  38
ATOM     38  C   UNL A   1      37.533  34.128  33.511  1.00  0.00     0.060 A 
ATOM     39  C   UNL A   1      37.603  33.247  32.427  1.00  0.00     0.016 A 
ATOM     40  C   UNL A   1      38.715  34.607  34.081  1.00  0.00     0.016 A 
ATOM     41  C   UNL A   1      38.836  32.763  31.992  1.00  0.00     0.010 A 
ATOM     42  C   UNL A   1      39.954  34.102  33.667  1.00  0.00     0.010 A 
ATOM     43  C   UNL A   1      40.012  33.139  32.652  1.00  0.00    -0.014 A 
BRANCH  43  44
ATOM     44  C   UNL A   1      41.280  32.450  32.315  1.00  0.00     0.031 A 
ATOM     45  C   UNL A   1      41.729  31.274  33.138  1.00  0.00     0.074 A 
ATOM     46  C   UNL A   1      41.993  32.859  31.252  1.00  0.00     0.049 A 
ATOM     47  N   UNL A   1      42.743  30.469  32.950  1.00  0.00    -0.248 NA
ATOM     48  C   UNL A   1      40.931  30.968  34.335  1.00  0.00     0.031 C 
ATOM     49  C   UNL A   1      41.643  33.993  30.397  1.00  0.00     0.029 A 
ATOM     50  N   UNL A   1      43.151  32.369  30.711  1.00  0.00    -0.354 N 
ATOM     51  C   UNL A   1      42.696  29.545  33.989  1.00  0.00     0.074 A 
ATOM     52  C   UNL A   1      41.580  29.924  34.832  1.00  0.00     0.031 C 
ATOM     53  C   UNL A   1      42.573  34.114  29.436  1.00  0.00     0.029 A 
ATOM     54  C   UNL A   1      43.587  33.076  29.616  1.00  0.00     0.049 A 
ATOM     55  H   UNL A   1      43.627  31.586  31.071  1.00  0.00     0.167 HD
ATOM     56  C   UNL A   1      43.501  28.475  34.205  1.00  0.00     0.034 A 
ATOM     57  C   UNL A   1      44.679  32.904  28.847  1.00  0.00     0.034 A 
ATOM     58  C   UNL A   1      44.624  28.139  33.360  1.00  0.00     0.049 A 
ATOM     59  C   UNL A   1      45.584  31.733  29.127  1.00  0.00     0.074 A 
ATOM     60  C   UNL A   1      45.489  27.062  33.454  1.00  0.00     0.029 A 
ATOM     61  N   UNL A   1      45.053  28.892  32.271  1.00  0.00    -0.354 N 
ATOM     62  N   UNL A   1      45.490  30.824  30.072  1.00  0.00    -0.248 NA
ATOM     63  C   UNL A   1      46.725  31.546  28.223  1.00  0.00     0.031 C 
ATOM     64  C   UNL A   1      46.479  27.203  32.474  1.00  0.00     0.029 A 
ATOM     65  C   UNL A   1      46.189  28.325  31.713  1.00  0.00     0.049 A 
ATOM     66  H   UNL A   1      44.614  29.711  31.944  1.00  0.00     0.167 HD
ATOM     67  C   UNL A   1      46.542  29.940  29.855  1.00  0.00     0.074 A 
ATOM     68  C   UNL A   1      47.248  30.419  28.682  1.00  0.00     0.031 C 
ATOM     69  C   UNL A   1      46.891  28.829  30.555  1.00  0.00     0.034 A 
BRANCH  56  70
ATOM     70  C   UNL A   1      43.223  27.616  35.420  1.00  0.00     0.023 A 
ATOM     71  C   UNL A   1      43.971  27.740  36.604  1.00  0.00     0.031 A 
ATOM     72  C   UNL A   1      42.195  26.657  35.394  1.00  0.00     0.131 A 
ATOM     73  C   UNL A   1      43.720  26.884  37.689  1.00  0.00     0.055 A 
ATOM     74  C   UNL A   1      41.901  25.856  36.502  1.00  0.00     0.041 A 
ATOM     75  F   UNL A   1      41.457  26.474  34.288  1.00  0.00    -0.206 F 
ATOM     76  C   UNL A   1      42.675  25.959  37.654  1.00  0.00     0.022 A 
BRANCH  73  77
ATOM     77  S   UNL A   1      44.857  26.912  39.104  1.00  0.00     0.124 S 
ATOM     78  O   UNL A   1      45.163  28.336  39.210  1.00  0.00    -0.237 OA
ATOM     79  O   UNL A   1      44.040  26.353  40.175  1.00  0.00    -0.237 OA
ATOM     80  O   UNL A   1      45.971  26.073  38.666  1.00  0.00    -0.744 OA
ENDBRANCH  73  77
ENDBRANCH  56  70
BRANCH  57  81
ATOM     81  C   UNL A   1      44.967  33.860  27.742  1.00  0.00     0.023 A 
ATOM     82  C   UNL A   1      45.649  35.064  27.978  1.00  0.00     0.031 A 
ATOM     83  C   UNL A   1      44.554  33.581  26.426  1.00  0.00     0.131 A 
ATOM     84  C   UNL A   1      45.869  35.960  26.920  1.00  0.00     0.055 A 
ATOM     85  C   UNL A   1      44.816  34.454  25.369  1.00  0.00     0.041 A 
ATOM     86  F   UNL A   1      43.903  32.440  26.146  1.00  0.00    -0.206 F 
ATOM     87  C   UNL A   1      45.469  35.657  25.616  1.00  0.00     0.022 A 
BRANCH  84  88
ATOM     88  S   UNL A   1      46.629  37.565  27.287  1.00  0.00     0.124 S 
ATOM     89  O   UNL A   1      48.017  37.331  26.907  1.00  0.00    -0.237 OA
ATOM     90  O   UNL A   1      45.869  38.462  26.424  1.00  0.00    -0.237 OA
ATOM     91  O   UNL A   1      46.393  37.733  28.719  1.00  0.00    -0.744 OA
ENDBRANCH  84  88
ENDBRANCH  57  81
BRANCH  69  92
ATOM     92  C   UNL A   1      48.073  28.044  30.039  1.00  0.00     0.023 A 
ATOM     93  C   UNL A   1      47.940  27.102  29.005  1.00  0.00     0.031 A 
ATOM     94  C   UNL A   1      49.347  28.228  30.607  1.00  0.00     0.131 A 
ATOM     95  C   UNL A   1      49.045  26.335  28.611  1.00  0.00     0.055 A 
ATOM     96  C   UNL A   1      50.457  27.504  30.169  1.00  0.00     0.041 A 
ATOM     97  F   UNL A   1      49.532  29.112  31.599  1.00  0.00    -0.206 F 
ATOM     98  C   UNL A   1      50.307  26.540  29.175  1.00  0.00     0.022 A 
BRANCH  95  99
ATOM     99  S   UNL A   1      48.792  24.990  27.420  1.00  0.00     0.124 S 
ATOM    100  O   UNL A   1      48.806  25.704  26.148  1.00  0.00    -0.237 OA
ATOM    101  O   UNL A   1      49.940  24.125  27.677  1.00  0.00    -0.237 OA
ATOM    102  O   UNL A   1      47.497  24.430  27.804  1.00  0.00    -0.744 OA
ENDBRANCH  95  99
ENDBRANCH  69  92
ENDBRANCH  43  44
ENDBRANCH  36  38
ENDBRANCH  35  36
ENDBRANCH  34  35
ENDBRANCH  33  34
ENDBRANCH  32  33
ENDBRANCH  31  32
ENDBRANCH  30  31
ENDBRANCH   1  30
TORSDOF 26
ENDMDL
MODEL 3
REMARK VINA RESULT:      -8.5      6.475     12.831
REMARK SMILES C/C(=N\[NH+]=C1/NC(=O)[C@@H](CC(=O)OCCOCCOCCOCCOC(=O)c2ccc(-c3c4nc(c(-c5cc(S(=O)(=O)[O-])ccc5F)c5ccc([nH]5)c(-c5cc(S(=O)(=O)[O-])ccc5F)c5nc(c(-c6cc(S(=O)(=O)[O-])ccc6F)c6ccc3[nH]6)C=C5)C=C4)cc2)S1)c1ccc(Br)cc1
REMARK SMILES IDX 19 1 18 2 17 3 16 4 15 5 14 6 13 7 11 8 12 9 10 10 9 11 4 12
REMARK SMILES IDX 5 13 6 15 91 16 7 17 8 19 3 20 1 21 2 22 92 23 93 24 98 25
REMARK SMILES IDX 94 26 97 27 95 28 96 29 20 30 21 31 22 32 23 33 24 34 25 35
REMARK SMILES IDX 26 36 27 37 28 38 29 39 90 40 30 41 89 42 31 43 32 44 33 45
REMARK SMILES IDX 83 46 34 47 88 48 82 49 84 50 35 51 87 52 81 53 80 54 36 56
REMARK SMILES IDX 68 57 48 58 67 59 49 60 52 61 66 62 85 63 50 64 51 65 65 67
REMARK SMILES IDX 86 68 53 69 37 70 38 71 46 72 39 73 45 74 47 75 44 76 40 77
REMARK SMILES IDX 41 78 42 79 43 80 69 81 70 82 78 83 71 84 77 85 79 86 76 87
REMARK SMILES IDX 72 88 73 89 74 90 75 91 54 92 55 93 63 94 56 95 62 96 64 97
REMARK SMILES IDX 61 98 57 99 58 100 59 101 60 102
REMARK H PARENT 4 14 6 18 84 55 52 66
REMARK Flexibility Score: inf
ROOT
ATOM      1  O   UNL A   1      33.573  34.180  30.256  1.00  0.00    -0.377 OA
ENDROOT
BRANCH   1   2
ATOM      2  C   UNL A   1      34.424  33.797  29.184  1.00  0.00     0.188 C 
BRANCH   2   3
ATOM      3  C   UNL A   1      35.911  34.144  29.307  1.00  0.00     0.188 C 
BRANCH   3   4
ATOM      4  O   UNL A   1      36.820  33.144  28.873  1.00  0.00    -0.376 OA
BRANCH   4   5
ATOM      5  C   UNL A   1      38.202  33.242  29.232  1.00  0.00     0.202 C 
BRANCH   5   6
ATOM      6  C   UNL A   1      38.637  34.103  30.431  1.00  0.00     0.261 C 
BRANCH   6   7
ATOM      7  O   UNL A   1      38.719  33.329  31.642  1.00  0.00    -0.463 OA
BRANCH   7   8
ATOM      8  C   UNL A   1      39.228  33.961  32.728  1.00  0.00     0.307 C 
ATOM      9  O   UNL A   1      39.406  35.172  32.805  1.00  0.00    -0.252 OA
BRANCH   8  10
ATOM     10  C   UNL A   1      39.317  33.054  33.938  1.00  0.00     0.150 C 
BRANCH  10  11
ATOM     11  C   UNL A   1      38.309  33.212  35.067  1.00  0.00     0.184 C 
ATOM     12  N   UNL A   1      37.649  31.175  38.296  1.00  0.00    -0.142 N 
ATOM     13  C   UNL A   1      37.983  31.974  37.337  1.00  0.00     0.337 C 
ATOM     14  H   UNL A   1      37.193  30.323  38.112  1.00  0.00     0.343 HD
ATOM     15  N   UNL A   1      38.502  33.215  37.457  1.00  0.00    -0.202 N 
ATOM     16  S   UNL A   1      37.739  31.563  35.663  1.00  0.00    -0.020 SA
ATOM     17  C   UNL A   1      38.704  33.959  36.326  1.00  0.00     0.322 C 
ATOM     18  H   UNL A   1      38.731  33.579  38.344  1.00  0.00     0.316 HD
ATOM     19  O   UNL A   1      39.050  35.133  36.355  1.00  0.00    -0.246 OA
BRANCH  12  20
ATOM     20  N   UNL A   1      37.960  31.562  39.611  1.00  0.00    -0.090 NA
ATOM     21  C   UNL A   1      35.525  31.582  40.038  1.00  0.00     0.071 C 
ATOM     22  C   UNL A   1      36.976  31.606  40.470  1.00  0.00     0.088 C 
BRANCH  22  23
ATOM     23  C   UNL A   1      37.287  31.837  41.935  1.00  0.00    -0.000 A 
ATOM     24  C   UNL A   1      37.476  30.733  42.779  1.00  0.00     0.011 A 
ATOM     25  C   UNL A   1      37.511  33.113  42.466  1.00  0.00     0.011 A 
ATOM     26  C   UNL A   1      37.997  30.876  44.070  1.00  0.00     0.016 A 
ATOM     27  C   UNL A   1      37.989  33.268  43.777  1.00  0.00     0.016 A 
ATOM     28  C   UNL A   1      38.263  32.148  44.559  1.00  0.00     0.018 A 
ATOM     29  Br  UNL A   1      39.011  32.357  46.279  1.00  0.00    -0.051 Br
ENDBRANCH  22  23
ENDBRANCH  12  20
ENDBRANCH  10  11
ENDBRANCH   8  10
ENDBRANCH   7   8
ENDBRANCH   6   7
ENDBRANCH   5   6
ENDBRANCH   4   5
ENDBRANCH   3   4
ENDBRANCH   2   3
ENDBRANCH   1   2
BRANCH   1  30
ATOM     30  C   UNL A   1      34.097  35.052  31.260  1.00  0.00     0.188 C 
BRANCH  30  31
ATOM     31  C   UNL A   1      34.327  34.487  32.662  1.00  0.00     0.188 C 
BRANCH  31  32
ATOM     32  O   UNL A   1      34.268  33.064  32.777  1.00  0.00    -0.376 OA
BRANCH  32  33
ATOM     33  C   UNL A   1      35.502  32.379  32.970  1.00  0.00     0.202 C 
BRANCH  33  34
ATOM     34  C   UNL A   1      35.868  31.448  31.825  1.00  0.00     0.261 C 
BRANCH  34  35
ATOM     35  O   UNL A   1      36.366  30.173  32.289  1.00  0.00    -0.460 OA
BRANCH  35  36
ATOM     36  C   UNL A   1      37.131  29.490  31.403  1.00  0.00     0.338 C 
ATOM     37  O   UNL A   1      36.828  29.235  30.249  1.00  0.00    -0.246 OA
BRANCH  36  38
ATOM     38  C   UNL A   1      38.450  29.102  31.969  1.00  0.00     0.060 A 
ATOM     39  C   UNL A   1      39.478  30.047  31.892  1.00  0.00     0.016 A 
ATOM     40  C   UNL A   1      38.735  27.818  32.439  1.00  0.00     0.016 A 
ATOM     41  C   UNL A   1      40.794  29.680  32.171  1.00  0.00     0.010 A 
ATOM     42  C   UNL A   1      40.059  27.436  32.693  1.00  0.00     0.010 A 
ATOM     43  C   UNL A   1      41.098  28.356  32.510  1.00  0.00    -0.014 A 
BRANCH  43  44
ATOM     44  C   UNL A   1      42.518  27.940  32.591  1.00  0.00     0.031 A 
ATOM     45  C   UNL A   1      43.165  27.762  33.936  1.00  0.00     0.074 A 
ATOM     46  C   UNL A   1      43.199  27.687  31.461  1.00  0.00     0.049 A 
ATOM     47  N   UNL A   1      44.355  27.304  34.231  1.00  0.00    -0.248 NA
ATOM     48  C   UNL A   1      42.367  28.157  35.106  1.00  0.00     0.031 C 
ATOM     49  C   UNL A   1      42.661  27.837  30.109  1.00  0.00     0.029 A 
ATOM     50  N   UNL A   1      44.483  27.250  31.269  1.00  0.00    -0.354 N 
ATOM     51  C   UNL A   1      44.444  27.332  35.619  1.00  0.00     0.074 A 
ATOM     52  C   UNL A   1      43.203  27.902  36.103  1.00  0.00     0.031 C 
ATOM     53  C   UNL A   1      43.612  27.499  29.224  1.00  0.00     0.029 A 
ATOM     54  C   UNL A   1      44.826  27.122  29.945  1.00  0.00     0.049 A 
ATOM     55  H   UNL A   1      45.100  27.047  32.008  1.00  0.00     0.167 HD
ATOM     56  C   UNL A   1      45.461  26.907  36.410  1.00  0.00     0.034 A 
ATOM     57  C   UNL A   1      45.989  26.742  29.380  1.00  0.00     0.034 A 
ATOM     58  C   UNL A   1      46.699  26.368  35.894  1.00  0.00     0.049 A 
ATOM     59  C   UNL A   1      47.122  26.311  30.275  1.00  0.00     0.074 A 
ATOM     60  C   UNL A   1      47.786  25.870  36.593  1.00  0.00     0.029 A 
ATOM     61  N   UNL A   1      47.025  26.275  34.545  1.00  0.00    -0.354 N 
ATOM     62  N   UNL A   1      47.169  26.276  31.589  1.00  0.00    -0.248 NA
ATOM     63  C   UNL A   1      48.346  25.843  29.616  1.00  0.00     0.031 C 
ATOM     64  C   UNL A   1      48.791  25.548  35.675  1.00  0.00     0.029 A 
ATOM     65  C   UNL A   1      48.307  25.766  34.394  1.00  0.00     0.049 A 
ATOM     66  H   UNL A   1      46.431  26.533  33.802  1.00  0.00     0.167 HD
ATOM     67  C   UNL A   1      48.417  25.752  31.910  1.00  0.00     0.074 A 
ATOM     68  C   UNL A   1      49.083  25.474  30.652  1.00  0.00     0.031 C 
ATOM     69  C   UNL A   1      48.962  25.515  33.132  1.00  0.00     0.034 A 
BRANCH  56  70
ATOM     70  C   UNL A   1      45.296  27.045  37.908  1.00  0.00     0.023 A 
ATOM     71  C   UNL A   1      45.633  28.230  38.586  1.00  0.00     0.031 A 
ATOM     72  C   UNL A   1      44.794  25.975  38.670  1.00  0.00     0.131 A 
ATOM     73  C   UNL A   1      45.520  28.297  39.985  1.00  0.00     0.055 A 
ATOM     74  C   UNL A   1      44.615  26.072  40.053  1.00  0.00     0.041 A 
ATOM     75  F   UNL A   1      44.472  24.810  38.087  1.00  0.00    -0.206 F 
ATOM     76  C   UNL A   1      44.991  27.234  40.720  1.00  0.00     0.022 A 
BRANCH  73  77
ATOM     77  S   UNL A   1      46.188  29.749  40.845  1.00  0.00     0.124 S 
ATOM     78  O   UNL A   1      47.036  30.340  39.814  1.00  0.00    -0.237 OA
ATOM     79  O   UNL A   1      44.981  30.495  41.186  1.00  0.00    -0.237 OA
ATOM     80  O   UNL A   1      46.908  29.175  41.980  1.00  0.00    -0.744 OA
ENDBRANCH  73  77
ENDBRANCH  56  70
BRANCH  57  81
ATOM     81  C   UNL A   1      46.131  26.748  27.898  1.00  0.00     0.023 A 
ATOM     82  C   UNL A   1      45.963  25.578  27.143  1.00  0.00     0.031 A 
ATOM     83  C   UNL A   1      46.447  27.937  27.214  1.00  0.00     0.131 A 
ATOM     84  C   UNL A   1      46.143  25.613  25.752  1.00  0.00     0.055 A 
ATOM     85  C   UNL A   1      46.579  27.976  25.825  1.00  0.00     0.041 A 
ATOM     86  F   UNL A   1      46.613  29.086  27.889  1.00  0.00    -0.206 F 
ATOM     87  C   UNL A   1      46.437  26.806  25.087  1.00  0.00     0.022 A 
BRANCH  84  88
ATOM     88  S   UNL A   1      46.054  24.056  24.826  1.00  0.00     0.124 S 
ATOM     89  O   UNL A   1      44.650  24.023  24.432  1.00  0.00    -0.237 OA
ATOM     90  O   UNL A   1      47.017  24.286  23.755  1.00  0.00    -0.237 OA
ATOM     91  O   UNL A   1      46.449  23.052  25.811  1.00  0.00    -0.744 OA
ENDBRANCH  84  88
ENDBRANCH  57  81
BRANCH  69  92
ATOM     92  C   UNL A   1      50.337  24.891  33.153  1.00  0.00     0.023 A 
ATOM     93  C   UNL A   1      50.518  23.499  33.085  1.00  0.00     0.031 A 
ATOM     94  C   UNL A   1      51.480  25.703  33.264  1.00  0.00     0.131 A 
ATOM     95  C   UNL A   1      51.806  22.956  33.191  1.00  0.00     0.055 A 
ATOM     96  C   UNL A   1      52.765  25.159  33.307  1.00  0.00     0.041 A 
ATOM     97  F   UNL A   1      51.367  27.038  33.334  1.00  0.00    -0.206 F 
ATOM     98  C   UNL A   1      52.933  23.777  33.286  1.00  0.00     0.022 A 
BRANCH  95  99
ATOM     99  S   UNL A   1      51.985  21.154  33.306  1.00  0.00     0.124 S 
ATOM    100  O   UNL A   1      52.987  20.882  32.282  1.00  0.00    -0.237 OA
ATOM    101  O   UNL A   1      52.421  20.972  34.688  1.00  0.00    -0.237 OA
ATOM    102  O   UNL A   1      50.643  20.656  33.010  1.00  0.00    -0.744 OA
ENDBRANCH  95  99
ENDBRANCH  69  92
ENDBRANCH  43  44
ENDBRANCH  36  38
ENDBRANCH  35  36
ENDBRANCH  34  35
ENDBRANCH  33  34
ENDBRANCH  32  33
ENDBRANCH  31  32
ENDBRANCH  30  31
ENDBRANCH   1  30
TORSDOF 26
ENDMDL
