MODEL 1
REMARK VINA RESULT:      -9.5      0.000      0.000
REMARK SMILES C[C@H](C(=O)OCCOCCOCCOCCOC(=O)c1ccc(-c2c3nc(c(-c4cc(S(=O)(=O)[O-])ccc4F)c4ccc([nH]4)c(-c4cc(S(=O)(=O)[O-])ccc4F)c4nc(c(-c5cc(S(=O)(=O)[O-])ccc5F)c5ccc2[nH]5)C=C4)C=C3)cc1)N1C(=O)C[C@@H](N2C(=O)/C(=C/c3ccccc3)SC2=S)C1=O
REMARK SMILES IDX 11 1 10 2 9 3 8 4 7 5 6 6 5 7 3 8 4 9 2 10 1 11 83 12 84 13
REMARK SMILES IDX 102 14 85 15 86 16 87 17 103 18 88 19 89 20 100 21 90 22
REMARK SMILES IDX 91 23 99 24 101 25 92 26 93 27 94 28 98 29 95 30 97 31 96 32
REMARK SMILES IDX 12 33 13 34 14 35 15 36 16 37 17 38 18 39 19 40 20 41 21 42
REMARK SMILES IDX 82 43 22 44 81 45 23 46 24 47 25 48 75 49 26 50 80 51 74 52
REMARK SMILES IDX 76 53 27 54 79 55 73 56 72 57 28 59 60 60 40 61 59 62 41 63
REMARK SMILES IDX 44 64 58 65 77 66 42 67 43 68 57 70 78 71 45 72 29 73 30 74
REMARK SMILES IDX 38 75 31 76 37 77 39 78 36 79 32 80 33 81 34 82 35 83 61 84
REMARK SMILES IDX 62 85 70 86 63 87 69 88 71 89 68 90 64 91 65 92 66 93 67 94
REMARK SMILES IDX 46 95 47 96 55 97 48 98 54 99 56 100 53 101 49 102 50 103
REMARK SMILES IDX 51 104 52 105
REMARK H PARENT 76 58 44 69
REMARK Flexibility Score: inf
ROOT
ATOM      1  O   UNL A   1      36.280  32.087  28.385  1.00  0.00    -0.377 OA
ENDROOT
BRANCH   1   2
ATOM      2  C   UNL A   1      35.027  31.479  28.650  1.00  0.00     0.188 C 
BRANCH   2   3
ATOM      3  C   UNL A   1      33.927  31.487  27.581  1.00  0.00     0.188 C 
BRANCH   3   4
ATOM      4  O   UNL A   1      33.543  30.225  27.081  1.00  0.00    -0.376 OA
BRANCH   4   5
ATOM      5  C   UNL A   1      32.161  29.915  26.932  1.00  0.00     0.202 C 
BRANCH   5   6
ATOM      6  C   UNL A   1      31.675  28.800  25.981  1.00  0.00     0.261 C 
BRANCH   6   7
ATOM      7  O   UNL A   1      31.273  29.231  24.659  1.00  0.00    -0.462 OA
BRANCH   7   8
ATOM      8  C   UNL A   1      30.316  28.483  24.071  1.00  0.00     0.329 C 
ATOM      9  O   UNL A   1      29.507  28.976  23.278  1.00  0.00    -0.250 OA
BRANCH   8  10
ATOM     10  C   UNL A   1      30.312  26.940  24.329  1.00  0.00     0.200 C 
ATOM     11  C   UNL A   1      28.882  26.522  23.869  1.00  0.00     0.044 C 
BRANCH  10  12
ATOM     12  N   UNL A   1      31.350  25.894  23.988  1.00  0.00    -0.267 N 
ATOM     13  C   UNL A   1      31.604  25.447  22.717  1.00  0.00     0.232 C 
ATOM     14  C   UNL A   1      31.933  25.046  24.909  1.00  0.00     0.253 C 
ATOM     15  O   UNL A   1      31.336  25.998  21.656  1.00  0.00    -0.274 OA
ATOM     16  C   UNL A   1      32.208  24.072  22.731  1.00  0.00     0.136 C 
ATOM     17  C   UNL A   1      32.449  23.761  24.195  1.00  0.00     0.191 C 
ATOM     18  O   UNL A   1      31.905  25.192  26.124  1.00  0.00    -0.272 OA
BRANCH  17  19
ATOM     19  N   UNL A   1      33.726  23.029  24.537  1.00  0.00    -0.280 N 
ATOM     20  C   UNL A   1      34.989  23.605  24.388  1.00  0.00     0.266 C 
ATOM     21  C   UNL A   1      33.759  21.707  24.961  1.00  0.00     0.149 C 
ATOM     22  O   UNL A   1      35.214  24.705  23.926  1.00  0.00    -0.268 OA
ATOM     23  C   UNL A   1      36.095  22.692  24.901  1.00  0.00     0.081 C 
ATOM     24  S   UNL A   1      35.420  21.179  25.304  1.00  0.00    -0.054 SA
ATOM     25  S   UNL A   1      32.483  20.638  25.106  1.00  0.00    -0.052 S 
ATOM     26  C   UNL A   1      37.341  23.168  25.107  1.00  0.00     0.029 C 
BRANCH  26  27
ATOM     27  C   UNL A   1      38.455  22.827  26.043  1.00  0.00    -0.024 A 
ATOM     28  C   UNL A   1      38.986  23.892  26.798  1.00  0.00     0.008 A 
ATOM     29  C   UNL A   1      39.148  21.629  26.129  1.00  0.00     0.008 A 
ATOM     30  C   UNL A   1      40.087  23.803  27.648  1.00  0.00     0.001 A 
ATOM     31  C   UNL A   1      40.298  21.529  26.952  1.00  0.00     0.001 A 
ATOM     32  C   UNL A   1      40.759  22.605  27.718  1.00  0.00     0.000 A 
ENDBRANCH  26  27
ENDBRANCH  17  19
ENDBRANCH  10  12
ENDBRANCH   8  10
ENDBRANCH   7   8
ENDBRANCH   6   7
ENDBRANCH   5   6
ENDBRANCH   4   5
ENDBRANCH   3   4
ENDBRANCH   2   3
ENDBRANCH   1   2
BRANCH   1  33
ATOM     33  C   UNL A   1      37.436  31.672  29.105  1.00  0.00     0.188 C 
BRANCH  33  34
ATOM     34  C   UNL A   1      38.403  32.754  29.601  1.00  0.00     0.188 C 
BRANCH  34  35
ATOM     35  O   UNL A   1      37.828  33.757  30.428  1.00  0.00    -0.376 OA
BRANCH  35  36
ATOM     36  C   UNL A   1      38.484  33.966  31.671  1.00  0.00     0.202 C 
BRANCH  36  37
ATOM     37  C   UNL A   1      38.850  32.669  32.357  1.00  0.00     0.261 C 
BRANCH  37  38
ATOM     38  O   UNL A   1      37.765  32.019  33.094  1.00  0.00    -0.460 OA
BRANCH  38  39
ATOM     39  C   UNL A   1      37.487  30.744  32.697  1.00  0.00     0.338 C 
ATOM     40  O   UNL A   1      36.417  30.397  32.209  1.00  0.00    -0.246 OA
BRANCH  39  41
ATOM     41  C   UNL A   1      38.543  29.720  32.888  1.00  0.00     0.060 A 
ATOM     42  C   UNL A   1      39.592  30.106  33.719  1.00  0.00     0.016 A 
ATOM     43  C   UNL A   1      38.679  28.557  32.129  1.00  0.00     0.016 A 
ATOM     44  C   UNL A   1      40.797  29.417  33.695  1.00  0.00     0.010 A 
ATOM     45  C   UNL A   1      39.876  27.814  32.149  1.00  0.00     0.010 A 
ATOM     46  C   UNL A   1      40.965  28.271  32.901  1.00  0.00    -0.014 A 
BRANCH  46  47
ATOM     47  C   UNL A   1      42.300  27.611  32.920  1.00  0.00     0.031 A 
ATOM     48  C   UNL A   1      43.103  27.416  31.661  1.00  0.00     0.074 A 
ATOM     49  C   UNL A   1      42.843  27.344  34.123  1.00  0.00     0.049 A 
ATOM     50  N   UNL A   1      44.348  27.030  31.528  1.00  0.00    -0.248 NA
ATOM     51  C   UNL A   1      42.424  27.686  30.385  1.00  0.00     0.031 C 
ATOM     52  C   UNL A   1      42.150  27.522  35.402  1.00  0.00     0.029 A 
ATOM     53  N   UNL A   1      44.100  26.932  34.483  1.00  0.00    -0.354 N 
ATOM     54  C   UNL A   1      44.605  27.007  30.159  1.00  0.00     0.074 A 
ATOM     55  C   UNL A   1      43.371  27.389  29.504  1.00  0.00     0.031 C 
ATOM     56  C   UNL A   1      43.011  27.299  36.404  1.00  0.00     0.029 A 
ATOM     57  C   UNL A   1      44.292  26.883  35.845  1.00  0.00     0.049 A 
ATOM     58  H   UNL A   1      44.798  26.695  33.830  1.00  0.00     0.167 HD
ATOM     59  C   UNL A   1      45.763  26.697  29.520  1.00  0.00     0.034 A 
ATOM     60  C   UNL A   1      45.372  26.529  36.568  1.00  0.00     0.034 A 
ATOM     61  C   UNL A   1      46.979  26.314  30.207  1.00  0.00     0.049 A 
ATOM     62  C   UNL A   1      46.626  26.145  35.832  1.00  0.00     0.074 A 
ATOM     63  C   UNL A   1      48.214  25.995  29.667  1.00  0.00     0.029 A 
ATOM     64  N   UNL A   1      47.110  26.186  31.586  1.00  0.00    -0.354 N 
ATOM     65  N   UNL A   1      46.853  26.141  34.537  1.00  0.00    -0.248 NA
ATOM     66  C   UNL A   1      47.767  25.721  36.648  1.00  0.00     0.031 C 
ATOM     67  C   UNL A   1      49.061  25.596  30.707  1.00  0.00     0.029 A 
ATOM     68  C   UNL A   1      48.389  25.752  31.909  1.00  0.00     0.049 A 
ATOM     69  H   UNL A   1      46.398  26.375  32.240  1.00  0.00     0.167 HD
ATOM     70  C   UNL A   1      48.172  25.727  34.386  1.00  0.00     0.074 A 
ATOM     71  C   UNL A   1      48.694  25.523  35.723  1.00  0.00     0.031 C 
ATOM     72  C   UNL A   1      48.886  25.532  33.249  1.00  0.00     0.034 A 
BRANCH  59  73
ATOM     73  C   UNL A   1      45.758  26.697  28.004  1.00  0.00     0.023 A 
ATOM     74  C   UNL A   1      45.681  25.510  27.251  1.00  0.00     0.031 A 
ATOM     75  C   UNL A   1      45.832  27.912  27.297  1.00  0.00     0.131 A 
ATOM     76  C   UNL A   1      45.744  25.561  25.848  1.00  0.00     0.055 A 
ATOM     77  C   UNL A   1      45.817  27.962  25.901  1.00  0.00     0.041 A 
ATOM     78  F   UNL A   1      45.926  29.079  27.954  1.00  0.00    -0.206 F 
ATOM     79  C   UNL A   1      45.787  26.781  25.167  1.00  0.00     0.022 A 
BRANCH  76  80
ATOM     80  S   UNL A   1      45.902  24.008  24.922  1.00  0.00     0.124 S 
ATOM     81  O   UNL A   1      46.382  23.093  25.955  1.00  0.00    -0.237 OA
ATOM     82  O   UNL A   1      44.541  23.782  24.449  1.00  0.00    -0.237 OA
ATOM     83  O   UNL A   1      46.879  24.324  23.882  1.00  0.00    -0.744 OA
ENDBRANCH  76  80
ENDBRANCH  59  73
BRANCH  60  84
ATOM     84  C   UNL A   1      45.297  26.482  38.057  1.00  0.00     0.023 A 
ATOM     85  C   UNL A   1      45.411  27.643  38.836  1.00  0.00     0.031 A 
ATOM     86  C   UNL A   1      45.131  25.255  38.728  1.00  0.00     0.131 A 
ATOM     87  C   UNL A   1      45.395  27.549  40.237  1.00  0.00     0.055 A 
ATOM     88  C   UNL A   1      45.049  25.174  40.118  1.00  0.00     0.041 A 
ATOM     89  F   UNL A   1      45.020  24.111  38.034  1.00  0.00    -0.206 F 
ATOM     90  C   UNL A   1      45.196  26.326  40.882  1.00  0.00     0.022 A 
BRANCH  87  91
ATOM     91  S   UNL A   1      45.732  29.039  41.214  1.00  0.00     0.124 S 
ATOM     92  O   UNL A   1      47.153  29.245  40.962  1.00  0.00    -0.237 OA
ATOM     93  O   UNL A   1      44.824  30.008  40.610  1.00  0.00    -0.237 OA
ATOM     94  O   UNL A   1      45.393  28.636  42.578  1.00  0.00    -0.744 OA
ENDBRANCH  87  91
ENDBRANCH  60  84
BRANCH  72  95
ATOM     95  C   UNL A   1      50.323  25.102  33.420  1.00  0.00     0.023 A 
ATOM     96  C   UNL A   1      50.725  23.770  33.214  1.00  0.00     0.031 A 
ATOM     97  C   UNL A   1      51.295  26.030  33.830  1.00  0.00     0.131 A 
ATOM     98  C   UNL A   1      52.048  23.391  33.484  1.00  0.00     0.055 A 
ATOM     99  C   UNL A   1      52.626  25.661  34.030  1.00  0.00     0.041 A 
ATOM    100  F   UNL A   1      50.967  27.314  34.049  1.00  0.00    -0.206 F 
ATOM    101  C   UNL A   1      53.005  24.331  33.873  1.00  0.00     0.022 A 
BRANCH  98 102
ATOM    102  S   UNL A   1      52.474  21.628  33.430  1.00  0.00     0.124 S 
ATOM    103  O   UNL A   1      51.698  21.094  34.544  1.00  0.00    -0.237 OA
ATOM    104  O   UNL A   1      52.028  21.239  32.096  1.00  0.00    -0.237 OA
ATOM    105  O   UNL A   1      53.924  21.620  33.623  1.00  0.00    -0.744 OA
ENDBRANCH  98 102
ENDBRANCH  72  95
ENDBRANCH  46  47
ENDBRANCH  39  41
ENDBRANCH  38  39
ENDBRANCH  37  38
ENDBRANCH  36  37
ENDBRANCH  35  36
ENDBRANCH  34  35
ENDBRANCH  33  34
ENDBRANCH   1  33
TORSDOF 26
ENDMDL
MODEL 2
REMARK VINA RESULT:      -9.4      6.083     16.880
REMARK SMILES C[C@H](C(=O)OCCOCCOCCOCCOC(=O)c1ccc(-c2c3nc(c(-c4cc(S(=O)(=O)[O-])ccc4F)c4ccc([nH]4)c(-c4cc(S(=O)(=O)[O-])ccc4F)c4nc(c(-c5cc(S(=O)(=O)[O-])ccc5F)c5ccc2[nH]5)C=C4)C=C3)cc1)N1C(=O)C[C@@H](N2C(=O)/C(=C/c3ccccc3)SC2=S)C1=O
REMARK SMILES IDX 11 1 10 2 9 3 8 4 7 5 6 6 5 7 3 8 4 9 2 10 1 11 83 12 84 13
REMARK SMILES IDX 102 14 85 15 86 16 87 17 103 18 88 19 89 20 100 21 90 22
REMARK SMILES IDX 91 23 99 24 101 25 92 26 93 27 94 28 98 29 95 30 97 31 96 32
REMARK SMILES IDX 12 33 13 34 14 35 15 36 16 37 17 38 18 39 19 40 20 41 21 42
REMARK SMILES IDX 82 43 22 44 81 45 23 46 24 47 25 48 75 49 26 50 80 51 74 52
REMARK SMILES IDX 76 53 27 54 79 55 73 56 72 57 28 59 60 60 40 61 59 62 41 63
REMARK SMILES IDX 44 64 58 65 77 66 42 67 43 68 57 70 78 71 45 72 29 73 30 74
REMARK SMILES IDX 38 75 31 76 37 77 39 78 36 79 32 80 33 81 34 82 35 83 61 84
REMARK SMILES IDX 62 85 70 86 63 87 69 88 71 89 68 90 64 91 65 92 66 93 67 94
REMARK SMILES IDX 46 95 47 96 55 97 48 98 54 99 56 100 53 101 49 102 50 103
REMARK SMILES IDX 51 104 52 105
REMARK H PARENT 76 58 44 69
REMARK Flexibility Score: inf
ROOT
ATOM      1  O   UNL A   1      53.299  21.975  34.897  1.00  0.00    -0.377 OA
ENDROOT
BRANCH   1   2
ATOM      2  C   UNL A   1      52.537  21.209  35.815  1.00  0.00     0.188 C 
BRANCH   2   3
ATOM      3  C   UNL A   1      52.408  19.692  35.629  1.00  0.00     0.188 C 
BRANCH   3   4
ATOM      4  O   UNL A   1      51.339  19.075  36.313  1.00  0.00    -0.376 OA
BRANCH   4   5
ATOM      5  C   UNL A   1      51.270  19.154  37.733  1.00  0.00     0.202 C 
BRANCH   5   6
ATOM      6  C   UNL A   1      49.966  18.853  38.502  1.00  0.00     0.261 C 
BRANCH   6   7
ATOM      7  O   UNL A   1      49.109  19.992  38.758  1.00  0.00    -0.462 OA
BRANCH   7   8
ATOM      8  C   UNL A   1      48.126  20.192  37.856  1.00  0.00     0.329 C 
ATOM      9  O   UNL A   1      48.375  20.399  36.664  1.00  0.00    -0.250 OA
BRANCH   8  10
ATOM     10  C   UNL A   1      46.640  20.051  38.328  1.00  0.00     0.200 C 
ATOM     11  C   UNL A   1      45.981  19.276  37.147  1.00  0.00     0.044 C 
BRANCH  10  12
ATOM     12  N   UNL A   1      46.083  19.630  39.669  1.00  0.00    -0.267 N 
ATOM     13  C   UNL A   1      45.669  20.505  40.641  1.00  0.00     0.232 C 
ATOM     14  C   UNL A   1      46.214  18.363  40.203  1.00  0.00     0.253 C 
ATOM     15  O   UNL A   1      45.350  21.680  40.509  1.00  0.00    -0.274 OA
ATOM     16  C   UNL A   1      45.728  19.878  42.003  1.00  0.00     0.136 C 
ATOM     17  C   UNL A   1      46.092  18.427  41.755  1.00  0.00     0.191 C 
ATOM     18  O   UNL A   1      46.543  17.362  39.581  1.00  0.00    -0.272 OA
BRANCH  17  19
ATOM     19  N   UNL A   1      45.405  17.392  42.618  1.00  0.00    -0.280 N 
ATOM     20  C   UNL A   1      44.256  16.714  42.209  1.00  0.00     0.266 C 
ATOM     21  C   UNL A   1      45.814  17.079  43.907  1.00  0.00     0.149 C 
ATOM     22  O   UNL A   1      43.652  16.906  41.173  1.00  0.00    -0.268 OA
ATOM     23  C   UNL A   1      43.830  15.657  43.220  1.00  0.00     0.081 C 
ATOM     24  S   UNL A   1      44.802  15.801  44.613  1.00  0.00    -0.054 SA
ATOM     25  S   UNL A   1      47.037  17.784  44.802  1.00  0.00    -0.052 S 
ATOM     26  C   UNL A   1      42.925  14.712  42.889  1.00  0.00     0.029 C 
BRANCH  26  27
ATOM     27  C   UNL A   1      42.678  13.299  43.308  1.00  0.00    -0.024 A 
ATOM     28  C   UNL A   1      43.810  12.553  43.692  1.00  0.00     0.008 A 
ATOM     29  C   UNL A   1      41.498  12.580  43.196  1.00  0.00     0.008 A 
ATOM     30  C   UNL A   1      43.806  11.199  44.018  1.00  0.00     0.001 A 
ATOM     31  C   UNL A   1      41.480  11.191  43.479  1.00  0.00     0.001 A 
ATOM     32  C   UNL A   1      42.625  10.505  43.901  1.00  0.00     0.000 A 
ENDBRANCH  26  27
ENDBRANCH  17  19
ENDBRANCH  10  12
ENDBRANCH   8  10
ENDBRANCH   7   8
ENDBRANCH   6   7
ENDBRANCH   5   6
ENDBRANCH   4   5
ENDBRANCH   3   4
ENDBRANCH   2   3
ENDBRANCH   1   2
BRANCH   1  33
ATOM     33  C   UNL A   1      52.643  22.850  33.985  1.00  0.00     0.188 C 
BRANCH  33  34
ATOM     34  C   UNL A   1      51.113  22.794  33.905  1.00  0.00     0.188 C 
BRANCH  34  35
ATOM     35  O   UNL A   1      50.451  24.052  33.943  1.00  0.00    -0.376 OA
BRANCH  35  36
ATOM     36  C   UNL A   1      50.640  24.799  35.137  1.00  0.00     0.202 C 
BRANCH  36  37
ATOM     37  C   UNL A   1      50.068  26.195  35.043  1.00  0.00     0.261 C 
BRANCH  37  38
ATOM     38  O   UNL A   1      49.028  26.515  36.022  1.00  0.00    -0.460 OA
BRANCH  38  39
ATOM     39  C   UNL A   1      47.824  25.914  35.796  1.00  0.00     0.338 C 
ATOM     40  O   UNL A   1      47.616  24.717  35.960  1.00  0.00    -0.246 OA
BRANCH  39  41
ATOM     41  C   UNL A   1      46.713  26.765  35.305  1.00  0.00     0.060 A 
ATOM     42  C   UNL A   1      45.457  26.441  35.813  1.00  0.00     0.016 A 
ATOM     43  C   UNL A   1      46.797  27.654  34.233  1.00  0.00     0.016 A 
ATOM     44  C   UNL A   1      44.306  26.894  35.181  1.00  0.00     0.010 A 
ATOM     45  C   UNL A   1      45.635  28.170  33.628  1.00  0.00     0.010 A 
ATOM     46  C   UNL A   1      44.374  27.752  34.071  1.00  0.00    -0.014 A 
BRANCH  46  47
ATOM     47  C   UNL A   1      43.089  28.166  33.443  1.00  0.00     0.031 A 
ATOM     48  C   UNL A   1      42.172  29.161  34.104  1.00  0.00     0.074 A 
ATOM     49  C   UNL A   1      42.851  27.750  32.184  1.00  0.00     0.049 A 
ATOM     50  N   UNL A   1      41.116  29.762  33.613  1.00  0.00    -0.248 NA
ATOM     51  C   UNL A   1      42.474  29.530  35.494  1.00  0.00     0.031 C 
ATOM     52  C   UNL A   1      43.696  26.803  31.451  1.00  0.00     0.029 A 
ATOM     53  N   UNL A   1      41.885  28.101  31.278  1.00  0.00    -0.354 N 
ATOM     54  C   UNL A   1      40.624  30.577  34.630  1.00  0.00     0.074 A 
ATOM     55  C   UNL A   1      41.484  30.367  35.776  1.00  0.00     0.031 C 
ATOM     56  C   UNL A   1      43.259  26.710  30.188  1.00  0.00     0.029 A 
ATOM     57  C   UNL A   1      42.058  27.523  30.040  1.00  0.00     0.049 A 
ATOM     58  H   UNL A   1      41.140  28.709  31.490  1.00  0.00     0.167 HD
ATOM     59  C   UNL A   1      39.558  31.419  34.599  1.00  0.00     0.034 A 
ATOM     60  C   UNL A   1      41.325  27.623  28.914  1.00  0.00     0.034 A 
ATOM     61  C   UNL A   1      38.716  31.602  33.435  1.00  0.00     0.049 A 
ATOM     62  C   UNL A   1      40.123  28.526  28.925  1.00  0.00     0.074 A 
ATOM     63  C   UNL A   1      37.621  32.436  33.283  1.00  0.00     0.029 A 
ATOM     64  N   UNL A   1      38.866  30.929  32.227  1.00  0.00    -0.354 N 
ATOM     65  N   UNL A   1      39.681  29.297  29.892  1.00  0.00    -0.248 NA
ATOM     66  C   UNL A   1      39.323  28.574  27.697  1.00  0.00     0.031 C 
ATOM     67  C   UNL A   1      37.064  32.209  32.019  1.00  0.00     0.029 A 
ATOM     68  C   UNL A   1      37.861  31.299  31.343  1.00  0.00     0.049 A 
ATOM     69  H   UNL A   1      39.582  30.283  32.027  1.00  0.00     0.167 HD
ATOM     70  C   UNL A   1      38.556  29.936  29.382  1.00  0.00     0.074 A 
ATOM     71  C   UNL A   1      38.410  29.480  28.013  1.00  0.00     0.031 C 
ATOM     72  C   UNL A   1      37.719  30.816  29.987  1.00  0.00     0.034 A 
BRANCH  59  73
ATOM     73  C   UNL A   1      39.201  32.157  35.873  1.00  0.00     0.023 A 
ATOM     74  C   UNL A   1      38.373  31.596  36.864  1.00  0.00     0.031 A 
ATOM     75  C   UNL A   1      39.700  33.454  36.102  1.00  0.00     0.131 A 
ATOM     76  C   UNL A   1      38.022  32.348  37.998  1.00  0.00     0.055 A 
ATOM     77  C   UNL A   1      39.410  34.168  37.267  1.00  0.00     0.041 A 
ATOM     78  F   UNL A   1      40.480  34.055  35.190  1.00  0.00    -0.206 F 
ATOM     79  C   UNL A   1      38.554  33.621  38.218  1.00  0.00     0.022 A 
BRANCH  76  80
ATOM     80  S   UNL A   1      36.755  31.696  39.122  1.00  0.00     0.124 S 
ATOM     81  O   UNL A   1      35.602  32.529  38.786  1.00  0.00    -0.237 OA
ATOM     82  O   UNL A   1      36.669  30.296  38.725  1.00  0.00    -0.237 OA
ATOM     83  O   UNL A   1      37.317  31.934  40.450  1.00  0.00    -0.744 OA
ENDBRANCH  76  80
ENDBRANCH  59  73
BRANCH  60  84
ATOM     84  C   UNL A   1      41.686  26.818  27.711  1.00  0.00     0.023 A 
ATOM     85  C   UNL A   1      41.439  25.439  27.648  1.00  0.00     0.031 A 
ATOM     86  C   UNL A   1      42.311  27.425  26.604  1.00  0.00     0.131 A 
ATOM     87  C   UNL A   1      41.849  24.706  26.521  1.00  0.00     0.055 A 
ATOM     88  C   UNL A   1      42.657  26.705  25.460  1.00  0.00     0.041 A 
ATOM     89  F   UNL A   1      42.575  28.741  26.610  1.00  0.00    -0.206 F 
ATOM     90  C   UNL A   1      42.438  25.333  25.420  1.00  0.00     0.022 A 
BRANCH  87  91
ATOM     91  S   UNL A   1      41.686  22.900  26.550  1.00  0.00     0.124 S 
ATOM     92  O   UNL A   1      40.274  22.724  26.228  1.00  0.00    -0.237 OA
ATOM     93  O   UNL A   1      42.636  22.493  25.522  1.00  0.00    -0.237 OA
ATOM     94  O   UNL A   1      42.061  22.547  27.919  1.00  0.00    -0.744 OA
ENDBRANCH  87  91
ENDBRANCH  60  84
BRANCH  72  95
ATOM     95  C   UNL A   1      36.589  31.360  29.146  1.00  0.00     0.023 A 
ATOM     96  C   UNL A   1      35.541  30.537  28.696  1.00  0.00     0.031 A 
ATOM     97  C   UNL A   1      36.581  32.712  28.761  1.00  0.00     0.131 A 
ATOM     98  C   UNL A   1      34.567  31.059  27.832  1.00  0.00     0.055 A 
ATOM     99  C   UNL A   1      35.570  33.241  27.957  1.00  0.00     0.041 A 
ATOM    100  F   UNL A   1      37.560  33.542  29.156  1.00  0.00    -0.206 F 
ATOM    101  C   UNL A   1      34.565  32.409  27.475  1.00  0.00     0.022 A 
BRANCH  98 102
ATOM    102  S   UNL A   1      33.367  29.919  27.089  1.00  0.00     0.124 S 
ATOM    103  O   UNL A   1      33.950  29.679  25.773  1.00  0.00    -0.237 OA
ATOM    104  O   UNL A   1      33.392  28.791  28.014  1.00  0.00    -0.237 OA
ATOM    105  O   UNL A   1      32.122  30.687  27.085  1.00  0.00    -0.744 OA
ENDBRANCH  98 102
ENDBRANCH  72  95
ENDBRANCH  46  47
ENDBRANCH  39  41
ENDBRANCH  38  39
ENDBRANCH  37  38
ENDBRANCH  36  37
ENDBRANCH  35  36
ENDBRANCH  34  35
ENDBRANCH  33  34
ENDBRANCH   1  33
TORSDOF 26
ENDMDL
MODEL 3
REMARK VINA RESULT:      -8.9      6.953      9.727
REMARK SMILES C[C@H](C(=O)OCCOCCOCCOCCOC(=O)c1ccc(-c2c3nc(c(-c4cc(S(=O)(=O)[O-])ccc4F)c4ccc([nH]4)c(-c4cc(S(=O)(=O)[O-])ccc4F)c4nc(c(-c5cc(S(=O)(=O)[O-])ccc5F)c5ccc2[nH]5)C=C4)C=C3)cc1)N1C(=O)C[C@@H](N2C(=O)/C(=C/c3ccccc3)SC2=S)C1=O
REMARK SMILES IDX 11 1 10 2 9 3 8 4 7 5 6 6 5 7 3 8 4 9 2 10 1 11 83 12 84 13
REMARK SMILES IDX 102 14 85 15 86 16 87 17 103 18 88 19 89 20 100 21 90 22
REMARK SMILES IDX 91 23 99 24 101 25 92 26 93 27 94 28 98 29 95 30 97 31 96 32
REMARK SMILES IDX 12 33 13 34 14 35 15 36 16 37 17 38 18 39 19 40 20 41 21 42
REMARK SMILES IDX 82 43 22 44 81 45 23 46 24 47 25 48 75 49 26 50 80 51 74 52
REMARK SMILES IDX 76 53 27 54 79 55 73 56 72 57 28 59 60 60 40 61 59 62 41 63
REMARK SMILES IDX 44 64 58 65 77 66 42 67 43 68 57 70 78 71 45 72 29 73 30 74
REMARK SMILES IDX 38 75 31 76 37 77 39 78 36 79 32 80 33 81 34 82 35 83 61 84
REMARK SMILES IDX 62 85 70 86 63 87 69 88 71 89 68 90 64 91 65 92 66 93 67 94
REMARK SMILES IDX 46 95 47 96 55 97 48 98 54 99 56 100 53 101 49 102 50 103
REMARK SMILES IDX 51 104 52 105
REMARK H PARENT 76 58 44 69
REMARK Flexibility Score: inf
ROOT
ATOM      1  O   UNL A   1      34.184  33.731  30.658  1.00  0.00    -0.377 OA
ENDROOT
BRANCH   1   2
ATOM      2  C   UNL A   1      34.368  32.917  29.512  1.00  0.00     0.188 C 
BRANCH   2   3
ATOM      3  C   UNL A   1      33.871  33.395  28.142  1.00  0.00     0.188 C 
BRANCH   3   4
ATOM      4  O   UNL A   1      32.855  32.617  27.548  1.00  0.00    -0.376 OA
BRANCH   4   5
ATOM      5  C   UNL A   1      33.134  31.283  27.137  1.00  0.00     0.202 C 
BRANCH   5   6
ATOM      6  C   UNL A   1      32.019  30.324  26.671  1.00  0.00     0.261 C 
BRANCH   6   7
ATOM      7  O   UNL A   1      32.305  29.558  25.476  1.00  0.00    -0.462 OA
BRANCH   7   8
ATOM      8  C   UNL A   1      31.265  29.385  24.634  1.00  0.00     0.329 C 
ATOM      9  O   UNL A   1      30.438  30.282  24.437  1.00  0.00    -0.250 OA
BRANCH   8  10
ATOM     10  C   UNL A   1      31.178  28.052  23.819  1.00  0.00     0.200 C 
ATOM     11  C   UNL A   1      31.308  28.545  22.346  1.00  0.00     0.044 C 
BRANCH  10  12
ATOM     12  N   UNL A   1      31.878  26.730  24.042  1.00  0.00    -0.267 N 
ATOM     13  C   UNL A   1      33.235  26.553  23.963  1.00  0.00     0.232 C 
ATOM     14  C   UNL A   1      31.243  25.503  24.036  1.00  0.00     0.253 C 
ATOM     15  O   UNL A   1      34.112  27.404  24.048  1.00  0.00    -0.274 OA
ATOM     16  C   UNL A   1      33.584  25.127  23.648  1.00  0.00     0.136 C 
ATOM     17  C   UNL A   1      32.265  24.379  23.689  1.00  0.00     0.191 C 
ATOM     18  O   UNL A   1      30.035  25.329  24.121  1.00  0.00    -0.272 OA
BRANCH  17  19
ATOM     19  N   UNL A   1      32.281  22.997  24.301  1.00  0.00    -0.280 N 
ATOM     20  C   UNL A   1      32.162  21.834  23.540  1.00  0.00     0.266 C 
ATOM     21  C   UNL A   1      32.347  22.769  25.669  1.00  0.00     0.149 C 
ATOM     22  O   UNL A   1      31.977  21.790  22.340  1.00  0.00    -0.268 OA
ATOM     23  C   UNL A   1      32.311  20.579  24.390  1.00  0.00     0.081 C 
ATOM     24  S   UNL A   1      32.377  21.030  26.033  1.00  0.00    -0.054 SA
ATOM     25  S   UNL A   1      32.337  23.894  26.905  1.00  0.00    -0.052 S 
ATOM     26  C   UNL A   1      32.510  19.375  23.813  1.00  0.00     0.029 C 
BRANCH  26  27
ATOM     27  C   UNL A   1      33.213  18.120  24.215  1.00  0.00    -0.024 A 
ATOM     28  C   UNL A   1      32.460  17.192  24.962  1.00  0.00     0.008 A 
ATOM     29  C   UNL A   1      34.565  17.836  24.097  1.00  0.00     0.008 A 
ATOM     30  C   UNL A   1      32.958  16.014  25.515  1.00  0.00     0.001 A 
ATOM     31  C   UNL A   1      35.102  16.666  24.690  1.00  0.00     0.001 A 
ATOM     32  C   UNL A   1      34.302  15.751  25.386  1.00  0.00     0.000 A 
ENDBRANCH  26  27
ENDBRANCH  17  19
ENDBRANCH  10  12
ENDBRANCH   8  10
ENDBRANCH   7   8
ENDBRANCH   6   7
ENDBRANCH   5   6
ENDBRANCH   4   5
ENDBRANCH   3   4
ENDBRANCH   2   3
ENDBRANCH   1   2
BRANCH   1  33
ATOM     33  C   UNL A   1      35.197  33.791  31.657  1.00  0.00     0.188 C 
BRANCH  33  34
ATOM     34  C   UNL A   1      35.884  32.484  32.067  1.00  0.00     0.188 C 
BRANCH  34  35
ATOM     35  O   UNL A   1      36.669  31.862  31.057  1.00  0.00    -0.376 OA
BRANCH  35  36
ATOM     36  C   UNL A   1      38.074  32.003  31.211  1.00  0.00     0.202 C 
BRANCH  36  37
ATOM     37  C   UNL A   1      38.495  32.052  32.662  1.00  0.00     0.261 C 
BRANCH  37  38
ATOM     38  O   UNL A   1      39.849  32.554  32.907  1.00  0.00    -0.460 OA
BRANCH  38  39
ATOM     39  C   UNL A   1      40.015  33.889  32.678  1.00  0.00     0.338 C 
ATOM     40  O   UNL A   1      39.232  34.751  33.063  1.00  0.00    -0.246 OA
BRANCH  39  41
ATOM     41  C   UNL A   1      41.206  34.310  31.901  1.00  0.00     0.060 A 
ATOM     42  C   UNL A   1      41.115  34.096  30.527  1.00  0.00     0.016 A 
ATOM     43  C   UNL A   1      42.443  34.648  32.450  1.00  0.00     0.016 A 
ATOM     44  C   UNL A   1      42.260  34.094  29.741  1.00  0.00     0.010 A 
ATOM     45  C   UNL A   1      43.598  34.713  31.647  1.00  0.00     0.010 A 
ATOM     46  C   UNL A   1      43.520  34.387  30.287  1.00  0.00    -0.014 A 
BRANCH  46  47
ATOM     47  C   UNL A   1      44.694  34.337  29.373  1.00  0.00     0.031 A 
ATOM     48  C   UNL A   1      45.312  35.591  28.812  1.00  0.00     0.074 A 
ATOM     49  C   UNL A   1      45.292  33.143  29.194  1.00  0.00     0.049 A 
ATOM     50  N   UNL A   1      46.438  35.734  28.156  1.00  0.00    -0.248 NA
ATOM     51  C   UNL A   1      44.576  36.848  29.011  1.00  0.00     0.031 C 
ATOM     52  C   UNL A   1      44.778  31.874  29.718  1.00  0.00     0.029 A 
ATOM     53  N   UNL A   1      46.472  32.799  28.589  1.00  0.00    -0.354 N 
ATOM     54  C   UNL A   1      46.546  37.090  27.859  1.00  0.00     0.074 A 
ATOM     55  C   UNL A   1      45.353  37.722  28.383  1.00  0.00     0.031 C 
ATOM     56  C   UNL A   1      45.675  30.907  29.481  1.00  0.00     0.029 A 
ATOM     57  C   UNL A   1      46.786  31.465  28.720  1.00  0.00     0.049 A 
ATOM     58  H   UNL A   1      47.041  33.443  28.108  1.00  0.00     0.167 HD
ATOM     59  C   UNL A   1      47.551  37.738  27.213  1.00  0.00     0.034 A 
ATOM     60  C   UNL A   1      47.843  30.763  28.267  1.00  0.00     0.034 A 
ATOM     61  C   UNL A   1      48.730  37.074  26.697  1.00  0.00     0.049 A 
ATOM     62  C   UNL A   1      48.916  31.498  27.514  1.00  0.00     0.074 A 
ATOM     63  C   UNL A   1      49.817  37.627  26.042  1.00  0.00     0.029 A 
ATOM     64  N   UNL A   1      48.971  35.706  26.767  1.00  0.00    -0.354 N 
ATOM     65  N   UNL A   1      49.007  32.783  27.253  1.00  0.00    -0.248 NA
ATOM     66  C   UNL A   1      50.027  30.695  26.995  1.00  0.00     0.031 C 
ATOM     67  C   UNL A   1      50.669  36.591  25.646  1.00  0.00     0.029 A 
ATOM     68  C   UNL A   1      50.165  35.395  26.131  1.00  0.00     0.049 A 
ATOM     69  H   UNL A   1      48.378  35.051  27.205  1.00  0.00     0.167 HD
ATOM     70  C   UNL A   1      50.196  32.943  26.551  1.00  0.00     0.074 A 
ATOM     71  C   UNL A   1      50.800  31.628  26.459  1.00  0.00     0.031 C 
ATOM     72  C   UNL A   1      50.740  34.072  26.029  1.00  0.00     0.034 A 
BRANCH  59  73
ATOM     73  C   UNL A   1      47.394  39.225  26.970  1.00  0.00     0.023 A 
ATOM     74  C   UNL A   1      46.827  39.741  25.789  1.00  0.00     0.031 A 
ATOM     75  C   UNL A   1      47.822  40.149  27.943  1.00  0.00     0.131 A 
ATOM     76  C   UNL A   1      46.763  41.130  25.586  1.00  0.00     0.055 A 
ATOM     77  C   UNL A   1      47.686  41.529  27.769  1.00  0.00     0.041 A 
ATOM     78  F   UNL A   1      48.388  39.726  29.084  1.00  0.00    -0.206 F 
ATOM     79  C   UNL A   1      47.166  42.028  26.579  1.00  0.00     0.022 A 
BRANCH  76  80
ATOM     80  S   UNL A   1      46.268  41.755  23.956  1.00  0.00     0.124 S 
ATOM     81  O   UNL A   1      46.924  43.061  23.926  1.00  0.00    -0.237 OA
ATOM     82  O   UNL A   1      46.809  40.747  23.053  1.00  0.00    -0.237 OA
ATOM     83  O   UNL A   1      44.809  41.804  24.034  1.00  0.00    -0.744 OA
ENDBRANCH  76  80
ENDBRANCH  59  73
BRANCH  60  84
ATOM     84  C   UNL A   1      47.909  29.287  28.477  1.00  0.00     0.023 A 
ATOM     85  C   UNL A   1      48.584  28.730  29.573  1.00  0.00     0.031 A 
ATOM     86  C   UNL A   1      47.309  28.404  27.558  1.00  0.00     0.131 A 
ATOM     87  C   UNL A   1      48.675  27.334  29.702  1.00  0.00     0.055 A 
ATOM     88  C   UNL A   1      47.345  27.020  27.725  1.00  0.00     0.041 A 
ATOM     89  F   UNL A   1      46.652  28.881  26.487  1.00  0.00    -0.206 F 
ATOM     90  C   UNL A   1      48.044  26.477  28.797  1.00  0.00     0.022 A 
BRANCH  87  91
ATOM     91  S   UNL A   1      49.710  26.647  31.023  1.00  0.00     0.124 S 
ATOM     92  O   UNL A   1      51.041  27.085  30.616  1.00  0.00    -0.237 OA
ATOM     93  O   UNL A   1      49.156  27.292  32.208  1.00  0.00    -0.237 OA
ATOM     94  O   UNL A   1      49.471  25.208  30.929  1.00  0.00    -0.744 OA
ENDBRANCH  87  91
ENDBRANCH  60  84
BRANCH  72  95
ATOM     95  C   UNL A   1      52.074  33.920  25.339  1.00  0.00     0.023 A 
ATOM     96  C   UNL A   1      52.168  33.517  23.995  1.00  0.00     0.031 A 
ATOM     97  C   UNL A   1      53.267  34.148  26.047  1.00  0.00     0.131 A 
ATOM     98  C   UNL A   1      53.428  33.288  23.422  1.00  0.00     0.055 A 
ATOM     99  C   UNL A   1      54.518  33.986  25.450  1.00  0.00     0.041 A 
ATOM    100  F   UNL A   1      53.237  34.529  27.334  1.00  0.00    -0.206 F 
ATOM    101  C   UNL A   1      54.603  33.538  24.134  1.00  0.00     0.022 A 
BRANCH  98 102
ATOM    102  S   UNL A   1      53.507  32.549  21.767  1.00  0.00     0.124 S 
ATOM    103  O   UNL A   1      52.117  32.172  21.536  1.00  0.00    -0.237 OA
ATOM    104  O   UNL A   1      54.013  33.652  20.956  1.00  0.00    -0.237 OA
ATOM    105  O   UNL A   1      54.434  31.430  21.936  1.00  0.00    -0.744 OA
ENDBRANCH  98 102
ENDBRANCH  72  95
ENDBRANCH  46  47
ENDBRANCH  39  41
ENDBRANCH  38  39
ENDBRANCH  37  38
ENDBRANCH  36  37
ENDBRANCH  35  36
ENDBRANCH  34  35
ENDBRANCH  33  34
ENDBRANCH   1  33
TORSDOF 26
ENDMDL
