MODEL 1
REMARK VINA RESULT:      -9.7      0.000      0.000
REMARK SMILES Cn1cc(/C=C/C(=O)N(CC(=O)OCCOCCOCCOCCOC(=O)c2ccc(-c3c4nc(c(-c5cc(S(=O)(=O)[O-])ccc5F)c5ccc([nH]5)c(-c5cc(S(=O)(=O)[O-])ccc5F)c5nc(c(-c6cc(S(=O)(=O)[O-])ccc6F)c6ccc3[nH]6)C=C5)C=C4)cc2)C(C)(C)C)cn1
REMARK SMILES IDX 18 1 17 2 16 3 15 4 14 5 13 6 11 7 12 8 10 9 9 10 7 11 8 12
REMARK SMILES IDX 6 13 5 14 4 15 1 16 2 17 3 18 96 19 95 20 91 21 92 22 93 23
REMARK SMILES IDX 94 24 19 25 20 26 21 27 22 28 23 29 24 30 25 31 26 32 27 33
REMARK SMILES IDX 28 34 29 35 90 36 30 37 89 38 31 39 32 40 33 41 83 42 34 43
REMARK SMILES IDX 88 44 82 45 84 46 35 47 87 48 81 49 80 50 36 52 68 53 48 54
REMARK SMILES IDX 67 55 49 56 52 57 66 58 85 59 50 60 51 61 65 63 86 64 53 65
REMARK SMILES IDX 37 66 38 67 46 68 39 69 45 70 47 71 44 72 40 73 41 74 42 75
REMARK SMILES IDX 43 76 69 77 70 78 78 79 71 80 77 81 79 82 76 83 72 84 73 85
REMARK SMILES IDX 74 86 75 87 54 88 55 89 63 90 56 91 62 92 64 93 61 94 57 95
REMARK SMILES IDX 58 96 59 97 60 98
REMARK H PARENT 84 51 52 62
REMARK Flexibility Score: inf
ROOT
ATOM      1  C   UNL A   1      35.989  24.055  25.519  1.00  0.00     0.188 C 
ENDROOT
BRANCH   1   2
ATOM      2  C   UNL A   1      34.473  24.083  25.796  1.00  0.00     0.188 C 
BRANCH   2   3
ATOM      3  O   UNL A   1      33.921  23.424  26.933  1.00  0.00    -0.376 OA
BRANCH   3   4
ATOM      4  C   UNL A   1      33.041  22.333  26.735  1.00  0.00     0.202 C 
BRANCH   4   5
ATOM      5  C   UNL A   1      32.354  22.249  25.358  1.00  0.00     0.261 C 
BRANCH   5   6
ATOM      6  O   UNL A   1      31.058  22.891  25.232  1.00  0.00    -0.462 OA
BRANCH   6   7
ATOM      7  C   UNL A   1      30.941  23.909  24.340  1.00  0.00     0.325 C 
ATOM      8  O   UNL A   1      30.746  23.739  23.138  1.00  0.00    -0.250 OA
BRANCH   7   9
ATOM      9  C   UNL A   1      31.069  25.349  24.935  1.00  0.00     0.243 C 
BRANCH   9  10
ATOM     10  N   UNL A   1      30.818  26.637  24.213  1.00  0.00    -0.323 N 
BRANCH  10  11
ATOM     11  C   UNL A   1      29.539  27.011  23.770  1.00  0.00     0.247 C 
ATOM     12  O   UNL A   1      28.585  26.233  23.716  1.00  0.00    -0.270 OA
BRANCH  11  13
ATOM     13  C   UNL A   1      29.302  28.324  23.120  1.00  0.00     0.072 C 
ATOM     14  C   UNL A   1      28.252  29.135  23.284  1.00  0.00     0.017 C 
BRANCH  14  15
ATOM     15  C   UNL A   1      28.083  30.390  22.644  1.00  0.00     0.013 A 
ATOM     16  C   UNL A   1      28.061  32.614  19.827  1.00  0.00     0.173 C 
ATOM     17  N   UNL A   1      27.983  31.915  21.086  1.00  0.00    -0.275 N 
ATOM     18  C   UNL A   1      28.148  30.576  21.284  1.00  0.00     0.116 A 
ATOM     19  N   UNL A   1      27.757  32.604  22.221  1.00  0.00    -0.181 NA
ATOM     20  C   UNL A   1      27.839  31.671  23.176  1.00  0.00     0.143 A 
ENDBRANCH  14  15
ENDBRANCH  11  13
ENDBRANCH  10  11
BRANCH  10  21
ATOM     21  C   UNL A   1      31.881  27.738  24.184  1.00  0.00     0.035 C 
ATOM     22  C   UNL A   1      31.814  28.618  25.462  1.00  0.00     0.034 C 
ATOM     23  C   UNL A   1      33.306  27.124  24.114  1.00  0.00     0.034 C 
ATOM     24  C   UNL A   1      31.829  28.666  22.943  1.00  0.00     0.034 C 
ENDBRANCH  10  21
ENDBRANCH   9  10
ENDBRANCH   7   9
ENDBRANCH   6   7
ENDBRANCH   5   6
ENDBRANCH   4   5
ENDBRANCH   3   4
ENDBRANCH   2   3
ENDBRANCH   1   2
BRANCH   1  25
ATOM     25  O   UNL A   1      36.325  23.530  24.253  1.00  0.00    -0.377 OA
BRANCH  25  26
ATOM     26  C   UNL A   1      36.967  22.270  24.282  1.00  0.00     0.188 C 
BRANCH  26  27
ATOM     27  C   UNL A   1      36.125  21.163  24.933  1.00  0.00     0.188 C 
BRANCH  27  28
ATOM     28  O   UNL A   1      36.858  19.949  25.067  1.00  0.00    -0.376 OA
BRANCH  28  29
ATOM     29  C   UNL A   1      38.219  19.904  24.686  1.00  0.00     0.202 C 
BRANCH  29  30
ATOM     30  C   UNL A   1      39.263  19.214  25.585  1.00  0.00     0.261 C 
BRANCH  30  31
ATOM     31  O   UNL A   1      39.791  19.964  26.682  1.00  0.00    -0.460 OA
BRANCH  31  32
ATOM     32  C   UNL A   1      41.087  20.338  26.594  1.00  0.00     0.338 C 
ATOM     33  O   UNL A   1      41.983  19.707  26.059  1.00  0.00    -0.246 OA
BRANCH  32  34
ATOM     34  C   UNL A   1      41.194  21.737  27.064  1.00  0.00     0.060 A 
ATOM     35  C   UNL A   1      40.527  22.736  26.344  1.00  0.00     0.016 A 
ATOM     36  C   UNL A   1      41.922  22.063  28.213  1.00  0.00     0.016 A 
ATOM     37  C   UNL A   1      40.595  24.066  26.758  1.00  0.00     0.010 A 
ATOM     38  C   UNL A   1      42.027  23.404  28.601  1.00  0.00     0.010 A 
ATOM     39  C   UNL A   1      41.387  24.413  27.858  1.00  0.00    -0.014 A 
BRANCH  39  40
ATOM     40  C   UNL A   1      41.744  25.836  28.074  1.00  0.00     0.031 A 
ATOM     41  C   UNL A   1      43.105  26.288  27.620  1.00  0.00     0.074 A 
ATOM     42  C   UNL A   1      40.882  26.711  28.623  1.00  0.00     0.049 A 
ATOM     43  N   UNL A   1      43.688  27.450  27.755  1.00  0.00    -0.248 NA
ATOM     44  C   UNL A   1      43.919  25.283  26.916  1.00  0.00     0.031 C 
ATOM     45  C   UNL A   1      39.513  26.405  29.030  1.00  0.00     0.029 A 
ATOM     46  N   UNL A   1      41.041  28.037  28.939  1.00  0.00    -0.354 N 
ATOM     47  C   UNL A   1      44.937  27.316  27.158  1.00  0.00     0.074 A 
ATOM     48  C   UNL A   1      45.039  25.951  26.690  1.00  0.00     0.031 C 
ATOM     49  C   UNL A   1      38.961  27.511  29.562  1.00  0.00     0.029 A 
ATOM     50  C   UNL A   1      39.952  28.588  29.574  1.00  0.00     0.049 A 
ATOM     51  H   UNL A   1      41.857  28.546  28.732  1.00  0.00     0.167 HD
ATOM     52  C   UNL A   1      45.909  28.249  27.013  1.00  0.00     0.034 A 
ATOM     53  C   UNL A   1      39.792  29.807  30.131  1.00  0.00     0.034 A 
ATOM     54  C   UNL A   1      45.799  29.596  27.512  1.00  0.00     0.049 A 
ATOM     55  C   UNL A   1      40.936  30.796  30.066  1.00  0.00     0.074 A 
ATOM     56  C   UNL A   1      46.723  30.622  27.433  1.00  0.00     0.029 A 
ATOM     57  N   UNL A   1      44.703  30.100  28.201  1.00  0.00    -0.354 N 
ATOM     58  N   UNL A   1      42.119  30.658  29.510  1.00  0.00    -0.248 NA
ATOM     59  C   UNL A   1      40.722  32.106  30.697  1.00  0.00     0.031 C 
ATOM     60  C   UNL A   1      46.222  31.717  28.143  1.00  0.00     0.029 A 
ATOM     61  C   UNL A   1      44.943  31.410  28.582  1.00  0.00     0.049 A 
ATOM     62  H   UNL A   1      43.877  29.600  28.391  1.00  0.00     0.167 HD
ATOM     63  C   UNL A   1      42.770  31.878  29.689  1.00  0.00     0.074 A 
ATOM     64  C   UNL A   1      41.849  32.737  30.401  1.00  0.00     0.031 C 
ATOM     65  C   UNL A   1      44.010  32.258  29.289  1.00  0.00     0.034 A 
BRANCH  52  66
ATOM     66  C   UNL A   1      47.193  27.813  26.350  1.00  0.00     0.023 A 
ATOM     67  C   UNL A   1      47.432  28.030  24.981  1.00  0.00     0.031 A 
ATOM     68  C   UNL A   1      48.177  27.134  27.090  1.00  0.00     0.131 A 
ATOM     69  C   UNL A   1      48.589  27.510  24.383  1.00  0.00     0.055 A 
ATOM     70  C   UNL A   1      49.365  26.695  26.506  1.00  0.00     0.041 A 
ATOM     71  F   UNL A   1      47.990  26.870  28.394  1.00  0.00    -0.206 F 
ATOM     72  C   UNL A   1      49.571  26.869  25.142  1.00  0.00     0.022 A 
BRANCH  69  73
ATOM     73  S   UNL A   1      48.724  27.551  22.574  1.00  0.00     0.124 S 
ATOM     74  O   UNL A   1      48.734  26.127  22.247  1.00  0.00    -0.237 OA
ATOM     75  O   UNL A   1      47.526  28.288  22.186  1.00  0.00    -0.237 OA
ATOM     76  O   UNL A   1      49.988  28.246  22.340  1.00  0.00    -0.744 OA
ENDBRANCH  69  73
ENDBRANCH  52  66
BRANCH  53  77
ATOM     77  C   UNL A   1      38.529  30.157  30.846  1.00  0.00     0.023 A 
ATOM     78  C   UNL A   1      37.537  30.941  30.234  1.00  0.00     0.031 A 
ATOM     79  C   UNL A   1      38.325  29.768  32.182  1.00  0.00     0.131 A 
ATOM     80  C   UNL A   1      36.414  31.351  30.970  1.00  0.00     0.055 A 
ATOM     81  C   UNL A   1      37.178  30.128  32.892  1.00  0.00     0.041 A 
ATOM     82  F   UNL A   1      39.244  29.026  32.822  1.00  0.00    -0.206 F 
ATOM     83  C   UNL A   1      36.220  30.937  32.291  1.00  0.00     0.022 A 
BRANCH  80  84
ATOM     84  S   UNL A   1      35.255  32.521  30.209  1.00  0.00     0.124 S 
ATOM     85  O   UNL A   1      36.162  33.541  29.694  1.00  0.00    -0.237 OA
ATOM     86  O   UNL A   1      34.593  31.686  29.212  1.00  0.00    -0.237 OA
ATOM     87  O   UNL A   1      34.412  32.942  31.326  1.00  0.00    -0.744 OA
ENDBRANCH  80  84
ENDBRANCH  53  77
BRANCH  65  88
ATOM     88  C   UNL A   1      44.420  33.689  29.542  1.00  0.00     0.023 A 
ATOM     89  C   UNL A   1      44.305  34.687  28.559  1.00  0.00     0.031 A 
ATOM     90  C   UNL A   1      44.910  34.061  30.808  1.00  0.00     0.131 A 
ATOM     91  C   UNL A   1      44.716  36.000  28.846  1.00  0.00     0.055 A 
ATOM     92  C   UNL A   1      45.258  35.378  31.106  1.00  0.00     0.041 A 
ATOM     93  F   UNL A   1      45.043  33.148  31.784  1.00  0.00    -0.206 F 
ATOM     94  C   UNL A   1      45.172  36.354  30.119  1.00  0.00     0.022 A 
BRANCH  91  95
ATOM     95  S   UNL A   1      44.721  37.227  27.511  1.00  0.00     0.124 S 
ATOM     96  O   UNL A   1      46.031  37.846  27.672  1.00  0.00    -0.237 OA
ATOM     97  O   UNL A   1      44.549  36.398  26.323  1.00  0.00    -0.237 OA
ATOM     98  O   UNL A   1      43.585  38.089  27.833  1.00  0.00    -0.744 OA
ENDBRANCH  91  95
ENDBRANCH  65  88
ENDBRANCH  39  40
ENDBRANCH  32  34
ENDBRANCH  31  32
ENDBRANCH  30  31
ENDBRANCH  29  30
ENDBRANCH  28  29
ENDBRANCH  27  28
ENDBRANCH  26  27
ENDBRANCH  25  26
ENDBRANCH   1  25
TORSDOF 28
ENDMDL
MODEL 2
REMARK VINA RESULT:      -9.6      2.119      2.937
REMARK SMILES Cn1cc(/C=C/C(=O)N(CC(=O)OCCOCCOCCOCCOC(=O)c2ccc(-c3c4nc(c(-c5cc(S(=O)(=O)[O-])ccc5F)c5ccc([nH]5)c(-c5cc(S(=O)(=O)[O-])ccc5F)c5nc(c(-c6cc(S(=O)(=O)[O-])ccc6F)c6ccc3[nH]6)C=C5)C=C4)cc2)C(C)(C)C)cn1
REMARK SMILES IDX 18 1 17 2 16 3 15 4 14 5 13 6 11 7 12 8 10 9 9 10 7 11 8 12
REMARK SMILES IDX 6 13 5 14 4 15 1 16 2 17 3 18 96 19 95 20 91 21 92 22 93 23
REMARK SMILES IDX 94 24 19 25 20 26 21 27 22 28 23 29 24 30 25 31 26 32 27 33
REMARK SMILES IDX 28 34 29 35 90 36 30 37 89 38 31 39 32 40 33 41 83 42 34 43
REMARK SMILES IDX 88 44 82 45 84 46 35 47 87 48 81 49 80 50 36 52 68 53 48 54
REMARK SMILES IDX 67 55 49 56 52 57 66 58 85 59 50 60 51 61 65 63 86 64 53 65
REMARK SMILES IDX 37 66 38 67 46 68 39 69 45 70 47 71 44 72 40 73 41 74 42 75
REMARK SMILES IDX 43 76 69 77 70 78 78 79 71 80 77 81 79 82 76 83 72 84 73 85
REMARK SMILES IDX 74 86 75 87 54 88 55 89 63 90 56 91 62 92 64 93 61 94 57 95
REMARK SMILES IDX 58 96 59 97 60 98
REMARK H PARENT 84 51 52 62
REMARK Flexibility Score: inf
ROOT
ATOM      1  C   UNL A   1      36.631  24.223  25.921  1.00  0.00     0.188 C 
ENDROOT
BRANCH   1   2
ATOM      2  C   UNL A   1      35.192  24.606  25.519  1.00  0.00     0.188 C 
BRANCH   2   3
ATOM      3  O   UNL A   1      34.075  24.181  26.297  1.00  0.00    -0.376 OA
BRANCH   3   4
ATOM      4  C   UNL A   1      34.211  23.042  27.128  1.00  0.00     0.202 C 
BRANCH   4   5
ATOM      5  C   UNL A   1      32.922  22.524  27.795  1.00  0.00     0.261 C 
BRANCH   5   6
ATOM      6  O   UNL A   1      31.758  23.387  27.729  1.00  0.00    -0.462 OA
BRANCH   6   7
ATOM      7  C   UNL A   1      30.681  22.944  27.029  1.00  0.00     0.325 C 
ATOM      8  O   UNL A   1      29.519  23.164  27.362  1.00  0.00    -0.250 OA
BRANCH   7   9
ATOM      9  C   UNL A   1      31.003  22.118  25.741  1.00  0.00     0.243 C 
BRANCH   9  10
ATOM     10  N   UNL A   1      31.327  22.669  24.387  1.00  0.00    -0.323 N 
BRANCH  10  11
ATOM     11  C   UNL A   1      30.862  23.922  23.957  1.00  0.00     0.247 C 
ATOM     12  O   UNL A   1      30.190  24.082  22.937  1.00  0.00    -0.270 OA
BRANCH  11  13
ATOM     13  C   UNL A   1      31.339  25.179  24.586  1.00  0.00     0.072 C 
ATOM     14  C   UNL A   1      30.653  25.998  25.390  1.00  0.00     0.017 C 
BRANCH  14  15
ATOM     15  C   UNL A   1      31.165  27.185  25.975  1.00  0.00     0.013 A 
ATOM     16  C   UNL A   1      32.126  30.642  25.977  1.00  0.00     0.173 C 
ATOM     17  N   UNL A   1      31.793  29.260  26.218  1.00  0.00    -0.275 N 
ATOM     18  C   UNL A   1      31.185  28.407  25.347  1.00  0.00     0.116 A 
ATOM     19  N   UNL A   1      32.120  28.689  27.394  1.00  0.00    -0.181 NA
ATOM     20  C   UNL A   1      31.753  27.413  27.234  1.00  0.00     0.143 A 
ENDBRANCH  14  15
ENDBRANCH  11  13
ENDBRANCH  10  11
BRANCH  10  21
ATOM     21  C   UNL A   1      32.419  22.033  23.524  1.00  0.00     0.035 C 
ATOM     22  C   UNL A   1      31.811  21.300  22.297  1.00  0.00     0.034 C 
ATOM     23  C   UNL A   1      33.394  23.117  22.985  1.00  0.00     0.034 C 
ATOM     24  C   UNL A   1      33.355  21.049  24.273  1.00  0.00     0.034 C 
ENDBRANCH  10  21
ENDBRANCH   9  10
ENDBRANCH   7   9
ENDBRANCH   6   7
ENDBRANCH   5   6
ENDBRANCH   4   5
ENDBRANCH   3   4
ENDBRANCH   2   3
ENDBRANCH   1   2
BRANCH   1  25
ATOM     25  O   UNL A   1      37.324  23.501  24.925  1.00  0.00    -0.377 OA
BRANCH  25  26
ATOM     26  C   UNL A   1      37.741  22.206  25.310  1.00  0.00     0.188 C 
BRANCH  26  27
ATOM     27  C   UNL A   1      36.660  21.130  25.128  1.00  0.00     0.188 C 
BRANCH  27  28
ATOM     28  O   UNL A   1      37.214  19.817  25.124  1.00  0.00    -0.376 OA
BRANCH  28  29
ATOM     29  C   UNL A   1      38.572  19.629  24.778  1.00  0.00     0.202 C 
BRANCH  29  30
ATOM     30  C   UNL A   1      39.593  19.163  25.833  1.00  0.00     0.261 C 
BRANCH  30  31
ATOM     31  O   UNL A   1      40.391  20.163  26.470  1.00  0.00    -0.460 OA
BRANCH  31  32
ATOM     32  C   UNL A   1      41.687  20.238  26.094  1.00  0.00     0.338 C 
ATOM     33  O   UNL A   1      42.295  19.409  25.439  1.00  0.00    -0.246 OA
BRANCH  32  34
ATOM     34  C   UNL A   1      42.183  21.593  26.423  1.00  0.00     0.060 A 
ATOM     35  C   UNL A   1      42.405  21.914  27.769  1.00  0.00     0.016 A 
ATOM     36  C   UNL A   1      42.450  22.532  25.423  1.00  0.00     0.016 A 
ATOM     37  C   UNL A   1      42.881  23.176  28.122  1.00  0.00     0.010 A 
ATOM     38  C   UNL A   1      42.883  23.814  25.781  1.00  0.00     0.010 A 
ATOM     39  C   UNL A   1      43.073  24.149  27.134  1.00  0.00    -0.014 A 
BRANCH  39  40
ATOM     40  C   UNL A   1      43.225  25.569  27.536  1.00  0.00     0.031 A 
ATOM     41  C   UNL A   1      44.603  26.168  27.463  1.00  0.00     0.074 A 
ATOM     42  C   UNL A   1      42.175  26.315  27.921  1.00  0.00     0.049 A 
ATOM     43  N   UNL A   1      45.018  27.353  27.823  1.00  0.00    -0.248 NA
ATOM     44  C   UNL A   1      45.656  25.302  26.906  1.00  0.00     0.031 C 
ATOM     45  C   UNL A   1      40.786  25.865  27.957  1.00  0.00     0.029 A 
ATOM     46  N   UNL A   1      42.122  27.613  28.364  1.00  0.00    -0.354 N 
ATOM     47  C   UNL A   1      46.380  27.377  27.541  1.00  0.00     0.074 A 
ATOM     48  C   UNL A   1      46.725  26.075  27.012  1.00  0.00     0.031 C 
ATOM     49  C   UNL A   1      40.016  26.868  28.419  1.00  0.00     0.029 A 
ATOM     50  C   UNL A   1      40.863  28.013  28.753  1.00  0.00     0.049 A 
ATOM     51  H   UNL A   1      42.908  28.203  28.401  1.00  0.00     0.167 HD
ATOM     52  C   UNL A   1      47.261  28.393  27.708  1.00  0.00     0.034 A 
ATOM     53  C   UNL A   1      40.456  29.157  29.342  1.00  0.00     0.034 A 
ATOM     54  C   UNL A   1      46.902  29.673  28.264  1.00  0.00     0.049 A 
ATOM     55  C   UNL A   1      41.478  30.234  29.633  1.00  0.00     0.074 A 
ATOM     56  C   UNL A   1      47.711  30.772  28.489  1.00  0.00     0.029 A 
ATOM     57  N   UNL A   1      45.629  30.021  28.699  1.00  0.00    -0.354 N 
ATOM     58  N   UNL A   1      42.766  30.244  29.375  1.00  0.00    -0.248 NA
ATOM     59  C   UNL A   1      40.992  31.456  30.289  1.00  0.00     0.031 C 
ATOM     60  C   UNL A   1      46.950  31.750  29.135  1.00  0.00     0.029 A 
ATOM     61  C   UNL A   1      45.641  31.302  29.224  1.00  0.00     0.049 A 
ATOM     62  H   UNL A   1      44.836  29.440  28.644  1.00  0.00     0.167 HD
ATOM     63  C   UNL A   1      43.232  31.489  29.797  1.00  0.00     0.074 A 
ATOM     64  C   UNL A   1      42.087  32.200  30.325  1.00  0.00     0.031 C 
ATOM     65  C   UNL A   1      44.487  32.002  29.742  1.00  0.00     0.034 A 
BRANCH  52  66
ATOM     66  C   UNL A   1      48.702  28.125  27.348  1.00  0.00     0.023 A 
ATOM     67  C   UNL A   1      49.203  28.373  26.058  1.00  0.00     0.031 A 
ATOM     68  C   UNL A   1      49.579  27.577  28.300  1.00  0.00     0.131 A 
ATOM     69  C   UNL A   1      50.518  28.006  25.736  1.00  0.00     0.055 A 
ATOM     70  C   UNL A   1      50.911  27.294  27.997  1.00  0.00     0.041 A 
ATOM     71  F   UNL A   1      49.149  27.290  29.540  1.00  0.00    -0.206 F 
ATOM     72  C   UNL A   1      51.384  27.494  26.705  1.00  0.00     0.022 A 
BRANCH  69  73
ATOM     73  S   UNL A   1      51.035  28.066  23.998  1.00  0.00     0.124 S 
ATOM     74  O   UNL A   1      49.769  27.833  23.306  1.00  0.00    -0.237 OA
ATOM     75  O   UNL A   1      51.590  29.409  23.880  1.00  0.00    -0.237 OA
ATOM     76  O   UNL A   1      52.004  26.977  23.891  1.00  0.00    -0.744 OA
ENDBRANCH  69  73
ENDBRANCH  52  66
BRANCH  53  77
ATOM     77  C   UNL A   1      39.030  29.336  29.751  1.00  0.00     0.023 A 
ATOM     78  C   UNL A   1      38.129  30.061  28.955  1.00  0.00     0.031 A 
ATOM     79  C   UNL A   1      38.565  28.839  30.983  1.00  0.00     0.131 A 
ATOM     80  C   UNL A   1      36.828  30.311  29.420  1.00  0.00     0.055 A 
ATOM     81  C   UNL A   1      37.253  29.040  31.414  1.00  0.00     0.041 A 
ATOM     82  F   UNL A   1      39.386  28.147  31.789  1.00  0.00    -0.206 F 
ATOM     83  C   UNL A   1      36.378  29.792  30.637  1.00  0.00     0.022 A 
BRANCH  80  84
ATOM     84  S   UNL A   1      35.757  31.415  28.457  1.00  0.00     0.124 S 
ATOM     85  O   UNL A   1      35.306  30.530  27.389  1.00  0.00    -0.237 OA
ATOM     86  O   UNL A   1      34.751  31.797  29.443  1.00  0.00    -0.237 OA
ATOM     87  O   UNL A   1      36.658  32.488  28.041  1.00  0.00    -0.744 OA
ENDBRANCH  80  84
ENDBRANCH  53  77
BRANCH  65  88
ATOM     88  C   UNL A   1      44.680  33.430  30.194  1.00  0.00     0.023 A 
ATOM     89  C   UNL A   1      44.469  34.523  29.336  1.00  0.00     0.031 A 
ATOM     90  C   UNL A   1      45.059  33.697  31.522  1.00  0.00     0.131 A 
ATOM     91  C   UNL A   1      44.679  35.830  29.806  1.00  0.00     0.055 A 
ATOM     92  C   UNL A   1      45.205  34.998  32.001  1.00  0.00     0.041 A 
ATOM     93  F   UNL A   1      45.277  32.690  32.385  1.00  0.00    -0.206 F 
ATOM     94  C   UNL A   1      45.025  36.074  31.138  1.00  0.00     0.022 A 
BRANCH  91  95
ATOM     95  S   UNL A   1      44.568  37.210  28.634  1.00  0.00     0.124 S 
ATOM     96  O   UNL A   1      43.127  37.424  28.553  1.00  0.00    -0.237 OA
ATOM     97  O   UNL A   1      45.332  38.254  29.307  1.00  0.00    -0.237 OA
ATOM     98  O   UNL A   1      45.184  36.679  27.419  1.00  0.00    -0.744 OA
ENDBRANCH  91  95
ENDBRANCH  65  88
ENDBRANCH  39  40
ENDBRANCH  32  34
ENDBRANCH  31  32
ENDBRANCH  30  31
ENDBRANCH  29  30
ENDBRANCH  28  29
ENDBRANCH  27  28
ENDBRANCH  26  27
ENDBRANCH  25  26
ENDBRANCH   1  25
TORSDOF 28
ENDMDL
MODEL 3
REMARK VINA RESULT:      -8.9      3.221      4.103
REMARK SMILES Cn1cc(/C=C/C(=O)N(CC(=O)OCCOCCOCCOCCOC(=O)c2ccc(-c3c4nc(c(-c5cc(S(=O)(=O)[O-])ccc5F)c5ccc([nH]5)c(-c5cc(S(=O)(=O)[O-])ccc5F)c5nc(c(-c6cc(S(=O)(=O)[O-])ccc6F)c6ccc3[nH]6)C=C5)C=C4)cc2)C(C)(C)C)cn1
REMARK SMILES IDX 18 1 17 2 16 3 15 4 14 5 13 6 11 7 12 8 10 9 9 10 7 11 8 12
REMARK SMILES IDX 6 13 5 14 4 15 1 16 2 17 3 18 96 19 95 20 91 21 92 22 93 23
REMARK SMILES IDX 94 24 19 25 20 26 21 27 22 28 23 29 24 30 25 31 26 32 27 33
REMARK SMILES IDX 28 34 29 35 90 36 30 37 89 38 31 39 32 40 33 41 83 42 34 43
REMARK SMILES IDX 88 44 82 45 84 46 35 47 87 48 81 49 80 50 36 52 68 53 48 54
REMARK SMILES IDX 67 55 49 56 52 57 66 58 85 59 50 60 51 61 65 63 86 64 53 65
REMARK SMILES IDX 37 66 38 67 46 68 39 69 45 70 47 71 44 72 40 73 41 74 42 75
REMARK SMILES IDX 43 76 69 77 70 78 78 79 71 80 77 81 79 82 76 83 72 84 73 85
REMARK SMILES IDX 74 86 75 87 54 88 55 89 63 90 56 91 62 92 64 93 61 94 57 95
REMARK SMILES IDX 58 96 59 97 60 98
REMARK H PARENT 84 51 52 62
REMARK Flexibility Score: inf
ROOT
ATOM      1  C   UNL A   1      36.626  20.870  24.896  1.00  0.00     0.188 C 
ENDROOT
BRANCH   1   2
ATOM      2  C   UNL A   1      35.355  21.532  25.464  1.00  0.00     0.188 C 
BRANCH   2   3
ATOM      3  O   UNL A   1      35.001  21.384  26.837  1.00  0.00    -0.376 OA
BRANCH   3   4
ATOM      4  C   UNL A   1      33.630  21.345  27.191  1.00  0.00     0.202 C 
BRANCH   4   5
ATOM      5  C   UNL A   1      32.992  22.684  27.608  1.00  0.00     0.261 C 
BRANCH   5   6
ATOM      6  O   UNL A   1      32.558  23.564  26.540  1.00  0.00    -0.462 OA
BRANCH   6   7
ATOM      7  C   UNL A   1      31.222  23.673  26.313  1.00  0.00     0.325 C 
ATOM      8  O   UNL A   1      30.377  23.623  27.204  1.00  0.00    -0.250 OA
BRANCH   7   9
ATOM      9  C   UNL A   1      30.802  23.870  24.820  1.00  0.00     0.243 C 
BRANCH   9  10
ATOM     10  N   UNL A   1      31.482  24.745  23.812  1.00  0.00    -0.323 N 
BRANCH  10  11
ATOM     11  C   UNL A   1      31.175  26.108  23.675  1.00  0.00     0.247 C 
ATOM     12  O   UNL A   1      30.410  26.548  22.815  1.00  0.00    -0.270 OA
BRANCH  11  13
ATOM     13  C   UNL A   1      31.930  27.147  24.420  1.00  0.00     0.072 C 
ATOM     14  C   UNL A   1      31.623  27.681  25.606  1.00  0.00     0.017 C 
BRANCH  14  15
ATOM     15  C   UNL A   1      32.391  28.665  26.281  1.00  0.00     0.013 A 
ATOM     16  C   UNL A   1      35.387  30.006  27.731  1.00  0.00     0.173 C 
ATOM     17  N   UNL A   1      34.084  29.689  27.201  1.00  0.00    -0.275 N 
ATOM     18  C   UNL A   1      33.747  28.581  26.481  1.00  0.00     0.116 A 
ATOM     19  N   UNL A   1      33.048  30.517  27.433  1.00  0.00    -0.181 NA
ATOM     20  C   UNL A   1      32.008  29.878  26.887  1.00  0.00     0.143 A 
ENDBRANCH  14  15
ENDBRANCH  11  13
ENDBRANCH  10  11
BRANCH  10  21
ATOM     21  C   UNL A   1      32.746  24.271  23.090  1.00  0.00     0.035 C 
ATOM     22  C   UNL A   1      32.746  22.728  22.910  1.00  0.00     0.034 C 
ATOM     23  C   UNL A   1      32.839  24.906  21.674  1.00  0.00     0.034 C 
ATOM     24  C   UNL A   1      34.079  24.691  23.760  1.00  0.00     0.034 C 
ENDBRANCH  10  21
ENDBRANCH   9  10
ENDBRANCH   7   9
ENDBRANCH   6   7
ENDBRANCH   5   6
ENDBRANCH   4   5
ENDBRANCH   3   4
ENDBRANCH   2   3
ENDBRANCH   1   2
BRANCH   1  25
ATOM     25  O   UNL A   1      36.555  19.461  24.839  1.00  0.00    -0.377 OA
BRANCH  25  26
ATOM     26  C   UNL A   1      37.762  18.791  25.144  1.00  0.00     0.188 C 
BRANCH  26  27
ATOM     27  C   UNL A   1      38.973  19.729  25.270  1.00  0.00     0.188 C 
BRANCH  27  28
ATOM     28  O   UNL A   1      40.162  19.016  25.598  1.00  0.00    -0.376 OA
BRANCH  28  29
ATOM     29  C   UNL A   1      41.216  19.680  26.269  1.00  0.00     0.202 C 
BRANCH  29  30
ATOM     30  C   UNL A   1      41.425  21.196  26.096  1.00  0.00     0.261 C 
BRANCH  30  31
ATOM     31  O   UNL A   1      40.893  22.057  27.106  1.00  0.00    -0.460 OA
BRANCH  31  32
ATOM     32  C   UNL A   1      40.004  22.991  26.701  1.00  0.00     0.338 C 
ATOM     33  O   UNL A   1      38.881  22.780  26.276  1.00  0.00    -0.246 OA
BRANCH  32  34
ATOM     34  C   UNL A   1      40.541  24.322  27.063  1.00  0.00     0.060 A 
ATOM     35  C   UNL A   1      41.117  24.488  28.329  1.00  0.00     0.016 A 
ATOM     36  C   UNL A   1      40.501  25.390  26.162  1.00  0.00     0.016 A 
ATOM     37  C   UNL A   1      41.642  25.723  28.707  1.00  0.00     0.010 A 
ATOM     38  C   UNL A   1      40.987  26.642  26.558  1.00  0.00     0.010 A 
ATOM     39  C   UNL A   1      41.533  26.819  27.843  1.00  0.00    -0.014 A 
BRANCH  39  40
ATOM     40  C   UNL A   1      41.757  28.186  28.375  1.00  0.00     0.031 A 
ATOM     41  C   UNL A   1      43.178  28.668  28.476  1.00  0.00     0.074 A 
ATOM     42  C   UNL A   1      40.737  28.989  28.726  1.00  0.00     0.049 A 
ATOM     43  N   UNL A   1      43.649  29.782  28.970  1.00  0.00    -0.248 NA
ATOM     44  C   UNL A   1      44.209  27.760  27.945  1.00  0.00     0.031 C 
ATOM     45  C   UNL A   1      39.319  28.658  28.600  1.00  0.00     0.029 A 
ATOM     46  N   UNL A   1      40.743  30.248  29.271  1.00  0.00    -0.354 N 
ATOM     47  C   UNL A   1      45.029  29.710  28.814  1.00  0.00     0.074 A 
ATOM     48  C   UNL A   1      45.321  28.428  28.210  1.00  0.00     0.031 C 
ATOM     49  C   UNL A   1      38.590  29.685  29.074  1.00  0.00     0.029 A 
ATOM     50  C   UNL A   1      39.489  30.724  29.578  1.00  0.00     0.049 A 
ATOM     51  H   UNL A   1      41.567  30.764  29.427  1.00  0.00     0.167 HD
ATOM     52  C   UNL A   1      45.967  30.630  29.144  1.00  0.00     0.034 A 
ATOM     53  C   UNL A   1      39.118  31.850  30.223  1.00  0.00     0.034 A 
ATOM     54  C   UNL A   1      45.658  31.890  29.771  1.00  0.00     0.049 A 
ATOM     55  C   UNL A   1      40.189  32.810  30.693  1.00  0.00     0.074 A 
ATOM     56  C   UNL A   1      46.526  32.895  30.160  1.00  0.00     0.029 A 
ATOM     57  N   UNL A   1      44.381  32.312  30.119  1.00  0.00    -0.354 N 
ATOM     58  N   UNL A   1      41.493  32.729  30.553  1.00  0.00    -0.248 NA
ATOM     59  C   UNL A   1      39.739  34.015  31.404  1.00  0.00     0.031 C 
ATOM     60  C   UNL A   1      45.786  33.883  30.815  1.00  0.00     0.029 A 
ATOM     61  C   UNL A   1      44.443  33.544  30.749  1.00  0.00     0.049 A 
ATOM     62  H   UNL A   1      43.553  31.808  29.945  1.00  0.00     0.167 HD
ATOM     63  C   UNL A   1      42.012  33.893  31.119  1.00  0.00     0.074 A 
ATOM     64  C   UNL A   1      40.882  34.657  31.600  1.00  0.00     0.031 C 
ATOM     65  C   UNL A   1      43.304  34.298  31.220  1.00  0.00     0.034 A 
BRANCH  52  66
ATOM     66  C   UNL A   1      47.411  30.268  28.892  1.00  0.00     0.023 A 
ATOM     67  C   UNL A   1      48.168  29.543  29.829  1.00  0.00     0.031 A 
ATOM     68  C   UNL A   1      48.050  30.689  27.713  1.00  0.00     0.131 A 
ATOM     69  C   UNL A   1      49.535  29.324  29.604  1.00  0.00     0.055 A 
ATOM     70  C   UNL A   1      49.390  30.394  27.457  1.00  0.00     0.041 A 
ATOM     71  F   UNL A   1      47.387  31.411  26.796  1.00  0.00    -0.206 F 
ATOM     72  C   UNL A   1      50.144  29.720  28.411  1.00  0.00     0.022 A 
BRANCH  69  73
ATOM     73  S   UNL A   1      50.539  28.650  30.956  1.00  0.00     0.124 S 
ATOM     74  O   UNL A   1      49.513  28.275  31.927  1.00  0.00    -0.237 OA
ATOM     75  O   UNL A   1      51.241  27.548  30.309  1.00  0.00    -0.237 OA
ATOM     76  O   UNL A   1      51.380  29.778  31.354  1.00  0.00    -0.744 OA
ENDBRANCH  69  73
ENDBRANCH  52  66
BRANCH  53  77
ATOM     77  C   UNL A   1      37.678  32.119  30.517  1.00  0.00     0.023 A 
ATOM     78  C   UNL A   1      36.846  32.743  29.574  1.00  0.00     0.031 A 
ATOM     79  C   UNL A   1      37.130  31.816  31.777  1.00  0.00     0.131 A 
ATOM     80  C   UNL A   1      35.529  33.088  29.920  1.00  0.00     0.055 A 
ATOM     81  C   UNL A   1      35.803  32.107  32.096  1.00  0.00     0.041 A 
ATOM     82  F   UNL A   1      37.882  31.229  32.721  1.00  0.00    -0.206 F 
ATOM     83  C   UNL A   1      34.997  32.760  31.170  1.00  0.00     0.022 A 
BRANCH  80  84
ATOM     84  S   UNL A   1      34.549  34.065  28.747  1.00  0.00     0.124 S 
ATOM     85  O   UNL A   1      34.962  33.495  27.470  1.00  0.00    -0.237 OA
ATOM     86  O   UNL A   1      33.185  33.769  29.172  1.00  0.00    -0.237 OA
ATOM     87  O   UNL A   1      34.992  35.436  28.992  1.00  0.00    -0.744 OA
ENDBRANCH  80  84
ENDBRANCH  53  77
BRANCH  65  88
ATOM     88  C   UNL A   1      43.564  35.666  31.806  1.00  0.00     0.023 A 
ATOM     89  C   UNL A   1      43.794  36.795  31.001  1.00  0.00     0.031 A 
ATOM     90  C   UNL A   1      43.553  35.840  33.202  1.00  0.00     0.131 A 
ATOM     91  C   UNL A   1      44.046  38.040  31.601  1.00  0.00     0.055 A 
ATOM     92  C   UNL A   1      43.742  37.090  33.791  1.00  0.00     0.041 A 
ATOM     93  F   UNL A   1      43.341  34.795  34.019  1.00  0.00    -0.206 F 
ATOM     94  C   UNL A   1      44.001  38.197  32.990  1.00  0.00     0.022 A 
BRANCH  91  95
ATOM     95  S   UNL A   1      44.511  39.441  30.548  1.00  0.00     0.124 S 
ATOM     96  O   UNL A   1      45.556  38.859  29.713  1.00  0.00    -0.237 OA
ATOM     97  O   UNL A   1      43.257  39.756  29.875  1.00  0.00    -0.237 OA
ATOM     98  O   UNL A   1      44.971  40.449  31.502  1.00  0.00    -0.744 OA
ENDBRANCH  91  95
ENDBRANCH  65  88
ENDBRANCH  39  40
ENDBRANCH  32  34
ENDBRANCH  31  32
ENDBRANCH  30  31
ENDBRANCH  29  30
ENDBRANCH  28  29
ENDBRANCH  27  28
ENDBRANCH  26  27
ENDBRANCH  25  26
ENDBRANCH   1  25
TORSDOF 28
ENDMDL
