MODEL 1
REMARK VINA RESULT:     -10.1      0.000      0.000
REMARK SMILES Cc1cc(OC(F)(F)F)cc2c1O[C@H](C(F)(F)F)C(C(=O)OCCOCCOCCOCCOC(=O)c1ccc(-c3c4nc(c(-c5cc(S(=O)(=O)[O-])ccc5F)c5ccc([nH]5)c(-c5cc(S(=O)(=O)[O-])ccc5F)c5nc(c(-c6cc(S(=O)(=O)[O-])ccc6F)c6ccc3[nH]6)C=C5)C=C4)cc1)=C2
REMARK SMILES IDX 29 1 28 2 27 3 26 4 25 5 24 6 23 7 22 8 20 9 21 10 19 11
REMARK SMILES IDX 1 12 2 13 3 14 12 15 4 16 11 17 13 18 10 19 100 20 14 21
REMARK SMILES IDX 5 22 6 23 7 24 8 25 9 26 15 27 16 28 17 29 18 30 30 31 31 32
REMARK SMILES IDX 32 33 33 34 34 35 35 36 36 37 37 38 38 39 99 40 39 41 98 42
REMARK SMILES IDX 40 43 41 44 42 45 92 46 43 47 97 48 91 49 93 50 44 51 96 52
REMARK SMILES IDX 90 53 89 54 45 56 77 57 57 58 76 59 58 60 61 61 75 62 94 63
REMARK SMILES IDX 59 64 60 65 74 67 95 68 62 69 46 70 47 71 55 72 48 73 54 74
REMARK SMILES IDX 56 75 53 76 49 77 50 78 51 79 52 80 78 81 79 82 87 83 80 84
REMARK SMILES IDX 86 85 88 86 85 87 81 88 82 89 83 90 84 91 63 92 64 93 72 94
REMARK SMILES IDX 65 95 71 96 73 97 70 98 66 99 67 100 68 101 69 102
REMARK H PARENT 93 55 61 66
REMARK Flexibility Score: inf
ROOT
ATOM      1  C   UNL A   1      37.097  21.673  24.231  1.00  0.00     0.188 C 
ENDROOT
BRANCH   1   2
ATOM      2  O   UNL A   1      35.945  22.501  24.070  1.00  0.00    -0.377 OA
BRANCH   2   3
ATOM      3  C   UNL A   1      35.994  23.807  24.615  1.00  0.00     0.188 C 
BRANCH   3   4
ATOM      4  C   UNL A   1      35.966  23.804  26.155  1.00  0.00     0.188 C 
BRANCH   4   5
ATOM      5  O   UNL A   1      35.211  22.738  26.705  1.00  0.00    -0.376 OA
BRANCH   5   6
ATOM      6  C   UNL A   1      34.160  22.980  27.629  1.00  0.00     0.202 C 
BRANCH   6   7
ATOM      7  C   UNL A   1      32.833  22.197  27.672  1.00  0.00     0.261 C 
BRANCH   7   8
ATOM      8  O   UNL A   1      32.134  22.007  26.442  1.00  0.00    -0.460 OA
BRANCH   8   9
ATOM      9  C   UNL A   1      31.083  22.799  26.177  1.00  0.00     0.338 C 
ATOM     10  O   UNL A   1      29.950  22.683  26.611  1.00  0.00    -0.246 OA
BRANCH   9  11
ATOM     11  C   UNL A   1      31.587  23.960  25.410  1.00  0.00     0.087 C 
ATOM     12  C   UNL A   1      33.578  27.108  21.888  1.00  0.00     0.048 C 
ATOM     13  C   UNL A   1      32.845  27.271  23.193  1.00  0.00    -0.005 A 
ATOM     14  C   UNL A   1      32.415  28.552  23.584  1.00  0.00     0.054 A 
ATOM     15  C   UNL A   1      32.492  26.158  23.973  1.00  0.00     0.131 A 
ATOM     16  C   UNL A   1      31.681  28.730  24.758  1.00  0.00     0.130 A 
ATOM     17  C   UNL A   1      31.726  26.329  25.126  1.00  0.00     0.021 A 
ATOM     18  O   UNL A   1      32.918  24.937  23.538  1.00  0.00    -0.475 OA
ATOM     19  C   UNL A   1      31.358  27.616  25.534  1.00  0.00     0.058 A 
ATOM     20  C   UNL A   1      31.245  25.172  25.861  1.00  0.00     0.027 C 
ATOM     21  C   UNL A   1      32.506  23.730  24.235  1.00  0.00     0.316 C 
BRANCH  16  22
ATOM     22  O   UNL A   1      31.212  29.914  25.250  1.00  0.00    -0.406 OA
BRANCH  22  23
ATOM     23  C   UNL A   1      31.914  30.498  26.332  1.00  0.00     0.573 C 
ATOM     24  F   UNL A   1      31.619  31.810  26.453  1.00  0.00    -0.132 F 
ATOM     25  F   UNL A   1      31.647  29.864  27.493  1.00  0.00    -0.132 F 
ATOM     26  F   UNL A   1      33.241  30.390  26.093  1.00  0.00    -0.132 F 
ENDBRANCH  22  23
ENDBRANCH  16  22
BRANCH  21  27
ATOM     27  C   UNL A   1      31.889  22.778  23.202  1.00  0.00     0.430 C 
ATOM     28  F   UNL A   1      30.571  23.027  23.025  1.00  0.00    -0.167 F 
ATOM     29  F   UNL A   1      32.483  22.886  21.993  1.00  0.00    -0.167 F 
ATOM     30  F   UNL A   1      32.009  21.486  23.594  1.00  0.00    -0.167 F 
ENDBRANCH  21  27
ENDBRANCH   9  11
ENDBRANCH   8   9
ENDBRANCH   7   8
ENDBRANCH   6   7
ENDBRANCH   5   6
ENDBRANCH   4   5
ENDBRANCH   3   4
ENDBRANCH   2   3
ENDBRANCH   1   2
BRANCH   1  31
ATOM     31  C   UNL A   1      37.012  20.309  24.958  1.00  0.00     0.188 C 
BRANCH  31  32
ATOM     32  O   UNL A   1      38.064  19.406  24.628  1.00  0.00    -0.376 OA
BRANCH  32  33
ATOM     33  C   UNL A   1      38.823  18.869  25.702  1.00  0.00     0.202 C 
BRANCH  33  34
ATOM     34  C   UNL A   1      40.052  19.688  26.118  1.00  0.00     0.261 C 
BRANCH  34  35
ATOM     35  O   UNL A   1      41.269  19.383  25.424  1.00  0.00    -0.460 OA
BRANCH  35  36
ATOM     36  C   UNL A   1      42.434  19.688  26.033  1.00  0.00     0.338 C 
ATOM     37  O   UNL A   1      43.426  18.985  26.125  1.00  0.00    -0.246 OA
BRANCH  36  38
ATOM     38  C   UNL A   1      42.364  21.113  26.409  1.00  0.00     0.060 A 
ATOM     39  C   UNL A   1      42.214  22.082  25.407  1.00  0.00     0.016 A 
ATOM     40  C   UNL A   1      42.420  21.482  27.755  1.00  0.00     0.016 A 
ATOM     41  C   UNL A   1      42.143  23.431  25.751  1.00  0.00     0.010 A 
ATOM     42  C   UNL A   1      42.386  22.836  28.094  1.00  0.00     0.010 A 
ATOM     43  C   UNL A   1      42.282  23.814  27.092  1.00  0.00    -0.014 A 
BRANCH  43  44
ATOM     44  C   UNL A   1      42.584  25.226  27.415  1.00  0.00     0.031 A 
ATOM     45  C   UNL A   1      43.956  25.738  27.078  1.00  0.00     0.074 A 
ATOM     46  C   UNL A   1      41.676  26.034  27.989  1.00  0.00     0.049 A 
ATOM     47  N   UNL A   1      44.467  26.923  27.272  1.00  0.00    -0.248 NA
ATOM     48  C   UNL A   1      44.872  24.783  26.431  1.00  0.00     0.031 C 
ATOM     49  C   UNL A   1      40.308  25.657  28.331  1.00  0.00     0.029 A 
ATOM     50  N   UNL A   1      41.781  27.341  28.396  1.00  0.00    -0.354 N 
ATOM     51  C   UNL A   1      45.761  26.857  26.773  1.00  0.00     0.074 A 
ATOM     52  C   UNL A   1      45.969  25.511  26.292  1.00  0.00     0.031 C 
ATOM     53  C   UNL A   1      39.703  26.707  28.914  1.00  0.00     0.029 A 
ATOM     54  C   UNL A   1      40.650  27.821  29.011  1.00  0.00     0.049 A 
ATOM     55  H   UNL A   1      42.592  27.884  28.260  1.00  0.00     0.167 HD
ATOM     56  C   UNL A   1      46.691  27.835  26.713  1.00  0.00     0.034 A 
ATOM     57  C   UNL A   1      40.412  29.014  29.595  1.00  0.00     0.034 A 
ATOM     58  C   UNL A   1      46.484  29.167  27.212  1.00  0.00     0.049 A 
ATOM     59  C   UNL A   1      41.486  30.075  29.576  1.00  0.00     0.074 A 
ATOM     60  C   UNL A   1      47.363  30.233  27.183  1.00  0.00     0.029 A 
ATOM     61  N   UNL A   1      45.330  29.611  27.840  1.00  0.00    -0.354 N 
ATOM     62  N   UNL A   1      42.686  30.024  29.046  1.00  0.00    -0.248 NA
ATOM     63  C   UNL A   1      41.177  31.360  30.223  1.00  0.00     0.031 C 
ATOM     64  C   UNL A   1      46.766  31.303  27.848  1.00  0.00     0.029 A 
ATOM     65  C   UNL A   1      45.485  30.930  28.226  1.00  0.00     0.049 A 
ATOM     66  H   UNL A   1      44.522  29.069  27.989  1.00  0.00     0.167 HD
ATOM     67  C   UNL A   1      43.259  31.275  29.262  1.00  0.00     0.074 A 
ATOM     68  C   UNL A   1      42.273  32.066  29.968  1.00  0.00     0.031 C 
ATOM     69  C   UNL A   1      44.487  31.725  28.902  1.00  0.00     0.034 A 
BRANCH  56  70
ATOM     70  C   UNL A   1      48.024  27.514  26.099  1.00  0.00     0.023 A 
ATOM     71  C   UNL A   1      48.203  27.647  24.711  1.00  0.00     0.031 A 
ATOM     72  C   UNL A   1      49.076  26.979  26.863  1.00  0.00     0.131 A 
ATOM     73  C   UNL A   1      49.394  27.214  24.121  1.00  0.00     0.055 A 
ATOM     74  C   UNL A   1      50.278  26.585  26.275  1.00  0.00     0.041 A 
ATOM     75  F   UNL A   1      48.953  26.847  28.194  1.00  0.00    -0.206 F 
ATOM     76  C   UNL A   1      50.436  26.690  24.896  1.00  0.00     0.022 A 
BRANCH  73  77
ATOM     77  S   UNL A   1      49.620  27.272  22.325  1.00  0.00     0.124 S 
ATOM     78  O   UNL A   1      48.856  26.106  21.886  1.00  0.00    -0.237 OA
ATOM     79  O   UNL A   1      49.035  28.566  21.987  1.00  0.00    -0.237 OA
ATOM     80  O   UNL A   1      51.064  27.165  22.149  1.00  0.00    -0.744 OA
ENDBRANCH  73  77
ENDBRANCH  56  70
BRANCH  57  81
ATOM     81  C   UNL A   1      39.076  29.266  30.208  1.00  0.00     0.023 A 
ATOM     82  C   UNL A   1      38.143  30.107  29.578  1.00  0.00     0.031 A 
ATOM     83  C   UNL A   1      38.755  28.747  31.473  1.00  0.00     0.131 A 
ATOM     84  C   UNL A   1      36.960  30.454  30.242  1.00  0.00     0.055 A 
ATOM     85  C   UNL A   1      37.547  29.047  32.105  1.00  0.00     0.041 A 
ATOM     86  F   UNL A   1      39.617  27.943  32.112  1.00  0.00    -0.206 F 
ATOM     87  C   UNL A   1      36.648  29.917  31.495  1.00  0.00     0.022 A 
BRANCH  84  88
ATOM     88  S   UNL A   1      35.827  31.685  29.539  1.00  0.00     0.124 S 
ATOM     89  O   UNL A   1      34.952  30.861  28.710  1.00  0.00    -0.237 OA
ATOM     90  O   UNL A   1      35.215  32.240  30.744  1.00  0.00    -0.237 OA
ATOM     91  O   UNL A   1      36.711  32.589  28.813  1.00  0.00    -0.744 OA
ENDBRANCH  84  88
ENDBRANCH  57  81
BRANCH  69  92
ATOM     92  C   UNL A   1      44.871  33.150  29.214  1.00  0.00     0.023 A 
ATOM     93  C   UNL A   1      44.678  34.149  28.238  1.00  0.00     0.031 A 
ATOM     94  C   UNL A   1      45.593  33.481  30.372  1.00  0.00     0.131 A 
ATOM     95  C   UNL A   1      45.248  35.415  28.413  1.00  0.00     0.055 A 
ATOM     96  C   UNL A   1      46.119  34.760  30.563  1.00  0.00     0.041 A 
ATOM     97  F   UNL A   1      45.814  32.560  31.323  1.00  0.00    -0.206 F 
ATOM     98  C   UNL A   1      45.961  35.729  29.575  1.00  0.00     0.022 A 
BRANCH  95  99
ATOM     99  S   UNL A   1      45.157  36.669  27.105  1.00  0.00     0.124 S 
ATOM    100  O   UNL A   1      46.137  36.173  26.141  1.00  0.00    -0.237 OA
ATOM    101  O   UNL A   1      43.762  36.569  26.683  1.00  0.00    -0.237 OA
ATOM    102  O   UNL A   1      45.524  37.910  27.779  1.00  0.00    -0.744 OA
ENDBRANCH  95  99
ENDBRANCH  69  92
ENDBRANCH  43  44
ENDBRANCH  36  38
ENDBRANCH  35  36
ENDBRANCH  34  35
ENDBRANCH  33  34
ENDBRANCH  32  33
ENDBRANCH  31  32
ENDBRANCH   1  31
TORSDOF 26
ENDMDL
MODEL 2
REMARK VINA RESULT:      -9.7      2.026      2.402
REMARK SMILES Cc1cc(OC(F)(F)F)cc2c1O[C@H](C(F)(F)F)C(C(=O)OCCOCCOCCOCCOC(=O)c1ccc(-c3c4nc(c(-c5cc(S(=O)(=O)[O-])ccc5F)c5ccc([nH]5)c(-c5cc(S(=O)(=O)[O-])ccc5F)c5nc(c(-c6cc(S(=O)(=O)[O-])ccc6F)c6ccc3[nH]6)C=C5)C=C4)cc1)=C2
REMARK SMILES IDX 29 1 28 2 27 3 26 4 25 5 24 6 23 7 22 8 20 9 21 10 19 11
REMARK SMILES IDX 1 12 2 13 3 14 12 15 4 16 11 17 13 18 10 19 100 20 14 21
REMARK SMILES IDX 5 22 6 23 7 24 8 25 9 26 15 27 16 28 17 29 18 30 30 31 31 32
REMARK SMILES IDX 32 33 33 34 34 35 35 36 36 37 37 38 38 39 99 40 39 41 98 42
REMARK SMILES IDX 40 43 41 44 42 45 92 46 43 47 97 48 91 49 93 50 44 51 96 52
REMARK SMILES IDX 90 53 89 54 45 56 77 57 57 58 76 59 58 60 61 61 75 62 94 63
REMARK SMILES IDX 59 64 60 65 74 67 95 68 62 69 46 70 47 71 55 72 48 73 54 74
REMARK SMILES IDX 56 75 53 76 49 77 50 78 51 79 52 80 78 81 79 82 87 83 80 84
REMARK SMILES IDX 86 85 88 86 85 87 81 88 82 89 83 90 84 91 63 92 64 93 72 94
REMARK SMILES IDX 65 95 71 96 73 97 70 98 66 99 67 100 68 101 69 102
REMARK H PARENT 93 55 61 66
REMARK Flexibility Score: inf
ROOT
ATOM      1  C   UNL A   1      37.152  21.869  24.184  1.00  0.00     0.188 C 
ENDROOT
BRANCH   1   2
ATOM      2  O   UNL A   1      35.890  22.491  23.944  1.00  0.00    -0.377 OA
BRANCH   2   3
ATOM      3  C   UNL A   1      35.633  23.726  24.587  1.00  0.00     0.188 C 
BRANCH   3   4
ATOM      4  C   UNL A   1      35.899  23.667  26.103  1.00  0.00     0.188 C 
BRANCH   4   5
ATOM      5  O   UNL A   1      35.049  22.767  26.792  1.00  0.00    -0.376 OA
BRANCH   5   6
ATOM      6  C   UNL A   1      33.710  23.116  27.111  1.00  0.00     0.202 C 
BRANCH   6   7
ATOM      7  C   UNL A   1      32.473  22.264  26.761  1.00  0.00     0.261 C 
BRANCH   7   8
ATOM      8  O   UNL A   1      31.494  22.841  25.898  1.00  0.00    -0.460 OA
BRANCH   8   9
ATOM      9  C   UNL A   1      30.821  23.920  26.328  1.00  0.00     0.338 C 
ATOM     10  O   UNL A   1      29.940  23.948  27.169  1.00  0.00    -0.246 OA
BRANCH   9  11
ATOM     11  C   UNL A   1      31.472  25.111  25.736  1.00  0.00     0.087 C 
ATOM     12  C   UNL A   1      33.430  28.668  22.608  1.00  0.00     0.048 C 
ATOM     13  C   UNL A   1      33.158  28.559  24.084  1.00  0.00    -0.005 A 
ATOM     14  C   UNL A   1      33.302  29.699  24.896  1.00  0.00     0.054 A 
ATOM     15  C   UNL A   1      32.663  27.371  24.647  1.00  0.00     0.131 A 
ATOM     16  C   UNL A   1      33.000  29.647  26.258  1.00  0.00     0.130 A 
ATOM     17  C   UNL A   1      32.325  27.328  26.000  1.00  0.00     0.021 A 
ATOM     18  O   UNL A   1      32.525  26.302  23.811  1.00  0.00    -0.475 OA
ATOM     19  C   UNL A   1      32.531  28.452  26.806  1.00  0.00     0.058 A 
ATOM     20  C   UNL A   1      31.688  26.147  26.554  1.00  0.00     0.027 C 
ATOM     21  C   UNL A   1      31.923  25.070  24.297  1.00  0.00     0.316 C 
BRANCH  16  22
ATOM     22  O   UNL A   1      33.102  30.675  27.151  1.00  0.00    -0.406 OA
BRANCH  22  23
ATOM     23  C   UNL A   1      34.314  30.799  27.872  1.00  0.00     0.573 C 
ATOM     24  F   UNL A   1      35.224  31.512  27.177  1.00  0.00    -0.132 F 
ATOM     25  F   UNL A   1      34.114  31.371  29.078  1.00  0.00    -0.132 F 
ATOM     26  F   UNL A   1      34.821  29.561  28.078  1.00  0.00    -0.132 F 
ENDBRANCH  22  23
ENDBRANCH  16  22
BRANCH  21  27
ATOM     27  C   UNL A   1      30.777  24.701  23.346  1.00  0.00     0.430 C 
ATOM     28  F   UNL A   1      30.568  23.365  23.320  1.00  0.00    -0.167 F 
ATOM     29  F   UNL A   1      29.612  25.284  23.704  1.00  0.00    -0.167 F 
ATOM     30  F   UNL A   1      31.049  25.093  22.077  1.00  0.00    -0.167 F 
ENDBRANCH  21  27
ENDBRANCH   9  11
ENDBRANCH   8   9
ENDBRANCH   7   8
ENDBRANCH   6   7
ENDBRANCH   5   6
ENDBRANCH   4   5
ENDBRANCH   3   4
ENDBRANCH   2   3
ENDBRANCH   1   2
BRANCH   1  31
ATOM     31  C   UNL A   1      37.257  20.538  24.968  1.00  0.00     0.188 C 
BRANCH  31  32
ATOM     32  O   UNL A   1      38.412  19.766  24.653  1.00  0.00    -0.376 OA
BRANCH  32  33
ATOM     33  C   UNL A   1      39.123  19.184  25.736  1.00  0.00     0.202 C 
BRANCH  33  34
ATOM     34  C   UNL A   1      40.431  19.886  26.123  1.00  0.00     0.261 C 
BRANCH  34  35
ATOM     35  O   UNL A   1      41.587  19.520  25.356  1.00  0.00    -0.460 OA
BRANCH  35  36
ATOM     36  C   UNL A   1      42.800  19.791  25.880  1.00  0.00     0.338 C 
ATOM     37  O   UNL A   1      43.763  19.045  25.937  1.00  0.00    -0.246 OA
BRANCH  36  38
ATOM     38  C   UNL A   1      42.818  21.230  26.205  1.00  0.00     0.060 A 
ATOM     39  C   UNL A   1      42.894  22.169  25.167  1.00  0.00     0.016 A 
ATOM     40  C   UNL A   1      42.734  21.646  27.536  1.00  0.00     0.016 A 
ATOM     41  C   UNL A   1      42.907  23.531  25.461  1.00  0.00     0.010 A 
ATOM     42  C   UNL A   1      42.786  23.009  27.831  1.00  0.00     0.010 A 
ATOM     43  C   UNL A   1      42.907  23.952  26.797  1.00  0.00    -0.014 A 
BRANCH  43  44
ATOM     44  C   UNL A   1      43.298  25.343  27.119  1.00  0.00     0.031 A 
ATOM     45  C   UNL A   1      44.722  25.743  26.856  1.00  0.00     0.074 A 
ATOM     46  C   UNL A   1      42.424  26.227  27.630  1.00  0.00     0.049 A 
ATOM     47  N   UNL A   1      45.312  26.888  27.065  1.00  0.00    -0.248 NA
ATOM     48  C   UNL A   1      45.598  24.709  26.276  1.00  0.00     0.031 C 
ATOM     49  C   UNL A   1      41.014  25.961  27.897  1.00  0.00     0.029 A 
ATOM     50  N   UNL A   1      42.606  27.529  28.026  1.00  0.00    -0.354 N 
ATOM     51  C   UNL A   1      46.622  26.715  26.642  1.00  0.00     0.074 A 
ATOM     52  C   UNL A   1      46.753  25.350  26.191  1.00  0.00     0.031 C 
ATOM     53  C   UNL A   1      40.459  27.064  28.430  1.00  0.00     0.029 A 
ATOM     54  C   UNL A   1      41.482  28.104  28.568  1.00  0.00     0.049 A 
ATOM     55  H   UNL A   1      43.463  28.006  27.931  1.00  0.00     0.167 HD
ATOM     56  C   UNL A   1      47.628  27.619  26.624  1.00  0.00     0.034 A 
ATOM     57  C   UNL A   1      41.304  29.321  29.123  1.00  0.00     0.034 A 
ATOM     58  C   UNL A   1      47.495  28.971  27.094  1.00  0.00     0.049 A 
ATOM     59  C   UNL A   1      42.456  30.297  29.152  1.00  0.00     0.074 A 
ATOM     60  C   UNL A   1      48.454  29.966  27.101  1.00  0.00     0.029 A 
ATOM     61  N   UNL A   1      46.346  29.512  27.648  1.00  0.00    -0.354 N 
ATOM     62  N   UNL A   1      43.677  30.146  28.693  1.00  0.00    -0.248 NA
ATOM     63  C   UNL A   1      42.212  31.612  29.765  1.00  0.00     0.031 C 
ATOM     64  C   UNL A   1      47.905  31.090  27.718  1.00  0.00     0.029 A 
ATOM     65  C   UNL A   1      46.579  30.821  28.025  1.00  0.00     0.049 A 
ATOM     66  H   UNL A   1      45.491  29.036  27.756  1.00  0.00     0.167 HD
ATOM     67  C   UNL A   1      44.331  31.353  28.926  1.00  0.00     0.074 A 
ATOM     68  C   UNL A   1      43.371  32.229  29.564  1.00  0.00     0.031 C 
ATOM     69  C   UNL A   1      45.609  31.701  28.632  1.00  0.00     0.034 A 
BRANCH  56  70
ATOM     70  C   UNL A   1      48.965  27.187  26.092  1.00  0.00     0.023 A 
ATOM     71  C   UNL A   1      49.329  27.513  24.775  1.00  0.00     0.031 A 
ATOM     72  C   UNL A   1      49.825  26.368  26.844  1.00  0.00     0.131 A 
ATOM     73  C   UNL A   1      50.508  26.991  24.233  1.00  0.00     0.055 A 
ATOM     74  C   UNL A   1      51.019  25.882  26.312  1.00  0.00     0.041 A 
ATOM     75  F   UNL A   1      49.521  26.042  28.111  1.00  0.00    -0.206 F 
ATOM     76  C   UNL A   1      51.359  26.183  24.996  1.00  0.00     0.022 A 
BRANCH  73  77
ATOM     77  S   UNL A   1      50.959  27.304  22.507  1.00  0.00     0.124 S 
ATOM     78  O   UNL A   1      50.920  28.764  22.444  1.00  0.00    -0.237 OA
ATOM     79  O   UNL A   1      52.291  26.712  22.428  1.00  0.00    -0.237 OA
ATOM     80  O   UNL A   1      49.917  26.626  21.743  1.00  0.00    -0.744 OA
ENDBRANCH  73  77
ENDBRANCH  56  70
BRANCH  57  81
ATOM     81  C   UNL A   1      39.960  29.685  29.654  1.00  0.00     0.023 A 
ATOM     82  C   UNL A   1      39.704  29.670  31.037  1.00  0.00     0.031 A 
ATOM     83  C   UNL A   1      38.891  29.959  28.785  1.00  0.00     0.131 A 
ATOM     84  C   UNL A   1      38.399  29.862  31.505  1.00  0.00     0.055 A 
ATOM     85  C   UNL A   1      37.603  30.210  29.259  1.00  0.00     0.041 A 
ATOM     86  F   UNL A   1      39.089  29.979  27.458  1.00  0.00    -0.206 F 
ATOM     87  C   UNL A   1      37.349  30.148  30.627  1.00  0.00     0.022 A 
BRANCH  84  88
ATOM     88  S   UNL A   1      38.004  29.660  33.264  1.00  0.00     0.124 S 
ATOM     89  O   UNL A   1      39.329  29.581  33.871  1.00  0.00    -0.237 OA
ATOM     90  O   UNL A   1      37.256  30.885  33.538  1.00  0.00    -0.237 OA
ATOM     91  O   UNL A   1      37.223  28.429  33.301  1.00  0.00    -0.744 OA
ENDBRANCH  84  88
ENDBRANCH  57  81
BRANCH  69  92
ATOM     92  C   UNL A   1      46.083  33.099  28.948  1.00  0.00     0.023 A 
ATOM     93  C   UNL A   1      46.463  33.419  30.266  1.00  0.00     0.031 A 
ATOM     94  C   UNL A   1      45.975  34.141  28.013  1.00  0.00     0.131 A 
ATOM     95  C   UNL A   1      46.668  34.756  30.628  1.00  0.00     0.055 A 
ATOM     96  C   UNL A   1      46.227  35.468  28.368  1.00  0.00     0.041 A 
ATOM     97  F   UNL A   1      45.603  33.887  26.749  1.00  0.00    -0.206 F 
ATOM     98  C   UNL A   1      46.559  35.782  29.684  1.00  0.00     0.022 A 
BRANCH  95  99
ATOM     99  S   UNL A   1      46.998  35.216  32.352  1.00  0.00     0.124 S 
ATOM    100  O   UNL A   1      47.157  36.666  32.254  1.00  0.00    -0.237 OA
ATOM    101  O   UNL A   1      45.783  34.767  33.025  1.00  0.00    -0.237 OA
ATOM    102  O   UNL A   1      48.213  34.482  32.688  1.00  0.00    -0.744 OA
ENDBRANCH  95  99
ENDBRANCH  69  92
ENDBRANCH  43  44
ENDBRANCH  36  38
ENDBRANCH  35  36
ENDBRANCH  34  35
ENDBRANCH  33  34
ENDBRANCH  32  33
ENDBRANCH  31  32
ENDBRANCH   1  31
TORSDOF 26
ENDMDL
MODEL 3
REMARK VINA RESULT:      -9.7      2.847      8.028
REMARK SMILES Cc1cc(OC(F)(F)F)cc2c1O[C@H](C(F)(F)F)C(C(=O)OCCOCCOCCOCCOC(=O)c1ccc(-c3c4nc(c(-c5cc(S(=O)(=O)[O-])ccc5F)c5ccc([nH]5)c(-c5cc(S(=O)(=O)[O-])ccc5F)c5nc(c(-c6cc(S(=O)(=O)[O-])ccc6F)c6ccc3[nH]6)C=C5)C=C4)cc1)=C2
REMARK SMILES IDX 29 1 28 2 27 3 26 4 25 5 24 6 23 7 22 8 20 9 21 10 19 11
REMARK SMILES IDX 1 12 2 13 3 14 12 15 4 16 11 17 13 18 10 19 100 20 14 21
REMARK SMILES IDX 5 22 6 23 7 24 8 25 9 26 15 27 16 28 17 29 18 30 30 31 31 32
REMARK SMILES IDX 32 33 33 34 34 35 35 36 36 37 37 38 38 39 99 40 39 41 98 42
REMARK SMILES IDX 40 43 41 44 42 45 92 46 43 47 97 48 91 49 93 50 44 51 96 52
REMARK SMILES IDX 90 53 89 54 45 56 77 57 57 58 76 59 58 60 61 61 75 62 94 63
REMARK SMILES IDX 59 64 60 65 74 67 95 68 62 69 46 70 47 71 55 72 48 73 54 74
REMARK SMILES IDX 56 75 53 76 49 77 50 78 51 79 52 80 78 81 79 82 87 83 80 84
REMARK SMILES IDX 86 85 88 86 85 87 81 88 82 89 83 90 84 91 63 92 64 93 72 94
REMARK SMILES IDX 65 95 71 96 73 97 70 98 66 99 67 100 68 101 69 102
REMARK H PARENT 93 55 61 66
REMARK Flexibility Score: inf
ROOT
ATOM      1  C   UNL A   1      33.921  21.350  26.067  1.00  0.00     0.188 C 
ENDROOT
BRANCH   1   2
ATOM      2  O   UNL A   1      33.454  22.676  26.316  1.00  0.00    -0.377 OA
BRANCH   2   3
ATOM      3  C   UNL A   1      32.092  22.836  26.671  1.00  0.00     0.188 C 
BRANCH   3   4
ATOM      4  C   UNL A   1      31.135  22.364  25.560  1.00  0.00     0.188 C 
BRANCH   4   5
ATOM      5  O   UNL A   1      30.894  23.345  24.566  1.00  0.00    -0.376 OA
BRANCH   5   6
ATOM      6  C   UNL A   1      31.489  23.253  23.280  1.00  0.00     0.202 C 
BRANCH   6   7
ATOM      7  C   UNL A   1      32.918  23.721  22.939  1.00  0.00     0.261 C 
BRANCH   7   8
ATOM      8  O   UNL A   1      33.376  24.936  23.530  1.00  0.00    -0.460 OA
BRANCH   8   9
ATOM      9  C   UNL A   1      33.445  26.034  22.760  1.00  0.00     0.338 C 
ATOM     10  O   UNL A   1      33.524  26.074  21.545  1.00  0.00    -0.246 OA
BRANCH   9  11
ATOM     11  C   UNL A   1      33.213  27.203  23.638  1.00  0.00     0.087 C 
ATOM     12  C   UNL A   1      31.281  31.240  26.138  1.00  0.00     0.048 C 
ATOM     13  C   UNL A   1      32.520  30.393  26.247  1.00  0.00    -0.005 A 
ATOM     14  C   UNL A   1      33.371  30.560  27.355  1.00  0.00     0.054 A 
ATOM     15  C   UNL A   1      32.788  29.371  25.321  1.00  0.00     0.131 A 
ATOM     16  C   UNL A   1      34.496  29.750  27.518  1.00  0.00     0.130 A 
ATOM     17  C   UNL A   1      33.891  28.536  25.503  1.00  0.00     0.021 A 
ATOM     18  O   UNL A   1      31.921  29.241  24.276  1.00  0.00    -0.475 OA
ATOM     19  C   UNL A   1      34.761  28.754  26.576  1.00  0.00     0.058 A 
ATOM     20  C   UNL A   1      34.094  27.396  24.626  1.00  0.00     0.027 C 
ATOM     21  C   UNL A   1      32.073  28.143  23.335  1.00  0.00     0.316 C 
BRANCH  16  22
ATOM     22  O   UNL A   1      35.400  29.812  28.540  1.00  0.00    -0.406 OA
BRANCH  22  23
ATOM     23  C   UNL A   1      36.574  30.576  28.330  1.00  0.00     0.573 C 
ATOM     24  F   UNL A   1      37.392  29.978  27.439  1.00  0.00    -0.132 F 
ATOM     25  F   UNL A   1      36.282  31.825  27.910  1.00  0.00    -0.132 F 
ATOM     26  F   UNL A   1      37.238  30.676  29.505  1.00  0.00    -0.132 F 
ENDBRANCH  22  23
ENDBRANCH  16  22
BRANCH  21  27
ATOM     27  C   UNL A   1      30.729  27.407  23.251  1.00  0.00     0.430 C 
ATOM     28  F   UNL A   1      30.604  26.491  24.239  1.00  0.00    -0.167 F 
ATOM     29  F   UNL A   1      29.679  28.252  23.353  1.00  0.00    -0.167 F 
ATOM     30  F   UNL A   1      30.603  26.751  22.072  1.00  0.00    -0.167 F 
ENDBRANCH  21  27
ENDBRANCH   9  11
ENDBRANCH   8   9
ENDBRANCH   7   8
ENDBRANCH   6   7
ENDBRANCH   5   6
ENDBRANCH   4   5
ENDBRANCH   3   4
ENDBRANCH   2   3
ENDBRANCH   1   2
BRANCH   1  31
ATOM     31  C   UNL A   1      34.720  21.006  24.786  1.00  0.00     0.188 C 
BRANCH  31  32
ATOM     32  O   UNL A   1      35.521  19.833  24.897  1.00  0.00    -0.376 OA
BRANCH  32  33
ATOM     33  C   UNL A   1      36.931  20.004  24.901  1.00  0.00     0.202 C 
BRANCH  33  34
ATOM     34  C   UNL A   1      37.423  21.438  24.663  1.00  0.00     0.261 C 
BRANCH  34  35
ATOM     35  O   UNL A   1      38.169  22.028  25.736  1.00  0.00    -0.460 OA
BRANCH  35  36
ATOM     36  C   UNL A   1      37.729  23.203  26.236  1.00  0.00     0.338 C 
ATOM     37  O   UNL A   1      36.580  23.507  26.504  1.00  0.00    -0.246 OA
BRANCH  36  38
ATOM     38  C   UNL A   1      38.924  23.997  26.585  1.00  0.00     0.060 A 
ATOM     39  C   UNL A   1      39.668  23.655  27.723  1.00  0.00     0.016 A 
ATOM     40  C   UNL A   1      39.316  25.061  25.769  1.00  0.00     0.016 A 
ATOM     41  C   UNL A   1      40.800  24.396  28.060  1.00  0.00     0.010 A 
ATOM     42  C   UNL A   1      40.427  25.824  26.129  1.00  0.00     0.010 A 
ATOM     43  C   UNL A   1      41.152  25.514  27.293  1.00  0.00    -0.014 A 
BRANCH  43  44
ATOM     44  C   UNL A   1      42.100  26.505  27.848  1.00  0.00     0.031 A 
ATOM     45  C   UNL A   1      41.578  27.463  28.881  1.00  0.00     0.074 A 
ATOM     46  C   UNL A   1      43.383  26.560  27.453  1.00  0.00     0.049 A 
ATOM     47  N   UNL A   1      42.200  28.427  29.504  1.00  0.00    -0.248 NA
ATOM     48  C   UNL A   1      40.164  27.310  29.264  1.00  0.00     0.031 C 
ATOM     49  C   UNL A   1      44.007  25.664  26.484  1.00  0.00     0.029 A 
ATOM     50  N   UNL A   1      44.389  27.421  27.816  1.00  0.00    -0.354 N 
ATOM     51  C   UNL A   1      41.257  28.993  30.351  1.00  0.00     0.074 A 
ATOM     52  C   UNL A   1      40.014  28.287  30.145  1.00  0.00     0.031 C 
ATOM     53  C   UNL A   1      45.289  26.033  26.315  1.00  0.00     0.029 A 
ATOM     54  C   UNL A   1      45.568  27.208  27.144  1.00  0.00     0.049 A 
ATOM     55  H   UNL A   1      44.275  28.126  28.496  1.00  0.00     0.167 HD
ATOM     56  C   UNL A   1      41.415  30.007  31.230  1.00  0.00     0.034 A 
ATOM     57  C   UNL A   1      46.732  27.891  27.183  1.00  0.00     0.034 A 
ATOM     58  C   UNL A   1      42.650  30.719  31.415  1.00  0.00     0.049 A 
ATOM     59  C   UNL A   1      46.872  29.063  28.124  1.00  0.00     0.074 A 
ATOM     60  C   UNL A   1      42.912  31.752  32.294  1.00  0.00     0.029 A 
ATOM     61  N   UNL A   1      43.818  30.483  30.707  1.00  0.00    -0.354 N 
ATOM     62  N   UNL A   1      45.992  29.553  28.968  1.00  0.00    -0.248 NA
ATOM     63  C   UNL A   1      48.160  29.773  28.133  1.00  0.00     0.031 C 
ATOM     64  C   UNL A   1      44.220  32.185  32.074  1.00  0.00     0.029 A 
ATOM     65  C   UNL A   1      44.798  31.371  31.111  1.00  0.00     0.049 A 
ATOM     66  H   UNL A   1      43.933  29.789  30.019  1.00  0.00     0.167 HD
ATOM     67  C   UNL A   1      46.630  30.599  29.630  1.00  0.00     0.074 A 
ATOM     68  C   UNL A   1      47.973  30.671  29.094  1.00  0.00     0.031 C 
ATOM     69  C   UNL A   1      46.146  31.418  30.596  1.00  0.00     0.034 A 
BRANCH  56  70
ATOM     70  C   UNL A   1      40.232  30.425  32.056  1.00  0.00     0.023 A 
ATOM     71  C   UNL A   1      39.458  31.529  31.658  1.00  0.00     0.031 A 
ATOM     72  C   UNL A   1      39.936  29.806  33.283  1.00  0.00     0.131 A 
ATOM     73  C   UNL A   1      38.447  32.005  32.498  1.00  0.00     0.055 A 
ATOM     74  C   UNL A   1      38.901  30.261  34.099  1.00  0.00     0.041 A 
ATOM     75  F   UNL A   1      40.642  28.740  33.696  1.00  0.00    -0.206 F 
ATOM     76  C   UNL A   1      38.159  31.373  33.713  1.00  0.00     0.022 A 
BRANCH  73  77
ATOM     77  S   UNL A   1      37.498  33.487  32.067  1.00  0.00     0.124 S 
ATOM     78  O   UNL A   1      36.146  32.950  31.926  1.00  0.00    -0.237 OA
ATOM     79  O   UNL A   1      37.714  34.336  33.234  1.00  0.00    -0.237 OA
ATOM     80  O   UNL A   1      38.111  33.948  30.826  1.00  0.00    -0.744 OA
ENDBRANCH  73  77
ENDBRANCH  56  70
BRANCH  57  81
ATOM     81  C   UNL A   1      47.864  27.442  26.323  1.00  0.00     0.023 A 
ATOM     82  C   UNL A   1      47.915  27.789  24.961  1.00  0.00     0.031 A 
ATOM     83  C   UNL A   1      48.855  26.585  26.827  1.00  0.00     0.131 A 
ATOM     84  C   UNL A   1      48.899  27.231  24.137  1.00  0.00     0.055 A 
ATOM     85  C   UNL A   1      49.871  26.078  26.014  1.00  0.00     0.041 A 
ATOM     86  F   UNL A   1      48.843  26.224  28.119  1.00  0.00    -0.206 F 
ATOM     87  C   UNL A   1      49.888  26.389  24.658  1.00  0.00     0.022 A 
BRANCH  84  88
ATOM     88  S   UNL A   1      48.877  27.507  22.345  1.00  0.00     0.124 S 
ATOM     89  O   UNL A   1      48.978  26.149  21.821  1.00  0.00    -0.237 OA
ATOM     90  O   UNL A   1      47.582  28.158  22.166  1.00  0.00    -0.237 OA
ATOM     91  O   UNL A   1      50.041  28.357  22.114  1.00  0.00    -0.744 OA
ENDBRANCH  84  88
ENDBRANCH  57  81
BRANCH  69  92
ATOM     92  C   UNL A   1      47.052  32.465  31.197  1.00  0.00     0.023 A 
ATOM     93  C   UNL A   1      47.712  32.193  32.413  1.00  0.00     0.031 A 
ATOM     94  C   UNL A   1      47.106  33.772  30.687  1.00  0.00     0.131 A 
ATOM     95  C   UNL A   1      48.353  33.227  33.105  1.00  0.00     0.055 A 
ATOM     96  C   UNL A   1      47.788  34.789  31.357  1.00  0.00     0.041 A 
ATOM     97  F   UNL A   1      46.482  34.082  29.540  1.00  0.00    -0.206 F 
ATOM     98  C   UNL A   1      48.401  34.523  32.580  1.00  0.00     0.022 A 
BRANCH  95  99
ATOM     99  S   UNL A   1      49.070  32.947  34.747  1.00  0.00     0.124 S 
ATOM    100  O   UNL A   1      50.481  32.735  34.430  1.00  0.00    -0.237 OA
ATOM    101  O   UNL A   1      48.766  34.202  35.431  1.00  0.00    -0.237 OA
ATOM    102  O   UNL A   1      48.365  31.771  35.246  1.00  0.00    -0.744 OA
ENDBRANCH  95  99
ENDBRANCH  69  92
ENDBRANCH  43  44
ENDBRANCH  36  38
ENDBRANCH  35  36
ENDBRANCH  34  35
ENDBRANCH  33  34
ENDBRANCH  32  33
ENDBRANCH  31  32
ENDBRANCH   1  31
TORSDOF 26
ENDMDL
