MODEL 1
REMARK VINA RESULT:      -7.8      0.000      0.000
REMARK SMILES CC[C@@H](C)CN(C)C(=O)NC(=O)CCC(=O)OCCOCCOCCOCCOC(=O)c1ccc(-c2c3nc(c(-c4cc(S(=O)(=O)[O-])ccc4F)c4ccc([nH]4)c(-c4cc(S(=O)(=O)[O-])ccc4F)c4nc(c(-c5cc(S(=O)(=O)[O-])ccc5F)c5ccc2[nH]5)C=C4)C=C3)cc1
REMARK SMILES IDX 21 1 20 2 19 3 18 4 17 5 15 6 16 7 14 8 13 9 11 10 8 11 9 12
REMARK SMILES IDX 10 13 12 15 6 16 7 17 5 18 3 19 4 20 2 21 1 22 22 23 23 24
REMARK SMILES IDX 24 25 25 26 26 27 27 28 28 29 29 30 30 31 31 32 32 33 33 34
REMARK SMILES IDX 94 35 34 36 93 37 35 38 36 39 37 40 87 41 38 42 92 43 86 44
REMARK SMILES IDX 88 45 39 46 91 47 85 48 84 49 40 51 72 52 52 53 71 54 53 55
REMARK SMILES IDX 56 56 70 57 89 58 54 59 55 60 69 62 90 63 57 64 41 65 42 66
REMARK SMILES IDX 50 67 43 68 49 69 51 70 48 71 44 72 45 73 46 74 47 75 73 76
REMARK SMILES IDX 74 77 82 78 75 79 81 80 83 81 80 82 76 83 77 84 78 85 79 86
REMARK SMILES IDX 58 87 59 88 67 89 60 90 66 91 68 92 65 93 61 94 62 95 63 96
REMARK SMILES IDX 64 97
REMARK H PARENT 10 14 88 50 56 61
REMARK Flexibility Score: inf
ROOT
ATOM      1  C   UNL A   1      36.304  23.728  24.345  1.00  0.00     0.188 C 
ENDROOT
BRANCH   1   2
ATOM      2  O   UNL A   1      35.019  24.288  24.080  1.00  0.00    -0.376 OA
BRANCH   2   3
ATOM      3  C   UNL A   1      34.345  25.376  24.744  1.00  0.00     0.202 C 
BRANCH   3   4
ATOM      4  C   UNL A   1      33.758  26.446  23.649  1.00  0.00     0.261 C 
BRANCH   4   5
ATOM      5  O   UNL A   1      33.882  26.190  22.196  1.00  0.00    -0.463 OA
BRANCH   5   6
ATOM      6  C   UNL A   1      33.015  25.308  21.618  1.00  0.00     0.306 C 
ATOM      7  O   UNL A   1      33.199  24.766  20.528  1.00  0.00    -0.252 OA
BRANCH   6   8
ATOM      8  C   UNL A   1      31.693  25.059  22.349  1.00  0.00     0.132 C 
BRANCH   8   9
ATOM      9  C   UNL A   1      31.203  23.765  22.981  1.00  0.00     0.112 C 
BRANCH   9  10
ATOM     10  C   UNL A   1      32.130  22.613  23.165  1.00  0.00     0.228 C 
ATOM     11  C   UNL A   1      31.753  22.091  25.375  1.00  0.00     0.323 C 
ATOM     12  O   UNL A   1      31.638  20.883  25.276  1.00  0.00    -0.248 OA
ATOM     13  N   UNL A   1      32.635  22.474  24.422  1.00  0.00    -0.278 N 
ATOM     14  H   UNL A   1      33.584  22.643  24.625  1.00  0.00     0.174 HD
ATOM     15  O   UNL A   1      32.489  21.896  22.235  1.00  0.00    -0.275 OA
BRANCH  11  16
ATOM     16  N   UNL A   1      31.244  23.030  26.287  1.00  0.00    -0.327 N 
ATOM     17  C   UNL A   1      29.955  22.609  26.835  1.00  0.00     0.148 C 
BRANCH  16  18
ATOM     18  C   UNL A   1      31.450  24.568  26.604  1.00  0.00     0.124 C 
BRANCH  18  19
ATOM     19  C   UNL A   1      30.887  26.163  26.539  1.00  0.00     0.005 C 
ATOM     20  C   UNL A   1      29.854  26.101  25.357  1.00  0.00     0.009 C 
BRANCH  19  21
ATOM     21  C   UNL A   1      31.520  27.584  26.250  1.00  0.00     0.002 C 
ATOM     22  C   UNL A   1      31.804  28.427  27.511  1.00  0.00     0.004 C 
ENDBRANCH  19  21
ENDBRANCH  18  19
ENDBRANCH  16  18
ENDBRANCH  11  16
ENDBRANCH   9  10
ENDBRANCH   8   9
ENDBRANCH   6   8
ENDBRANCH   5   6
ENDBRANCH   4   5
ENDBRANCH   3   4
ENDBRANCH   2   3
ENDBRANCH   1   2
BRANCH   1  23
ATOM     23  C   UNL A   1      36.719  22.343  23.806  1.00  0.00     0.188 C 
BRANCH  23  24
ATOM     24  O   UNL A   1      37.757  21.706  24.529  1.00  0.00    -0.377 OA
BRANCH  24  25
ATOM     25  C   UNL A   1      37.801  22.085  25.897  1.00  0.00     0.188 C 
BRANCH  25  26
ATOM     26  C   UNL A   1      39.115  22.750  26.372  1.00  0.00     0.188 C 
BRANCH  26  27
ATOM     27  O   UNL A   1      40.192  21.844  26.569  1.00  0.00    -0.376 OA
BRANCH  27  28
ATOM     28  C   UNL A   1      40.912  21.871  27.797  1.00  0.00     0.202 C 
BRANCH  28  29
ATOM     29  C   UNL A   1      42.245  22.628  27.998  1.00  0.00     0.261 C 
BRANCH  29  30
ATOM     30  O   UNL A   1      42.764  23.391  26.911  1.00  0.00    -0.460 OA
BRANCH  30  31
ATOM     31  C   UNL A   1      44.069  23.188  26.597  1.00  0.00     0.338 C 
ATOM     32  O   UNL A   1      44.558  22.171  26.193  1.00  0.00    -0.246 OA
BRANCH  31  33
ATOM     33  C   UNL A   1      44.719  24.527  26.587  1.00  0.00     0.060 A 
ATOM     34  C   UNL A   1      44.769  25.209  25.363  1.00  0.00     0.016 A 
ATOM     35  C   UNL A   1      45.172  25.141  27.761  1.00  0.00     0.016 A 
ATOM     36  C   UNL A   1      45.294  26.495  25.307  1.00  0.00     0.010 A 
ATOM     37  C   UNL A   1      45.760  26.409  27.694  1.00  0.00     0.010 A 
ATOM     38  C   UNL A   1      45.861  27.064  26.454  1.00  0.00    -0.014 A 
BRANCH  38  39
ATOM     39  C   UNL A   1      46.864  28.132  26.232  1.00  0.00     0.031 A 
ATOM     40  C   UNL A   1      46.363  29.547  26.355  1.00  0.00     0.074 A 
ATOM     41  C   UNL A   1      48.171  27.866  26.078  1.00  0.00     0.049 A 
ATOM     42  N   UNL A   1      47.026  30.671  26.370  1.00  0.00    -0.248 NA
ATOM     43  C   UNL A   1      44.905  29.708  26.507  1.00  0.00     0.031 C 
ATOM     44  C   UNL A   1      48.764  26.532  26.005  1.00  0.00     0.029 A 
ATOM     45  N   UNL A   1      49.242  28.717  25.984  1.00  0.00    -0.354 N 
ATOM     46  C   UNL A   1      46.072  31.666  26.559  1.00  0.00     0.074 A 
ATOM     47  C   UNL A   1      44.782  31.020  26.603  1.00  0.00     0.031 C 
ATOM     48  C   UNL A   1      50.098  26.655  25.881  1.00  0.00     0.029 A 
ATOM     49  C   UNL A   1      50.450  28.075  25.848  1.00  0.00     0.049 A 
ATOM     50  H   UNL A   1      49.154  29.697  26.009  1.00  0.00     0.167 HD
ATOM     51  C   UNL A   1      46.257  32.999  26.697  1.00  0.00     0.034 A 
ATOM     52  C   UNL A   1      51.691  28.586  25.709  1.00  0.00     0.034 A 
ATOM     53  C   UNL A   1      47.547  33.628  26.601  1.00  0.00     0.049 A 
ATOM     54  C   UNL A   1      51.860  30.089  25.758  1.00  0.00     0.074 A 
ATOM     55  C   UNL A   1      47.861  34.972  26.687  1.00  0.00     0.029 A 
ATOM     56  N   UNL A   1      48.742  32.953  26.376  1.00  0.00    -0.354 N 
ATOM     57  N   UNL A   1      50.953  31.023  25.947  1.00  0.00    -0.248 NA
ATOM     58  C   UNL A   1      53.225  30.602  25.597  1.00  0.00     0.031 C 
ATOM     59  C   UNL A   1      49.230  35.115  26.435  1.00  0.00     0.029 A 
ATOM     60  C   UNL A   1      49.789  33.855  26.286  1.00  0.00     0.049 A 
ATOM     61  H   UNL A   1      48.830  31.976  26.292  1.00  0.00     0.167 HD
ATOM     62  C   UNL A   1      51.646  32.232  25.956  1.00  0.00     0.074 A 
ATOM     63  C   UNL A   1      53.047  31.901  25.786  1.00  0.00     0.031 C 
ATOM     64  C   UNL A   1      51.177  33.501  26.093  1.00  0.00     0.034 A 
BRANCH  51  65
ATOM     65  C   UNL A   1      45.022  33.847  26.884  1.00  0.00     0.023 A 
ATOM     66  C   UNL A   1      44.501  34.131  28.161  1.00  0.00     0.031 A 
ATOM     67  C   UNL A   1      44.317  34.324  25.766  1.00  0.00     0.131 A 
ATOM     68  C   UNL A   1      43.279  34.810  28.284  1.00  0.00     0.055 A 
ATOM     69  C   UNL A   1      43.145  35.069  25.898  1.00  0.00     0.041 A 
ATOM     70  F   UNL A   1      44.744  34.052  24.523  1.00  0.00    -0.206 F 
ATOM     71  C   UNL A   1      42.612  35.305  27.160  1.00  0.00     0.022 A 
BRANCH  68  72
ATOM     72  S   UNL A   1      42.495  34.908  29.917  1.00  0.00     0.124 S 
ATOM     73  O   UNL A   1      42.937  33.657  30.532  1.00  0.00    -0.237 OA
ATOM     74  O   UNL A   1      43.068  36.129  30.471  1.00  0.00    -0.237 OA
ATOM     75  O   UNL A   1      41.068  34.971  29.610  1.00  0.00    -0.744 OA
ENDBRANCH  68  72
ENDBRANCH  51  65
BRANCH  52  76
ATOM     76  C   UNL A   1      52.865  27.693  25.480  1.00  0.00     0.023 A 
ATOM     77  C   UNL A   1      53.632  27.193  26.546  1.00  0.00     0.031 A 
ATOM     78  C   UNL A   1      53.287  27.390  24.172  1.00  0.00     0.131 A 
ATOM     79  C   UNL A   1      54.804  26.463  26.286  1.00  0.00     0.055 A 
ATOM     80  C   UNL A   1      54.421  26.614  23.919  1.00  0.00     0.041 A 
ATOM     81  F   UNL A   1      52.599  27.848  23.113  1.00  0.00    -0.206 F 
ATOM     82  C   UNL A   1      55.195  26.159  24.981  1.00  0.00     0.022 A 
BRANCH  79  83
ATOM     83  S   UNL A   1      55.871  25.997  27.680  1.00  0.00     0.124 S 
ATOM     84  O   UNL A   1      56.431  24.734  27.217  1.00  0.00    -0.237 OA
ATOM     85  O   UNL A   1      56.795  27.125  27.743  1.00  0.00    -0.237 OA
ATOM     86  O   UNL A   1      54.939  25.895  28.801  1.00  0.00    -0.744 OA
ENDBRANCH  79  83
ENDBRANCH  52  76
BRANCH  64  87
ATOM     87  C   UNL A   1      52.204  34.611  26.098  1.00  0.00     0.023 A 
ATOM     88  C   UNL A   1      52.768  35.089  27.293  1.00  0.00     0.031 A 
ATOM     89  C   UNL A   1      52.589  35.228  24.895  1.00  0.00     0.131 A 
ATOM     90  C   UNL A   1      53.609  36.211  27.269  1.00  0.00     0.055 A 
ATOM     91  C   UNL A   1      53.493  36.290  24.869  1.00  0.00     0.041 A 
ATOM     92  F   UNL A   1      52.085  34.815  23.720  1.00  0.00    -0.206 F 
ATOM     93  C   UNL A   1      53.990  36.803  26.063  1.00  0.00     0.022 A 
BRANCH  90  94
ATOM     94  S   UNL A   1      54.070  36.981  28.846  1.00  0.00     0.124 S 
ATOM     95  O   UNL A   1      52.953  37.889  29.077  1.00  0.00    -0.237 OA
ATOM     96  O   UNL A   1      54.153  35.831  29.741  1.00  0.00    -0.237 OA
ATOM     97  O   UNL A   1      55.346  37.630  28.549  1.00  0.00    -0.744 OA
ENDBRANCH  90  94
ENDBRANCH  64  87
ENDBRANCH  38  39
ENDBRANCH  31  33
ENDBRANCH  30  31
ENDBRANCH  29  30
ENDBRANCH  28  29
ENDBRANCH  27  28
ENDBRANCH  26  27
ENDBRANCH  25  26
ENDBRANCH  24  25
ENDBRANCH  23  24
ENDBRANCH   1  23
TORSDOF 29
ENDMDL
MODEL 2
REMARK VINA RESULT:      -7.3      6.600     10.313
REMARK SMILES CC[C@@H](C)CN(C)C(=O)NC(=O)CCC(=O)OCCOCCOCCOCCOC(=O)c1ccc(-c2c3nc(c(-c4cc(S(=O)(=O)[O-])ccc4F)c4ccc([nH]4)c(-c4cc(S(=O)(=O)[O-])ccc4F)c4nc(c(-c5cc(S(=O)(=O)[O-])ccc5F)c5ccc2[nH]5)C=C4)C=C3)cc1
REMARK SMILES IDX 21 1 20 2 19 3 18 4 17 5 15 6 16 7 14 8 13 9 11 10 8 11 9 12
REMARK SMILES IDX 10 13 12 15 6 16 7 17 5 18 3 19 4 20 2 21 1 22 22 23 23 24
REMARK SMILES IDX 24 25 25 26 26 27 27 28 28 29 29 30 30 31 31 32 32 33 33 34
REMARK SMILES IDX 94 35 34 36 93 37 35 38 36 39 37 40 87 41 38 42 92 43 86 44
REMARK SMILES IDX 88 45 39 46 91 47 85 48 84 49 40 51 72 52 52 53 71 54 53 55
REMARK SMILES IDX 56 56 70 57 89 58 54 59 55 60 69 62 90 63 57 64 41 65 42 66
REMARK SMILES IDX 50 67 43 68 49 69 51 70 48 71 44 72 45 73 46 74 47 75 73 76
REMARK SMILES IDX 74 77 82 78 75 79 81 80 83 81 80 82 76 83 77 84 78 85 79 86
REMARK SMILES IDX 58 87 59 88 67 89 60 90 66 91 68 92 65 93 61 94 62 95 63 96
REMARK SMILES IDX 64 97
REMARK H PARENT 10 14 88 50 56 61
REMARK Flexibility Score: inf
ROOT
ATOM      1  C   UNL A   1      39.974  30.318  30.209  1.00  0.00     0.188 C 
ENDROOT
BRANCH   1   2
ATOM      2  O   UNL A   1      39.282  29.447  29.315  1.00  0.00    -0.376 OA
BRANCH   2   3
ATOM      3  C   UNL A   1      38.587  29.762  28.092  1.00  0.00     0.202 C 
BRANCH   3   4
ATOM      4  C   UNL A   1      37.259  30.673  28.401  1.00  0.00     0.261 C 
BRANCH   4   5
ATOM      5  O   UNL A   1      36.168  30.156  29.259  1.00  0.00    -0.463 OA
BRANCH   5   6
ATOM      6  C   UNL A   1      36.351  30.161  30.611  1.00  0.00     0.306 C 
ATOM      7  O   UNL A   1      36.396  29.149  31.310  1.00  0.00    -0.252 OA
BRANCH   6   8
ATOM      8  C   UNL A   1      36.414  31.530  31.295  1.00  0.00     0.132 C 
BRANCH   8   9
ATOM      9  C   UNL A   1      36.068  31.872  32.736  1.00  0.00     0.112 C 
BRANCH   9  10
ATOM     10  C   UNL A   1      34.997  32.862  33.045  1.00  0.00     0.228 C 
ATOM     11  C   UNL A   1      36.251  34.715  33.584  1.00  0.00     0.323 C 
ATOM     12  O   UNL A   1      35.654  35.553  32.933  1.00  0.00    -0.248 OA
ATOM     13  N   UNL A   1      35.330  33.801  33.973  1.00  0.00    -0.278 N 
ATOM     14  H   UNL A   1      34.927  33.815  34.871  1.00  0.00     0.174 HD
ATOM     15  O   UNL A   1      33.866  32.783  32.573  1.00  0.00    -0.275 OA
BRANCH  11  16
ATOM     16  N   UNL A   1      37.580  34.614  34.027  1.00  0.00    -0.327 N 
ATOM     17  C   UNL A   1      38.495  34.312  32.928  1.00  0.00     0.148 C 
BRANCH  16  18
ATOM     18  C   UNL A   1      38.327  34.346  35.396  1.00  0.00     0.124 C 
BRANCH  18  19
ATOM     19  C   UNL A   1      38.752  33.289  36.648  1.00  0.00     0.005 C 
ATOM     20  C   UNL A   1      37.836  32.047  36.358  1.00  0.00     0.009 C 
BRANCH  19  21
ATOM     21  C   UNL A   1      38.670  33.302  38.229  1.00  0.00     0.002 C 
ATOM     22  C   UNL A   1      38.989  34.667  38.874  1.00  0.00     0.004 C 
ENDBRANCH  19  21
ENDBRANCH  18  19
ENDBRANCH  16  18
ENDBRANCH  11  16
ENDBRANCH   9  10
ENDBRANCH   8   9
ENDBRANCH   6   8
ENDBRANCH   5   6
ENDBRANCH   4   5
ENDBRANCH   3   4
ENDBRANCH   2   3
ENDBRANCH   1   2
BRANCH   1  23
ATOM     23  C   UNL A   1      40.052  30.038  31.724  1.00  0.00     0.188 C 
BRANCH  23  24
ATOM     24  O   UNL A   1      41.352  29.761  32.215  1.00  0.00    -0.377 OA
BRANCH  24  25
ATOM     25  C   UNL A   1      41.522  30.118  33.579  1.00  0.00     0.188 C 
BRANCH  25  26
ATOM     26  C   UNL A   1      40.277  29.946  34.482  1.00  0.00     0.188 C 
BRANCH  26  27
ATOM     27  O   UNL A   1      40.575  29.661  35.842  1.00  0.00    -0.376 OA
BRANCH  27  28
ATOM     28  C   UNL A   1      41.729  28.889  36.157  1.00  0.00     0.202 C 
BRANCH  28  29
ATOM     29  C   UNL A   1      41.724  27.348  36.287  1.00  0.00     0.261 C 
BRANCH  29  30
ATOM     30  O   UNL A   1      41.639  26.566  35.098  1.00  0.00    -0.460 OA
BRANCH  30  31
ATOM     31  C   UNL A   1      42.329  25.397  35.090  1.00  0.00     0.338 C 
ATOM     32  O   UNL A   1      41.927  24.327  35.449  1.00  0.00    -0.246 OA
BRANCH  31  33
ATOM     33  C   UNL A   1      43.570  25.638  34.304  1.00  0.00     0.060 A 
ATOM     34  C   UNL A   1      43.593  26.764  33.468  1.00  0.00     0.016 A 
ATOM     35  C   UNL A   1      44.712  24.845  34.459  1.00  0.00     0.016 A 
ATOM     36  C   UNL A   1      44.751  27.083  32.768  1.00  0.00     0.010 A 
ATOM     37  C   UNL A   1      45.856  25.128  33.705  1.00  0.00     0.010 A 
ATOM     38  C   UNL A   1      45.855  26.224  32.824  1.00  0.00    -0.014 A 
BRANCH  38  39
ATOM     39  C   UNL A   1      46.799  26.292  31.685  1.00  0.00     0.031 A 
ATOM     40  C   UNL A   1      46.348  25.627  30.410  1.00  0.00     0.074 A 
ATOM     41  C   UNL A   1      47.923  27.026  31.728  1.00  0.00     0.049 A 
ATOM     42  N   UNL A   1      46.879  25.656  29.218  1.00  0.00    -0.248 NA
ATOM     43  C   UNL A   1      45.105  24.839  30.495  1.00  0.00     0.031 C 
ATOM     44  C   UNL A   1      48.417  27.754  32.895  1.00  0.00     0.029 A 
ATOM     45  N   UNL A   1      48.839  27.300  30.745  1.00  0.00    -0.354 N 
ATOM     46  C   UNL A   1      46.023  24.915  28.409  1.00  0.00     0.074 A 
ATOM     47  C   UNL A   1      44.968  24.408  29.254  1.00  0.00     0.031 C 
ATOM     48  C   UNL A   1      49.549  28.399  32.557  1.00  0.00     0.029 A 
ATOM     49  C   UNL A   1      49.868  28.114  31.158  1.00  0.00     0.049 A 
ATOM     50  H   UNL A   1      48.768  26.946  29.830  1.00  0.00     0.167 HD
ATOM     51  C   UNL A   1      46.104  24.688  27.078  1.00  0.00     0.034 A 
ATOM     52  C   UNL A   1      50.941  28.565  30.476  1.00  0.00     0.034 A 
ATOM     53  C   UNL A   1      47.191  25.162  26.264  1.00  0.00     0.049 A 
ATOM     54  C   UNL A   1      51.066  28.207  29.012  1.00  0.00     0.074 A 
ATOM     55  C   UNL A   1      47.406  24.968  24.912  1.00  0.00     0.029 A 
ATOM     56  N   UNL A   1      48.264  25.911  26.734  1.00  0.00    -0.354 N 
ATOM     57  N   UNL A   1      50.247  27.513  28.251  1.00  0.00    -0.248 NA
ATOM     58  C   UNL A   1      52.251  28.714  28.310  1.00  0.00     0.031 C 
ATOM     59  C   UNL A   1      48.644  25.531  24.583  1.00  0.00     0.029 A 
ATOM     60  C   UNL A   1      49.159  26.159  25.707  1.00  0.00     0.049 A 
ATOM     61  H   UNL A   1      48.371  26.221  27.663  1.00  0.00     0.167 HD
ATOM     62  C   UNL A   1      50.806  27.527  26.975  1.00  0.00     0.074 A 
ATOM     63  C   UNL A   1      52.013  28.325  27.066  1.00  0.00     0.031 C 
ATOM     64  C   UNL A   1      50.369  26.939  25.829  1.00  0.00     0.034 A 
BRANCH  51  65
ATOM     65  C   UNL A   1      45.025  23.830  26.462  1.00  0.00     0.023 A 
ATOM     66  C   UNL A   1      45.222  22.461  26.200  1.00  0.00     0.031 A 
ATOM     67  C   UNL A   1      43.805  24.405  26.069  1.00  0.00     0.131 A 
ATOM     68  C   UNL A   1      44.243  21.733  25.506  1.00  0.00     0.055 A 
ATOM     69  C   UNL A   1      42.802  23.656  25.452  1.00  0.00     0.041 A 
ATOM     70  F   UNL A   1      43.575  25.714  26.257  1.00  0.00    -0.206 F 
ATOM     71  C   UNL A   1      43.023  22.315  25.155  1.00  0.00     0.022 A 
BRANCH  68  72
ATOM     72  S   UNL A   1      44.644  20.058  24.934  1.00  0.00     0.124 S 
ATOM     73  O   UNL A   1      44.461  20.188  23.490  1.00  0.00    -0.237 OA
ATOM     74  O   UNL A   1      46.018  19.888  25.391  1.00  0.00    -0.237 OA
ATOM     75  O   UNL A   1      43.653  19.219  25.606  1.00  0.00    -0.744 OA
ENDBRANCH  68  72
ENDBRANCH  51  65
BRANCH  52  76
ATOM     76  C   UNL A   1      51.997  29.371  31.157  1.00  0.00     0.023 A 
ATOM     77  C   UNL A   1      52.037  30.772  31.055  1.00  0.00     0.031 A 
ATOM     78  C   UNL A   1      53.036  28.737  31.863  1.00  0.00     0.131 A 
ATOM     79  C   UNL A   1      53.118  31.486  31.601  1.00  0.00     0.055 A 
ATOM     80  C   UNL A   1      54.078  29.455  32.454  1.00  0.00     0.041 A 
ATOM     81  F   UNL A   1      53.055  27.400  31.985  1.00  0.00    -0.206 F 
ATOM     82  C   UNL A   1      54.130  30.837  32.312  1.00  0.00     0.022 A 
BRANCH  79  83
ATOM     83  S   UNL A   1      53.236  33.269  31.286  1.00  0.00     0.124 S 
ATOM     84  O   UNL A   1      53.663  33.298  29.892  1.00  0.00    -0.237 OA
ATOM     85  O   UNL A   1      51.871  33.714  31.549  1.00  0.00    -0.237 OA
ATOM     86  O   UNL A   1      54.234  33.721  32.254  1.00  0.00    -0.744 OA
ENDBRANCH  79  83
ENDBRANCH  52  76
BRANCH  64  87
ATOM     87  C   UNL A   1      51.193  27.178  24.584  1.00  0.00     0.023 A 
ATOM     88  C   UNL A   1      50.889  28.213  23.683  1.00  0.00     0.031 A 
ATOM     89  C   UNL A   1      52.270  26.328  24.272  1.00  0.00     0.131 A 
ATOM     90  C   UNL A   1      51.588  28.314  22.472  1.00  0.00     0.055 A 
ATOM     91  C   UNL A   1      53.017  26.487  23.104  1.00  0.00     0.041 A 
ATOM     92  F   UNL A   1      52.610  25.322  25.092  1.00  0.00    -0.206 F 
ATOM     93  C   UNL A   1      52.662  27.469  22.185  1.00  0.00     0.022 A 
BRANCH  90  94
ATOM     94  S   UNL A   1      50.971  29.461  21.210  1.00  0.00     0.124 S 
ATOM     95  O   UNL A   1      51.657  28.992  20.012  1.00  0.00    -0.237 OA
ATOM     96  O   UNL A   1      49.531  29.227  21.253  1.00  0.00    -0.237 OA
ATOM     97  O   UNL A   1      51.401  30.770  21.699  1.00  0.00    -0.744 OA
ENDBRANCH  90  94
ENDBRANCH  64  87
ENDBRANCH  38  39
ENDBRANCH  31  33
ENDBRANCH  30  31
ENDBRANCH  29  30
ENDBRANCH  28  29
ENDBRANCH  27  28
ENDBRANCH  26  27
ENDBRANCH  25  26
ENDBRANCH  24  25
ENDBRANCH  23  24
ENDBRANCH   1  23
TORSDOF 29
ENDMDL
MODEL 3
REMARK VINA RESULT:      -7.0      3.990      6.855
REMARK SMILES CC[C@@H](C)CN(C)C(=O)NC(=O)CCC(=O)OCCOCCOCCOCCOC(=O)c1ccc(-c2c3nc(c(-c4cc(S(=O)(=O)[O-])ccc4F)c4ccc([nH]4)c(-c4cc(S(=O)(=O)[O-])ccc4F)c4nc(c(-c5cc(S(=O)(=O)[O-])ccc5F)c5ccc2[nH]5)C=C4)C=C3)cc1
REMARK SMILES IDX 21 1 20 2 19 3 18 4 17 5 15 6 16 7 14 8 13 9 11 10 8 11 9 12
REMARK SMILES IDX 10 13 12 15 6 16 7 17 5 18 3 19 4 20 2 21 1 22 22 23 23 24
REMARK SMILES IDX 24 25 25 26 26 27 27 28 28 29 29 30 30 31 31 32 32 33 33 34
REMARK SMILES IDX 94 35 34 36 93 37 35 38 36 39 37 40 87 41 38 42 92 43 86 44
REMARK SMILES IDX 88 45 39 46 91 47 85 48 84 49 40 51 72 52 52 53 71 54 53 55
REMARK SMILES IDX 56 56 70 57 89 58 54 59 55 60 69 62 90 63 57 64 41 65 42 66
REMARK SMILES IDX 50 67 43 68 49 69 51 70 48 71 44 72 45 73 46 74 47 75 73 76
REMARK SMILES IDX 74 77 82 78 75 79 81 80 83 81 80 82 76 83 77 84 78 85 79 86
REMARK SMILES IDX 58 87 59 88 67 89 60 90 66 91 68 92 65 93 61 94 62 95 63 96
REMARK SMILES IDX 64 97
REMARK H PARENT 10 14 88 50 56 61
REMARK Flexibility Score: inf
ROOT
ATOM      1  C   UNL A   1      38.575  22.736  26.124  1.00  0.00     0.188 C 
ENDROOT
BRANCH   1   2
ATOM      2  O   UNL A   1      37.950  22.068  25.029  1.00  0.00    -0.376 OA
BRANCH   2   3
ATOM      3  C   UNL A   1      36.958  21.022  25.046  1.00  0.00     0.202 C 
BRANCH   3   4
ATOM      4  C   UNL A   1      35.491  21.610  24.610  1.00  0.00     0.261 C 
BRANCH   4   5
ATOM      5  O   UNL A   1      34.408  21.764  25.608  1.00  0.00    -0.463 OA
BRANCH   5   6
ATOM      6  C   UNL A   1      34.155  23.011  26.102  1.00  0.00     0.306 C 
ATOM      7  O   UNL A   1      33.517  23.235  27.130  1.00  0.00    -0.252 OA
BRANCH   6   8
ATOM      8  C   UNL A   1      34.630  24.198  25.259  1.00  0.00     0.132 C 
BRANCH   8   9
ATOM      9  C   UNL A   1      33.814  25.047  24.296  1.00  0.00     0.112 C 
BRANCH   9  10
ATOM     10  C   UNL A   1      33.358  24.490  22.992  1.00  0.00     0.228 C 
ATOM     11  C   UNL A   1      31.581  25.873  22.516  1.00  0.00     0.323 C 
ATOM     12  O   UNL A   1      31.831  26.122  21.351  1.00  0.00    -0.248 OA
ATOM     13  N   UNL A   1      32.025  24.614  22.745  1.00  0.00    -0.278 N 
ATOM     14  H   UNL A   1      31.420  23.837  22.735  1.00  0.00     0.174 HD
ATOM     15  O   UNL A   1      34.106  23.877  22.236  1.00  0.00    -0.275 OA
BRANCH  11  16
ATOM     16  N   UNL A   1      30.893  26.575  23.519  1.00  0.00    -0.327 N 
ATOM     17  C   UNL A   1      29.602  25.959  23.822  1.00  0.00     0.148 C 
BRANCH  16  18
ATOM     18  C   UNL A   1      30.915  28.032  24.137  1.00  0.00     0.124 C 
BRANCH  18  19
ATOM     19  C   UNL A   1      31.725  29.244  24.999  1.00  0.00     0.005 C 
ATOM     20  C   UNL A   1      33.225  28.974  24.619  1.00  0.00     0.009 C 
BRANCH  19  21
ATOM     21  C   UNL A   1      31.914  29.626  26.523  1.00  0.00     0.002 C 
ATOM     22  C   UNL A   1      31.651  28.469  27.510  1.00  0.00     0.004 C 
ENDBRANCH  19  21
ENDBRANCH  18  19
ENDBRANCH  16  18
ENDBRANCH  11  16
ENDBRANCH   9  10
ENDBRANCH   8   9
ENDBRANCH   6   8
ENDBRANCH   5   6
ENDBRANCH   4   5
ENDBRANCH   3   4
ENDBRANCH   2   3
ENDBRANCH   1   2
BRANCH   1  23
ATOM     23  C   UNL A   1      39.844  22.179  26.802  1.00  0.00     0.188 C 
BRANCH  23  24
ATOM     24  O   UNL A   1      39.938  20.766  26.828  1.00  0.00    -0.377 OA
BRANCH  24  25
ATOM     25  C   UNL A   1      41.160  20.297  27.377  1.00  0.00     0.188 C 
BRANCH  25  26
ATOM     26  C   UNL A   1      42.101  19.556  26.396  1.00  0.00     0.188 C 
BRANCH  26  27
ATOM     27  O   UNL A   1      43.303  20.254  26.098  1.00  0.00    -0.376 OA
BRANCH  27  28
ATOM     28  C   UNL A   1      43.252  21.409  25.266  1.00  0.00     0.202 C 
BRANCH  28  29
ATOM     29  C   UNL A   1      44.502  22.104  24.679  1.00  0.00     0.261 C 
BRANCH  29  30
ATOM     30  O   UNL A   1      44.812  23.426  25.115  1.00  0.00    -0.460 OA
BRANCH  30  31
ATOM     31  C   UNL A   1      45.689  23.534  26.145  1.00  0.00     0.338 C 
ATOM     32  O   UNL A   1      46.355  22.655  26.613  1.00  0.00    -0.246 OA
BRANCH  31  33
ATOM     33  C   UNL A   1      45.871  24.990  26.400  1.00  0.00     0.060 A 
ATOM     34  C   UNL A   1      46.085  25.390  27.727  1.00  0.00     0.016 A 
ATOM     35  C   UNL A   1      45.934  25.923  25.358  1.00  0.00     0.016 A 
ATOM     36  C   UNL A   1      46.337  26.725  28.016  1.00  0.00     0.010 A 
ATOM     37  C   UNL A   1      46.123  27.277  25.655  1.00  0.00     0.010 A 
ATOM     38  C   UNL A   1      46.278  27.680  26.993  1.00  0.00    -0.014 A 
BRANCH  38  39
ATOM     39  C   UNL A   1      45.998  29.074  27.410  1.00  0.00     0.031 A 
ATOM     40  C   UNL A   1      44.627  29.333  27.978  1.00  0.00     0.074 A 
ATOM     41  C   UNL A   1      46.950  30.021  27.426  1.00  0.00     0.049 A 
ATOM     42  N   UNL A   1      44.152  30.398  28.564  1.00  0.00    -0.248 NA
ATOM     43  C   UNL A   1      43.668  28.217  27.890  1.00  0.00     0.031 C 
ATOM     44  C   UNL A   1      48.323  29.854  26.953  1.00  0.00     0.029 A 
ATOM     45  N   UNL A   1      46.906  31.312  27.887  1.00  0.00    -0.354 N 
ATOM     46  C   UNL A   1      42.852  30.072  28.935  1.00  0.00     0.074 A 
ATOM     47  C   UNL A   1      42.596  28.731  28.466  1.00  0.00     0.031 C 
ATOM     48  C   UNL A   1      48.995  31.003  27.154  1.00  0.00     0.029 A 
ATOM     49  C   UNL A   1      48.095  31.990  27.752  1.00  0.00     0.049 A 
ATOM     50  H   UNL A   1      46.098  31.716  28.277  1.00  0.00     0.167 HD
ATOM     51  C   UNL A   1      41.955  30.819  29.620  1.00  0.00     0.034 A 
ATOM     52  C   UNL A   1      48.406  33.262  28.074  1.00  0.00     0.034 A 
ATOM     53  C   UNL A   1      42.214  32.172  30.036  1.00  0.00     0.049 A 
ATOM     54  C   UNL A   1      47.351  34.116  28.740  1.00  0.00     0.074 A 
ATOM     55  C   UNL A   1      41.376  33.046  30.702  1.00  0.00     0.029 A 
ATOM     56  N   UNL A   1      43.401  32.858  29.804  1.00  0.00    -0.354 N 
ATOM     57  N   UNL A   1      46.125  33.796  29.098  1.00  0.00    -0.248 NA
ATOM     58  C   UNL A   1      47.730  35.495  29.067  1.00  0.00     0.031 C 
ATOM     59  C   UNL A   1      42.026  34.281  30.803  1.00  0.00     0.029 A 
ATOM     60  C   UNL A   1      43.305  34.153  30.285  1.00  0.00     0.049 A 
ATOM     61  H   UNL A   1      44.195  32.477  29.363  1.00  0.00     0.167 HD
ATOM     62  C   UNL A   1      45.601  34.929  29.718  1.00  0.00     0.074 A 
ATOM     63  C   UNL A   1      46.655  35.923  29.712  1.00  0.00     0.031 C 
ATOM     64  C   UNL A   1      44.364  35.135  30.247  1.00  0.00     0.034 A 
BRANCH  51  65
ATOM     65  C   UNL A   1      40.602  30.202  29.877  1.00  0.00     0.023 A 
ATOM     66  C   UNL A   1      40.152  29.912  31.179  1.00  0.00     0.031 A 
ATOM     67  C   UNL A   1      39.777  29.837  28.800  1.00  0.00     0.131 A 
ATOM     68  C   UNL A   1      38.946  29.218  31.365  1.00  0.00     0.055 A 
ATOM     69  C   UNL A   1      38.540  29.220  28.996  1.00  0.00     0.041 A 
ATOM     70  F   UNL A   1      40.169  30.054  27.535  1.00  0.00    -0.206 F 
ATOM     71  C   UNL A   1      38.124  28.895  30.283  1.00  0.00     0.022 A 
BRANCH  68  72
ATOM     72  S   UNL A   1      38.537  28.609  33.025  1.00  0.00     0.124 S 
ATOM     73  O   UNL A   1      39.053  29.684  33.870  1.00  0.00    -0.237 OA
ATOM     74  O   UNL A   1      37.086  28.482  32.967  1.00  0.00    -0.237 OA
ATOM     75  O   UNL A   1      39.271  27.348  33.119  1.00  0.00    -0.744 OA
ENDBRANCH  68  72
ENDBRANCH  51  65
BRANCH  52  76
ATOM     76  C   UNL A   1      49.750  33.827  27.749  1.00  0.00     0.023 A 
ATOM     77  C   UNL A   1      50.034  34.379  26.488  1.00  0.00     0.031 A 
ATOM     78  C   UNL A   1      50.802  33.749  28.681  1.00  0.00     0.131 A 
ATOM     79  C   UNL A   1      51.344  34.782  26.177  1.00  0.00     0.055 A 
ATOM     80  C   UNL A   1      52.089  34.204  28.386  1.00  0.00     0.041 A 
ATOM     81  F   UNL A   1      50.593  33.222  29.898  1.00  0.00    -0.206 F 
ATOM     82  C   UNL A   1      52.369  34.711  27.122  1.00  0.00     0.022 A 
BRANCH  79  83
ATOM     83  S   UNL A   1      51.715  35.311  24.480  1.00  0.00     0.124 S 
ATOM     84  O   UNL A   1      50.665  36.293  24.238  1.00  0.00    -0.237 OA
ATOM     85  O   UNL A   1      53.069  35.839  24.618  1.00  0.00    -0.237 OA
ATOM     86  O   UNL A   1      51.606  34.075  23.707  1.00  0.00    -0.744 OA
ENDBRANCH  79  83
ENDBRANCH  52  76
BRANCH  64  87
ATOM     87  C   UNL A   1      44.115  36.480  30.890  1.00  0.00     0.023 A 
ATOM     88  C   UNL A   1      43.813  37.620  30.126  1.00  0.00     0.031 A 
ATOM     89  C   UNL A   1      44.226  36.632  32.284  1.00  0.00     0.131 A 
ATOM     90  C   UNL A   1      43.728  38.875  30.746  1.00  0.00     0.055 A 
ATOM     91  C   UNL A   1      44.056  37.870  32.905  1.00  0.00     0.041 A 
ATOM     92  F   UNL A   1      44.511  35.580  33.068  1.00  0.00    -0.206 F 
ATOM     93  C   UNL A   1      43.829  39.005  32.133  1.00  0.00     0.022 A 
BRANCH  90  94
ATOM     94  S   UNL A   1      43.643  40.354  29.698  1.00  0.00     0.124 S 
ATOM     95  O   UNL A   1      42.223  40.683  29.755  1.00  0.00    -0.237 OA
ATOM     96  O   UNL A   1      44.540  41.276  30.387  1.00  0.00    -0.237 OA
ATOM     97  O   UNL A   1      44.118  39.879  28.399  1.00  0.00    -0.744 OA
ENDBRANCH  90  94
ENDBRANCH  64  87
ENDBRANCH  38  39
ENDBRANCH  31  33
ENDBRANCH  30  31
ENDBRANCH  29  30
ENDBRANCH  28  29
ENDBRANCH  27  28
ENDBRANCH  26  27
ENDBRANCH  25  26
ENDBRANCH  24  25
ENDBRANCH  23  24
ENDBRANCH   1  23
TORSDOF 29
ENDMDL
