MODEL 1
REMARK VINA RESULT:      -9.8      0.000      0.000
REMARK SMILES O=C(OCCOCCOCCOCCOC(=O)[C@H]1CC(=O)N(c2cccc(OC(F)(F)F)c2)C1)c1ccc(-c2c3nc(c(-c4cc(S(=O)(=O)[O-])ccc4F)c4ccc([nH]4)c(-c4cc(S(=O)(=O)[O-])ccc4F)c4nc(c(-c5cc(S(=O)(=O)[O-])ccc5F)c5ccc2[nH]5)C=C4)C=C3)cc1
REMARK SMILES IDX 9 1 8 2 7 3 6 4 5 5 4 6 3 7 2 8 1 9 35 10 36 11 97 12 37 13
REMARK SMILES IDX 96 14 38 15 39 16 40 17 90 18 41 19 95 20 89 21 91 22 42 23
REMARK SMILES IDX 94 24 88 25 87 26 43 28 75 29 55 30 74 31 56 32 59 33 73 34
REMARK SMILES IDX 92 35 57 36 58 37 72 39 93 40 60 41 44 42 45 43 53 44 46 45
REMARK SMILES IDX 52 46 54 47 51 48 47 49 48 50 49 51 50 52 76 53 77 54 85 55
REMARK SMILES IDX 78 56 84 57 86 58 83 59 79 60 80 61 81 62 82 63 61 64 62 65
REMARK SMILES IDX 70 66 63 67 69 68 71 69 68 70 64 71 65 72 66 73 67 74 10 75
REMARK SMILES IDX 11 76 12 77 13 78 14 79 15 80 16 81 17 82 18 83 19 84 34 85
REMARK SMILES IDX 20 86 22 87 21 88 23 89 24 90 33 91 25 92 27 93 26 94 28 95
REMARK SMILES IDX 29 96 30 97 31 98 32 99
REMARK H PARENT 91 27 59 38
REMARK Flexibility Score: inf
ROOT
ATOM      1  O   UNL A   1      35.266  30.384  28.433  1.00  0.00    -0.377 OA
ENDROOT
BRANCH   1   2
ATOM      2  C   UNL A   1      35.373  31.661  27.796  1.00  0.00     0.188 C 
BRANCH   2   3
ATOM      3  C   UNL A   1      34.331  32.687  28.244  1.00  0.00     0.188 C 
BRANCH   3   4
ATOM      4  O   UNL A   1      34.648  33.967  27.721  1.00  0.00    -0.376 OA
BRANCH   4   5
ATOM      5  C   UNL A   1      34.479  35.136  28.504  1.00  0.00     0.202 C 
BRANCH   5   6
ATOM      6  C   UNL A   1      33.054  35.572  28.829  1.00  0.00     0.261 C 
BRANCH   6   7
ATOM      7  O   UNL A   1      32.549  35.181  30.125  1.00  0.00    -0.460 OA
BRANCH   7   8
ATOM      8  C   UNL A   1      32.945  35.565  31.365  1.00  0.00     0.338 C 
ATOM      9  O   UNL A   1      32.375  36.492  31.931  1.00  0.00    -0.246 OA
BRANCH   8  10
ATOM     10  C   UNL A   1      34.054  34.876  32.062  1.00  0.00     0.060 A 
ATOM     11  C   UNL A   1      35.278  35.486  32.267  1.00  0.00     0.016 A 
ATOM     12  C   UNL A   1      33.849  33.621  32.632  1.00  0.00     0.016 A 
ATOM     13  C   UNL A   1      36.374  34.784  32.696  1.00  0.00     0.010 A 
ATOM     14  C   UNL A   1      34.910  32.967  33.275  1.00  0.00     0.010 A 
ATOM     15  C   UNL A   1      36.199  33.523  33.239  1.00  0.00    -0.014 A 
BRANCH  15  16
ATOM     16  C   UNL A   1      37.422  32.800  33.639  1.00  0.00     0.031 A 
ATOM     17  C   UNL A   1      37.996  33.098  34.990  1.00  0.00     0.074 A 
ATOM     18  C   UNL A   1      37.862  31.766  32.892  1.00  0.00     0.049 A 
ATOM     19  N   UNL A   1      39.091  32.655  35.539  1.00  0.00    -0.248 NA
ATOM     20  C   UNL A   1      37.224  34.019  35.844  1.00  0.00     0.031 C 
ATOM     21  C   UNL A   1      37.248  31.301  31.639  1.00  0.00     0.029 A 
ATOM     22  N   UNL A   1      38.881  30.876  33.098  1.00  0.00    -0.354 N 
ATOM     23  C   UNL A   1      39.160  33.271  36.783  1.00  0.00     0.074 A 
ATOM     24  C   UNL A   1      38.011  34.138  36.899  1.00  0.00     0.031 C 
ATOM     25  C   UNL A   1      37.863  30.184  31.229  1.00  0.00     0.029 A 
ATOM     26  C   UNL A   1      38.999  29.933  32.102  1.00  0.00     0.049 A 
ATOM     27  H   UNL A   1      39.474  30.907  33.883  1.00  0.00     0.167 HD
ATOM     28  C   UNL A   1      40.106  33.113  37.736  1.00  0.00     0.034 A 
ATOM     29  C   UNL A   1      39.959  29.014  31.889  1.00  0.00     0.034 A 
ATOM     30  C   UNL A   1      41.230  32.231  37.567  1.00  0.00     0.049 A 
ATOM     31  C   UNL A   1      41.079  28.960  32.897  1.00  0.00     0.074 A 
ATOM     32  C   UNL A   1      42.329  32.056  38.384  1.00  0.00     0.029 A 
ATOM     33  N   UNL A   1      41.386  31.361  36.491  1.00  0.00    -0.354 N 
ATOM     34  N   UNL A   1      41.218  29.647  34.011  1.00  0.00    -0.248 NA
ATOM     35  C   UNL A   1      42.173  28.026  32.621  1.00  0.00     0.031 C 
ATOM     36  C   UNL A   1      43.178  31.126  37.770  1.00  0.00     0.029 A 
ATOM     37  C   UNL A   1      42.571  30.659  36.612  1.00  0.00     0.049 A 
ATOM     38  H   UNL A   1      40.745  31.261  35.749  1.00  0.00     0.167 HD
ATOM     39  C   UNL A   1      42.411  29.217  34.575  1.00  0.00     0.074 A 
ATOM     40  C   UNL A   1      42.926  28.182  33.698  1.00  0.00     0.031 C 
ATOM     41  C   UNL A   1      43.040  29.639  35.704  1.00  0.00     0.034 A 
BRANCH  28  42
ATOM     42  C   UNL A   1      39.992  33.986  38.959  1.00  0.00     0.023 A 
ATOM     43  C   UNL A   1      39.209  33.615  40.068  1.00  0.00     0.031 A 
ATOM     44  C   UNL A   1      40.589  35.258  38.972  1.00  0.00     0.131 A 
ATOM     45  C   UNL A   1      38.981  34.536  41.102  1.00  0.00     0.055 A 
ATOM     46  C   UNL A   1      40.426  36.138  40.042  1.00  0.00     0.041 A 
ATOM     47  F   UNL A   1      41.313  35.683  37.924  1.00  0.00    -0.206 F 
ATOM     48  C   UNL A   1      39.604  35.786  41.109  1.00  0.00     0.022 A 
BRANCH  45  49
ATOM     49  S   UNL A   1      37.729  34.142  42.355  1.00  0.00     0.124 S 
ATOM     50  O   UNL A   1      36.589  33.762  41.524  1.00  0.00    -0.237 OA
ATOM     51  O   UNL A   1      38.358  33.061  43.105  1.00  0.00    -0.237 OA
ATOM     52  O   UNL A   1      37.568  35.398  43.087  1.00  0.00    -0.744 OA
ENDBRANCH  45  49
ENDBRANCH  28  42
BRANCH  29  53
ATOM     53  C   UNL A   1      39.979  28.181  30.646  1.00  0.00     0.023 A 
ATOM     54  C   UNL A   1      40.764  28.531  29.535  1.00  0.00     0.031 A 
ATOM     55  C   UNL A   1      39.140  27.055  30.517  1.00  0.00     0.131 A 
ATOM     56  C   UNL A   1      40.645  27.808  28.336  1.00  0.00     0.055 A 
ATOM     57  C   UNL A   1      39.081  26.297  29.347  1.00  0.00     0.041 A 
ATOM     58  F   UNL A   1      38.353  26.670  31.536  1.00  0.00    -0.206 F 
ATOM     59  C   UNL A   1      39.822  26.685  28.239  1.00  0.00     0.022 A 
BRANCH  56  60
ATOM     60  S   UNL A   1      41.482  28.441  26.854  1.00  0.00     0.124 S 
ATOM     61  O   UNL A   1      40.418  29.210  26.219  1.00  0.00    -0.237 OA
ATOM     62  O   UNL A   1      42.574  29.214  27.435  1.00  0.00    -0.237 OA
ATOM     63  O   UNL A   1      41.885  27.227  26.148  1.00  0.00    -0.744 OA
ENDBRANCH  56  60
ENDBRANCH  29  53
BRANCH  41  64
ATOM     64  C   UNL A   1      44.326  28.935  36.049  1.00  0.00     0.023 A 
ATOM     65  C   UNL A   1      44.330  27.729  36.766  1.00  0.00     0.031 A 
ATOM     66  C   UNL A   1      45.559  29.498  35.679  1.00  0.00     0.131 A 
ATOM     67  C   UNL A   1      45.548  27.164  37.163  1.00  0.00     0.055 A 
ATOM     68  C   UNL A   1      46.768  28.888  36.008  1.00  0.00     0.041 A 
ATOM     69  F   UNL A   1      45.607  30.652  34.994  1.00  0.00    -0.206 F 
ATOM     70  C   UNL A   1      46.767  27.723  36.770  1.00  0.00     0.022 A 
BRANCH  67  71
ATOM     71  S   UNL A   1      45.513  25.762  38.311  1.00  0.00     0.124 S 
ATOM     72  O   UNL A   1      45.552  26.432  39.606  1.00  0.00    -0.237 OA
ATOM     73  O   UNL A   1      44.254  25.109  37.968  1.00  0.00    -0.237 OA
ATOM     74  O   UNL A   1      46.717  25.008  37.965  1.00  0.00    -0.744 OA
ENDBRANCH  67  71
ENDBRANCH  41  64
ENDBRANCH  15  16
ENDBRANCH   8  10
ENDBRANCH   7   8
ENDBRANCH   6   7
ENDBRANCH   5   6
ENDBRANCH   4   5
ENDBRANCH   3   4
ENDBRANCH   2   3
ENDBRANCH   1   2
BRANCH   1  75
ATOM     75  C   UNL A   1      34.641  29.351  27.665  1.00  0.00     0.188 C 
BRANCH  75  76
ATOM     76  C   UNL A   1      33.646  29.757  26.545  1.00  0.00     0.188 C 
BRANCH  76  77
ATOM     77  O   UNL A   1      33.506  28.765  25.543  1.00  0.00    -0.376 OA
BRANCH  77  78
ATOM     78  C   UNL A   1      33.439  29.165  24.179  1.00  0.00     0.202 C 
BRANCH  78  79
ATOM     79  C   UNL A   1      33.347  28.111  23.051  1.00  0.00     0.261 C 
BRANCH  79  80
ATOM     80  O   UNL A   1      32.009  27.749  22.690  1.00  0.00    -0.463 OA
BRANCH  80  81
ATOM     81  C   UNL A   1      31.327  26.913  23.514  1.00  0.00     0.311 C 
ATOM     82  O   UNL A   1      30.675  27.250  24.490  1.00  0.00    -0.252 OA
BRANCH  81  83
ATOM     83  C   UNL A   1      31.392  25.506  22.977  1.00  0.00     0.128 C 
ATOM     84  C   UNL A   1      32.260  25.354  21.749  1.00  0.00     0.117 C 
ATOM     85  C   UNL A   1      31.997  24.582  24.024  1.00  0.00     0.141 C 
ATOM     86  C   UNL A   1      32.910  24.005  21.936  1.00  0.00     0.227 C 
ATOM     87  N   UNL A   1      32.724  23.605  23.266  1.00  0.00    -0.311 N 
ATOM     88  O   UNL A   1      33.510  23.422  21.062  1.00  0.00    -0.274 OA
BRANCH  87  89
ATOM     89  C   UNL A   1      33.546  22.670  23.926  1.00  0.00     0.047 A 
ATOM     90  C   UNL A   1      34.941  22.757  23.899  1.00  0.00     0.026 A 
ATOM     91  C   UNL A   1      32.938  21.555  24.511  1.00  0.00     0.073 A 
ATOM     92  C   UNL A   1      35.708  21.751  24.493  1.00  0.00     0.006 A 
ATOM     93  C   UNL A   1      33.695  20.511  25.028  1.00  0.00     0.131 A 
ATOM     94  C   UNL A   1      35.086  20.629  25.049  1.00  0.00     0.047 A 
BRANCH  93  95
ATOM     95  O   UNL A   1      33.184  19.339  25.512  1.00  0.00    -0.406 OA
BRANCH  95  96
ATOM     96  C   UNL A   1      33.149  18.243  24.605  1.00  0.00     0.573 C 
ATOM     97  F   UNL A   1      33.562  18.616  23.374  1.00  0.00    -0.132 F 
ATOM     98  F   UNL A   1      33.903  17.209  25.040  1.00  0.00    -0.132 F 
ATOM     99  F   UNL A   1      31.873  17.808  24.495  1.00  0.00    -0.132 F 
ENDBRANCH  95  96
ENDBRANCH  93  95
ENDBRANCH  87  89
ENDBRANCH  81  83
ENDBRANCH  80  81
ENDBRANCH  79  80
ENDBRANCH  78  79
ENDBRANCH  77  78
ENDBRANCH  76  77
ENDBRANCH  75  76
ENDBRANCH   1  75
TORSDOF 26
ENDMDL
MODEL 2
REMARK VINA RESULT:      -9.2      7.126     11.991
REMARK SMILES O=C(OCCOCCOCCOCCOC(=O)[C@H]1CC(=O)N(c2cccc(OC(F)(F)F)c2)C1)c1ccc(-c2c3nc(c(-c4cc(S(=O)(=O)[O-])ccc4F)c4ccc([nH]4)c(-c4cc(S(=O)(=O)[O-])ccc4F)c4nc(c(-c5cc(S(=O)(=O)[O-])ccc5F)c5ccc2[nH]5)C=C4)C=C3)cc1
REMARK SMILES IDX 9 1 8 2 7 3 6 4 5 5 4 6 3 7 2 8 1 9 35 10 36 11 97 12 37 13
REMARK SMILES IDX 96 14 38 15 39 16 40 17 90 18 41 19 95 20 89 21 91 22 42 23
REMARK SMILES IDX 94 24 88 25 87 26 43 28 75 29 55 30 74 31 56 32 59 33 73 34
REMARK SMILES IDX 92 35 57 36 58 37 72 39 93 40 60 41 44 42 45 43 53 44 46 45
REMARK SMILES IDX 52 46 54 47 51 48 47 49 48 50 49 51 50 52 76 53 77 54 85 55
REMARK SMILES IDX 78 56 84 57 86 58 83 59 79 60 80 61 81 62 82 63 61 64 62 65
REMARK SMILES IDX 70 66 63 67 69 68 71 69 68 70 64 71 65 72 66 73 67 74 10 75
REMARK SMILES IDX 11 76 12 77 13 78 14 79 15 80 16 81 17 82 18 83 19 84 34 85
REMARK SMILES IDX 20 86 22 87 21 88 23 89 24 90 33 91 25 92 27 93 26 94 28 95
REMARK SMILES IDX 29 96 30 97 31 98 32 99
REMARK H PARENT 91 27 59 38
REMARK Flexibility Score: inf
ROOT
ATOM      1  O   UNL A   1      39.224  22.165  26.413  1.00  0.00    -0.377 OA
ENDROOT
BRANCH   1   2
ATOM      2  C   UNL A   1      40.353  21.330  26.137  1.00  0.00     0.188 C 
BRANCH   2   3
ATOM      3  C   UNL A   1      40.049  19.830  26.124  1.00  0.00     0.188 C 
BRANCH   3   4
ATOM      4  O   UNL A   1      41.135  19.116  25.555  1.00  0.00    -0.376 OA
BRANCH   4   5
ATOM      5  C   UNL A   1      42.183  18.615  26.367  1.00  0.00     0.202 C 
BRANCH   5   6
ATOM      6  C   UNL A   1      43.607  19.049  26.034  1.00  0.00     0.261 C 
BRANCH   6   7
ATOM      7  O   UNL A   1      43.886  19.299  24.639  1.00  0.00    -0.460 OA
BRANCH   7   8
ATOM      8  C   UNL A   1      44.474  20.371  24.048  1.00  0.00     0.338 C 
ATOM      9  O   UNL A   1      44.899  20.281  22.900  1.00  0.00    -0.246 OA
BRANCH   8  10
ATOM     10  C   UNL A   1      44.606  21.661  24.760  1.00  0.00     0.060 A 
ATOM     11  C   UNL A   1      43.873  22.774  24.393  1.00  0.00     0.016 A 
ATOM     12  C   UNL A   1      45.403  21.753  25.900  1.00  0.00     0.016 A 
ATOM     13  C   UNL A   1      44.156  24.022  24.886  1.00  0.00     0.010 A 
ATOM     14  C   UNL A   1      45.537  22.984  26.558  1.00  0.00     0.010 A 
ATOM     15  C   UNL A   1      44.968  24.141  26.001  1.00  0.00    -0.014 A 
BRANCH  15  16
ATOM     16  C   UNL A   1      45.272  25.512  26.455  1.00  0.00     0.031 A 
ATOM     17  C   UNL A   1      44.232  26.224  27.263  1.00  0.00     0.074 A 
ATOM     18  C   UNL A   1      46.523  25.999  26.318  1.00  0.00     0.049 A 
ATOM     19  N   UNL A   1      44.228  27.446  27.712  1.00  0.00    -0.248 NA
ATOM     20  C   UNL A   1      43.030  25.447  27.619  1.00  0.00     0.031 C 
ATOM     21  C   UNL A   1      47.647  25.290  25.689  1.00  0.00     0.029 A 
ATOM     22  N   UNL A   1      47.085  27.170  26.749  1.00  0.00    -0.354 N 
ATOM     23  C   UNL A   1      43.013  27.598  28.370  1.00  0.00     0.074 A 
ATOM     24  C   UNL A   1      42.293  26.352  28.239  1.00  0.00     0.031 C 
ATOM     25  C   UNL A   1      48.766  26.012  25.832  1.00  0.00     0.029 A 
ATOM     26  C   UNL A   1      48.419  27.291  26.431  1.00  0.00     0.049 A 
ATOM     27  H   UNL A   1      46.583  27.860  27.240  1.00  0.00     0.167 HD
ATOM     28  C   UNL A   1      42.553  28.688  29.024  1.00  0.00     0.034 A 
ATOM     29  C   UNL A   1      49.245  28.347  26.552  1.00  0.00     0.034 A 
ATOM     30  C   UNL A   1      43.315  29.904  29.124  1.00  0.00     0.049 A 
ATOM     31  C   UNL A   1      48.660  29.598  27.155  1.00  0.00     0.074 A 
ATOM     32  C   UNL A   1      42.939  31.127  29.644  1.00  0.00     0.029 A 
ATOM     33  N   UNL A   1      44.633  30.038  28.693  1.00  0.00    -0.354 N 
ATOM     34  N   UNL A   1      47.456  29.786  27.654  1.00  0.00    -0.248 NA
ATOM     35  C   UNL A   1      49.528  30.777  27.205  1.00  0.00     0.031 C 
ATOM     36  C   UNL A   1      44.007  32.015  29.471  1.00  0.00     0.029 A 
ATOM     37  C   UNL A   1      45.080  31.327  28.918  1.00  0.00     0.049 A 
ATOM     38  H   UNL A   1      45.168  29.320  28.285  1.00  0.00     0.167 HD
ATOM     39  C   UNL A   1      47.428  31.105  28.088  1.00  0.00     0.074 A 
ATOM     40  C   UNL A   1      48.750  31.647  27.830  1.00  0.00     0.031 C 
ATOM     41  C   UNL A   1      46.409  31.818  28.637  1.00  0.00     0.034 A 
BRANCH  28  42
ATOM     42  C   UNL A   1      41.148  28.616  29.564  1.00  0.00     0.023 A 
ATOM     43  C   UNL A   1      40.044  29.092  28.831  1.00  0.00     0.031 A 
ATOM     44  C   UNL A   1      40.921  28.162  30.874  1.00  0.00     0.131 A 
ATOM     45  C   UNL A   1      38.784  29.177  29.443  1.00  0.00     0.055 A 
ATOM     46  C   UNL A   1      39.650  28.172  31.448  1.00  0.00     0.041 A 
ATOM     47  F   UNL A   1      41.942  27.736  31.634  1.00  0.00    -0.206 F 
ATOM     48  C   UNL A   1      38.574  28.697  30.738  1.00  0.00     0.022 A 
BRANCH  45  49
ATOM     49  S   UNL A   1      37.460  30.074  28.584  1.00  0.00     0.124 S 
ATOM     50  O   UNL A   1      37.738  31.454  28.975  1.00  0.00    -0.237 OA
ATOM     51  O   UNL A   1      37.710  29.746  27.185  1.00  0.00    -0.237 OA
ATOM     52  O   UNL A   1      36.238  29.506  29.149  1.00  0.00    -0.744 OA
ENDBRANCH  45  49
ENDBRANCH  28  42
BRANCH  29  53
ATOM     53  C   UNL A   1      50.634  28.318  25.994  1.00  0.00     0.023 A 
ATOM     54  C   UNL A   1      50.903  28.681  24.665  1.00  0.00     0.031 A 
ATOM     55  C   UNL A   1      51.712  27.840  26.766  1.00  0.00     0.131 A 
ATOM     56  C   UNL A   1      52.192  28.502  24.135  1.00  0.00     0.055 A 
ATOM     57  C   UNL A   1      53.007  27.734  26.256  1.00  0.00     0.041 A 
ATOM     58  F   UNL A   1      51.524  27.463  28.042  1.00  0.00    -0.206 F 
ATOM     59  C   UNL A   1      53.249  28.046  24.925  1.00  0.00     0.022 A 
BRANCH  56  60
ATOM     60  S   UNL A   1      52.440  28.744  22.353  1.00  0.00     0.124 S 
ATOM     61  O   UNL A   1      52.271  27.388  21.844  1.00  0.00    -0.237 OA
ATOM     62  O   UNL A   1      51.377  29.689  22.028  1.00  0.00    -0.237 OA
ATOM     63  O   UNL A   1      53.797  29.280  22.269  1.00  0.00    -0.744 OA
ENDBRANCH  56  60
ENDBRANCH  29  53
BRANCH  41  64
ATOM     64  C   UNL A   1      46.725  33.239  29.021  1.00  0.00     0.023 A 
ATOM     65  C   UNL A   1      46.649  34.283  28.087  1.00  0.00     0.031 A 
ATOM     66  C   UNL A   1      47.134  33.541  30.331  1.00  0.00     0.131 A 
ATOM     67  C   UNL A   1      47.057  35.571  28.454  1.00  0.00     0.055 A 
ATOM     68  C   UNL A   1      47.462  34.841  30.712  1.00  0.00     0.041 A 
ATOM     69  F   UNL A   1      47.224  32.575  31.260  1.00  0.00    -0.206 F 
ATOM     70  C   UNL A   1      47.442  35.861  29.766  1.00  0.00     0.022 A 
BRANCH  67  71
ATOM     71  S   UNL A   1      47.203  36.830  27.159  1.00  0.00     0.124 S 
ATOM     72  O   UNL A   1      47.694  37.980  27.911  1.00  0.00    -0.237 OA
ATOM     73  O   UNL A   1      48.151  36.220  26.235  1.00  0.00    -0.237 OA
ATOM     74  O   UNL A   1      45.837  36.958  26.652  1.00  0.00    -0.744 OA
ENDBRANCH  67  71
ENDBRANCH  41  64
ENDBRANCH  15  16
ENDBRANCH   8  10
ENDBRANCH   7   8
ENDBRANCH   6   7
ENDBRANCH   5   6
ENDBRANCH   4   5
ENDBRANCH   3   4
ENDBRANCH   2   3
ENDBRANCH   1   2
BRANCH   1  75
ATOM     75  C   UNL A   1      38.058  21.926  25.620  1.00  0.00     0.188 C 
BRANCH  75  76
ATOM     76  C   UNL A   1      36.756  22.698  25.962  1.00  0.00     0.188 C 
BRANCH  76  77
ATOM     77  O   UNL A   1      35.595  21.889  25.882  1.00  0.00    -0.376 OA
BRANCH  77  78
ATOM     78  C   UNL A   1      34.480  22.352  25.130  1.00  0.00     0.202 C 
BRANCH  78  79
ATOM     79  C   UNL A   1      34.597  22.585  23.606  1.00  0.00     0.261 C 
BRANCH  79  80
ATOM     80  O   UNL A   1      33.474  23.255  23.023  1.00  0.00    -0.463 OA
BRANCH  80  81
ATOM     81  C   UNL A   1      32.295  22.584  22.948  1.00  0.00     0.311 C 
ATOM     82  O   UNL A   1      32.158  21.423  22.597  1.00  0.00    -0.252 OA
BRANCH  81  83
ATOM     83  C   UNL A   1      31.183  23.451  23.481  1.00  0.00     0.128 C 
ATOM     84  C   UNL A   1      30.973  23.337  24.974  1.00  0.00     0.117 C 
ATOM     85  C   UNL A   1      31.504  24.917  23.223  1.00  0.00     0.141 C 
ATOM     86  C   UNL A   1      30.615  24.741  25.392  1.00  0.00     0.227 C 
ATOM     87  N   UNL A   1      30.938  25.612  24.343  1.00  0.00    -0.311 N 
ATOM     88  O   UNL A   1      30.159  25.023  26.477  1.00  0.00    -0.274 OA
BRANCH  87  89
ATOM     89  C   UNL A   1      31.181  26.990  24.512  1.00  0.00     0.047 A 
ATOM     90  C   UNL A   1      32.138  27.470  25.410  1.00  0.00     0.026 A 
ATOM     91  C   UNL A   1      30.342  27.893  23.853  1.00  0.00     0.073 A 
ATOM     92  C   UNL A   1      32.274  28.847  25.606  1.00  0.00     0.006 A 
ATOM     93  C   UNL A   1      30.413  29.257  24.107  1.00  0.00     0.131 A 
ATOM     94  C   UNL A   1      31.408  29.736  24.961  1.00  0.00     0.047 A 
BRANCH  93  95
ATOM     95  O   UNL A   1      29.559  30.194  23.594  1.00  0.00    -0.406 OA
BRANCH  95  96
ATOM     96  C   UNL A   1      29.468  30.256  22.177  1.00  0.00     0.573 C 
ATOM     97  F   UNL A   1      28.544  29.389  21.709  1.00  0.00    -0.132 F 
ATOM     98  F   UNL A   1      29.174  31.504  21.748  1.00  0.00    -0.132 F 
ATOM     99  F   UNL A   1      30.663  29.908  21.647  1.00  0.00    -0.132 F 
ENDBRANCH  95  96
ENDBRANCH  93  95
ENDBRANCH  87  89
ENDBRANCH  81  83
ENDBRANCH  80  81
ENDBRANCH  79  80
ENDBRANCH  78  79
ENDBRANCH  77  78
ENDBRANCH  76  77
ENDBRANCH  75  76
ENDBRANCH   1  75
TORSDOF 26
ENDMDL
MODEL 3
REMARK VINA RESULT:      -9.1      1.882      2.185
REMARK SMILES O=C(OCCOCCOCCOCCOC(=O)[C@H]1CC(=O)N(c2cccc(OC(F)(F)F)c2)C1)c1ccc(-c2c3nc(c(-c4cc(S(=O)(=O)[O-])ccc4F)c4ccc([nH]4)c(-c4cc(S(=O)(=O)[O-])ccc4F)c4nc(c(-c5cc(S(=O)(=O)[O-])ccc5F)c5ccc2[nH]5)C=C4)C=C3)cc1
REMARK SMILES IDX 9 1 8 2 7 3 6 4 5 5 4 6 3 7 2 8 1 9 35 10 36 11 97 12 37 13
REMARK SMILES IDX 96 14 38 15 39 16 40 17 90 18 41 19 95 20 89 21 91 22 42 23
REMARK SMILES IDX 94 24 88 25 87 26 43 28 75 29 55 30 74 31 56 32 59 33 73 34
REMARK SMILES IDX 92 35 57 36 58 37 72 39 93 40 60 41 44 42 45 43 53 44 46 45
REMARK SMILES IDX 52 46 54 47 51 48 47 49 48 50 49 51 50 52 76 53 77 54 85 55
REMARK SMILES IDX 78 56 84 57 86 58 83 59 79 60 80 61 81 62 82 63 61 64 62 65
REMARK SMILES IDX 70 66 63 67 69 68 71 69 68 70 64 71 65 72 66 73 67 74 10 75
REMARK SMILES IDX 11 76 12 77 13 78 14 79 15 80 16 81 17 82 18 83 19 84 34 85
REMARK SMILES IDX 20 86 22 87 21 88 23 89 24 90 33 91 25 92 27 93 26 94 28 95
REMARK SMILES IDX 29 96 30 97 31 98 32 99
REMARK H PARENT 91 27 59 38
REMARK Flexibility Score: inf
ROOT
ATOM      1  O   UNL A   1      35.065  30.495  28.724  1.00  0.00    -0.377 OA
ENDROOT
BRANCH   1   2
ATOM      2  C   UNL A   1      35.244  31.757  28.073  1.00  0.00     0.188 C 
BRANCH   2   3
ATOM      3  C   UNL A   1      34.368  32.887  28.617  1.00  0.00     0.188 C 
BRANCH   3   4
ATOM      4  O   UNL A   1      34.617  34.087  27.904  1.00  0.00    -0.376 OA
BRANCH   4   5
ATOM      5  C   UNL A   1      34.421  35.351  28.513  1.00  0.00     0.202 C 
BRANCH   5   6
ATOM      6  C   UNL A   1      32.997  35.742  28.893  1.00  0.00     0.261 C 
BRANCH   6   7
ATOM      7  O   UNL A   1      32.521  35.254  30.167  1.00  0.00    -0.460 OA
BRANCH   7   8
ATOM      8  C   UNL A   1      32.930  35.561  31.424  1.00  0.00     0.338 C 
ATOM      9  O   UNL A   1      32.341  36.426  32.065  1.00  0.00    -0.246 OA
BRANCH   8  10
ATOM     10  C   UNL A   1      34.074  34.863  32.050  1.00  0.00     0.060 A 
ATOM     11  C   UNL A   1      35.141  35.554  32.594  1.00  0.00     0.016 A 
ATOM     12  C   UNL A   1      34.049  33.478  32.204  1.00  0.00     0.016 A 
ATOM     13  C   UNL A   1      36.302  34.922  32.960  1.00  0.00     0.010 A 
ATOM     14  C   UNL A   1      35.145  32.821  32.782  1.00  0.00     0.010 A 
ATOM     15  C   UNL A   1      36.309  33.544  33.092  1.00  0.00    -0.014 A 
BRANCH  15  16
ATOM     16  C   UNL A   1      37.600  32.920  33.443  1.00  0.00     0.031 A 
ATOM     17  C   UNL A   1      38.076  33.055  34.856  1.00  0.00     0.074 A 
ATOM     18  C   UNL A   1      38.200  32.088  32.567  1.00  0.00     0.049 A 
ATOM     19  N   UNL A   1      39.197  32.665  35.391  1.00  0.00    -0.248 NA
ATOM     20  C   UNL A   1      37.157  33.719  35.799  1.00  0.00     0.031 C 
ATOM     21  C   UNL A   1      37.702  31.768  31.220  1.00  0.00     0.029 A 
ATOM     22  N   UNL A   1      39.318  31.309  32.687  1.00  0.00    -0.354 N 
ATOM     23  C   UNL A   1      39.136  33.067  36.721  1.00  0.00     0.074 A 
ATOM     24  C   UNL A   1      37.880  33.754  36.906  1.00  0.00     0.031 C 
ATOM     25  C   UNL A   1      38.474  30.820  30.673  1.00  0.00     0.029 A 
ATOM     26  C   UNL A   1      39.598  30.567  31.561  1.00  0.00     0.049 A 
ATOM     27  H   UNL A   1      39.871  31.280  33.501  1.00  0.00     0.167 HD
ATOM     28  C   UNL A   1      40.057  32.869  37.691  1.00  0.00     0.034 A 
ATOM     29  C   UNL A   1      40.678  29.822  31.260  1.00  0.00     0.034 A 
ATOM     30  C   UNL A   1      41.292  32.173  37.450  1.00  0.00     0.049 A 
ATOM     31  C   UNL A   1      41.755  29.739  32.312  1.00  0.00     0.074 A 
ATOM     32  C   UNL A   1      42.373  32.000  38.292  1.00  0.00     0.029 A 
ATOM     33  N   UNL A   1      41.603  31.522  36.258  1.00  0.00    -0.354 N 
ATOM     34  N   UNL A   1      41.759  30.241  33.529  1.00  0.00    -0.248 NA
ATOM     35  C   UNL A   1      42.972  29.006  31.956  1.00  0.00     0.031 C 
ATOM     36  C   UNL A   1      43.359  31.298  37.589  1.00  0.00     0.029 A 
ATOM     37  C   UNL A   1      42.864  30.960  36.336  1.00  0.00     0.049 A 
ATOM     38  H   UNL A   1      41.010  31.470  35.474  1.00  0.00     0.167 HD
ATOM     39  C   UNL A   1      42.975  29.872  34.087  1.00  0.00     0.074 A 
ATOM     40  C   UNL A   1      43.656  29.070  33.087  1.00  0.00     0.031 C 
ATOM     41  C   UNL A   1      43.499  30.173  35.305  1.00  0.00     0.034 A 
BRANCH  28  42
ATOM     42  C   UNL A   1      39.781  33.503  39.030  1.00  0.00     0.023 A 
ATOM     43  C   UNL A   1      38.894  32.927  39.958  1.00  0.00     0.031 A 
ATOM     44  C   UNL A   1      40.332  34.759  39.339  1.00  0.00     0.131 A 
ATOM     45  C   UNL A   1      38.524  33.642  41.107  1.00  0.00     0.055 A 
ATOM     46  C   UNL A   1      40.024  35.428  40.524  1.00  0.00     0.041 A 
ATOM     47  F   UNL A   1      41.152  35.375  38.472  1.00  0.00    -0.206 F 
ATOM     48  C   UNL A   1      39.103  34.877  41.410  1.00  0.00     0.022 A 
BRANCH  45  49
ATOM     49  S   UNL A   1      37.156  33.012  42.119  1.00  0.00     0.124 S 
ATOM     50  O   UNL A   1      36.164  34.075  41.968  1.00  0.00    -0.237 OA
ATOM     51  O   UNL A   1      36.836  31.747  41.469  1.00  0.00    -0.237 OA
ATOM     52  O   UNL A   1      37.739  32.898  43.455  1.00  0.00    -0.744 OA
ENDBRANCH  45  49
ENDBRANCH  28  42
BRANCH  29  53
ATOM     53  C   UNL A   1      40.855  29.219  29.903  1.00  0.00     0.023 A 
ATOM     54  C   UNL A   1      40.393  27.927  29.604  1.00  0.00     0.031 A 
ATOM     55  C   UNL A   1      41.571  29.900  28.897  1.00  0.00     0.131 A 
ATOM     56  C   UNL A   1      40.706  27.338  28.367  1.00  0.00     0.055 A 
ATOM     57  C   UNL A   1      41.815  29.338  27.643  1.00  0.00     0.041 A 
ATOM     58  F   UNL A   1      42.052  31.135  29.119  1.00  0.00    -0.206 F 
ATOM     59  C   UNL A   1      41.399  28.040  27.378  1.00  0.00     0.022 A 
BRANCH  56  60
ATOM     60  S   UNL A   1      40.312  25.584  28.115  1.00  0.00     0.124 S 
ATOM     61  O   UNL A   1      40.144  25.524  26.668  1.00  0.00    -0.237 OA
ATOM     62  O   UNL A   1      41.500  24.930  28.651  1.00  0.00    -0.237 OA
ATOM     63  O   UNL A   1      39.091  25.395  28.895  1.00  0.00    -0.744 OA
ENDBRANCH  56  60
ENDBRANCH  29  53
BRANCH  41  64
ATOM     64  C   UNL A   1      44.851  29.585  35.609  1.00  0.00     0.023 A 
ATOM     65  C   UNL A   1      46.035  30.273  35.297  1.00  0.00     0.031 A 
ATOM     66  C   UNL A   1      44.952  28.309  36.189  1.00  0.00     0.131 A 
ATOM     67  C   UNL A   1      47.271  29.647  35.492  1.00  0.00     0.055 A 
ATOM     68  C   UNL A   1      46.189  27.725  36.456  1.00  0.00     0.041 A 
ATOM     69  F   UNL A   1      43.850  27.611  36.503  1.00  0.00    -0.206 F 
ATOM     70  C   UNL A   1      47.358  28.387  36.090  1.00  0.00     0.022 A 
BRANCH  67  71
ATOM     71  S   UNL A   1      48.756  30.450  34.834  1.00  0.00     0.124 S 
ATOM     72  O   UNL A   1      48.374  31.858  34.860  1.00  0.00    -0.237 OA
ATOM     73  O   UNL A   1      49.779  30.050  35.793  1.00  0.00    -0.237 OA
ATOM     74  O   UNL A   1      48.895  29.869  33.499  1.00  0.00    -0.744 OA
ENDBRANCH  67  71
ENDBRANCH  41  64
ENDBRANCH  15  16
ENDBRANCH   8  10
ENDBRANCH   7   8
ENDBRANCH   6   7
ENDBRANCH   5   6
ENDBRANCH   4   5
ENDBRANCH   3   4
ENDBRANCH   2   3
ENDBRANCH   1   2
BRANCH   1  75
ATOM     75  C   UNL A   1      34.320  29.515  27.996  1.00  0.00     0.188 C 
BRANCH  75  76
ATOM     76  C   UNL A   1      33.607  29.946  26.686  1.00  0.00     0.188 C 
BRANCH  76  77
ATOM     77  O   UNL A   1      33.438  28.877  25.771  1.00  0.00    -0.376 OA
BRANCH  77  78
ATOM     78  C   UNL A   1      33.660  29.111  24.385  1.00  0.00     0.202 C 
BRANCH  78  79
ATOM     79  C   UNL A   1      33.387  28.002  23.343  1.00  0.00     0.261 C 
BRANCH  79  80
ATOM     80  O   UNL A   1      31.999  27.728  23.124  1.00  0.00    -0.463 OA
BRANCH  80  81
ATOM     81  C   UNL A   1      31.381  26.844  23.949  1.00  0.00     0.311 C 
ATOM     82  O   UNL A   1      30.782  27.127  24.975  1.00  0.00    -0.252 OA
BRANCH  81  83
ATOM     83  C   UNL A   1      31.438  25.463  23.348  1.00  0.00     0.128 C 
ATOM     84  C   UNL A   1      32.207  25.387  22.049  1.00  0.00     0.117 C 
ATOM     85  C   UNL A   1      32.151  24.515  24.302  1.00  0.00     0.141 C 
ATOM     86  C   UNL A   1      32.905  24.051  22.124  1.00  0.00     0.227 C 
ATOM     87  N   UNL A   1      32.839  23.592  23.446  1.00  0.00    -0.311 N 
ATOM     88  O   UNL A   1      33.446  23.522  21.180  1.00  0.00    -0.274 OA
BRANCH  87  89
ATOM     89  C   UNL A   1      33.736  22.655  23.997  1.00  0.00     0.047 A 
ATOM     90  C   UNL A   1      35.116  22.874  24.021  1.00  0.00     0.026 A 
ATOM     91  C   UNL A   1      33.228  21.420  24.409  1.00  0.00     0.073 A 
ATOM     92  C   UNL A   1      35.967  21.872  24.495  1.00  0.00     0.006 A 
ATOM     93  C   UNL A   1      34.074  20.388  24.801  1.00  0.00     0.131 A 
ATOM     94  C   UNL A   1      35.447  20.631  24.876  1.00  0.00     0.047 A 
BRANCH  93  95
ATOM     95  O   UNL A   1      33.670  19.119  25.107  1.00  0.00    -0.406 OA
BRANCH  95  96
ATOM     96  C   UNL A   1      33.047  18.385  24.060  1.00  0.00     0.573 C 
ATOM     97  F   UNL A   1      32.032  17.628  24.532  1.00  0.00    -0.132 F 
ATOM     98  F   UNL A   1      32.587  19.198  23.084  1.00  0.00    -0.132 F 
ATOM     99  F   UNL A   1      33.958  17.551  23.510  1.00  0.00    -0.132 F 
ENDBRANCH  95  96
ENDBRANCH  93  95
ENDBRANCH  87  89
ENDBRANCH  81  83
ENDBRANCH  80  81
ENDBRANCH  79  80
ENDBRANCH  78  79
ENDBRANCH  77  78
ENDBRANCH  76  77
ENDBRANCH  75  76
ENDBRANCH   1  75
TORSDOF 26
ENDMDL
