MODEL 1
REMARK VINA RESULT:      -9.5      0.000      0.000
REMARK SMILES Cc1nn(-c2cccc(C(=O)OCCOCCOCCOCCOC(=O)c3ccc(-c4c5nc(c(-c6cc(S(=O)(=O)[O-])ccc6F)c6ccc([nH]6)c(-c6cc(S(=O)(=O)[O-])ccc6F)c6nc(c(-c7cc(S(=O)(=O)[O-])ccc7F)c7ccc4[nH]7)C=C6)C=C5)cc3)c2)c(C)c1Cl
REMARK SMILES IDX 19 1 18 2 17 3 16 4 15 5 14 6 13 7 12 8 10 9 11 10 9 11 5 12
REMARK SMILES IDX 6 13 90 14 7 15 8 16 4 17 1 18 2 19 3 20 93 21 91 22 94 23
REMARK SMILES IDX 92 24 20 25 21 26 22 27 23 28 24 29 25 30 26 31 27 32 28 33
REMARK SMILES IDX 89 34 29 35 88 36 30 37 31 38 32 39 82 40 33 41 87 42 81 43
REMARK SMILES IDX 83 44 34 45 86 46 80 47 79 48 35 50 67 51 47 52 66 53 48 54
REMARK SMILES IDX 51 55 65 56 84 57 49 58 50 59 64 61 85 62 52 63 36 64 37 65
REMARK SMILES IDX 45 66 38 67 44 68 46 69 43 70 39 71 40 72 41 73 42 74 68 75
REMARK SMILES IDX 69 76 77 77 70 78 76 79 78 80 75 81 71 82 72 83 73 84 74 85
REMARK SMILES IDX 53 86 54 87 62 88 55 89 61 90 63 91 60 92 56 93 57 94 58 95
REMARK SMILES IDX 59 96
REMARK H PARENT 83 49 51 60
REMARK Flexibility Score: inf
ROOT
ATOM      1  C   UNL A   1      45.902  25.436  30.068  1.00  0.00     0.188 C 
ENDROOT
BRANCH   1   2
ATOM      2  O   UNL A   1      46.674  26.637  30.088  1.00  0.00    -0.377 OA
BRANCH   2   3
ATOM      3  C   UNL A   1      47.531  26.807  28.970  1.00  0.00     0.188 C 
BRANCH   3   4
ATOM      4  C   UNL A   1      46.867  27.441  27.723  1.00  0.00     0.188 C 
BRANCH   4   5
ATOM      5  O   UNL A   1      47.585  27.740  26.527  1.00  0.00    -0.376 OA
BRANCH   5   6
ATOM      6  C   UNL A   1      48.690  26.953  26.116  1.00  0.00     0.202 C 
BRANCH   6   7
ATOM      7  C   UNL A   1      48.444  25.666  25.320  1.00  0.00     0.261 C 
BRANCH   7   8
ATOM      8  O   UNL A   1      47.428  24.809  25.849  1.00  0.00    -0.460 OA
BRANCH   8   9
ATOM      9  C   UNL A   1      46.262  24.772  25.169  1.00  0.00     0.338 C 
ATOM     10  O   UNL A   1      45.684  25.709  24.628  1.00  0.00    -0.246 OA
BRANCH   9  11
ATOM     11  C   UNL A   1      45.833  23.363  25.045  1.00  0.00     0.062 A 
ATOM     12  C   UNL A   1      44.199  21.625  25.437  1.00  0.00     0.066 A 
ATOM     13  C   UNL A   1      45.079  20.668  24.920  1.00  0.00     0.028 A 
ATOM     14  C   UNL A   1      44.611  22.955  25.575  1.00  0.00     0.044 A 
ATOM     15  C   UNL A   1      46.315  21.077  24.409  1.00  0.00     0.003 A 
ATOM     16  C   UNL A   1      46.675  22.427  24.435  1.00  0.00     0.016 A 
BRANCH  12  17
ATOM     17  N   UNL A   1      42.861  21.278  25.750  1.00  0.00    -0.236 N 
ATOM     18  C   UNL A   1      39.541  22.284  26.510  1.00  0.00     0.070 C 
ATOM     19  C   UNL A   1      40.801  21.557  26.219  1.00  0.00     0.079 A 
ATOM     20  N   UNL A   1      41.969  22.212  26.162  1.00  0.00    -0.171 NA
ATOM     21  C   UNL A   1      40.974  20.173  26.005  1.00  0.00     0.085 A 
ATOM     22  C   UNL A   1      42.320  19.999  25.781  1.00  0.00     0.060 A 
ATOM     23  Cl  UNL A   1      39.778  18.973  26.090  1.00  0.00    -0.080 Cl
ATOM     24  C   UNL A   1      43.117  18.746  25.684  1.00  0.00     0.068 C 
ENDBRANCH  12  17
ENDBRANCH   9  11
ENDBRANCH   8   9
ENDBRANCH   7   8
ENDBRANCH   6   7
ENDBRANCH   5   6
ENDBRANCH   4   5
ENDBRANCH   3   4
ENDBRANCH   2   3
ENDBRANCH   1   2
BRANCH   1  25
ATOM     25  C   UNL A   1      44.500  25.498  30.721  1.00  0.00     0.188 C 
BRANCH  25  26
ATOM     26  O   UNL A   1      43.424  25.452  29.785  1.00  0.00    -0.376 OA
BRANCH  26  27
ATOM     27  C   UNL A   1      43.498  26.217  28.591  1.00  0.00     0.202 C 
BRANCH  27  28
ATOM     28  C   UNL A   1      43.383  25.399  27.309  1.00  0.00     0.261 C 
BRANCH  28  29
ATOM     29  O   UNL A   1      42.044  25.187  26.898  1.00  0.00    -0.460 OA
BRANCH  29  30
ATOM     30  C   UNL A   1      41.571  26.036  25.973  1.00  0.00     0.338 C 
ATOM     31  O   UNL A   1      41.885  26.088  24.784  1.00  0.00    -0.246 OA
BRANCH  30  32
ATOM     32  C   UNL A   1      40.671  26.976  26.629  1.00  0.00     0.060 A 
ATOM     33  C   UNL A   1      40.958  28.325  26.435  1.00  0.00     0.016 A 
ATOM     34  C   UNL A   1      39.853  26.514  27.675  1.00  0.00     0.016 A 
ATOM     35  C   UNL A   1      40.694  29.177  27.474  1.00  0.00     0.010 A 
ATOM     36  C   UNL A   1      39.610  27.361  28.720  1.00  0.00     0.010 A 
ATOM     37  C   UNL A   1      40.140  28.643  28.642  1.00  0.00    -0.014 A 
BRANCH  37  38
ATOM     38  C   UNL A   1      40.111  29.487  29.806  1.00  0.00     0.031 A 
ATOM     39  C   UNL A   1      38.877  30.272  29.899  1.00  0.00     0.074 A 
ATOM     40  C   UNL A   1      41.095  29.484  30.720  1.00  0.00     0.049 A 
ATOM     41  N   UNL A   1      38.726  31.526  29.642  1.00  0.00    -0.248 NA
ATOM     42  C   UNL A   1      37.621  29.527  30.066  1.00  0.00     0.031 C 
ATOM     43  C   UNL A   1      42.218  28.552  30.843  1.00  0.00     0.029 A 
ATOM     44  N   UNL A   1      41.226  30.280  31.812  1.00  0.00    -0.354 N 
ATOM     45  C   UNL A   1      37.386  31.778  29.888  1.00  0.00     0.074 A 
ATOM     46  C   UNL A   1      36.734  30.498  29.867  1.00  0.00     0.031 C 
ATOM     47  C   UNL A   1      42.783  28.702  32.062  1.00  0.00     0.029 A 
ATOM     48  C   UNL A   1      42.148  29.821  32.741  1.00  0.00     0.049 A 
ATOM     49  H   UNL A   1      40.712  31.110  31.933  1.00  0.00     0.167 HD
ATOM     50  C   UNL A   1      36.996  32.971  30.406  1.00  0.00     0.034 A 
ATOM     51  C   UNL A   1      42.304  30.285  34.007  1.00  0.00     0.034 A 
ATOM     52  C   UNL A   1      38.021  33.979  30.204  1.00  0.00     0.049 A 
ATOM     53  C   UNL A   1      41.753  31.665  34.032  1.00  0.00     0.074 A 
ATOM     54  C   UNL A   1      38.662  34.497  29.093  1.00  0.00     0.029 A 
ATOM     55  N   UNL A   1      38.808  34.334  31.280  1.00  0.00    -0.354 N 
ATOM     56  N   UNL A   1      42.270  32.655  33.354  1.00  0.00    -0.248 NA
ATOM     57  C   UNL A   1      40.364  31.858  34.427  1.00  0.00     0.031 C 
ATOM     58  C   UNL A   1      40.009  34.721  29.505  1.00  0.00     0.029 A 
ATOM     59  C   UNL A   1      40.114  34.387  30.856  1.00  0.00     0.049 A 
ATOM     60  H   UNL A   1      38.489  34.516  32.193  1.00  0.00     0.167 HD
ATOM     61  C   UNL A   1      41.184  33.370  32.869  1.00  0.00     0.074 A 
ATOM     62  C   UNL A   1      40.049  32.910  33.663  1.00  0.00     0.031 C 
ATOM     63  C   UNL A   1      41.260  34.050  31.686  1.00  0.00     0.034 A 
BRANCH  50  64
ATOM     64  C   UNL A   1      35.911  33.104  31.458  1.00  0.00     0.023 A 
ATOM     65  C   UNL A   1      34.844  33.959  31.140  1.00  0.00     0.031 A 
ATOM     66  C   UNL A   1      35.990  32.708  32.815  1.00  0.00     0.131 A 
ATOM     67  C   UNL A   1      34.026  34.499  32.146  1.00  0.00     0.055 A 
ATOM     68  C   UNL A   1      35.132  33.196  33.803  1.00  0.00     0.041 A 
ATOM     69  F   UNL A   1      36.936  31.897  33.297  1.00  0.00    -0.206 F 
ATOM     70  C   UNL A   1      34.168  34.131  33.480  1.00  0.00     0.022 A 
BRANCH  67  71
ATOM     71  S   UNL A   1      32.911  35.846  31.694  1.00  0.00     0.124 S 
ATOM     72  O   UNL A   1      32.867  35.707  30.242  1.00  0.00    -0.237 OA
ATOM     73  O   UNL A   1      31.697  35.479  32.416  1.00  0.00    -0.237 OA
ATOM     74  O   UNL A   1      33.601  37.034  32.189  1.00  0.00    -0.744 OA
ENDBRANCH  67  71
ENDBRANCH  50  64
BRANCH  51  75
ATOM     75  C   UNL A   1      42.563  29.464  35.218  1.00  0.00     0.023 A 
ATOM     76  C   UNL A   1      41.894  28.251  35.469  1.00  0.00     0.031 A 
ATOM     77  C   UNL A   1      43.666  29.766  36.051  1.00  0.00     0.131 A 
ATOM     78  C   UNL A   1      42.332  27.402  36.514  1.00  0.00     0.055 A 
ATOM     79  C   UNL A   1      44.087  28.931  37.085  1.00  0.00     0.041 A 
ATOM     80  F   UNL A   1      44.431  30.848  35.831  1.00  0.00    -0.206 F 
ATOM     81  C   UNL A   1      43.425  27.737  37.317  1.00  0.00     0.022 A 
BRANCH  78  82
ATOM     82  S   UNL A   1      41.532  25.788  36.782  1.00  0.00     0.124 S 
ATOM     83  O   UNL A   1      42.643  24.967  37.251  1.00  0.00    -0.237 OA
ATOM     84  O   UNL A   1      40.502  26.109  37.765  1.00  0.00    -0.237 OA
ATOM     85  O   UNL A   1      41.022  25.435  35.456  1.00  0.00    -0.744 OA
ENDBRANCH  78  82
ENDBRANCH  51  75
BRANCH  63  86
ATOM     86  C   UNL A   1      42.634  34.280  31.087  1.00  0.00     0.023 A 
ATOM     87  C   UNL A   1      43.211  33.487  30.067  1.00  0.00     0.031 A 
ATOM     88  C   UNL A   1      43.339  35.423  31.500  1.00  0.00     0.131 A 
ATOM     89  C   UNL A   1      44.457  33.845  29.515  1.00  0.00     0.055 A 
ATOM     90  C   UNL A   1      44.563  35.785  30.937  1.00  0.00     0.041 A 
ATOM     91  F   UNL A   1      42.829  36.236  32.441  1.00  0.00    -0.206 F 
ATOM     92  C   UNL A   1      45.130  34.993  29.945  1.00  0.00     0.022 A 
BRANCH  89  93
ATOM     93  S   UNL A   1      45.226  32.819  28.220  1.00  0.00     0.124 S 
ATOM     94  O   UNL A   1      45.598  31.599  28.926  1.00  0.00    -0.237 OA
ATOM     95  O   UNL A   1      44.151  32.688  27.239  1.00  0.00    -0.237 OA
ATOM     96  O   UNL A   1      46.359  33.630  27.769  1.00  0.00    -0.744 OA
ENDBRANCH  89  93
ENDBRANCH  63  86
ENDBRANCH  37  38
ENDBRANCH  30  32
ENDBRANCH  29  30
ENDBRANCH  28  29
ENDBRANCH  27  28
ENDBRANCH  26  27
ENDBRANCH  25  26
ENDBRANCH   1  25
TORSDOF 24
ENDMDL
MODEL 2
REMARK VINA RESULT:      -8.5      4.876     10.460
REMARK SMILES Cc1nn(-c2cccc(C(=O)OCCOCCOCCOCCOC(=O)c3ccc(-c4c5nc(c(-c6cc(S(=O)(=O)[O-])ccc6F)c6ccc([nH]6)c(-c6cc(S(=O)(=O)[O-])ccc6F)c6nc(c(-c7cc(S(=O)(=O)[O-])ccc7F)c7ccc4[nH]7)C=C6)C=C5)cc3)c2)c(C)c1Cl
REMARK SMILES IDX 19 1 18 2 17 3 16 4 15 5 14 6 13 7 12 8 10 9 11 10 9 11 5 12
REMARK SMILES IDX 6 13 90 14 7 15 8 16 4 17 1 18 2 19 3 20 93 21 91 22 94 23
REMARK SMILES IDX 92 24 20 25 21 26 22 27 23 28 24 29 25 30 26 31 27 32 28 33
REMARK SMILES IDX 89 34 29 35 88 36 30 37 31 38 32 39 82 40 33 41 87 42 81 43
REMARK SMILES IDX 83 44 34 45 86 46 80 47 79 48 35 50 67 51 47 52 66 53 48 54
REMARK SMILES IDX 51 55 65 56 84 57 49 58 50 59 64 61 85 62 52 63 36 64 37 65
REMARK SMILES IDX 45 66 38 67 44 68 46 69 43 70 39 71 40 72 41 73 42 74 68 75
REMARK SMILES IDX 69 76 77 77 70 78 76 79 78 80 75 81 71 82 72 83 73 84 74 85
REMARK SMILES IDX 53 86 54 87 62 88 55 89 61 90 63 91 60 92 56 93 57 94 58 95
REMARK SMILES IDX 59 96
REMARK H PARENT 83 49 51 60
REMARK Flexibility Score: inf
ROOT
ATOM      1  C   UNL A   1      36.129  33.097  30.699  1.00  0.00     0.188 C 
ENDROOT
BRANCH   1   2
ATOM      2  O   UNL A   1      35.463  33.491  29.499  1.00  0.00    -0.377 OA
BRANCH   2   3
ATOM      3  C   UNL A   1      35.846  32.762  28.344  1.00  0.00     0.188 C 
BRANCH   3   4
ATOM      4  C   UNL A   1      35.796  31.221  28.494  1.00  0.00     0.188 C 
BRANCH   4   5
ATOM      5  O   UNL A   1      34.971  30.387  27.681  1.00  0.00    -0.376 OA
BRANCH   5   6
ATOM      6  C   UNL A   1      33.626  30.733  27.401  1.00  0.00     0.202 C 
BRANCH   6   7
ATOM      7  C   UNL A   1      32.942  30.152  26.159  1.00  0.00     0.261 C 
BRANCH   7   8
ATOM      8  O   UNL A   1      31.660  29.560  26.392  1.00  0.00    -0.460 OA
BRANCH   8   9
ATOM      9  C   UNL A   1      31.658  28.251  26.726  1.00  0.00     0.338 C 
ATOM     10  O   UNL A   1      31.554  27.768  27.848  1.00  0.00    -0.246 OA
BRANCH   9  11
ATOM     11  C   UNL A   1      31.661  27.448  25.485  1.00  0.00     0.062 A 
ATOM     12  C   UNL A   1      32.578  25.656  24.147  1.00  0.00     0.066 A 
ATOM     13  C   UNL A   1      31.743  26.011  23.081  1.00  0.00     0.028 A 
ATOM     14  C   UNL A   1      32.593  26.428  25.313  1.00  0.00     0.044 A 
ATOM     15  C   UNL A   1      30.823  27.051  23.248  1.00  0.00     0.003 A 
ATOM     16  C   UNL A   1      30.753  27.742  24.461  1.00  0.00     0.016 A 
BRANCH  12  17
ATOM     17  N   UNL A   1      33.354  24.472  24.089  1.00  0.00    -0.236 N 
ATOM     18  C   UNL A   1      36.404  22.854  23.255  1.00  0.00     0.070 C 
ATOM     19  C   UNL A   1      35.040  23.225  23.704  1.00  0.00     0.079 A 
ATOM     20  N   UNL A   1      34.534  24.434  23.422  1.00  0.00    -0.171 NA
ATOM     21  C   UNL A   1      34.113  22.431  24.412  1.00  0.00     0.085 A 
ATOM     22  C   UNL A   1      33.001  23.223  24.584  1.00  0.00     0.060 A 
ATOM     23  Cl  UNL A   1      34.308  20.810  24.875  1.00  0.00    -0.080 Cl
ATOM     24  C   UNL A   1      31.647  22.869  25.087  1.00  0.00     0.068 C 
ENDBRANCH  12  17
ENDBRANCH   9  11
ENDBRANCH   8   9
ENDBRANCH   7   8
ENDBRANCH   6   7
ENDBRANCH   5   6
ENDBRANCH   4   5
ENDBRANCH   3   4
ENDBRANCH   2   3
ENDBRANCH   1   2
BRANCH   1  25
ATOM     25  C   UNL A   1      35.890  33.977  31.950  1.00  0.00     0.188 C 
BRANCH  25  26
ATOM     26  O   UNL A   1      35.817  33.239  33.169  1.00  0.00    -0.376 OA
BRANCH  26  27
ATOM     27  C   UNL A   1      36.891  33.303  34.095  1.00  0.00     0.202 C 
BRANCH  27  28
ATOM     28  C   UNL A   1      37.422  31.944  34.540  1.00  0.00     0.261 C 
BRANCH  28  29
ATOM     29  O   UNL A   1      38.282  31.341  33.590  1.00  0.00    -0.460 OA
BRANCH  29  30
ATOM     30  C   UNL A   1      37.866  30.172  33.079  1.00  0.00     0.338 C 
ATOM     31  O   UNL A   1      36.709  29.851  32.805  1.00  0.00    -0.246 OA
BRANCH  30  32
ATOM     32  C   UNL A   1      39.013  29.279  32.981  1.00  0.00     0.060 A 
ATOM     33  C   UNL A   1      40.148  29.671  33.689  1.00  0.00     0.016 A 
ATOM     34  C   UNL A   1      39.054  28.339  31.937  1.00  0.00     0.016 A 
ATOM     35  C   UNL A   1      41.364  29.369  33.138  1.00  0.00     0.010 A 
ATOM     36  C   UNL A   1      40.268  28.057  31.376  1.00  0.00     0.010 A 
ATOM     37  C   UNL A   1      41.386  28.675  31.924  1.00  0.00    -0.014 A 
BRANCH  37  38
ATOM     38  C   UNL A   1      42.643  28.594  31.230  1.00  0.00     0.031 A 
ATOM     39  C   UNL A   1      42.818  29.677  30.259  1.00  0.00     0.074 A 
ATOM     40  C   UNL A   1      43.560  27.654  31.511  1.00  0.00     0.049 A 
ATOM     41  N   UNL A   1      42.714  29.604  28.977  1.00  0.00    -0.248 NA
ATOM     42  C   UNL A   1      42.882  31.048  30.789  1.00  0.00     0.031 C 
ATOM     43  C   UNL A   1      43.580  26.713  32.633  1.00  0.00     0.029 A 
ATOM     44  N   UNL A   1      44.741  27.422  30.885  1.00  0.00    -0.354 N 
ATOM     45  C   UNL A   1      42.975  30.887  28.526  1.00  0.00     0.074 A 
ATOM     46  C   UNL A   1      42.794  31.748  29.661  1.00  0.00     0.031 C 
ATOM     47  C   UNL A   1      44.814  26.168  32.727  1.00  0.00     0.029 A 
ATOM     48  C   UNL A   1      45.617  26.621  31.603  1.00  0.00     0.049 A 
ATOM     49  H   UNL A   1      44.957  27.789  29.998  1.00  0.00     0.167 HD
ATOM     50  C   UNL A   1      43.630  31.082  27.352  1.00  0.00     0.034 A 
ATOM     51  C   UNL A   1      46.931  26.426  31.325  1.00  0.00     0.034 A 
ATOM     52  C   UNL A   1      43.561  29.894  26.521  1.00  0.00     0.049 A 
ATOM     53  C   UNL A   1      47.117  26.733  29.882  1.00  0.00     0.074 A 
ATOM     54  C   UNL A   1      42.527  29.140  25.996  1.00  0.00     0.029 A 
ATOM     55  N   UNL A   1      44.679  29.091  26.438  1.00  0.00    -0.354 N 
ATOM     56  N   UNL A   1      46.569  26.033  28.926  1.00  0.00    -0.248 NA
ATOM     57  C   UNL A   1      47.520  28.079  29.499  1.00  0.00     0.031 C 
ATOM     58  C   UNL A   1      42.976  27.787  26.060  1.00  0.00     0.029 A 
ATOM     59  C   UNL A   1      44.278  27.782  26.563  1.00  0.00     0.049 A 
ATOM     60  H   UNL A   1      45.605  29.401  26.311  1.00  0.00     0.167 HD
ATOM     61  C   UNL A   1      46.164  26.965  27.980  1.00  0.00     0.074 A 
ATOM     62  C   UNL A   1      46.885  28.186  28.326  1.00  0.00     0.031 C 
ATOM     63  C   UNL A   1      45.072  26.738  27.189  1.00  0.00     0.034 A 
BRANCH  50  64
ATOM     64  C   UNL A   1      44.679  32.160  27.157  1.00  0.00     0.023 A 
ATOM     65  C   UNL A   1      45.806  32.084  27.991  1.00  0.00     0.031 A 
ATOM     66  C   UNL A   1      44.525  33.379  26.452  1.00  0.00     0.131 A 
ATOM     67  C   UNL A   1      46.614  33.210  28.217  1.00  0.00     0.055 A 
ATOM     68  C   UNL A   1      45.371  34.475  26.630  1.00  0.00     0.041 A 
ATOM     69  F   UNL A   1      43.515  33.627  25.613  1.00  0.00    -0.206 F 
ATOM     70  C   UNL A   1      46.399  34.411  27.550  1.00  0.00     0.022 A 
BRANCH  67  71
ATOM     71  S   UNL A   1      47.822  33.124  29.558  1.00  0.00     0.124 S 
ATOM     72  O   UNL A   1      46.952  33.073  30.728  1.00  0.00    -0.237 OA
ATOM     73  O   UNL A   1      48.538  31.895  29.230  1.00  0.00    -0.237 OA
ATOM     74  O   UNL A   1      48.588  34.357  29.399  1.00  0.00    -0.744 OA
ENDBRANCH  67  71
ENDBRANCH  50  64
BRANCH  51  75
ATOM     75  C   UNL A   1      48.037  26.350  32.315  1.00  0.00     0.023 A 
ATOM     76  C   UNL A   1      48.895  25.237  32.410  1.00  0.00     0.031 A 
ATOM     77  C   UNL A   1      48.407  27.502  33.047  1.00  0.00     0.131 A 
ATOM     78  C   UNL A   1      50.060  25.305  33.210  1.00  0.00     0.055 A 
ATOM     79  C   UNL A   1      49.551  27.561  33.842  1.00  0.00     0.041 A 
ATOM     80  F   UNL A   1      47.712  28.646  32.946  1.00  0.00    -0.206 F 
ATOM     81  C   UNL A   1      50.390  26.463  33.921  1.00  0.00     0.022 A 
BRANCH  78  82
ATOM     82  S   UNL A   1      51.223  23.905  33.261  1.00  0.00     0.124 S 
ATOM     83  O   UNL A   1      50.999  23.269  31.967  1.00  0.00    -0.237 OA
ATOM     84  O   UNL A   1      52.507  24.572  33.443  1.00  0.00    -0.237 OA
ATOM     85  O   UNL A   1      50.770  23.127  34.416  1.00  0.00    -0.744 OA
ENDBRANCH  78  82
ENDBRANCH  51  75
BRANCH  63  86
ATOM     86  C   UNL A   1      44.519  25.327  27.133  1.00  0.00     0.023 A 
ATOM     87  C   UNL A   1      44.910  24.345  26.192  1.00  0.00     0.031 A 
ATOM     88  C   UNL A   1      43.634  24.935  28.151  1.00  0.00     0.131 A 
ATOM     89  C   UNL A   1      44.402  23.034  26.287  1.00  0.00     0.055 A 
ATOM     90  C   UNL A   1      43.148  23.631  28.254  1.00  0.00     0.041 A 
ATOM     91  F   UNL A   1      43.250  25.812  29.095  1.00  0.00    -0.206 F 
ATOM     92  C   UNL A   1      43.527  22.676  27.318  1.00  0.00     0.022 A 
BRANCH  89  93
ATOM     93  S   UNL A   1      44.876  21.766  25.067  1.00  0.00     0.124 S 
ATOM     94  O   UNL A   1      43.724  20.873  25.038  1.00  0.00    -0.237 OA
ATOM     95  O   UNL A   1      45.104  22.556  23.861  1.00  0.00    -0.237 OA
ATOM     96  O   UNL A   1      46.088  21.176  25.641  1.00  0.00    -0.744 OA
ENDBRANCH  89  93
ENDBRANCH  63  86
ENDBRANCH  37  38
ENDBRANCH  30  32
ENDBRANCH  29  30
ENDBRANCH  28  29
ENDBRANCH  27  28
ENDBRANCH  26  27
ENDBRANCH  25  26
ENDBRANCH   1  25
TORSDOF 24
ENDMDL
MODEL 3
REMARK VINA RESULT:      -8.4      1.982      2.211
REMARK SMILES Cc1nn(-c2cccc(C(=O)OCCOCCOCCOCCOC(=O)c3ccc(-c4c5nc(c(-c6cc(S(=O)(=O)[O-])ccc6F)c6ccc([nH]6)c(-c6cc(S(=O)(=O)[O-])ccc6F)c6nc(c(-c7cc(S(=O)(=O)[O-])ccc7F)c7ccc4[nH]7)C=C6)C=C5)cc3)c2)c(C)c1Cl
REMARK SMILES IDX 19 1 18 2 17 3 16 4 15 5 14 6 13 7 12 8 10 9 11 10 9 11 5 12
REMARK SMILES IDX 6 13 90 14 7 15 8 16 4 17 1 18 2 19 3 20 93 21 91 22 94 23
REMARK SMILES IDX 92 24 20 25 21 26 22 27 23 28 24 29 25 30 26 31 27 32 28 33
REMARK SMILES IDX 89 34 29 35 88 36 30 37 31 38 32 39 82 40 33 41 87 42 81 43
REMARK SMILES IDX 83 44 34 45 86 46 80 47 79 48 35 50 67 51 47 52 66 53 48 54
REMARK SMILES IDX 51 55 65 56 84 57 49 58 50 59 64 61 85 62 52 63 36 64 37 65
REMARK SMILES IDX 45 66 38 67 44 68 46 69 43 70 39 71 40 72 41 73 42 74 68 75
REMARK SMILES IDX 69 76 77 77 70 78 76 79 78 80 75 81 71 82 72 83 73 84 74 85
REMARK SMILES IDX 53 86 54 87 62 88 55 89 61 90 63 91 60 92 56 93 57 94 58 95
REMARK SMILES IDX 59 96
REMARK H PARENT 83 49 51 60
REMARK Flexibility Score: inf
ROOT
ATOM      1  C   UNL A   1      45.903  25.460  29.798  1.00  0.00     0.188 C 
ENDROOT
BRANCH   1   2
ATOM      2  O   UNL A   1      46.742  26.608  29.669  1.00  0.00    -0.377 OA
BRANCH   2   3
ATOM      3  C   UNL A   1      47.545  26.624  28.499  1.00  0.00     0.188 C 
BRANCH   3   4
ATOM      4  C   UNL A   1      46.895  27.298  27.265  1.00  0.00     0.188 C 
BRANCH   4   5
ATOM      5  O   UNL A   1      47.623  27.615  26.080  1.00  0.00    -0.376 OA
BRANCH   5   6
ATOM      6  C   UNL A   1      48.534  26.694  25.508  1.00  0.00     0.202 C 
BRANCH   6   7
ATOM      7  C   UNL A   1      48.039  25.702  24.449  1.00  0.00     0.261 C 
BRANCH   7   8
ATOM      8  O   UNL A   1      47.422  24.519  24.966  1.00  0.00    -0.460 OA
BRANCH   8   9
ATOM      9  C   UNL A   1      46.072  24.486  24.935  1.00  0.00     0.338 C 
ATOM     10  O   UNL A   1      45.306  25.431  24.781  1.00  0.00    -0.246 OA
BRANCH   9  11
ATOM     11  C   UNL A   1      45.634  23.074  24.978  1.00  0.00     0.062 A 
ATOM     12  C   UNL A   1      43.956  21.413  25.492  1.00  0.00     0.066 A 
ATOM     13  C   UNL A   1      44.857  20.390  25.172  1.00  0.00     0.028 A 
ATOM     14  C   UNL A   1      44.375  22.747  25.474  1.00  0.00     0.044 A 
ATOM     15  C   UNL A   1      46.130  20.722  24.695  1.00  0.00     0.003 A 
ATOM     16  C   UNL A   1      46.504  22.061  24.559  1.00  0.00     0.016 A 
BRANCH  12  17
ATOM     17  N   UNL A   1      42.597  21.116  25.758  1.00  0.00    -0.236 N 
ATOM     18  C   UNL A   1      39.275  22.243  26.314  1.00  0.00     0.070 C 
ATOM     19  C   UNL A   1      40.526  21.471  26.117  1.00  0.00     0.079 A 
ATOM     20  N   UNL A   1      41.713  22.092  26.084  1.00  0.00    -0.171 NA
ATOM     21  C   UNL A   1      40.669  20.074  25.976  1.00  0.00     0.085 A 
ATOM     22  C   UNL A   1      42.019  19.854  25.824  1.00  0.00     0.060 A 
ATOM     23  Cl  UNL A   1      39.437  18.911  26.062  1.00  0.00    -0.080 Cl
ATOM     24  C   UNL A   1      42.784  18.578  25.824  1.00  0.00     0.068 C 
ENDBRANCH  12  17
ENDBRANCH   9  11
ENDBRANCH   8   9
ENDBRANCH   7   8
ENDBRANCH   6   7
ENDBRANCH   5   6
ENDBRANCH   4   5
ENDBRANCH   3   4
ENDBRANCH   2   3
ENDBRANCH   1   2
BRANCH   1  25
ATOM     25  C   UNL A   1      44.559  25.660  30.539  1.00  0.00     0.188 C 
BRANCH  25  26
ATOM     26  O   UNL A   1      43.417  25.625  29.683  1.00  0.00    -0.376 OA
BRANCH  26  27
ATOM     27  C   UNL A   1      43.538  26.044  28.332  1.00  0.00     0.202 C 
BRANCH  27  28
ATOM     28  C   UNL A   1      42.948  25.073  27.315  1.00  0.00     0.261 C 
BRANCH  28  29
ATOM     29  O   UNL A   1      41.531  25.055  27.315  1.00  0.00    -0.460 OA
BRANCH  29  30
ATOM     30  C   UNL A   1      40.933  25.900  26.462  1.00  0.00     0.338 C 
ATOM     31  O   UNL A   1      41.055  25.931  25.237  1.00  0.00    -0.246 OA
BRANCH  30  32
ATOM     32  C   UNL A   1      40.164  26.867  27.236  1.00  0.00     0.060 A 
ATOM     33  C   UNL A   1      40.323  28.202  26.868  1.00  0.00     0.016 A 
ATOM     34  C   UNL A   1      39.645  26.477  28.483  1.00  0.00     0.016 A 
ATOM     35  C   UNL A   1      40.268  29.137  27.866  1.00  0.00     0.010 A 
ATOM     36  C   UNL A   1      39.611  27.409  29.482  1.00  0.00     0.010 A 
ATOM     37  C   UNL A   1      40.037  28.696  29.173  1.00  0.00    -0.014 A 
BRANCH  37  38
ATOM     38  C   UNL A   1      40.240  29.643  30.237  1.00  0.00     0.031 A 
ATOM     39  C   UNL A   1      39.099  30.548  30.406  1.00  0.00     0.074 A 
ATOM     40  C   UNL A   1      41.336  29.630  31.011  1.00  0.00     0.049 A 
ATOM     41  N   UNL A   1      39.018  31.781  30.041  1.00  0.00    -0.248 NA
ATOM     42  C   UNL A   1      37.821  29.945  30.811  1.00  0.00     0.031 C 
ATOM     43  C   UNL A   1      42.384  28.609  31.084  1.00  0.00     0.029 A 
ATOM     44  N   UNL A   1      41.683  30.506  31.987  1.00  0.00    -0.354 N 
ATOM     45  C   UNL A   1      37.751  32.182  30.431  1.00  0.00     0.074 A 
ATOM     46  C   UNL A   1      36.999  30.975  30.629  1.00  0.00     0.031 C 
ATOM     47  C   UNL A   1      43.123  28.817  32.197  1.00  0.00     0.029 A 
ATOM     48  C   UNL A   1      42.683  30.049  32.832  1.00  0.00     0.049 A 
ATOM     49  H   UNL A   1      41.261  31.390  32.087  1.00  0.00     0.167 HD
ATOM     50  C   UNL A   1      37.537  33.451  30.867  1.00  0.00     0.034 A 
ATOM     51  C   UNL A   1      43.051  30.611  34.011  1.00  0.00     0.034 A 
ATOM     52  C   UNL A   1      38.603  34.332  30.430  1.00  0.00     0.049 A 
ATOM     53  C   UNL A   1      42.625  32.034  33.963  1.00  0.00     0.074 A 
ATOM     54  C   UNL A   1      39.126  34.681  29.197  1.00  0.00     0.029 A 
ATOM     55  N   UNL A   1      39.558  34.707  31.351  1.00  0.00    -0.354 N 
ATOM     56  N   UNL A   1      43.124  32.902  33.124  1.00  0.00    -0.248 NA
ATOM     57  C   UNL A   1      41.325  32.395  34.513  1.00  0.00     0.031 C 
ATOM     58  C   UNL A   1      40.531  34.811  29.405  1.00  0.00     0.029 A 
ATOM     59  C   UNL A   1      40.794  34.595  30.759  1.00  0.00     0.049 A 
ATOM     60  H   UNL A   1      39.386  35.003  32.274  1.00  0.00     0.167 HD
ATOM     61  C   UNL A   1      42.044  33.671  32.712  1.00  0.00     0.074 A 
ATOM     62  C   UNL A   1      40.996  33.397  33.690  1.00  0.00     0.031 C 
ATOM     63  C   UNL A   1      42.011  34.228  31.464  1.00  0.00     0.034 A 
BRANCH  50  64
ATOM     64  C   UNL A   1      36.622  33.784  32.031  1.00  0.00     0.023 A 
ATOM     65  C   UNL A   1      37.208  33.748  33.307  1.00  0.00     0.031 A 
ATOM     66  C   UNL A   1      35.207  33.837  32.012  1.00  0.00     0.131 A 
ATOM     67  C   UNL A   1      36.418  33.609  34.459  1.00  0.00     0.055 A 
ATOM     68  C   UNL A   1      34.425  33.766  33.167  1.00  0.00     0.041 A 
ATOM     69  F   UNL A   1      34.482  33.880  30.890  1.00  0.00    -0.206 F 
ATOM     70  C   UNL A   1      35.029  33.608  34.399  1.00  0.00     0.022 A 
BRANCH  67  71
ATOM     71  S   UNL A   1      37.256  33.224  36.013  1.00  0.00     0.124 S 
ATOM     72  O   UNL A   1      37.602  31.820  35.813  1.00  0.00    -0.237 OA
ATOM     73  O   UNL A   1      38.365  34.173  35.993  1.00  0.00    -0.237 OA
ATOM     74  O   UNL A   1      36.230  33.480  37.020  1.00  0.00    -0.744 OA
ENDBRANCH  67  71
ENDBRANCH  50  64
BRANCH  51  75
ATOM     75  C   UNL A   1      43.406  29.885  35.258  1.00  0.00     0.023 A 
ATOM     76  C   UNL A   1      42.833  28.646  35.604  1.00  0.00     0.031 A 
ATOM     77  C   UNL A   1      44.512  30.311  36.030  1.00  0.00     0.131 A 
ATOM     78  C   UNL A   1      43.363  27.894  36.680  1.00  0.00     0.055 A 
ATOM     79  C   UNL A   1      45.024  29.571  37.096  1.00  0.00     0.041 A 
ATOM     80  F   UNL A   1      45.191  31.427  35.721  1.00  0.00    -0.206 F 
ATOM     81  C   UNL A   1      44.456  28.352  37.421  1.00  0.00     0.022 A 
BRANCH  78  82
ATOM     82  S   UNL A   1      42.687  26.249  37.071  1.00  0.00     0.124 S 
ATOM     83  O   UNL A   1      43.662  25.733  38.025  1.00  0.00    -0.237 OA
ATOM     84  O   UNL A   1      41.367  26.572  37.602  1.00  0.00    -0.237 OA
ATOM     85  O   UNL A   1      42.674  25.568  35.775  1.00  0.00    -0.744 OA
ENDBRANCH  78  82
ENDBRANCH  51  75
BRANCH  63  86
ATOM     86  C   UNL A   1      43.304  34.269  30.671  1.00  0.00     0.023 A 
ATOM     87  C   UNL A   1      44.311  35.250  30.824  1.00  0.00     0.031 A 
ATOM     88  C   UNL A   1      43.565  33.198  29.800  1.00  0.00     0.131 A 
ATOM     89  C   UNL A   1      45.517  35.142  30.103  1.00  0.00     0.055 A 
ATOM     90  C   UNL A   1      44.768  33.083  29.103  1.00  0.00     0.041 A 
ATOM     91  F   UNL A   1      42.662  32.216  29.637  1.00  0.00    -0.206 F 
ATOM     92  C   UNL A   1      45.747  34.059  29.248  1.00  0.00     0.022 A 
BRANCH  89  93
ATOM     93  S   UNL A   1      46.814  36.412  30.269  1.00  0.00     0.124 S 
ATOM     94  O   UNL A   1      46.225  37.384  31.181  1.00  0.00    -0.237 OA
ATOM     95  O   UNL A   1      47.943  35.646  30.791  1.00  0.00    -0.237 OA
ATOM     96  O   UNL A   1      46.994  36.896  28.898  1.00  0.00    -0.744 OA
ENDBRANCH  89  93
ENDBRANCH  63  86
ENDBRANCH  37  38
ENDBRANCH  30  32
ENDBRANCH  29  30
ENDBRANCH  28  29
ENDBRANCH  27  28
ENDBRANCH  26  27
ENDBRANCH  25  26
ENDBRANCH   1  25
TORSDOF 24
ENDMDL
