MODEL 1
REMARK VINA RESULT:     -10.9      0.000      0.000
REMARK SMILES Cc1ccnc(C(=O)c2[nH]c3cc(Cl)c(F)cc3c2CC(=O)OCCOCCOCCOCCOC(=O)c2ccc(-c3c4nc(c(-c5cc(S(=O)(=O)[O-])ccc5F)c5ccc([nH]5)c(-c5cc(S(=O)(=O)[O-])ccc5F)c5nc(c(-c6cc(S(=O)(=O)[O-])ccc6F)c6ccc3[nH]6)C=C5)C=C4)cc2)c1
REMARK SMILES IDX 29 1 28 2 27 3 26 4 25 5 24 6 23 7 21 8 22 9 20 10 19 11
REMARK SMILES IDX 9 12 10 13 11 14 18 16 12 17 17 18 13 19 15 20 14 21 16 22
REMARK SMILES IDX 7 23 8 24 6 25 1 26 2 27 3 28 101 29 4 30 5 31 30 32 31 33
REMARK SMILES IDX 32 34 33 35 34 36 35 37 36 38 37 39 38 40 39 41 100 42 40 43
REMARK SMILES IDX 99 44 41 45 42 46 43 47 93 48 44 49 98 50 92 51 94 52 45 53
REMARK SMILES IDX 97 54 91 55 90 56 46 58 78 59 58 60 77 61 59 62 62 63 76 64
REMARK SMILES IDX 95 65 60 66 61 67 75 69 96 70 63 71 47 72 48 73 56 74 49 75
REMARK SMILES IDX 55 76 57 77 54 78 50 79 51 80 52 81 53 82 79 83 80 84 88 85
REMARK SMILES IDX 81 86 87 87 89 88 86 89 82 90 83 91 84 92 85 93 64 94 65 95
REMARK SMILES IDX 73 96 66 97 72 98 74 99 71 100 67 101 68 102 69 103 70 104
REMARK H PARENT 10 15 94 57 62 68
REMARK Flexibility Score: inf
ROOT
ATOM      1  O   UNL A   1      33.499  32.365  27.961  1.00  0.00    -0.377 OA
ENDROOT
BRANCH   1   2
ATOM      2  C   UNL A   1      34.135  31.139  27.633  1.00  0.00     0.188 C 
BRANCH   2   3
ATOM      3  C   UNL A   1      33.112  30.114  27.132  1.00  0.00     0.188 C 
BRANCH   3   4
ATOM      4  O   UNL A   1      33.512  28.794  27.389  1.00  0.00    -0.376 OA
BRANCH   4   5
ATOM      5  C   UNL A   1      33.227  27.945  26.288  1.00  0.00     0.202 C 
BRANCH   5   6
ATOM      6  C   UNL A   1      31.844  27.272  26.432  1.00  0.00     0.261 C 
BRANCH   6   7
ATOM      7  O   UNL A   1      31.885  25.822  26.181  1.00  0.00    -0.463 OA
BRANCH   7   8
ATOM      8  C   UNL A   1      30.706  25.200  25.928  1.00  0.00     0.310 C 
ATOM      9  O   UNL A   1      29.950  24.829  26.822  1.00  0.00    -0.252 OA
BRANCH   8  10
ATOM     10  C   UNL A   1      30.292  25.099  24.440  1.00  0.00     0.161 C 
BRANCH  10  11
ATOM     11  C   UNL A   1      30.674  26.161  23.399  1.00  0.00     0.000 A 
ATOM     12  C   UNL A   1      31.893  26.421  22.686  1.00  0.00     0.093 A 
ATOM     13  N   UNL A   1      31.720  27.704  22.167  1.00  0.00    -0.351 N 
ATOM     14  C   UNL A   1      30.464  28.215  22.384  1.00  0.00     0.048 A 
ATOM     15  H   UNL A   1      32.429  28.195  21.692  1.00  0.00     0.167 HD
ATOM     16  C   UNL A   1      29.767  27.270  23.126  1.00  0.00     0.007 A 
ATOM     17  C   UNL A   1      29.908  29.455  22.011  1.00  0.00     0.050 A 
ATOM     18  C   UNL A   1      28.435  27.573  23.504  1.00  0.00     0.051 A 
ATOM     19  C   UNL A   1      28.588  29.723  22.392  1.00  0.00     0.078 A 
ATOM     20  C   UNL A   1      27.863  28.792  23.123  1.00  0.00     0.142 A 
ATOM     21  Cl  UNL A   1      27.880  31.236  21.954  1.00  0.00    -0.081 Cl
ATOM     22  F   UNL A   1      26.601  29.056  23.497  1.00  0.00    -0.205 F 
BRANCH  12  23
ATOM     23  C   UNL A   1      33.293  25.864  22.627  1.00  0.00     0.227 C 
ATOM     24  O   UNL A   1      34.030  26.300  21.739  1.00  0.00    -0.285 OA
BRANCH  23  25
ATOM     25  C   UNL A   1      33.850  24.648  23.418  1.00  0.00     0.113 A 
ATOM     26  C   UNL A   1      36.779  23.707  25.681  1.00  0.00     0.044 C 
ATOM     27  C   UNL A   1      35.473  23.610  24.929  1.00  0.00    -0.047 A 
ATOM     28  C   UNL A   1      34.999  22.364  24.586  1.00  0.00     0.023 A 
ATOM     29  C   UNL A   1      34.776  24.742  24.433  1.00  0.00     0.036 A 
ATOM     30  C   UNL A   1      33.936  22.326  23.705  1.00  0.00     0.112 A 
ATOM     31  N   UNL A   1      33.387  23.415  23.081  1.00  0.00    -0.253 NA
ENDBRANCH  23  25
ENDBRANCH  12  23
ENDBRANCH  10  11
ENDBRANCH   8  10
ENDBRANCH   7   8
ENDBRANCH   6   7
ENDBRANCH   5   6
ENDBRANCH   4   5
ENDBRANCH   3   4
ENDBRANCH   2   3
ENDBRANCH   1   2
BRANCH   1  32
ATOM     32  C   UNL A   1      34.407  33.437  28.196  1.00  0.00     0.188 C 
BRANCH  32  33
ATOM     33  C   UNL A   1      33.650  34.546  28.932  1.00  0.00     0.188 C 
BRANCH  33  34
ATOM     34  O   UNL A   1      33.469  34.338  30.331  1.00  0.00    -0.376 OA
BRANCH  34  35
ATOM     35  C   UNL A   1      34.303  35.120  31.179  1.00  0.00     0.202 C 
BRANCH  35  36
ATOM     36  C   UNL A   1      35.313  34.344  32.049  1.00  0.00     0.261 C 
BRANCH  36  37
ATOM     37  O   UNL A   1      36.213  33.534  31.253  1.00  0.00    -0.460 OA
BRANCH  37  38
ATOM     38  C   UNL A   1      36.016  32.164  31.353  1.00  0.00     0.338 C 
ATOM     39  O   UNL A   1      34.978  31.619  31.527  1.00  0.00    -0.246 OA
BRANCH  38  40
ATOM     40  C   UNL A   1      37.265  31.492  30.827  1.00  0.00     0.060 A 
ATOM     41  C   UNL A   1      37.212  30.252  30.196  1.00  0.00     0.016 A 
ATOM     42  C   UNL A   1      38.502  31.972  31.309  1.00  0.00     0.016 A 
ATOM     43  C   UNL A   1      38.366  29.458  30.156  1.00  0.00     0.010 A 
ATOM     44  C   UNL A   1      39.656  31.167  31.268  1.00  0.00     0.010 A 
ATOM     45  C   UNL A   1      39.592  29.884  30.721  1.00  0.00    -0.014 A 
BRANCH  45  46
ATOM     46  C   UNL A   1      40.793  29.073  30.400  1.00  0.00     0.031 A 
ATOM     47  C   UNL A   1      41.455  28.602  31.643  1.00  0.00     0.074 A 
ATOM     48  C   UNL A   1      41.292  28.597  29.236  1.00  0.00     0.049 A 
ATOM     49  N   UNL A   1      42.624  28.925  32.086  1.00  0.00    -0.248 NA
ATOM     50  C   UNL A   1      40.626  27.834  32.582  1.00  0.00     0.031 C 
ATOM     51  C   UNL A   1      40.692  28.665  27.913  1.00  0.00     0.029 A 
ATOM     52  N   UNL A   1      42.431  27.854  29.010  1.00  0.00    -0.354 N 
ATOM     53  C   UNL A   1      42.750  28.260  33.297  1.00  0.00     0.074 A 
ATOM     54  C   UNL A   1      41.437  27.769  33.635  1.00  0.00     0.031 C 
ATOM     55  C   UNL A   1      41.337  27.828  27.069  1.00  0.00     0.029 A 
ATOM     56  C   UNL A   1      42.476  27.243  27.759  1.00  0.00     0.049 A 
ATOM     57  H   UNL A   1      43.152  27.763  29.675  1.00  0.00     0.167 HD
ATOM     58  C   UNL A   1      43.961  27.979  33.849  1.00  0.00     0.034 A 
ATOM     59  C   UNL A   1      43.329  26.282  27.314  1.00  0.00     0.034 A 
ATOM     60  C   UNL A   1      45.017  28.751  33.259  1.00  0.00     0.049 A 
ATOM     61  C   UNL A   1      44.547  26.287  28.155  1.00  0.00     0.074 A 
ATOM     62  C   UNL A   1      45.295  30.099  33.162  1.00  0.00     0.029 A 
ATOM     63  N   UNL A   1      45.839  28.129  32.352  1.00  0.00    -0.354 N 
ATOM     64  N   UNL A   1      45.467  27.208  28.123  1.00  0.00    -0.248 NA
ATOM     65  C   UNL A   1      44.557  25.440  29.335  1.00  0.00     0.031 C 
ATOM     66  C   UNL A   1      45.931  30.259  31.902  1.00  0.00     0.029 A 
ATOM     67  C   UNL A   1      46.052  28.998  31.315  1.00  0.00     0.049 A 
ATOM     68  H   UNL A   1      46.209  27.221  32.433  1.00  0.00     0.167 HD
ATOM     69  C   UNL A   1      45.824  27.381  29.451  1.00  0.00     0.074 A 
ATOM     70  C   UNL A   1      45.329  26.185  30.127  1.00  0.00     0.031 C 
ATOM     71  C   UNL A   1      46.233  28.594  29.931  1.00  0.00     0.034 A 
BRANCH  58  72
ATOM     72  C   UNL A   1      44.198  26.769  34.709  1.00  0.00     0.023 A 
ATOM     73  C   UNL A   1      44.392  26.863  36.099  1.00  0.00     0.031 A 
ATOM     74  C   UNL A   1      44.036  25.470  34.197  1.00  0.00     0.131 A 
ATOM     75  C   UNL A   1      44.491  25.731  36.911  1.00  0.00     0.055 A 
ATOM     76  C   UNL A   1      44.049  24.337  35.019  1.00  0.00     0.041 A 
ATOM     77  F   UNL A   1      43.806  25.268  32.889  1.00  0.00    -0.206 F 
ATOM     78  C   UNL A   1      44.290  24.462  36.384  1.00  0.00     0.022 A 
BRANCH  75  79
ATOM     79  S   UNL A   1      44.902  25.912  38.667  1.00  0.00     0.124 S 
ATOM     80  O   UNL A   1      46.174  26.622  38.604  1.00  0.00    -0.237 OA
ATOM     81  O   UNL A   1      43.764  26.685  39.159  1.00  0.00    -0.237 OA
ATOM     82  O   UNL A   1      44.961  24.534  39.147  1.00  0.00    -0.744 OA
ENDBRANCH  75  79
ENDBRANCH  58  72
BRANCH  59  83
ATOM     83  C   UNL A   1      42.987  25.114  26.459  1.00  0.00     0.023 A 
ATOM     84  C   UNL A   1      42.122  24.122  26.962  1.00  0.00     0.031 A 
ATOM     85  C   UNL A   1      43.708  24.798  25.292  1.00  0.00     0.131 A 
ATOM     86  C   UNL A   1      42.025  22.868  26.342  1.00  0.00     0.055 A 
ATOM     87  C   UNL A   1      43.595  23.550  24.660  1.00  0.00     0.041 A 
ATOM     88  F   UNL A   1      44.580  25.674  24.772  1.00  0.00    -0.206 F 
ATOM     89  C   UNL A   1      42.759  22.572  25.192  1.00  0.00     0.022 A 
BRANCH  86  90
ATOM     90  S   UNL A   1      40.984  21.570  27.066  1.00  0.00     0.124 S 
ATOM     91  O   UNL A   1      39.877  21.488  26.115  1.00  0.00    -0.237 OA
ATOM     92  O   UNL A   1      41.893  20.429  27.071  1.00  0.00    -0.237 OA
ATOM     93  O   UNL A   1      40.631  22.110  28.375  1.00  0.00    -0.744 OA
ENDBRANCH  86  90
ENDBRANCH  59  83
BRANCH  71  94
ATOM     94  C   UNL A   1      46.659  29.687  28.969  1.00  0.00     0.023 A 
ATOM     95  C   UNL A   1      45.632  30.492  28.428  1.00  0.00     0.031 A 
ATOM     96  C   UNL A   1      47.946  29.853  28.432  1.00  0.00     0.131 A 
ATOM     97  C   UNL A   1      45.884  31.350  27.352  1.00  0.00     0.055 A 
ATOM     98  C   UNL A   1      48.210  30.812  27.448  1.00  0.00     0.041 A 
ATOM     99  F   UNL A   1      48.969  29.051  28.763  1.00  0.00    -0.206 F 
ATOM    100  C   UNL A   1      47.176  31.537  26.871  1.00  0.00     0.022 A 
BRANCH  97 101
ATOM    101  S   UNL A   1      44.523  32.169  26.488  1.00  0.00     0.124 S 
ATOM    102  O   UNL A   1      44.096  33.177  27.455  1.00  0.00    -0.237 OA
ATOM    103  O   UNL A   1      45.192  32.690  25.298  1.00  0.00    -0.237 OA
ATOM    104  O   UNL A   1      43.563  31.097  26.246  1.00  0.00    -0.744 OA
ENDBRANCH  97 101
ENDBRANCH  71  94
ENDBRANCH  45  46
ENDBRANCH  38  40
ENDBRANCH  37  38
ENDBRANCH  36  37
ENDBRANCH  35  36
ENDBRANCH  34  35
ENDBRANCH  33  34
ENDBRANCH  32  33
ENDBRANCH   1  32
TORSDOF 26
ENDMDL
MODEL 2
REMARK VINA RESULT:     -10.1      3.438      9.280
REMARK SMILES Cc1ccnc(C(=O)c2[nH]c3cc(Cl)c(F)cc3c2CC(=O)OCCOCCOCCOCCOC(=O)c2ccc(-c3c4nc(c(-c5cc(S(=O)(=O)[O-])ccc5F)c5ccc([nH]5)c(-c5cc(S(=O)(=O)[O-])ccc5F)c5nc(c(-c6cc(S(=O)(=O)[O-])ccc6F)c6ccc3[nH]6)C=C5)C=C4)cc2)c1
REMARK SMILES IDX 29 1 28 2 27 3 26 4 25 5 24 6 23 7 21 8 22 9 20 10 19 11
REMARK SMILES IDX 9 12 10 13 11 14 18 16 12 17 17 18 13 19 15 20 14 21 16 22
REMARK SMILES IDX 7 23 8 24 6 25 1 26 2 27 3 28 101 29 4 30 5 31 30 32 31 33
REMARK SMILES IDX 32 34 33 35 34 36 35 37 36 38 37 39 38 40 39 41 100 42 40 43
REMARK SMILES IDX 99 44 41 45 42 46 43 47 93 48 44 49 98 50 92 51 94 52 45 53
REMARK SMILES IDX 97 54 91 55 90 56 46 58 78 59 58 60 77 61 59 62 62 63 76 64
REMARK SMILES IDX 95 65 60 66 61 67 75 69 96 70 63 71 47 72 48 73 56 74 49 75
REMARK SMILES IDX 55 76 57 77 54 78 50 79 51 80 52 81 53 82 79 83 80 84 88 85
REMARK SMILES IDX 81 86 87 87 89 88 86 89 82 90 83 91 84 92 85 93 64 94 65 95
REMARK SMILES IDX 73 96 66 97 72 98 74 99 71 100 67 101 68 102 69 103 70 104
REMARK H PARENT 10 15 94 57 62 68
REMARK Flexibility Score: inf
ROOT
ATOM      1  O   UNL A   1      35.360  25.107  25.176  1.00  0.00    -0.377 OA
ENDROOT
BRANCH   1   2
ATOM      2  C   UNL A   1      34.021  25.557  25.041  1.00  0.00     0.188 C 
BRANCH   2   3
ATOM      3  C   UNL A   1      33.951  27.086  25.129  1.00  0.00     0.188 C 
BRANCH   3   4
ATOM      4  O   UNL A   1      32.634  27.551  25.256  1.00  0.00    -0.376 OA
BRANCH   4   5
ATOM      5  C   UNL A   1      32.089  27.219  26.523  1.00  0.00     0.202 C 
BRANCH   5   6
ATOM      6  C   UNL A   1      31.302  25.890  26.473  1.00  0.00     0.261 C 
BRANCH   6   7
ATOM      7  O   UNL A   1      31.797  24.896  27.440  1.00  0.00    -0.463 OA
BRANCH   7   8
ATOM      8  C   UNL A   1      31.847  23.603  27.035  1.00  0.00     0.310 C 
ATOM      9  O   UNL A   1      32.305  22.707  27.740  1.00  0.00    -0.252 OA
BRANCH   8  10
ATOM     10  C   UNL A   1      31.168  23.284  25.681  1.00  0.00     0.161 C 
BRANCH  10  11
ATOM     11  C   UNL A   1      31.921  22.646  24.505  1.00  0.00     0.000 A 
ATOM     12  C   UNL A   1      32.283  23.141  23.207  1.00  0.00     0.093 A 
ATOM     13  N   UNL A   1      32.630  21.997  22.488  1.00  0.00    -0.351 N 
ATOM     14  C   UNL A   1      32.638  20.855  23.251  1.00  0.00     0.048 A 
ATOM     15  H   UNL A   1      32.848  22.007  21.528  1.00  0.00     0.167 HD
ATOM     16  C   UNL A   1      32.228  21.220  24.527  1.00  0.00     0.007 A 
ATOM     17  C   UNL A   1      32.940  19.525  22.897  1.00  0.00     0.050 A 
ATOM     18  C   UNL A   1      32.130  20.203  25.510  1.00  0.00     0.051 A 
ATOM     19  C   UNL A   1      32.841  18.543  23.890  1.00  0.00     0.078 A 
ATOM     20  C   UNL A   1      32.447  18.881  25.178  1.00  0.00     0.142 A 
ATOM     21  Cl  UNL A   1      33.200  16.904  23.487  1.00  0.00    -0.081 Cl
ATOM     22  F   UNL A   1      32.341  17.936  26.125  1.00  0.00    -0.205 F 
BRANCH  12  23
ATOM     23  C   UNL A   1      32.097  24.401  22.400  1.00  0.00     0.227 C 
ATOM     24  O   UNL A   1      32.966  24.662  21.565  1.00  0.00    -0.285 OA
BRANCH  23  25
ATOM     25  C   UNL A   1      31.051  25.523  22.646  1.00  0.00     0.113 A 
ATOM     26  C   UNL A   1      30.711  29.321  22.431  1.00  0.00     0.044 C 
ATOM     27  C   UNL A   1      30.344  27.867  22.611  1.00  0.00    -0.047 A 
ATOM     28  C   UNL A   1      29.252  27.552  23.387  1.00  0.00     0.023 A 
ATOM     29  C   UNL A   1      31.148  26.799  22.137  1.00  0.00     0.036 A 
ATOM     30  C   UNL A   1      29.089  26.221  23.718  1.00  0.00     0.112 A 
ATOM     31  N   UNL A   1      29.973  25.218  23.416  1.00  0.00    -0.253 NA
ENDBRANCH  23  25
ENDBRANCH  12  23
ENDBRANCH  10  11
ENDBRANCH   8  10
ENDBRANCH   7   8
ENDBRANCH   6   7
ENDBRANCH   5   6
ENDBRANCH   4   5
ENDBRANCH   3   4
ENDBRANCH   2   3
ENDBRANCH   1   2
BRANCH   1  32
ATOM     32  C   UNL A   1      35.474  23.705  25.404  1.00  0.00     0.188 C 
BRANCH  32  33
ATOM     33  C   UNL A   1      35.782  23.031  24.065  1.00  0.00     0.188 C 
BRANCH  33  34
ATOM     34  O   UNL A   1      36.225  21.678  24.148  1.00  0.00    -0.376 OA
BRANCH  34  35
ATOM     35  C   UNL A   1      36.877  21.321  25.362  1.00  0.00     0.202 C 
BRANCH  35  36
ATOM     36  C   UNL A   1      38.411  21.480  25.387  1.00  0.00     0.261 C 
BRANCH  36  37
ATOM     37  O   UNL A   1      38.853  22.350  26.459  1.00  0.00    -0.460 OA
BRANCH  37  38
ATOM     38  C   UNL A   1      40.219  22.596  26.491  1.00  0.00     0.338 C 
ATOM     39  O   UNL A   1      41.054  21.970  25.932  1.00  0.00    -0.246 OA
BRANCH  38  40
ATOM     40  C   UNL A   1      40.409  23.996  27.033  1.00  0.00     0.060 A 
ATOM     41  C   UNL A   1      41.495  24.322  27.840  1.00  0.00     0.016 A 
ATOM     42  C   UNL A   1      39.287  24.853  27.002  1.00  0.00     0.016 A 
ATOM     43  C   UNL A   1      41.404  25.430  28.692  1.00  0.00     0.010 A 
ATOM     44  C   UNL A   1      39.200  25.963  27.864  1.00  0.00     0.010 A 
ATOM     45  C   UNL A   1      40.246  26.244  28.745  1.00  0.00    -0.014 A 
BRANCH  45  46
ATOM     46  C   UNL A   1      40.362  27.521  29.493  1.00  0.00     0.031 A 
ATOM     47  C   UNL A   1      41.389  28.398  28.877  1.00  0.00     0.074 A 
ATOM     48  C   UNL A   1      39.642  28.057  30.505  1.00  0.00     0.049 A 
ATOM     49  N   UNL A   1      42.512  28.780  29.389  1.00  0.00    -0.248 NA
ATOM     50  C   UNL A   1      41.215  28.721  27.454  1.00  0.00     0.031 C 
ATOM     51  C   UNL A   1      38.418  27.544  31.100  1.00  0.00     0.029 A 
ATOM     52  N   UNL A   1      39.817  29.254  31.167  1.00  0.00    -0.354 N 
ATOM     53  C   UNL A   1      43.122  29.541  28.401  1.00  0.00     0.074 A 
ATOM     54  C   UNL A   1      42.377  29.311  27.188  1.00  0.00     0.031 C 
ATOM     55  C   UNL A   1      37.842  28.497  31.868  1.00  0.00     0.029 A 
ATOM     56  C   UNL A   1      38.715  29.659  31.916  1.00  0.00     0.049 A 
ATOM     57  H   UNL A   1      40.650  29.777  31.115  1.00  0.00     0.167 HD
ATOM     58  C   UNL A   1      44.076  30.467  28.684  1.00  0.00     0.034 A 
ATOM     59  C   UNL A   1      38.479  30.869  32.491  1.00  0.00     0.034 A 
ATOM     60  C   UNL A   1      44.623  30.297  30.000  1.00  0.00     0.049 A 
ATOM     61  C   UNL A   1      39.762  31.589  32.654  1.00  0.00     0.074 A 
ATOM     62  C   UNL A   1      45.313  29.289  30.640  1.00  0.00     0.029 A 
ATOM     63  N   UNL A   1      44.201  31.153  30.987  1.00  0.00    -0.354 N 
ATOM     64  N   UNL A   1      40.679  31.282  33.526  1.00  0.00    -0.248 NA
ATOM     65  C   UNL A   1      40.202  32.439  31.562  1.00  0.00     0.031 C 
ATOM     66  C   UNL A   1      44.887  29.347  31.994  1.00  0.00     0.029 A 
ATOM     67  C   UNL A   1      43.997  30.415  32.123  1.00  0.00     0.049 A 
ATOM     68  H   UNL A   1      44.069  32.124  30.895  1.00  0.00     0.167 HD
ATOM     69  C   UNL A   1      41.872  31.464  32.846  1.00  0.00     0.074 A 
ATOM     70  C   UNL A   1      41.521  32.295  31.697  1.00  0.00     0.031 C 
ATOM     71  C   UNL A   1      42.974  30.701  33.114  1.00  0.00     0.034 A 
BRANCH  58  72
ATOM     72  C   UNL A   1      44.268  31.710  27.860  1.00  0.00     0.023 A 
ATOM     73  C   UNL A   1      43.667  32.936  28.199  1.00  0.00     0.031 A 
ATOM     74  C   UNL A   1      45.219  31.756  26.825  1.00  0.00     0.131 A 
ATOM     75  C   UNL A   1      43.944  34.114  27.502  1.00  0.00     0.055 A 
ATOM     76  C   UNL A   1      45.562  32.950  26.181  1.00  0.00     0.041 A 
ATOM     77  F   UNL A   1      45.880  30.650  26.448  1.00  0.00    -0.206 F 
ATOM     78  C   UNL A   1      44.915  34.137  26.508  1.00  0.00     0.022 A 
BRANCH  75  79
ATOM     79  S   UNL A   1      43.019  35.626  27.880  1.00  0.00     0.124 S 
ATOM     80  O   UNL A   1      42.370  35.272  29.136  1.00  0.00    -0.237 OA
ATOM     81  O   UNL A   1      44.092  36.614  27.972  1.00  0.00    -0.237 OA
ATOM     82  O   UNL A   1      42.138  35.784  26.727  1.00  0.00    -0.744 OA
ENDBRANCH  75  79
ENDBRANCH  58  72
BRANCH  59  83
ATOM     83  C   UNL A   1      37.178  31.589  32.548  1.00  0.00     0.023 A 
ATOM     84  C   UNL A   1      36.549  31.971  31.346  1.00  0.00     0.031 A 
ATOM     85  C   UNL A   1      36.689  32.166  33.735  1.00  0.00     0.131 A 
ATOM     86  C   UNL A   1      35.511  32.914  31.344  1.00  0.00     0.055 A 
ATOM     87  C   UNL A   1      35.636  33.095  33.734  1.00  0.00     0.041 A 
ATOM     88  F   UNL A   1      37.258  31.884  34.916  1.00  0.00    -0.206 F 
ATOM     89  C   UNL A   1      35.050  33.483  32.533  1.00  0.00     0.022 A 
BRANCH  86  90
ATOM     90  S   UNL A   1      34.785  33.468  29.777  1.00  0.00     0.124 S 
ATOM     91  O   UNL A   1      33.768  34.420  30.220  1.00  0.00    -0.237 OA
ATOM     92  O   UNL A   1      35.940  34.052  29.104  1.00  0.00    -0.237 OA
ATOM     93  O   UNL A   1      34.262  32.237  29.192  1.00  0.00    -0.744 OA
ENDBRANCH  86  90
ENDBRANCH  59  83
BRANCH  71  94
ATOM     94  C   UNL A   1      43.044  29.891  34.395  1.00  0.00     0.023 A 
ATOM     95  C   UNL A   1      43.907  30.372  35.403  1.00  0.00     0.031 A 
ATOM     96  C   UNL A   1      42.477  28.622  34.596  1.00  0.00     0.131 A 
ATOM     97  C   UNL A   1      44.235  29.577  36.507  1.00  0.00     0.055 A 
ATOM     98  C   UNL A   1      42.709  27.895  35.768  1.00  0.00     0.041 A 
ATOM     99  F   UNL A   1      41.758  28.001  33.649  1.00  0.00    -0.206 F 
ATOM    100  C   UNL A   1      43.621  28.346  36.712  1.00  0.00     0.022 A 
BRANCH  97 101
ATOM    101  S   UNL A   1      45.543  30.081  37.650  1.00  0.00     0.124 S 
ATOM    102  O   UNL A   1      44.897  29.936  38.952  1.00  0.00    -0.237 OA
ATOM    103  O   UNL A   1      46.589  29.103  37.361  1.00  0.00    -0.237 OA
ATOM    104  O   UNL A   1      45.845  31.454  37.257  1.00  0.00    -0.744 OA
ENDBRANCH  97 101
ENDBRANCH  71  94
ENDBRANCH  45  46
ENDBRANCH  38  40
ENDBRANCH  37  38
ENDBRANCH  36  37
ENDBRANCH  35  36
ENDBRANCH  34  35
ENDBRANCH  33  34
ENDBRANCH  32  33
ENDBRANCH   1  32
TORSDOF 26
ENDMDL
MODEL 3
REMARK VINA RESULT:      -9.9      3.684      5.939
REMARK SMILES Cc1ccnc(C(=O)c2[nH]c3cc(Cl)c(F)cc3c2CC(=O)OCCOCCOCCOCCOC(=O)c2ccc(-c3c4nc(c(-c5cc(S(=O)(=O)[O-])ccc5F)c5ccc([nH]5)c(-c5cc(S(=O)(=O)[O-])ccc5F)c5nc(c(-c6cc(S(=O)(=O)[O-])ccc6F)c6ccc3[nH]6)C=C5)C=C4)cc2)c1
REMARK SMILES IDX 29 1 28 2 27 3 26 4 25 5 24 6 23 7 21 8 22 9 20 10 19 11
REMARK SMILES IDX 9 12 10 13 11 14 18 16 12 17 17 18 13 19 15 20 14 21 16 22
REMARK SMILES IDX 7 23 8 24 6 25 1 26 2 27 3 28 101 29 4 30 5 31 30 32 31 33
REMARK SMILES IDX 32 34 33 35 34 36 35 37 36 38 37 39 38 40 39 41 100 42 40 43
REMARK SMILES IDX 99 44 41 45 42 46 43 47 93 48 44 49 98 50 92 51 94 52 45 53
REMARK SMILES IDX 97 54 91 55 90 56 46 58 78 59 58 60 77 61 59 62 62 63 76 64
REMARK SMILES IDX 95 65 60 66 61 67 75 69 96 70 63 71 47 72 48 73 56 74 49 75
REMARK SMILES IDX 55 76 57 77 54 78 50 79 51 80 52 81 53 82 79 83 80 84 88 85
REMARK SMILES IDX 81 86 87 87 89 88 86 89 82 90 83 91 84 92 85 93 64 94 65 95
REMARK SMILES IDX 73 96 66 97 72 98 74 99 71 100 67 101 68 102 69 103 70 104
REMARK H PARENT 10 15 94 57 62 68
REMARK Flexibility Score: inf
ROOT
ATOM      1  O   UNL A   1      33.993  32.325  27.935  1.00  0.00    -0.377 OA
ENDROOT
BRANCH   1   2
ATOM      2  C   UNL A   1      34.040  30.907  27.972  1.00  0.00     0.188 C 
BRANCH   2   3
ATOM      3  C   UNL A   1      33.580  30.314  26.635  1.00  0.00     0.188 C 
BRANCH   3   4
ATOM      4  O   UNL A   1      33.185  28.973  26.756  1.00  0.00    -0.376 OA
BRANCH   4   5
ATOM      5  C   UNL A   1      31.834  28.795  26.359  1.00  0.00     0.202 C 
BRANCH   5   6
ATOM      6  C   UNL A   1      31.268  27.446  26.854  1.00  0.00     0.261 C 
BRANCH   6   7
ATOM      7  O   UNL A   1      31.828  26.292  26.132  1.00  0.00    -0.463 OA
BRANCH   7   8
ATOM      8  C   UNL A   1      30.990  25.260  25.862  1.00  0.00     0.310 C 
ATOM      9  O   UNL A   1      30.584  24.494  26.733  1.00  0.00    -0.252 OA
BRANCH   8  10
ATOM     10  C   UNL A   1      30.456  25.173  24.412  1.00  0.00     0.161 C 
BRANCH  10  11
ATOM     11  C   UNL A   1      30.738  26.254  23.358  1.00  0.00     0.000 A 
ATOM     12  C   UNL A   1      31.909  26.570  22.589  1.00  0.00     0.093 A 
ATOM     13  N   UNL A   1      31.653  27.846  22.084  1.00  0.00    -0.351 N 
ATOM     14  C   UNL A   1      30.386  28.297  22.362  1.00  0.00     0.048 A 
ATOM     15  H   UNL A   1      32.314  28.369  21.578  1.00  0.00     0.167 HD
ATOM     16  C   UNL A   1      29.769  27.320  23.133  1.00  0.00     0.007 A 
ATOM     17  C   UNL A   1      29.757  29.511  22.022  1.00  0.00     0.050 A 
ATOM     18  C   UNL A   1      28.444  27.561  23.575  1.00  0.00     0.051 A 
ATOM     19  C   UNL A   1      28.445  29.718  22.465  1.00  0.00     0.078 A 
ATOM     20  C   UNL A   1      27.799  28.753  23.226  1.00  0.00     0.142 A 
ATOM     21  Cl  UNL A   1      27.649  31.197  22.068  1.00  0.00    -0.081 Cl
ATOM     22  F   UNL A   1      26.547  28.958  23.662  1.00  0.00    -0.205 F 
BRANCH  12  23
ATOM     23  C   UNL A   1      33.329  26.079  22.462  1.00  0.00     0.227 C 
ATOM     24  O   UNL A   1      34.020  26.593  21.579  1.00  0.00    -0.285 OA
BRANCH  23  25
ATOM     25  C   UNL A   1      33.959  24.847  23.169  1.00  0.00     0.113 A 
ATOM     26  C   UNL A   1      36.380  24.004  25.999  1.00  0.00     0.044 C 
ATOM     27  C   UNL A   1      35.366  23.829  24.894  1.00  0.00    -0.047 A 
ATOM     28  C   UNL A   1      35.317  22.625  24.227  1.00  0.00     0.023 A 
ATOM     29  C   UNL A   1      34.553  24.886  24.410  1.00  0.00     0.036 A 
ATOM     30  C   UNL A   1      34.548  22.582  23.080  1.00  0.00     0.112 A 
ATOM     31  N   UNL A   1      33.916  23.657  22.512  1.00  0.00    -0.253 NA
ENDBRANCH  23  25
ENDBRANCH  12  23
ENDBRANCH  10  11
ENDBRANCH   8  10
ENDBRANCH   7   8
ENDBRANCH   6   7
ENDBRANCH   5   6
ENDBRANCH   4   5
ENDBRANCH   3   4
ENDBRANCH   2   3
ENDBRANCH   1   2
BRANCH   1  32
ATOM     32  C   UNL A   1      34.490  32.946  29.118  1.00  0.00     0.188 C 
BRANCH  32  33
ATOM     33  C   UNL A   1      34.152  34.437  29.047  1.00  0.00     0.188 C 
BRANCH  33  34
ATOM     34  O   UNL A   1      32.847  34.791  29.500  1.00  0.00    -0.376 OA
BRANCH  34  35
ATOM     35  C   UNL A   1      32.759  36.019  30.212  1.00  0.00     0.202 C 
BRANCH  35  36
ATOM     36  C   UNL A   1      32.581  35.913  31.741  1.00  0.00     0.261 C 
BRANCH  36  37
ATOM     37  O   UNL A   1      33.835  35.651  32.420  1.00  0.00    -0.460 OA
BRANCH  37  38
ATOM     38  C   UNL A   1      33.940  34.393  32.996  1.00  0.00     0.338 C 
ATOM     39  O   UNL A   1      33.076  33.586  33.071  1.00  0.00    -0.246 OA
BRANCH  38  40
ATOM     40  C   UNL A   1      35.415  34.094  33.153  1.00  0.00     0.060 A 
ATOM     41  C   UNL A   1      36.326  34.379  32.141  1.00  0.00     0.016 A 
ATOM     42  C   UNL A   1      35.781  33.202  34.184  1.00  0.00     0.016 A 
ATOM     43  C   UNL A   1      37.543  33.685  32.103  1.00  0.00     0.010 A 
ATOM     44  C   UNL A   1      37.004  32.506  34.139  1.00  0.00     0.010 A 
ATOM     45  C   UNL A   1      37.885  32.715  33.076  1.00  0.00    -0.014 A 
BRANCH  45  46
ATOM     46  C   UNL A   1      39.290  32.234  33.074  1.00  0.00     0.031 A 
ATOM     47  C   UNL A   1      40.227  33.356  33.333  1.00  0.00     0.074 A 
ATOM     48  C   UNL A   1      39.834  30.997  33.015  1.00  0.00     0.049 A 
ATOM     49  N   UNL A   1      41.108  33.852  32.528  1.00  0.00    -0.248 NA
ATOM     50  C   UNL A   1      40.013  34.124  34.567  1.00  0.00     0.031 C 
ATOM     51  C   UNL A   1      39.146  29.716  33.045  1.00  0.00     0.029 A 
ATOM     52  N   UNL A   1      41.161  30.624  33.003  1.00  0.00    -0.354 N 
ATOM     53  C   UNL A   1      41.685  34.905  33.225  1.00  0.00     0.074 A 
ATOM     54  C   UNL A   1      40.851  35.140  34.377  1.00  0.00     0.031 C 
ATOM     55  C   UNL A   1      40.033  28.720  33.266  1.00  0.00     0.029 A 
ATOM     56  C   UNL A   1      41.377  29.275  33.279  1.00  0.00     0.049 A 
ATOM     57  H   UNL A   1      41.893  31.255  32.816  1.00  0.00     0.167 HD
ATOM     58  C   UNL A   1      42.921  35.385  32.922  1.00  0.00     0.034 A 
ATOM     59  C   UNL A   1      42.548  28.645  33.562  1.00  0.00     0.034 A 
ATOM     60  C   UNL A   1      43.364  34.959  31.626  1.00  0.00     0.049 A 
ATOM     61  C   UNL A   1      43.675  29.466  33.065  1.00  0.00     0.074 A 
ATOM     62  C   UNL A   1      42.903  35.134  30.338  1.00  0.00     0.029 A 
ATOM     63  N   UNL A   1      44.286  33.943  31.564  1.00  0.00    -0.354 N 
ATOM     64  N   UNL A   1      43.987  29.617  31.810  1.00  0.00    -0.248 NA
ATOM     65  C   UNL A   1      44.242  30.452  33.969  1.00  0.00     0.031 C 
ATOM     66  C   UNL A   1      43.230  33.930  29.658  1.00  0.00     0.029 A 
ATOM     67  C   UNL A   1      43.914  33.100  30.550  1.00  0.00     0.049 A 
ATOM     68  H   UNL A   1      45.074  33.840  32.144  1.00  0.00     0.167 HD
ATOM     69  C   UNL A   1      44.344  30.951  31.705  1.00  0.00     0.074 A 
ATOM     70  C   UNL A   1      44.605  31.375  33.077  1.00  0.00     0.031 C 
ATOM     71  C   UNL A   1      44.126  31.663  30.558  1.00  0.00     0.034 A 
BRANCH  58  72
ATOM     72  C   UNL A   1      43.832  35.984  33.956  1.00  0.00     0.023 A 
ATOM     73  C   UNL A   1      44.941  35.288  34.473  1.00  0.00     0.031 A 
ATOM     74  C   UNL A   1      43.740  37.342  34.308  1.00  0.00     0.131 A 
ATOM     75  C   UNL A   1      45.854  35.890  35.341  1.00  0.00     0.055 A 
ATOM     76  C   UNL A   1      44.700  37.972  35.108  1.00  0.00     0.041 A 
ATOM     77  F   UNL A   1      42.743  38.109  33.838  1.00  0.00    -0.206 F 
ATOM     78  C   UNL A   1      45.759  37.243  35.641  1.00  0.00     0.022 A 
BRANCH  75  79
ATOM     79  S   UNL A   1      47.168  34.899  36.100  1.00  0.00     0.124 S 
ATOM     80  O   UNL A   1      48.232  35.006  35.109  1.00  0.00    -0.237 OA
ATOM     81  O   UNL A   1      47.391  35.614  37.354  1.00  0.00    -0.237 OA
ATOM     82  O   UNL A   1      46.559  33.580  36.245  1.00  0.00    -0.744 OA
ENDBRANCH  75  79
ENDBRANCH  58  72
BRANCH  59  83
ATOM     83  C   UNL A   1      42.761  27.574  34.573  1.00  0.00     0.023 A 
ATOM     84  C   UNL A   1      43.427  26.391  34.194  1.00  0.00     0.031 A 
ATOM     85  C   UNL A   1      42.076  27.553  35.803  1.00  0.00     0.131 A 
ATOM     86  C   UNL A   1      43.368  25.243  34.996  1.00  0.00     0.055 A 
ATOM     87  C   UNL A   1      42.035  26.409  36.615  1.00  0.00     0.041 A 
ATOM     88  F   UNL A   1      41.386  28.626  36.217  1.00  0.00    -0.206 F 
ATOM     89  C   UNL A   1      42.673  25.241  36.206  1.00  0.00     0.022 A 
BRANCH  86  90
ATOM     90  S   UNL A   1      44.146  23.701  34.439  1.00  0.00     0.124 S 
ATOM     91  O   UNL A   1      43.019  22.970  33.864  1.00  0.00    -0.237 OA
ATOM     92  O   UNL A   1      45.130  24.194  33.481  1.00  0.00    -0.237 OA
ATOM     93  O   UNL A   1      44.685  23.130  35.670  1.00  0.00    -0.744 OA
ENDBRANCH  86  90
ENDBRANCH  59  83
BRANCH  71  94
ATOM     94  C   UNL A   1      43.828  30.939  29.259  1.00  0.00     0.023 A 
ATOM     95  C   UNL A   1      42.516  30.447  29.093  1.00  0.00     0.031 A 
ATOM     96  C   UNL A   1      44.776  30.557  28.296  1.00  0.00     0.131 A 
ATOM     97  C   UNL A   1      42.208  29.556  28.059  1.00  0.00     0.055 A 
ATOM     98  C   UNL A   1      44.423  29.774  27.192  1.00  0.00     0.041 A 
ATOM     99  F   UNL A   1      46.081  30.843  28.422  1.00  0.00    -0.206 F 
ATOM    100  C   UNL A   1      43.149  29.233  27.087  1.00  0.00     0.022 A 
BRANCH  97 101
ATOM    101  S   UNL A   1      40.605  28.718  28.010  1.00  0.00     0.124 S 
ATOM    102  O   UNL A   1      40.142  29.005  26.655  1.00  0.00    -0.237 OA
ATOM    103  O   UNL A   1      40.985  27.329  28.259  1.00  0.00    -0.237 OA
ATOM    104  O   UNL A   1      39.841  29.359  29.075  1.00  0.00    -0.744 OA
ENDBRANCH  97 101
ENDBRANCH  71  94
ENDBRANCH  45  46
ENDBRANCH  38  40
ENDBRANCH  37  38
ENDBRANCH  36  37
ENDBRANCH  35  36
ENDBRANCH  34  35
ENDBRANCH  33  34
ENDBRANCH  32  33
ENDBRANCH   1  32
TORSDOF 26
ENDMDL
