MODEL 1
REMARK VINA RESULT:      -9.9      0.000      0.000
REMARK SMILES O=C(CCC1CC[NH+]([C@H]2CCO[C@@]3(CCSC3)C2)CC1)OCCOCCOCCOCCOC(=O)c1ccc(-c2c3nc(c(-c4cc(S(=O)(=O)[O-])ccc4F)c4ccc([nH]4)c(-c4cc(S(=O)(=O)[O-])ccc4F)c4nc(c(-c5cc(S(=O)(=O)[O-])ccc5F)c5ccc2[nH]5)C=C4)C=C3)cc1
REMARK SMILES IDX 27 1 26 2 25 3 24 4 23 5 22 6 21 7 2 8 1 9 3 10 4 11 5 12
REMARK SMILES IDX 6 13 20 14 7 15 19 16 8 17 9 19 10 20 18 21 11 22 13 23
REMARK SMILES IDX 12 24 14 25 17 26 15 27 16 28 28 29 29 30 30 31 31 32 32 33
REMARK SMILES IDX 33 34 34 35 35 36 36 37 37 38 98 39 38 40 97 41 39 42 40 43
REMARK SMILES IDX 41 44 91 45 42 46 96 47 90 48 92 49 43 50 95 51 89 52 88 53
REMARK SMILES IDX 44 55 76 56 56 57 75 58 57 59 60 60 74 61 93 62 58 63 59 64
REMARK SMILES IDX 73 66 94 67 61 68 45 69 46 70 54 71 47 72 53 73 55 74 52 75
REMARK SMILES IDX 48 76 49 77 50 78 51 79 77 80 78 81 86 82 79 83 85 84 87 85
REMARK SMILES IDX 84 86 80 87 81 88 82 89 83 90 62 91 63 92 71 93 64 94 70 95
REMARK SMILES IDX 72 96 69 97 65 98 66 99 67 100 68 101
REMARK H PARENT 8 18 92 54 60 65
REMARK Flexibility Score: inf
ROOT
ATOM      1  O   UNL A   1      34.334  25.069  24.687  1.00  0.00    -0.377 OA
ENDROOT
BRANCH   1   2
ATOM      2  C   UNL A   1      33.975  24.600  23.403  1.00  0.00     0.188 C 
BRANCH   2   3
ATOM      3  C   UNL A   1      32.713  23.743  23.083  1.00  0.00     0.188 C 
BRANCH   3   4
ATOM      4  O   UNL A   1      31.882  22.965  23.969  1.00  0.00    -0.376 OA
BRANCH   4   5
ATOM      5  C   UNL A   1      31.642  22.959  25.394  1.00  0.00     0.202 C 
BRANCH   5   6
ATOM      6  C   UNL A   1      31.370  24.341  26.490  1.00  0.00     0.261 C 
BRANCH   6   7
ATOM      7  O   UNL A   1      31.535  26.224  25.997  1.00  0.00    -0.463 OA
BRANCH   7   8
ATOM      8  C   UNL A   1      32.209  27.496  25.841  1.00  0.00     0.305 C 
ATOM      9  O   UNL A   1      31.918  28.269  24.931  1.00  0.00    -0.252 OA
BRANCH   8  10
ATOM     10  C   UNL A   1      33.396  27.825  26.768  1.00  0.00     0.123 C 
BRANCH  10  11
ATOM     11  C   UNL A   1      34.058  29.074  26.309  1.00  0.00     0.016 C 
BRANCH  11  12
ATOM     12  C   UNL A   1      33.856  29.990  27.468  1.00  0.00     0.001 C 
ATOM     13  C   UNL A   1      32.288  31.178  27.113  1.00  0.00     0.065 C 
ATOM     14  C   UNL A   1      35.519  30.926  27.823  1.00  0.00     0.065 C 
ATOM     15  C   UNL A   1      32.714  33.162  27.191  1.00  0.00     0.262 C 
ATOM     16  C   UNL A   1      35.593  32.820  27.723  1.00  0.00     0.262 C 
ATOM     17  N   UNL A   1      34.256  33.826  27.936  1.00  0.00    -0.332 N 
ATOM     18  H   UNL A   1      34.295  34.660  27.350  1.00  0.00     0.348 HD
BRANCH  17  19
ATOM     19  C   UNL A   1      34.291  34.518  29.379  1.00  0.00     0.189 C 
ATOM     20  C   UNL A   1      33.034  35.372  29.780  1.00  0.00     0.093 C 
ATOM     21  C   UNL A   1      34.478  33.538  30.618  1.00  0.00     0.101 C 
ATOM     22  C   UNL A   1      32.965  35.972  31.149  1.00  0.00     0.167 C 
ATOM     23  C   UNL A   1      34.282  34.208  32.056  1.00  0.00     0.084 C 
ATOM     24  O   UNL A   1      33.046  34.947  32.091  1.00  0.00    -0.374 OA
ATOM     25  C   UNL A   1      34.034  33.183  33.194  1.00  0.00     0.047 C 
ATOM     26  C   UNL A   1      35.447  35.139  32.477  1.00  0.00     0.105 C 
ATOM     27  C   UNL A   1      35.193  33.118  34.166  1.00  0.00     0.072 C 
ATOM     28  S   UNL A   1      35.874  34.780  34.193  1.00  0.00    -0.159 SA
ENDBRANCH  17  19
ENDBRANCH  11  12
ENDBRANCH  10  11
ENDBRANCH   8  10
ENDBRANCH   7   8
ENDBRANCH   6   7
ENDBRANCH   5   6
ENDBRANCH   4   5
ENDBRANCH   3   4
ENDBRANCH   2   3
ENDBRANCH   1   2
BRANCH   1  29
ATOM     29  C   UNL A   1      35.378  24.449  25.409  1.00  0.00     0.188 C 
BRANCH  29  30
ATOM     30  C   UNL A   1      35.352  22.920  25.348  1.00  0.00     0.188 C 
BRANCH  30  31
ATOM     31  O   UNL A   1      36.517  22.362  24.765  1.00  0.00    -0.376 OA
BRANCH  31  32
ATOM     32  C   UNL A   1      36.977  21.088  25.182  1.00  0.00     0.202 C 
BRANCH  32  33
ATOM     33  C   UNL A   1      38.481  20.809  25.310  1.00  0.00     0.261 C 
BRANCH  33  34
ATOM     34  O   UNL A   1      39.294  21.810  25.943  1.00  0.00    -0.460 OA
BRANCH  34  35
ATOM     35  C   UNL A   1      40.256  21.452  26.819  1.00  0.00     0.338 C 
ATOM     36  O   UNL A   1      40.705  20.334  27.010  1.00  0.00    -0.246 OA
BRANCH  35  37
ATOM     37  C   UNL A   1      40.854  22.717  27.309  1.00  0.00     0.060 A 
ATOM     38  C   UNL A   1      40.406  23.947  26.795  1.00  0.00     0.016 A 
ATOM     39  C   UNL A   1      41.774  22.686  28.359  1.00  0.00     0.016 A 
ATOM     40  C   UNL A   1      40.894  25.147  27.316  1.00  0.00     0.010 A 
ATOM     41  C   UNL A   1      42.289  23.880  28.853  1.00  0.00     0.010 A 
ATOM     42  C   UNL A   1      41.882  25.112  28.307  1.00  0.00    -0.014 A 
BRANCH  42  43
ATOM     43  C   UNL A   1      42.757  26.285  28.530  1.00  0.00     0.031 A 
ATOM     44  C   UNL A   1      42.134  27.455  29.240  1.00  0.00     0.074 A 
ATOM     45  C   UNL A   1      44.008  26.361  28.051  1.00  0.00     0.049 A 
ATOM     46  N   UNL A   1      42.558  28.683  29.366  1.00  0.00    -0.248 NA
ATOM     47  C   UNL A   1      40.821  27.199  29.855  1.00  0.00     0.031 C 
ATOM     48  C   UNL A   1      44.725  25.282  27.380  1.00  0.00     0.029 A 
ATOM     49  N   UNL A   1      44.882  27.420  28.026  1.00  0.00    -0.354 N 
ATOM     50  C   UNL A   1      41.548  29.354  30.048  1.00  0.00     0.074 A 
ATOM     51  C   UNL A   1      40.481  28.405  30.272  1.00  0.00     0.031 C 
ATOM     52  C   UNL A   1      45.920  25.747  26.975  1.00  0.00     0.029 A 
ATOM     53  C   UNL A   1      46.029  27.166  27.314  1.00  0.00     0.049 A 
ATOM     54  H   UNL A   1      44.703  28.278  28.474  1.00  0.00     0.167 HD
ATOM     55  C   UNL A   1      41.513  30.648  30.445  1.00  0.00     0.034 A 
ATOM     56  C   UNL A   1      47.023  27.998  26.937  1.00  0.00     0.034 A 
ATOM     57  C   UNL A   1      42.577  31.581  30.178  1.00  0.00     0.049 A 
ATOM     58  C   UNL A   1      46.940  29.460  27.314  1.00  0.00     0.074 A 
ATOM     59  C   UNL A   1      42.668  32.912  30.541  1.00  0.00     0.029 A 
ATOM     60  N   UNL A   1      43.729  31.285  29.456  1.00  0.00    -0.354 N 
ATOM     61  N   UNL A   1      45.989  30.095  27.963  1.00  0.00    -0.248 NA
ATOM     62  C   UNL A   1      48.059  30.319  26.904  1.00  0.00     0.031 C 
ATOM     63  C   UNL A   1      43.825  33.442  29.960  1.00  0.00     0.029 A 
ATOM     64  C   UNL A   1      44.514  32.418  29.326  1.00  0.00     0.049 A 
ATOM     65  H   UNL A   1      43.953  30.398  29.090  1.00  0.00     0.167 HD
ATOM     66  C   UNL A   1      46.413  31.420  28.067  1.00  0.00     0.074 A 
ATOM     67  C   UNL A   1      47.703  31.492  27.411  1.00  0.00     0.031 C 
ATOM     68  C   UNL A   1      45.798  32.475  28.664  1.00  0.00     0.034 A 
BRANCH  55  69
ATOM     69  C   UNL A   1      40.247  31.124  31.119  1.00  0.00     0.023 A 
ATOM     70  C   UNL A   1      40.191  31.376  32.502  1.00  0.00     0.031 A 
ATOM     71  C   UNL A   1      39.054  31.230  30.385  1.00  0.00     0.131 A 
ATOM     72  C   UNL A   1      38.953  31.606  33.122  1.00  0.00     0.055 A 
ATOM     73  C   UNL A   1      37.843  31.568  30.992  1.00  0.00     0.041 A 
ATOM     74  F   UNL A   1      39.033  30.972  29.068  1.00  0.00    -0.206 F 
ATOM     75  C   UNL A   1      37.783  31.733  32.372  1.00  0.00     0.022 A 
BRANCH  72  76
ATOM     76  S   UNL A   1      38.866  31.520  34.933  1.00  0.00     0.124 S 
ATOM     77  O   UNL A   1      38.753  32.933  35.291  1.00  0.00    -0.237 OA
ATOM     78  O   UNL A   1      37.677  30.707  35.154  1.00  0.00    -0.237 OA
ATOM     79  O   UNL A   1      40.132  30.893  35.307  1.00  0.00    -0.744 OA
ENDBRANCH  72  76
ENDBRANCH  55  69
BRANCH  56  80
ATOM     80  C   UNL A   1      48.143  27.483  26.096  1.00  0.00     0.023 A 
ATOM     81  C   UNL A   1      48.158  27.663  24.704  1.00  0.00     0.031 A 
ATOM     82  C   UNL A   1      49.220  26.794  26.683  1.00  0.00     0.131 A 
ATOM     83  C   UNL A   1      49.220  27.142  23.944  1.00  0.00     0.055 A 
ATOM     84  C   UNL A   1      50.296  26.323  25.930  1.00  0.00     0.041 A 
ATOM     85  F   UNL A   1      49.253  26.590  28.010  1.00  0.00    -0.206 F 
ATOM     86  C   UNL A   1      50.297  26.491  24.550  1.00  0.00     0.022 A 
BRANCH  83  87
ATOM     87  S   UNL A   1      49.155  27.289  22.137  1.00  0.00     0.124 S 
ATOM     88  O   UNL A   1      50.565  27.451  21.801  1.00  0.00    -0.237 OA
ATOM     89  O   UNL A   1      48.543  26.021  21.752  1.00  0.00    -0.237 OA
ATOM     90  O   UNL A   1      48.322  28.470  21.921  1.00  0.00    -0.744 OA
ENDBRANCH  83  87
ENDBRANCH  56  80
BRANCH  68  91
ATOM     91  C   UNL A   1      46.540  33.792  28.705  1.00  0.00     0.023 A 
ATOM     92  C   UNL A   1      46.205  34.875  27.875  1.00  0.00     0.031 A 
ATOM     93  C   UNL A   1      47.581  33.971  29.638  1.00  0.00     0.131 A 
ATOM     94  C   UNL A   1      46.926  36.077  27.973  1.00  0.00     0.055 A 
ATOM     95  C   UNL A   1      48.249  35.188  29.774  1.00  0.00     0.041 A 
ATOM     96  F   UNL A   1      47.946  32.969  30.454  1.00  0.00    -0.206 F 
ATOM     97  C   UNL A   1      47.928  36.247  28.932  1.00  0.00     0.022 A 
BRANCH  94  98
ATOM     98  S   UNL A   1      46.591  37.400  26.777  1.00  0.00     0.124 S 
ATOM     99  O   UNL A   1      45.155  37.259  26.563  1.00  0.00    -0.237 OA
ATOM    100  O   UNL A   1      47.015  38.593  27.502  1.00  0.00    -0.237 OA
ATOM    101  O   UNL A   1      47.426  37.044  25.630  1.00  0.00    -0.744 OA
ENDBRANCH  94  98
ENDBRANCH  68  91
ENDBRANCH  42  43
ENDBRANCH  35  37
ENDBRANCH  34  35
ENDBRANCH  33  34
ENDBRANCH  32  33
ENDBRANCH  31  32
ENDBRANCH  30  31
ENDBRANCH  29  30
ENDBRANCH   1  29
TORSDOF 26
ENDMDL
MODEL 2
REMARK VINA RESULT:      -9.4      3.915      6.283
REMARK SMILES O=C(CCC1CC[NH+]([C@H]2CCO[C@@]3(CCSC3)C2)CC1)OCCOCCOCCOCCOC(=O)c1ccc(-c2c3nc(c(-c4cc(S(=O)(=O)[O-])ccc4F)c4ccc([nH]4)c(-c4cc(S(=O)(=O)[O-])ccc4F)c4nc(c(-c5cc(S(=O)(=O)[O-])ccc5F)c5ccc2[nH]5)C=C4)C=C3)cc1
REMARK SMILES IDX 27 1 26 2 25 3 24 4 23 5 22 6 21 7 2 8 1 9 3 10 4 11 5 12
REMARK SMILES IDX 6 13 20 14 7 15 19 16 8 17 9 19 10 20 18 21 11 22 13 23
REMARK SMILES IDX 12 24 14 25 17 26 15 27 16 28 28 29 29 30 30 31 31 32 32 33
REMARK SMILES IDX 33 34 34 35 35 36 36 37 37 38 98 39 38 40 97 41 39 42 40 43
REMARK SMILES IDX 41 44 91 45 42 46 96 47 90 48 92 49 43 50 95 51 89 52 88 53
REMARK SMILES IDX 44 55 76 56 56 57 75 58 57 59 60 60 74 61 93 62 58 63 59 64
REMARK SMILES IDX 73 66 94 67 61 68 45 69 46 70 54 71 47 72 53 73 55 74 52 75
REMARK SMILES IDX 48 76 49 77 50 78 51 79 77 80 78 81 86 82 79 83 85 84 87 85
REMARK SMILES IDX 84 86 80 87 81 88 82 89 83 90 62 91 63 92 71 93 64 94 70 95
REMARK SMILES IDX 72 96 69 97 65 98 66 99 67 100 68 101
REMARK H PARENT 8 18 92 54 60 65
REMARK Flexibility Score: inf
ROOT
ATOM      1  O   UNL A   1      33.191  22.627  25.293  1.00  0.00    -0.377 OA
ENDROOT
BRANCH   1   2
ATOM      2  C   UNL A   1      34.003  23.510  24.546  1.00  0.00     0.188 C 
BRANCH   2   3
ATOM      3  C   UNL A   1      34.407  24.949  24.991  1.00  0.00     0.188 C 
BRANCH   3   4
ATOM      4  O   UNL A   1      33.571  26.075  25.329  1.00  0.00    -0.376 OA
BRANCH   4   5
ATOM      5  C   UNL A   1      32.511  26.303  26.285  1.00  0.00     0.202 C 
BRANCH   5   6
ATOM      6  C   UNL A   1      32.141  27.782  27.214  1.00  0.00     0.261 C 
BRANCH   6   7
ATOM      7  O   UNL A   1      33.296  29.351  27.350  1.00  0.00    -0.463 OA
BRANCH   7   8
ATOM      8  C   UNL A   1      33.604  30.763  27.434  1.00  0.00     0.305 C 
ATOM      9  O   UNL A   1      32.735  31.620  27.288  1.00  0.00    -0.252 OA
BRANCH   8  10
ATOM     10  C   UNL A   1      35.077  31.193  27.592  1.00  0.00     0.123 C 
BRANCH  10  11
ATOM     11  C   UNL A   1      35.458  31.154  29.028  1.00  0.00     0.016 C 
BRANCH  11  12
ATOM     12  C   UNL A   1      36.842  30.601  28.979  1.00  0.00     0.001 C 
ATOM     13  C   UNL A   1      37.026  29.146  30.336  1.00  0.00     0.065 C 
ATOM     14  C   UNL A   1      38.105  32.061  29.177  1.00  0.00     0.065 C 
ATOM     15  C   UNL A   1      38.513  29.452  31.685  1.00  0.00     0.262 C 
ATOM     16  C   UNL A   1      39.325  32.082  30.632  1.00  0.00     0.262 C 
ATOM     17  N   UNL A   1      39.840  30.698  31.447  1.00  0.00    -0.332 N 
ATOM     18  H   UNL A   1      39.997  30.864  32.441  1.00  0.00     0.348 HD
BRANCH  17  19
ATOM     19  C   UNL A   1      41.329  30.304  31.008  1.00  0.00     0.189 C 
ATOM     20  C   UNL A   1      42.342  29.986  32.167  1.00  0.00     0.093 C 
ATOM     21  C   UNL A   1      41.463  29.043  30.048  1.00  0.00     0.101 C 
ATOM     22  C   UNL A   1      43.723  29.525  31.823  1.00  0.00     0.167 C 
ATOM     23  C   UNL A   1      42.954  28.524  29.804  1.00  0.00     0.084 C 
ATOM     24  O   UNL A   1      43.630  28.358  31.065  1.00  0.00    -0.374 OA
ATOM     25  C   UNL A   1      43.028  27.077  29.249  1.00  0.00     0.047 C 
ATOM     26  C   UNL A   1      43.797  29.446  28.889  1.00  0.00     0.105 C 
ATOM     27  C   UNL A   1      43.538  27.038  27.824  1.00  0.00     0.072 C 
ATOM     28  S   UNL A   1      44.682  28.417  27.699  1.00  0.00    -0.159 SA
ENDBRANCH  17  19
ENDBRANCH  11  12
ENDBRANCH  10  11
ENDBRANCH   8  10
ENDBRANCH   7   8
ENDBRANCH   6   7
ENDBRANCH   5   6
ENDBRANCH   4   5
ENDBRANCH   3   4
ENDBRANCH   2   3
ENDBRANCH   1   2
BRANCH   1  29
ATOM     29  C   UNL A   1      33.713  21.404  25.768  1.00  0.00     0.188 C 
BRANCH  29  30
ATOM     30  C   UNL A   1      34.829  20.825  24.895  1.00  0.00     0.188 C 
BRANCH  30  31
ATOM     31  O   UNL A   1      36.081  20.760  25.556  1.00  0.00    -0.376 OA
BRANCH  31  32
ATOM     32  C   UNL A   1      37.279  20.958  24.825  1.00  0.00     0.202 C 
BRANCH  32  33
ATOM     33  C   UNL A   1      38.360  21.914  25.350  1.00  0.00     0.261 C 
BRANCH  33  34
ATOM     34  O   UNL A   1      39.192  21.454  26.426  1.00  0.00    -0.460 OA
BRANCH  34  35
ATOM     35  C   UNL A   1      40.234  20.632  26.179  1.00  0.00     0.338 C 
ATOM     36  O   UNL A   1      40.201  19.537  25.640  1.00  0.00    -0.246 OA
BRANCH  35  37
ATOM     37  C   UNL A   1      41.455  21.431  26.436  1.00  0.00     0.060 A 
ATOM     38  C   UNL A   1      42.722  20.842  26.272  1.00  0.00     0.016 A 
ATOM     39  C   UNL A   1      41.343  22.791  26.728  1.00  0.00     0.016 A 
ATOM     40  C   UNL A   1      43.879  21.611  26.420  1.00  0.00     0.010 A 
ATOM     41  C   UNL A   1      42.496  23.549  26.913  1.00  0.00     0.010 A 
ATOM     42  C   UNL A   1      43.766  22.954  26.799  1.00  0.00    -0.014 A 
BRANCH  42  43
ATOM     43  C   UNL A   1      44.910  23.649  27.431  1.00  0.00     0.031 A 
ATOM     44  C   UNL A   1      44.831  23.844  28.920  1.00  0.00     0.074 A 
ATOM     45  C   UNL A   1      45.925  24.170  26.725  1.00  0.00     0.049 A 
ATOM     46  N   UNL A   1      45.542  24.606  29.706  1.00  0.00    -0.248 NA
ATOM     47  C   UNL A   1      43.761  23.097  29.603  1.00  0.00     0.031 C 
ATOM     48  C   UNL A   1      46.123  24.015  25.288  1.00  0.00     0.029 A 
ATOM     49  N   UNL A   1      46.963  24.973  27.129  1.00  0.00    -0.354 N 
ATOM     50  C   UNL A   1      44.984  24.454  30.971  1.00  0.00     0.074 A 
ATOM     51  C   UNL A   1      43.858  23.559  30.836  1.00  0.00     0.031 C 
ATOM     52  C   UNL A   1      47.200  24.734  24.922  1.00  0.00     0.029 A 
ATOM     53  C   UNL A   1      47.733  25.436  26.090  1.00  0.00     0.049 A 
ATOM     54  H   UNL A   1      47.137  25.195  28.072  1.00  0.00     0.167 HD
ATOM     55  C   UNL A   1      45.375  25.017  32.139  1.00  0.00     0.034 A 
ATOM     56  C   UNL A   1      48.717  26.360  26.080  1.00  0.00     0.034 A 
ATOM     57  C   UNL A   1      46.482  25.933  32.238  1.00  0.00     0.049 A 
ATOM     58  C   UNL A   1      49.096  27.045  27.374  1.00  0.00     0.074 A 
ATOM     59  C   UNL A   1      46.986  26.557  33.365  1.00  0.00     0.029 A 
ATOM     60  N   UNL A   1      47.242  26.377  31.161  1.00  0.00    -0.354 N 
ATOM     61  N   UNL A   1      48.573  26.899  28.572  1.00  0.00    -0.248 NA
ATOM     62  C   UNL A   1      50.190  28.023  27.315  1.00  0.00     0.031 C 
ATOM     63  C   UNL A   1      47.985  27.446  32.956  1.00  0.00     0.029 A 
ATOM     64  C   UNL A   1      48.182  27.299  31.591  1.00  0.00     0.049 A 
ATOM     65  H   UNL A   1      47.129  26.079  30.230  1.00  0.00     0.167 HD
ATOM     66  C   UNL A   1      49.299  27.743  29.413  1.00  0.00     0.074 A 
ATOM     67  C   UNL A   1      50.293  28.395  28.585  1.00  0.00     0.031 C 
ATOM     68  C   UNL A   1      49.165  27.945  30.750  1.00  0.00     0.034 A 
BRANCH  55  69
ATOM     69  C   UNL A   1      44.534  24.718  33.359  1.00  0.00     0.023 A 
ATOM     70  C   UNL A   1      43.650  25.666  33.904  1.00  0.00     0.031 A 
ATOM     71  C   UNL A   1      44.694  23.501  34.045  1.00  0.00     0.131 A 
ATOM     72  C   UNL A   1      43.052  25.431  35.151  1.00  0.00     0.055 A 
ATOM     73  C   UNL A   1      44.010  23.230  35.231  1.00  0.00     0.041 A 
ATOM     74  F   UNL A   1      45.546  22.566  33.595  1.00  0.00    -0.206 F 
ATOM     75  C   UNL A   1      43.202  24.207  35.804  1.00  0.00     0.022 A 
BRANCH  72  76
ATOM     76  S   UNL A   1      42.257  26.823  36.003  1.00  0.00     0.124 S 
ATOM     77  O   UNL A   1      42.525  27.925  35.081  1.00  0.00    -0.237 OA
ATOM     78  O   UNL A   1      40.869  26.387  36.093  1.00  0.00    -0.237 OA
ATOM     79  O   UNL A   1      42.973  26.900  37.275  1.00  0.00    -0.744 OA
ENDBRANCH  72  76
ENDBRANCH  55  69
BRANCH  56  80
ATOM     80  C   UNL A   1      49.361  26.744  24.790  1.00  0.00     0.023 A 
ATOM     81  C   UNL A   1      50.696  26.409  24.508  1.00  0.00     0.031 A 
ATOM     82  C   UNL A   1      48.642  27.461  23.817  1.00  0.00     0.131 A 
ATOM     83  C   UNL A   1      51.274  26.810  23.291  1.00  0.00     0.055 A 
ATOM     84  C   UNL A   1      49.206  27.811  22.589  1.00  0.00     0.041 A 
ATOM     85  F   UNL A   1      47.364  27.809  24.036  1.00  0.00    -0.206 F 
ATOM     86  C   UNL A   1      50.532  27.491  22.323  1.00  0.00     0.022 A 
BRANCH  83  87
ATOM     87  S   UNL A   1      53.031  26.465  23.004  1.00  0.00     0.124 S 
ATOM     88  O   UNL A   1      53.647  27.738  23.363  1.00  0.00    -0.237 OA
ATOM     89  O   UNL A   1      53.274  25.353  23.917  1.00  0.00    -0.237 OA
ATOM     90  O   UNL A   1      53.085  26.123  21.584  1.00  0.00    -0.744 OA
ENDBRANCH  83  87
ENDBRANCH  56  80
BRANCH  68  91
ATOM     91  C   UNL A   1      50.162  28.858  31.428  1.00  0.00     0.023 A 
ATOM     92  C   UNL A   1      49.994  30.252  31.484  1.00  0.00     0.031 A 
ATOM     93  C   UNL A   1      51.285  28.301  32.072  1.00  0.00     0.131 A 
ATOM     94  C   UNL A   1      50.951  31.044  32.141  1.00  0.00     0.055 A 
ATOM     95  C   UNL A   1      52.197  29.087  32.777  1.00  0.00     0.041 A 
ATOM     96  F   UNL A   1      51.498  26.976  32.047  1.00  0.00    -0.206 F 
ATOM     97  C   UNL A   1      52.037  30.468  32.807  1.00  0.00     0.022 A 
BRANCH  94  98
ATOM     98  S   UNL A   1      50.805  32.850  32.053  1.00  0.00     0.124 S 
ATOM     99  O   UNL A   1      49.549  33.018  31.330  1.00  0.00    -0.237 OA
ATOM    100  O   UNL A   1      50.788  33.232  33.461  1.00  0.00    -0.237 OA
ATOM    101  O   UNL A   1      52.002  33.255  31.317  1.00  0.00    -0.744 OA
ENDBRANCH  94  98
ENDBRANCH  68  91
ENDBRANCH  42  43
ENDBRANCH  35  37
ENDBRANCH  34  35
ENDBRANCH  33  34
ENDBRANCH  32  33
ENDBRANCH  31  32
ENDBRANCH  30  31
ENDBRANCH  29  30
ENDBRANCH   1  29
TORSDOF 26
ENDMDL
MODEL 3
REMARK VINA RESULT:      -8.9      4.494      7.691
REMARK SMILES O=C(CCC1CC[NH+]([C@H]2CCO[C@@]3(CCSC3)C2)CC1)OCCOCCOCCOCCOC(=O)c1ccc(-c2c3nc(c(-c4cc(S(=O)(=O)[O-])ccc4F)c4ccc([nH]4)c(-c4cc(S(=O)(=O)[O-])ccc4F)c4nc(c(-c5cc(S(=O)(=O)[O-])ccc5F)c5ccc2[nH]5)C=C4)C=C3)cc1
REMARK SMILES IDX 27 1 26 2 25 3 24 4 23 5 22 6 21 7 2 8 1 9 3 10 4 11 5 12
REMARK SMILES IDX 6 13 20 14 7 15 19 16 8 17 9 19 10 20 18 21 11 22 13 23
REMARK SMILES IDX 12 24 14 25 17 26 15 27 16 28 28 29 29 30 30 31 31 32 32 33
REMARK SMILES IDX 33 34 34 35 35 36 36 37 37 38 98 39 38 40 97 41 39 42 40 43
REMARK SMILES IDX 41 44 91 45 42 46 96 47 90 48 92 49 43 50 95 51 89 52 88 53
REMARK SMILES IDX 44 55 76 56 56 57 75 58 57 59 60 60 74 61 93 62 58 63 59 64
REMARK SMILES IDX 73 66 94 67 61 68 45 69 46 70 54 71 47 72 53 73 55 74 52 75
REMARK SMILES IDX 48 76 49 77 50 78 51 79 77 80 78 81 86 82 79 83 85 84 87 85
REMARK SMILES IDX 84 86 80 87 81 88 82 89 83 90 62 91 63 92 71 93 64 94 70 95
REMARK SMILES IDX 72 96 69 97 65 98 66 99 67 100 68 101
REMARK H PARENT 8 18 92 54 60 65
REMARK Flexibility Score: inf
ROOT
ATOM      1  O   UNL A   1      35.264  24.109  25.528  1.00  0.00    -0.377 OA
ENDROOT
BRANCH   1   2
ATOM      2  C   UNL A   1      34.950  23.880  24.170  1.00  0.00     0.188 C 
BRANCH   2   3
ATOM      3  C   UNL A   1      33.543  23.479  23.630  1.00  0.00     0.188 C 
BRANCH   3   4
ATOM      4  O   UNL A   1      32.416  22.916  24.332  1.00  0.00    -0.376 OA
BRANCH   4   5
ATOM      5  C   UNL A   1      31.763  23.191  25.592  1.00  0.00     0.202 C 
BRANCH   5   6
ATOM      6  C   UNL A   1      30.732  24.578  26.040  1.00  0.00     0.261 C 
BRANCH   6   7
ATOM      7  O   UNL A   1      30.970  26.413  25.412  1.00  0.00    -0.463 OA
BRANCH   7   8
ATOM      8  C   UNL A   1      31.514  27.754  25.425  1.00  0.00     0.305 C 
ATOM      9  O   UNL A   1      31.294  28.545  24.510  1.00  0.00    -0.252 OA
BRANCH   8  10
ATOM     10  C   UNL A   1      32.487  28.150  26.554  1.00  0.00     0.123 C 
BRANCH  10  11
ATOM     11  C   UNL A   1      33.300  29.319  26.128  1.00  0.00     0.016 C 
BRANCH  11  12
ATOM     12  C   UNL A   1      33.375  30.131  27.376  1.00  0.00     0.001 C 
ATOM     13  C   UNL A   1      32.079  31.649  27.261  1.00  0.00     0.065 C 
ATOM     14  C   UNL A   1      35.219  30.659  27.669  1.00  0.00     0.065 C 
ATOM     15  C   UNL A   1      32.926  33.482  27.476  1.00  0.00     0.262 C 
ATOM     16  C   UNL A   1      35.692  32.496  27.730  1.00  0.00     0.262 C 
ATOM     17  N   UNL A   1      34.619  33.731  28.143  1.00  0.00    -0.332 N 
ATOM     18  H   UNL A   1      34.799  34.594  27.631  1.00  0.00     0.348 HD
BRANCH  17  19
ATOM     19  C   UNL A   1      34.895  34.246  29.633  1.00  0.00     0.189 C 
ATOM     20  C   UNL A   1      33.681  34.902  30.386  1.00  0.00     0.093 C 
ATOM     21  C   UNL A   1      35.420  33.154  30.663  1.00  0.00     0.101 C 
ATOM     22  C   UNL A   1      33.848  35.323  31.812  1.00  0.00     0.167 C 
ATOM     23  C   UNL A   1      35.471  33.623  32.190  1.00  0.00     0.084 C 
ATOM     24  O   UNL A   1      34.211  34.210  32.569  1.00  0.00    -0.374 OA
ATOM     25  C   UNL A   1      35.554  32.449  33.202  1.00  0.00     0.047 C 
ATOM     26  C   UNL A   1      36.614  34.621  32.500  1.00  0.00     0.105 C 
ATOM     27  C   UNL A   1      36.891  32.399  33.909  1.00  0.00     0.072 C 
ATOM     28  S   UNL A   1      37.418  34.112  34.033  1.00  0.00    -0.159 SA
ENDBRANCH  17  19
ENDBRANCH  11  12
ENDBRANCH  10  11
ENDBRANCH   8  10
ENDBRANCH   7   8
ENDBRANCH   6   7
ENDBRANCH   5   6
ENDBRANCH   4   5
ENDBRANCH   3   4
ENDBRANCH   2   3
ENDBRANCH   1   2
BRANCH   1  29
ATOM     29  C   UNL A   1      36.498  23.678  26.060  1.00  0.00     0.188 C 
BRANCH  29  30
ATOM     30  C   UNL A   1      36.891  22.259  25.645  1.00  0.00     0.188 C 
BRANCH  30  31
ATOM     31  O   UNL A   1      38.280  22.109  25.404  1.00  0.00    -0.376 OA
BRANCH  31  32
ATOM     32  C   UNL A   1      38.975  20.994  25.937  1.00  0.00     0.202 C 
BRANCH  32  33
ATOM     33  C   UNL A   1      40.506  21.015  26.050  1.00  0.00     0.261 C 
BRANCH  33  34
ATOM     34  O   UNL A   1      41.114  22.158  26.672  1.00  0.00    -0.460 OA
BRANCH  34  35
ATOM     35  C   UNL A   1      42.213  22.724  26.131  1.00  0.00     0.338 C 
ATOM     36  O   UNL A   1      42.726  22.465  25.054  1.00  0.00    -0.246 OA
BRANCH  35  37
ATOM     37  C   UNL A   1      42.518  23.908  26.969  1.00  0.00     0.060 A 
ATOM     38  C   UNL A   1      43.827  24.422  27.002  1.00  0.00     0.016 A 
ATOM     39  C   UNL A   1      41.483  24.574  27.627  1.00  0.00     0.016 A 
ATOM     40  C   UNL A   1      44.105  25.592  27.713  1.00  0.00     0.010 A 
ATOM     41  C   UNL A   1      41.767  25.719  28.367  1.00  0.00     0.010 A 
ATOM     42  C   UNL A   1      43.084  26.208  28.445  1.00  0.00    -0.014 A 
BRANCH  42  43
ATOM     43  C   UNL A   1      43.414  27.118  29.566  1.00  0.00     0.031 A 
ATOM     44  C   UNL A   1      43.938  26.468  30.816  1.00  0.00     0.074 A 
ATOM     45  C   UNL A   1      43.176  28.437  29.526  1.00  0.00     0.049 A 
ATOM     46  N   UNL A   1      44.085  26.957  32.018  1.00  0.00    -0.248 NA
ATOM     47  C   UNL A   1      44.305  25.048  30.690  1.00  0.00     0.031 C 
ATOM     48  C   UNL A   1      42.704  29.178  28.361  1.00  0.00     0.029 A 
ATOM     49  N   UNL A   1      43.268  29.382  30.518  1.00  0.00    -0.354 N 
ATOM     50  C   UNL A   1      44.532  25.895  32.797  1.00  0.00     0.074 A 
ATOM     51  C   UNL A   1      44.594  24.734  31.940  1.00  0.00     0.031 C 
ATOM     52  C   UNL A   1      42.511  30.461  28.717  1.00  0.00     0.029 A 
ATOM     53  C   UNL A   1      42.799  30.617  30.143  1.00  0.00     0.049 A 
ATOM     54  H   UNL A   1      43.634  29.192  31.412  1.00  0.00     0.167 HD
ATOM     55  C   UNL A   1      44.856  25.891  34.112  1.00  0.00     0.034 A 
ATOM     56  C   UNL A   1      42.579  31.727  30.880  1.00  0.00     0.034 A 
ATOM     57  C   UNL A   1      44.752  27.056  34.951  1.00  0.00     0.049 A 
ATOM     58  C   UNL A   1      42.866  31.692  32.364  1.00  0.00     0.074 A 
ATOM     59  C   UNL A   1      45.064  27.184  36.292  1.00  0.00     0.029 A 
ATOM     60  N   UNL A   1      44.275  28.294  34.533  1.00  0.00    -0.354 N 
ATOM     61  N   UNL A   1      43.293  30.690  33.102  1.00  0.00    -0.248 NA
ATOM     62  C   UNL A   1      42.636  32.931  33.118  1.00  0.00     0.031 C 
ATOM     63  C   UNL A   1      44.688  28.466  36.704  1.00  0.00     0.029 A 
ATOM     64  C   UNL A   1      44.243  29.177  35.600  1.00  0.00     0.049 A 
ATOM     65  H   UNL A   1      43.999  28.511  33.613  1.00  0.00     0.167 HD
ATOM     66  C   UNL A   1      43.414  31.191  34.398  1.00  0.00     0.074 A 
ATOM     67  C   UNL A   1      43.011  32.582  34.341  1.00  0.00     0.031 C 
ATOM     68  C   UNL A   1      43.834  30.563  35.527  1.00  0.00     0.034 A 
BRANCH  55  69
ATOM     69  C   UNL A   1      45.255  24.563  34.714  1.00  0.00     0.023 A 
ATOM     70  C   UNL A   1      46.603  24.200  34.884  1.00  0.00     0.031 A 
ATOM     71  C   UNL A   1      44.274  23.607  35.029  1.00  0.00     0.131 A 
ATOM     72  C   UNL A   1      46.934  22.885  35.243  1.00  0.00     0.055 A 
ATOM     73  C   UNL A   1      44.610  22.333  35.491  1.00  0.00     0.041 A 
ATOM     74  F   UNL A   1      42.971  23.880  34.860  1.00  0.00    -0.206 F 
ATOM     75  C   UNL A   1      45.946  21.957  35.577  1.00  0.00     0.022 A 
BRANCH  72  76
ATOM     76  S   UNL A   1      48.658  22.347  35.056  1.00  0.00     0.124 S 
ATOM     77  O   UNL A   1      48.933  21.775  36.373  1.00  0.00    -0.237 OA
ATOM     78  O   UNL A   1      48.575  21.400  33.952  1.00  0.00    -0.237 OA
ATOM     79  O   UNL A   1      49.374  23.588  34.765  1.00  0.00    -0.744 OA
ENDBRANCH  72  76
ENDBRANCH  55  69
BRANCH  56  80
ATOM     80  C   UNL A   1      41.990  32.938  30.239  1.00  0.00     0.023 A 
ATOM     81  C   UNL A   1      42.773  33.819  29.476  1.00  0.00     0.031 A 
ATOM     82  C   UNL A   1      40.623  33.234  30.389  1.00  0.00     0.131 A 
ATOM     83  C   UNL A   1      42.186  34.963  28.908  1.00  0.00     0.055 A 
ATOM     84  C   UNL A   1      40.035  34.344  29.781  1.00  0.00     0.041 A 
ATOM     85  F   UNL A   1      39.829  32.428  31.112  1.00  0.00    -0.206 F 
ATOM     86  C   UNL A   1      40.819  35.220  29.040  1.00  0.00     0.022 A 
BRANCH  83  87
ATOM     87  S   UNL A   1      43.245  36.141  28.025  1.00  0.00     0.124 S 
ATOM     88  O   UNL A   1      42.526  36.302  26.766  1.00  0.00    -0.237 OA
ATOM     89  O   UNL A   1      43.233  37.291  28.924  1.00  0.00    -0.237 OA
ATOM     90  O   UNL A   1      44.526  35.444  27.929  1.00  0.00    -0.744 OA
ENDBRANCH  83  87
ENDBRANCH  56  80
BRANCH  68  91
ATOM     91  C   UNL A   1      43.955  31.386  36.789  1.00  0.00     0.023 A 
ATOM     92  C   UNL A   1      42.893  31.538  37.697  1.00  0.00     0.031 A 
ATOM     93  C   UNL A   1      45.186  31.994  37.105  1.00  0.00     0.131 A 
ATOM     94  C   UNL A   1      43.074  32.306  38.860  1.00  0.00     0.055 A 
ATOM     95  C   UNL A   1      45.378  32.702  38.291  1.00  0.00     0.041 A 
ATOM     96  F   UNL A   1      46.234  31.886  36.272  1.00  0.00    -0.206 F 
ATOM     97  C   UNL A   1      44.315  32.868  39.173  1.00  0.00     0.022 A 
BRANCH  94  98
ATOM     98  S   UNL A   1      41.644  32.631  39.928  1.00  0.00     0.124 S 
ATOM     99  O   UNL A   1      42.029  33.879  40.579  1.00  0.00    -0.237 OA
ATOM    100  O   UNL A   1      40.550  32.721  38.968  1.00  0.00    -0.237 OA
ATOM    101  O   UNL A   1      41.601  31.463  40.807  1.00  0.00    -0.744 OA
ENDBRANCH  94  98
ENDBRANCH  68  91
ENDBRANCH  42  43
ENDBRANCH  35  37
ENDBRANCH  34  35
ENDBRANCH  33  34
ENDBRANCH  32  33
ENDBRANCH  31  32
ENDBRANCH  30  31
ENDBRANCH  29  30
ENDBRANCH   1  29
TORSDOF 26
ENDMDL
