MODEL 1
REMARK VINA RESULT:     -10.4      0.000      0.000
REMARK SMILES CC1=Nn2c(nnc(CCC(=O)OCCOCCOCCOCCOC(=O)c3ccc(-c4c5nc(c(-c6cc(S(=O)(=O)[O-])ccc6F)c6ccc([nH]6)c(-c6cc(S(=O)(=O)[O-])ccc6F)c6nc(c(-c7cc(S(=O)(=O)[O-])ccc7F)c7ccc4[nH]7)C=C6)C=C5)cc3)c2=O)SC1
REMARK SMILES IDX 20 1 19 2 18 3 17 4 16 5 15 6 14 7 13 8 11 9 12 10 10 11
REMARK SMILES IDX 9 12 8 13 1 14 2 15 3 16 94 17 4 18 93 19 5 20 91 21 6 22
REMARK SMILES IDX 92 23 7 24 21 25 22 26 23 27 24 28 25 29 26 30 27 31 28 32
REMARK SMILES IDX 29 33 90 34 30 35 89 36 31 37 32 38 33 39 83 40 34 41 88 42
REMARK SMILES IDX 82 43 84 44 35 45 87 46 81 47 80 48 36 50 68 51 48 52 67 53
REMARK SMILES IDX 49 54 52 55 66 56 85 57 50 58 51 59 65 61 86 62 53 63 37 64
REMARK SMILES IDX 38 65 46 66 39 67 45 68 47 69 44 70 40 71 41 72 42 73 43 74
REMARK SMILES IDX 69 75 70 76 78 77 71 78 77 79 79 80 76 81 72 82 73 83 74 84
REMARK SMILES IDX 75 85 54 86 55 87 63 88 56 89 62 90 64 91 61 92 57 93 58 94
REMARK SMILES IDX 59 95 60 96
REMARK H PARENT 84 49 52 60
REMARK Flexibility Score: inf
ROOT
ATOM      1  C   UNL A   1      32.577  20.065  24.561  1.00  0.00     0.188 C 
ENDROOT
BRANCH   1   2
ATOM      2  O   UNL A   1      31.860  21.202  24.985  1.00  0.00    -0.377 OA
BRANCH   2   3
ATOM      3  C   UNL A   1      32.076  22.455  24.375  1.00  0.00     0.188 C 
BRANCH   3   4
ATOM      4  C   UNL A   1      31.096  23.637  24.397  1.00  0.00     0.188 C 
BRANCH   4   5
ATOM      5  O   UNL A   1      30.769  24.282  23.196  1.00  0.00    -0.376 OA
BRANCH   5   6
ATOM      6  C   UNL A   1      31.706  24.577  22.174  1.00  0.00     0.202 C 
BRANCH   6   7
ATOM      7  C   UNL A   1      33.160  25.058  22.345  1.00  0.00     0.261 C 
BRANCH   7   8
ATOM      8  O   UNL A   1      33.619  26.182  21.578  1.00  0.00    -0.463 OA
BRANCH   8   9
ATOM      9  C   UNL A   1      33.889  27.315  22.265  1.00  0.00     0.306 C 
ATOM     10  O   UNL A   1      34.290  28.351  21.742  1.00  0.00    -0.252 OA
BRANCH   9  11
ATOM     11  C   UNL A   1      33.771  27.188  23.777  1.00  0.00     0.129 C 
BRANCH  11  12
ATOM     12  C   UNL A   1      33.012  28.190  24.647  1.00  0.00     0.076 C 
BRANCH  12  13
ATOM     13  C   UNL A   1      31.563  28.422  24.282  1.00  0.00     0.131 A 
ATOM     14  C   UNL A   1      28.875  33.496  23.113  1.00  0.00     0.064 C 
ATOM     15  C   UNL A   1      28.739  31.990  23.237  1.00  0.00     0.046 C 
ATOM     16  N   UNL A   1      29.717  31.447  23.868  1.00  0.00    -0.172 NA
ATOM     17  C   UNL A   1      27.594  31.269  22.596  1.00  0.00     0.131 C 
ATOM     18  N   UNL A   1      29.901  30.107  23.906  1.00  0.00    -0.169 N 
ATOM     19  S   UNL A   1      27.616  29.489  22.658  1.00  0.00    -0.078 SA
ATOM     20  C   UNL A   1      29.159  29.115  23.340  1.00  0.00     0.214 A 
ATOM     21  C   UNL A   1      30.975  29.733  24.643  1.00  0.00     0.296 A 
ATOM     22  N   UNL A   1      29.542  27.874  23.294  1.00  0.00    -0.123 NA
ATOM     23  O   UNL A   1      31.492  30.369  25.547  1.00  0.00    -0.265 OA
ATOM     24  N   UNL A   1      30.857  27.527  23.669  1.00  0.00    -0.147 NA
ENDBRANCH  12  13
ENDBRANCH  11  12
ENDBRANCH   9  11
ENDBRANCH   8   9
ENDBRANCH   7   8
ENDBRANCH   6   7
ENDBRANCH   5   6
ENDBRANCH   4   5
ENDBRANCH   3   4
ENDBRANCH   2   3
ENDBRANCH   1   2
BRANCH   1  25
ATOM     25  C   UNL A   1      34.034  20.046  25.042  1.00  0.00     0.188 C 
BRANCH  25  26
ATOM     26  O   UNL A   1      34.509  20.931  26.050  1.00  0.00    -0.376 OA
BRANCH  26  27
ATOM     27  C   UNL A   1      35.785  21.539  25.961  1.00  0.00     0.202 C 
BRANCH  27  28
ATOM     28  C   UNL A   1      36.962  20.851  25.235  1.00  0.00     0.261 C 
BRANCH  28  29
ATOM     29  O   UNL A   1      38.184  21.582  25.067  1.00  0.00    -0.460 OA
BRANCH  29  30
ATOM     30  C   UNL A   1      39.159  21.308  25.963  1.00  0.00     0.338 C 
ATOM     31  O   UNL A   1      39.666  20.222  26.180  1.00  0.00    -0.246 OA
BRANCH  30  32
ATOM     32  C   UNL A   1      39.609  22.568  26.595  1.00  0.00     0.060 A 
ATOM     33  C   UNL A   1      39.052  23.774  26.155  1.00  0.00     0.016 A 
ATOM     34  C   UNL A   1      40.633  22.579  27.548  1.00  0.00     0.016 A 
ATOM     35  C   UNL A   1      39.537  24.992  26.634  1.00  0.00     0.010 A 
ATOM     36  C   UNL A   1      41.137  23.805  28.008  1.00  0.00     0.010 A 
ATOM     37  C   UNL A   1      40.616  25.020  27.527  1.00  0.00    -0.014 A 
BRANCH  37  38
ATOM     38  C   UNL A   1      41.291  26.317  27.813  1.00  0.00     0.031 A 
ATOM     39  C   UNL A   1      40.551  27.369  28.569  1.00  0.00     0.074 A 
ATOM     40  C   UNL A   1      42.585  26.534  27.518  1.00  0.00     0.049 A 
ATOM     41  N   UNL A   1      40.962  28.557  28.912  1.00  0.00    -0.248 NA
ATOM     42  C   UNL A   1      39.194  27.032  29.019  1.00  0.00     0.031 C 
ATOM     43  C   UNL A   1      43.439  25.529  26.921  1.00  0.00     0.029 A 
ATOM     44  N   UNL A   1      43.421  27.614  27.686  1.00  0.00    -0.354 N 
ATOM     45  C   UNL A   1      39.926  29.110  29.644  1.00  0.00     0.074 A 
ATOM     46  C   UNL A   1      38.846  28.144  29.651  1.00  0.00     0.031 C 
ATOM     47  C   UNL A   1      44.676  26.031  26.779  1.00  0.00     0.029 A 
ATOM     48  C   UNL A   1      44.694  27.412  27.202  1.00  0.00     0.049 A 
ATOM     49  H   UNL A   1      43.135  28.454  28.114  1.00  0.00     0.167 HD
ATOM     50  C   UNL A   1      39.899  30.305  30.272  1.00  0.00     0.034 A 
ATOM     51  C   UNL A   1      45.769  28.215  27.073  1.00  0.00     0.034 A 
ATOM     52  C   UNL A   1      40.980  31.256  30.249  1.00  0.00     0.049 A 
ATOM     53  C   UNL A   1      45.653  29.602  27.617  1.00  0.00     0.074 A 
ATOM     54  C   UNL A   1      41.021  32.514  30.824  1.00  0.00     0.029 A 
ATOM     55  N   UNL A   1      42.206  31.065  29.625  1.00  0.00    -0.354 N 
ATOM     56  N   UNL A   1      44.634  30.132  28.247  1.00  0.00    -0.248 NA
ATOM     57  C   UNL A   1      46.807  30.492  27.457  1.00  0.00     0.031 C 
ATOM     58  C   UNL A   1      42.241  33.107  30.492  1.00  0.00     0.029 A 
ATOM     59  C   UNL A   1      42.996  32.194  29.774  1.00  0.00     0.049 A 
ATOM     60  H   UNL A   1      42.474  30.246  29.147  1.00  0.00     0.167 HD
ATOM     61  C   UNL A   1      45.035  31.411  28.593  1.00  0.00     0.074 A 
ATOM     62  C   UNL A   1      46.389  31.573  28.102  1.00  0.00     0.031 C 
ATOM     63  C   UNL A   1      44.338  32.353  29.270  1.00  0.00     0.034 A 
BRANCH  50  64
ATOM     64  C   UNL A   1      38.639  30.656  31.003  1.00  0.00     0.023 A 
ATOM     65  C   UNL A   1      37.586  31.324  30.358  1.00  0.00     0.031 A 
ATOM     66  C   UNL A   1      38.492  30.321  32.358  1.00  0.00     0.131 A 
ATOM     67  C   UNL A   1      36.437  31.669  31.083  1.00  0.00     0.055 A 
ATOM     68  C   UNL A   1      37.322  30.611  33.058  1.00  0.00     0.041 A 
ATOM     69  F   UNL A   1      39.486  29.709  33.021  1.00  0.00    -0.206 F 
ATOM     70  C   UNL A   1      36.288  31.294  32.422  1.00  0.00     0.022 A 
BRANCH  67  71
ATOM     71  S   UNL A   1      35.173  32.681  30.273  1.00  0.00     0.124 S 
ATOM     72  O   UNL A   1      34.231  32.904  31.368  1.00  0.00    -0.237 OA
ATOM     73  O   UNL A   1      35.931  33.848  29.837  1.00  0.00    -0.237 OA
ATOM     74  O   UNL A   1      34.683  31.819  29.200  1.00  0.00    -0.744 OA
ENDBRANCH  67  71
ENDBRANCH  50  64
BRANCH  51  75
ATOM     75  C   UNL A   1      47.013  27.747  26.386  1.00  0.00     0.023 A 
ATOM     76  C   UNL A   1      47.185  27.890  25.000  1.00  0.00     0.031 A 
ATOM     77  C   UNL A   1      48.055  27.138  27.114  1.00  0.00     0.131 A 
ATOM     78  C   UNL A   1      48.355  27.409  24.384  1.00  0.00     0.055 A 
ATOM     79  C   UNL A   1      49.229  26.692  26.502  1.00  0.00     0.041 A 
ATOM     80  F   UNL A   1      47.960  27.002  28.446  1.00  0.00    -0.206 F 
ATOM     81  C   UNL A   1      49.380  26.819  25.126  1.00  0.00     0.022 A 
BRANCH  78  82
ATOM     82  S   UNL A   1      48.508  27.540  22.580  1.00  0.00     0.124 S 
ATOM     83  O   UNL A   1      47.333  28.333  22.239  1.00  0.00    -0.237 OA
ATOM     84  O   UNL A   1      49.800  28.204  22.439  1.00  0.00    -0.237 OA
ATOM     85  O   UNL A   1      48.475  26.148  22.135  1.00  0.00    -0.744 OA
ENDBRANCH  78  82
ENDBRANCH  51  75
BRANCH  63  86
ATOM     86  C   UNL A   1      45.043  33.648  29.545  1.00  0.00     0.023 A 
ATOM     87  C   UNL A   1      44.840  34.772  28.733  1.00  0.00     0.031 A 
ATOM     88  C   UNL A   1      45.898  33.764  30.654  1.00  0.00     0.131 A 
ATOM     89  C   UNL A   1      45.508  35.967  29.026  1.00  0.00     0.055 A 
ATOM     90  C   UNL A   1      46.516  34.970  30.974  1.00  0.00     0.041 A 
ATOM     91  F   UNL A   1      46.125  32.709  31.454  1.00  0.00    -0.206 F 
ATOM     92  C   UNL A   1      46.326  36.080  30.154  1.00  0.00     0.022 A 
BRANCH  89  93
ATOM     93  S   UNL A   1      45.324  37.363  27.886  1.00  0.00     0.124 S 
ATOM     94  O   UNL A   1      46.708  37.624  27.505  1.00  0.00    -0.237 OA
ATOM     95  O   UNL A   1      44.470  36.807  26.842  1.00  0.00    -0.237 OA
ATOM     96  O   UNL A   1      44.699  38.397  28.710  1.00  0.00    -0.744 OA
ENDBRANCH  89  93
ENDBRANCH  63  86
ENDBRANCH  37  38
ENDBRANCH  30  32
ENDBRANCH  29  30
ENDBRANCH  28  29
ENDBRANCH  27  28
ENDBRANCH  26  27
ENDBRANCH  25  26
ENDBRANCH   1  25
TORSDOF 25
ENDMDL
MODEL 2
REMARK VINA RESULT:      -9.9      1.670      7.780
REMARK SMILES CC1=Nn2c(nnc(CCC(=O)OCCOCCOCCOCCOC(=O)c3ccc(-c4c5nc(c(-c6cc(S(=O)(=O)[O-])ccc6F)c6ccc([nH]6)c(-c6cc(S(=O)(=O)[O-])ccc6F)c6nc(c(-c7cc(S(=O)(=O)[O-])ccc7F)c7ccc4[nH]7)C=C6)C=C5)cc3)c2=O)SC1
REMARK SMILES IDX 20 1 19 2 18 3 17 4 16 5 15 6 14 7 13 8 11 9 12 10 10 11
REMARK SMILES IDX 9 12 8 13 1 14 2 15 3 16 94 17 4 18 93 19 5 20 91 21 6 22
REMARK SMILES IDX 92 23 7 24 21 25 22 26 23 27 24 28 25 29 26 30 27 31 28 32
REMARK SMILES IDX 29 33 90 34 30 35 89 36 31 37 32 38 33 39 83 40 34 41 88 42
REMARK SMILES IDX 82 43 84 44 35 45 87 46 81 47 80 48 36 50 68 51 48 52 67 53
REMARK SMILES IDX 49 54 52 55 66 56 85 57 50 58 51 59 65 61 86 62 53 63 37 64
REMARK SMILES IDX 38 65 46 66 39 67 45 68 47 69 44 70 40 71 41 72 42 73 43 74
REMARK SMILES IDX 69 75 70 76 78 77 71 78 77 79 79 80 76 81 72 82 73 83 74 84
REMARK SMILES IDX 75 85 54 86 55 87 63 88 56 89 62 90 64 91 61 92 57 93 58 94
REMARK SMILES IDX 59 95 60 96
REMARK H PARENT 84 49 52 60
REMARK Flexibility Score: inf
ROOT
ATOM      1  C   UNL A   1      35.566  20.919  25.132  1.00  0.00     0.188 C 
ENDROOT
BRANCH   1   2
ATOM      2  O   UNL A   1      35.148  21.879  26.076  1.00  0.00    -0.377 OA
BRANCH   2   3
ATOM      3  C   UNL A   1      34.115  21.585  26.990  1.00  0.00     0.188 C 
BRANCH   3   4
ATOM      4  C   UNL A   1      33.535  22.562  28.022  1.00  0.00     0.188 C 
BRANCH   4   5
ATOM      5  O   UNL A   1      32.169  22.876  27.982  1.00  0.00    -0.376 OA
BRANCH   5   6
ATOM      6  C   UNL A   1      31.488  23.299  26.813  1.00  0.00     0.202 C 
BRANCH   6   7
ATOM      7  C   UNL A   1      31.026  22.428  25.628  1.00  0.00     0.261 C 
BRANCH   7   8
ATOM      8  O   UNL A   1      31.427  22.788  24.298  1.00  0.00    -0.463 OA
BRANCH   8   9
ATOM      9  C   UNL A   1      32.326  21.977  23.695  1.00  0.00     0.306 C 
ATOM     10  O   UNL A   1      32.440  20.779  23.944  1.00  0.00    -0.252 OA
BRANCH   9  11
ATOM     11  C   UNL A   1      33.288  22.681  22.749  1.00  0.00     0.129 C 
BRANCH  11  12
ATOM     12  C   UNL A   1      32.871  23.832  21.832  1.00  0.00     0.076 C 
BRANCH  12  13
ATOM     13  C   UNL A   1      32.847  25.206  22.462  1.00  0.00     0.131 A 
ATOM     14  C   UNL A   1      28.517  29.155  22.410  1.00  0.00     0.064 C 
ATOM     15  C   UNL A   1      29.924  28.823  22.873  1.00  0.00     0.046 C 
ATOM     16  N   UNL A   1      30.440  27.832  22.242  1.00  0.00    -0.172 NA
ATOM     17  C   UNL A   1      30.551  29.569  24.010  1.00  0.00     0.131 C 
ATOM     18  N   UNL A   1      31.591  27.239  22.639  1.00  0.00    -0.169 N 
ATOM     19  S   UNL A   1      32.136  28.993  24.585  1.00  0.00    -0.078 SA
ATOM     20  C   UNL A   1      32.396  27.533  23.698  1.00  0.00     0.214 A 
ATOM     21  C   UNL A   1      31.982  26.227  21.827  1.00  0.00     0.296 A 
ATOM     22  N   UNL A   1      33.379  26.774  24.080  1.00  0.00    -0.123 NA
ATOM     23  O   UNL A   1      31.684  26.082  20.652  1.00  0.00    -0.265 OA
ATOM     24  N   UNL A   1      33.539  25.490  23.519  1.00  0.00    -0.147 NA
ENDBRANCH  12  13
ENDBRANCH  11  12
ENDBRANCH   9  11
ENDBRANCH   8   9
ENDBRANCH   7   8
ENDBRANCH   6   7
ENDBRANCH   5   6
ENDBRANCH   4   5
ENDBRANCH   3   4
ENDBRANCH   2   3
ENDBRANCH   1   2
BRANCH   1  25
ATOM     25  C   UNL A   1      37.091  20.798  25.015  1.00  0.00     0.188 C 
BRANCH  25  26
ATOM     26  O   UNL A   1      37.725  19.585  24.627  1.00  0.00    -0.376 OA
BRANCH  26  27
ATOM     27  C   UNL A   1      38.782  19.025  25.385  1.00  0.00     0.202 C 
BRANCH  27  28
ATOM     28  C   UNL A   1      39.805  19.913  26.127  1.00  0.00     0.261 C 
BRANCH  28  29
ATOM     29  O   UNL A   1      40.985  19.298  26.661  1.00  0.00    -0.460 OA
BRANCH  29  30
ATOM     30  C   UNL A   1      42.157  19.869  26.305  1.00  0.00     0.338 C 
ATOM     31  O   UNL A   1      43.075  19.340  25.703  1.00  0.00    -0.246 OA
BRANCH  30  32
ATOM     32  C   UNL A   1      42.132  21.304  26.672  1.00  0.00     0.060 A 
ATOM     33  C   UNL A   1      42.212  22.257  25.651  1.00  0.00     0.016 A 
ATOM     34  C   UNL A   1      42.120  21.712  28.010  1.00  0.00     0.016 A 
ATOM     35  C   UNL A   1      42.318  23.614  25.960  1.00  0.00     0.010 A 
ATOM     36  C   UNL A   1      42.253  23.075  28.319  1.00  0.00     0.010 A 
ATOM     37  C   UNL A   1      42.389  24.031  27.296  1.00  0.00    -0.014 A 
BRANCH  37  38
ATOM     38  C   UNL A   1      42.772  25.438  27.601  1.00  0.00     0.031 A 
ATOM     39  C   UNL A   1      44.130  25.919  27.218  1.00  0.00     0.074 A 
ATOM     40  C   UNL A   1      41.897  26.328  28.104  1.00  0.00     0.049 A 
ATOM     41  N   UNL A   1      44.650  27.102  27.399  1.00  0.00    -0.248 NA
ATOM     42  C   UNL A   1      45.001  24.964  26.519  1.00  0.00     0.031 C 
ATOM     43  C   UNL A   1      40.511  26.009  28.372  1.00  0.00     0.029 A 
ATOM     44  N   UNL A   1      42.001  27.654  28.453  1.00  0.00    -0.354 N 
ATOM     45  C   UNL A   1      45.902  27.048  26.815  1.00  0.00     0.074 A 
ATOM     46  C   UNL A   1      46.085  25.699  26.319  1.00  0.00     0.031 C 
ATOM     47  C   UNL A   1      39.890  27.104  28.835  1.00  0.00     0.029 A 
ATOM     48  C   UNL A   1      40.838  28.185  28.969  1.00  0.00     0.049 A 
ATOM     49  H   UNL A   1      42.828  28.177  28.344  1.00  0.00     0.167 HD
ATOM     50  C   UNL A   1      46.801  28.048  26.686  1.00  0.00     0.034 A 
ATOM     51  C   UNL A   1      40.534  29.378  29.516  1.00  0.00     0.034 A 
ATOM     52  C   UNL A   1      46.605  29.383  27.191  1.00  0.00     0.049 A 
ATOM     53  C   UNL A   1      41.608  30.417  29.526  1.00  0.00     0.074 A 
ATOM     54  C   UNL A   1      47.484  30.450  27.142  1.00  0.00     0.029 A 
ATOM     55  N   UNL A   1      45.462  29.839  27.834  1.00  0.00    -0.354 N 
ATOM     56  N   UNL A   1      42.816  30.324  29.029  1.00  0.00    -0.248 NA
ATOM     57  C   UNL A   1      41.294  31.710  30.143  1.00  0.00     0.031 C 
ATOM     58  C   UNL A   1      46.902  31.528  27.812  1.00  0.00     0.029 A 
ATOM     59  C   UNL A   1      45.627  31.161  28.215  1.00  0.00     0.049 A 
ATOM     60  H   UNL A   1      44.653  29.301  27.995  1.00  0.00     0.167 HD
ATOM     61  C   UNL A   1      43.402  31.561  29.240  1.00  0.00     0.074 A 
ATOM     62  C   UNL A   1      42.413  32.384  29.910  1.00  0.00     0.031 C 
ATOM     63  C   UNL A   1      44.644  31.970  28.894  1.00  0.00     0.034 A 
BRANCH  50  64
ATOM     64  C   UNL A   1      48.091  27.713  26.001  1.00  0.00     0.023 A 
ATOM     65  C   UNL A   1      48.218  27.797  24.605  1.00  0.00     0.031 A 
ATOM     66  C   UNL A   1      49.204  27.305  26.753  1.00  0.00     0.131 A 
ATOM     67  C   UNL A   1      49.429  27.440  23.998  1.00  0.00     0.055 A 
ATOM     68  C   UNL A   1      50.425  27.012  26.147  1.00  0.00     0.041 A 
ATOM     69  F   UNL A   1      49.118  27.183  28.087  1.00  0.00    -0.206 F 
ATOM     70  C   UNL A   1      50.540  27.073  24.762  1.00  0.00     0.022 A 
BRANCH  67  71
ATOM     71  S   UNL A   1      49.508  27.389  22.189  1.00  0.00     0.124 S 
ATOM     72  O   UNL A   1      50.949  27.441  21.957  1.00  0.00    -0.237 OA
ATOM     73  O   UNL A   1      48.857  26.122  21.878  1.00  0.00    -0.237 OA
ATOM     74  O   UNL A   1      48.772  28.584  21.782  1.00  0.00    -0.744 OA
ENDBRANCH  67  71
ENDBRANCH  50  64
BRANCH  51  75
ATOM     75  C   UNL A   1      39.188  29.641  30.115  1.00  0.00     0.023 A 
ATOM     76  C   UNL A   1      38.172  30.280  29.387  1.00  0.00     0.031 A 
ATOM     77  C   UNL A   1      38.900  29.257  31.440  1.00  0.00     0.131 A 
ATOM     78  C   UNL A   1      36.929  30.538  29.994  1.00  0.00     0.055 A 
ATOM     79  C   UNL A   1      37.653  29.486  32.028  1.00  0.00     0.041 A 
ATOM     80  F   UNL A   1      39.822  28.616  32.175  1.00  0.00    -0.206 F 
ATOM     81  C   UNL A   1      36.661  30.138  31.305  1.00  0.00     0.022 A 
BRANCH  78  82
ATOM     82  S   UNL A   1      35.666  31.436  29.049  1.00  0.00     0.124 S 
ATOM     83  O   UNL A   1      34.901  32.077  30.111  1.00  0.00    -0.237 OA
ATOM     84  O   UNL A   1      36.485  32.315  28.221  1.00  0.00    -0.237 OA
ATOM     85  O   UNL A   1      34.967  30.376  28.324  1.00  0.00    -0.744 OA
ENDBRANCH  78  82
ENDBRANCH  51  75
BRANCH  63  86
ATOM     86  C   UNL A   1      45.001  33.391  29.211  1.00  0.00     0.023 A 
ATOM     87  C   UNL A   1      44.571  34.447  28.395  1.00  0.00     0.031 A 
ATOM     88  C   UNL A   1      45.747  33.692  30.362  1.00  0.00     0.131 A 
ATOM     89  C   UNL A   1      44.915  35.763  28.728  1.00  0.00     0.055 A 
ATOM     90  C   UNL A   1      46.039  35.006  30.719  1.00  0.00     0.041 A 
ATOM     91  F   UNL A   1      46.184  32.710  31.168  1.00  0.00    -0.206 F 
ATOM     92  C   UNL A   1      45.626  36.051  29.896  1.00  0.00     0.022 A 
BRANCH  89  93
ATOM     93  S   UNL A   1      44.454  37.092  27.586  1.00  0.00     0.124 S 
ATOM     94  O   UNL A   1      43.191  36.599  27.046  1.00  0.00    -0.237 OA
ATOM     95  O   UNL A   1      44.359  38.249  28.471  1.00  0.00    -0.237 OA
ATOM     96  O   UNL A   1      45.565  37.129  26.637  1.00  0.00    -0.744 OA
ENDBRANCH  89  93
ENDBRANCH  63  86
ENDBRANCH  37  38
ENDBRANCH  30  32
ENDBRANCH  29  30
ENDBRANCH  28  29
ENDBRANCH  27  28
ENDBRANCH  26  27
ENDBRANCH  25  26
ENDBRANCH   1  25
TORSDOF 25
ENDMDL
MODEL 3
REMARK VINA RESULT:      -9.8      2.334      8.191
REMARK SMILES CC1=Nn2c(nnc(CCC(=O)OCCOCCOCCOCCOC(=O)c3ccc(-c4c5nc(c(-c6cc(S(=O)(=O)[O-])ccc6F)c6ccc([nH]6)c(-c6cc(S(=O)(=O)[O-])ccc6F)c6nc(c(-c7cc(S(=O)(=O)[O-])ccc7F)c7ccc4[nH]7)C=C6)C=C5)cc3)c2=O)SC1
REMARK SMILES IDX 20 1 19 2 18 3 17 4 16 5 15 6 14 7 13 8 11 9 12 10 10 11
REMARK SMILES IDX 9 12 8 13 1 14 2 15 3 16 94 17 4 18 93 19 5 20 91 21 6 22
REMARK SMILES IDX 92 23 7 24 21 25 22 26 23 27 24 28 25 29 26 30 27 31 28 32
REMARK SMILES IDX 29 33 90 34 30 35 89 36 31 37 32 38 33 39 83 40 34 41 88 42
REMARK SMILES IDX 82 43 84 44 35 45 87 46 81 47 80 48 36 50 68 51 48 52 67 53
REMARK SMILES IDX 49 54 52 55 66 56 85 57 50 58 51 59 65 61 86 62 53 63 37 64
REMARK SMILES IDX 38 65 46 66 39 67 45 68 47 69 44 70 40 71 41 72 42 73 43 74
REMARK SMILES IDX 69 75 70 76 78 77 71 78 77 79 79 80 76 81 72 82 73 83 74 84
REMARK SMILES IDX 75 85 54 86 55 87 63 88 56 89 62 90 64 91 61 92 57 93 58 94
REMARK SMILES IDX 59 95 60 96
REMARK H PARENT 84 49 52 60
REMARK Flexibility Score: inf
ROOT
ATOM      1  C   UNL A   1      34.566  21.051  25.985  1.00  0.00     0.188 C 
ENDROOT
BRANCH   1   2
ATOM      2  O   UNL A   1      34.162  21.412  27.287  1.00  0.00    -0.377 OA
BRANCH   2   3
ATOM      3  C   UNL A   1      33.539  22.654  27.526  1.00  0.00     0.188 C 
BRANCH   3   4
ATOM      4  C   UNL A   1      32.153  23.069  27.009  1.00  0.00     0.188 C 
BRANCH   4   5
ATOM      5  O   UNL A   1      31.706  24.382  27.217  1.00  0.00    -0.376 OA
BRANCH   5   6
ATOM      6  C   UNL A   1      32.093  25.486  26.418  1.00  0.00     0.202 C 
BRANCH   6   7
ATOM      7  C   UNL A   1      31.927  26.984  26.744  1.00  0.00     0.261 C 
BRANCH   7   8
ATOM      8  O   UNL A   1      32.894  27.919  26.241  1.00  0.00    -0.463 OA
BRANCH   8   9
ATOM      9  C   UNL A   1      32.409  29.036  25.653  1.00  0.00     0.306 C 
ATOM     10  O   UNL A   1      31.603  29.794  26.187  1.00  0.00    -0.252 OA
BRANCH   9  11
ATOM     11  C   UNL A   1      32.846  29.239  24.209  1.00  0.00     0.129 C 
BRANCH  11  12
ATOM     12  C   UNL A   1      32.019  28.778  23.009  1.00  0.00     0.076 C 
BRANCH  12  13
ATOM     13  C   UNL A   1      31.801  27.288  22.886  1.00  0.00     0.131 A 
ATOM     14  C   UNL A   1      35.797  23.003  23.032  1.00  0.00     0.064 C 
ATOM     15  C   UNL A   1      34.328  23.362  22.900  1.00  0.00     0.046 C 
ATOM     16  N   UNL A   1      34.135  24.601  22.626  1.00  0.00    -0.172 NA
ATOM     17  C   UNL A   1      33.265  22.339  23.155  1.00  0.00     0.131 C 
ATOM     18  N   UNL A   1      32.910  25.174  22.677  1.00  0.00    -0.169 N 
ATOM     19  S   UNL A   1      31.574  22.901  23.139  1.00  0.00    -0.078 SA
ATOM     20  C   UNL A   1      31.707  24.618  22.995  1.00  0.00     0.214 A 
ATOM     21  C   UNL A   1      32.913  26.484  22.330  1.00  0.00     0.296 A 
ATOM     22  N   UNL A   1      30.627  25.315  23.185  1.00  0.00    -0.123 NA
ATOM     23  O   UNL A   1      33.737  27.046  21.626  1.00  0.00    -0.265 OA
ATOM     24  N   UNL A   1      30.698  26.722  23.259  1.00  0.00    -0.147 NA
ENDBRANCH  12  13
ENDBRANCH  11  12
ENDBRANCH   9  11
ENDBRANCH   8   9
ENDBRANCH   7   8
ENDBRANCH   6   7
ENDBRANCH   5   6
ENDBRANCH   4   5
ENDBRANCH   3   4
ENDBRANCH   2   3
ENDBRANCH   1   2
BRANCH   1  25
ATOM     25  C   UNL A   1      36.086  21.091  25.783  1.00  0.00     0.188 C 
BRANCH  25  26
ATOM     26  O   UNL A   1      36.749  20.235  24.859  1.00  0.00    -0.376 OA
BRANCH  26  27
ATOM     27  C   UNL A   1      38.069  19.779  25.087  1.00  0.00     0.202 C 
BRANCH  27  28
ATOM     28  C   UNL A   1      39.112  20.649  25.823  1.00  0.00     0.261 C 
BRANCH  28  29
ATOM     29  O   UNL A   1      40.030  20.009  26.718  1.00  0.00    -0.460 OA
BRANCH  29  30
ATOM     30  C   UNL A   1      41.291  19.857  26.256  1.00  0.00     0.338 C 
ATOM     31  O   UNL A   1      41.742  18.890  25.669  1.00  0.00    -0.246 OA
BRANCH  30  32
ATOM     32  C   UNL A   1      42.047  21.110  26.480  1.00  0.00     0.060 A 
ATOM     33  C   UNL A   1      42.327  21.496  27.795  1.00  0.00     0.016 A 
ATOM     34  C   UNL A   1      42.403  21.946  25.417  1.00  0.00     0.016 A 
ATOM     35  C   UNL A   1      42.926  22.730  28.057  1.00  0.00     0.010 A 
ATOM     36  C   UNL A   1      42.980  23.197  25.682  1.00  0.00     0.010 A 
ATOM     37  C   UNL A   1      43.213  23.612  27.006  1.00  0.00    -0.014 A 
BRANCH  37  38
ATOM     38  C   UNL A   1      43.595  25.017  27.319  1.00  0.00     0.031 A 
ATOM     39  C   UNL A   1      44.998  25.460  27.071  1.00  0.00     0.074 A 
ATOM     40  C   UNL A   1      42.694  25.937  27.708  1.00  0.00     0.049 A 
ATOM     41  N   UNL A   1      45.523  26.635  27.281  1.00  0.00    -0.248 NA
ATOM     42  C   UNL A   1      45.914  24.470  26.490  1.00  0.00     0.031 C 
ATOM     43  C   UNL A   1      41.281  25.654  27.835  1.00  0.00     0.029 A 
ATOM     44  N   UNL A   1      42.792  27.269  28.038  1.00  0.00    -0.354 N 
ATOM     45  C   UNL A   1      46.829  26.540  26.834  1.00  0.00     0.074 A 
ATOM     46  C   UNL A   1      47.030  25.176  26.389  1.00  0.00     0.031 C 
ATOM     47  C   UNL A   1      40.640  26.774  28.206  1.00  0.00     0.029 A 
ATOM     48  C   UNL A   1      41.595  27.837  28.417  1.00  0.00     0.049 A 
ATOM     49  H   UNL A   1      43.638  27.771  28.005  1.00  0.00     0.167 HD
ATOM     50  C   UNL A   1      47.760  27.518  26.779  1.00  0.00     0.034 A 
ATOM     51  C   UNL A   1      41.264  29.049  28.902  1.00  0.00     0.034 A 
ATOM     52  C   UNL A   1      47.544  28.868  27.231  1.00  0.00     0.049 A 
ATOM     53  C   UNL A   1      42.355  30.065  29.004  1.00  0.00     0.074 A 
ATOM     54  C   UNL A   1      48.448  29.914  27.253  1.00  0.00     0.029 A 
ATOM     55  N   UNL A   1      46.351  29.363  27.741  1.00  0.00    -0.354 N 
ATOM     56  N   UNL A   1      43.606  29.934  28.639  1.00  0.00    -0.248 NA
ATOM     57  C   UNL A   1      42.009  31.379  29.556  1.00  0.00     0.031 C 
ATOM     58  C   UNL A   1      47.825  31.020  27.834  1.00  0.00     0.029 A 
ATOM     59  C   UNL A   1      46.506  30.691  28.108  1.00  0.00     0.049 A 
ATOM     60  H   UNL A   1      45.516  28.847  27.827  1.00  0.00     0.167 HD
ATOM     61  C   UNL A   1      44.196  31.162  28.884  1.00  0.00     0.074 A 
ATOM     62  C   UNL A   1      43.163  32.022  29.428  1.00  0.00     0.031 C 
ATOM     63  C   UNL A   1      45.477  31.536  28.662  1.00  0.00     0.034 A 
BRANCH  50  64
ATOM     64  C   UNL A   1      49.106  27.139  26.241  1.00  0.00     0.023 A 
ATOM     65  C   UNL A   1      49.546  27.597  24.989  1.00  0.00     0.031 A 
ATOM     66  C   UNL A   1      49.957  26.309  26.989  1.00  0.00     0.131 A 
ATOM     67  C   UNL A   1      50.796  27.192  24.504  1.00  0.00     0.055 A 
ATOM     68  C   UNL A   1      51.225  25.961  26.528  1.00  0.00     0.041 A 
ATOM     69  F   UNL A   1      49.564  25.824  28.178  1.00  0.00    -0.206 F 
ATOM     70  C   UNL A   1      51.649  26.398  25.276  1.00  0.00     0.022 A 
BRANCH  67  71
ATOM     71  S   UNL A   1      51.260  27.655  22.815  1.00  0.00     0.124 S 
ATOM     72  O   UNL A   1      50.546  26.651  22.030  1.00  0.00    -0.237 OA
ATOM     73  O   UNL A   1      50.760  29.020  22.711  1.00  0.00    -0.237 OA
ATOM     74  O   UNL A   1      52.715  27.522  22.814  1.00  0.00    -0.744 OA
ENDBRANCH  67  71
ENDBRANCH  50  64
BRANCH  51  75
ATOM     75  C   UNL A   1      39.869  29.355  29.350  1.00  0.00     0.023 A 
ATOM     76  C   UNL A   1      39.525  29.392  30.711  1.00  0.00     0.031 A 
ATOM     77  C   UNL A   1      38.848  29.609  28.412  1.00  0.00     0.131 A 
ATOM     78  C   UNL A   1      38.197  29.651  31.093  1.00  0.00     0.055 A 
ATOM     79  C   UNL A   1      37.537  29.899  28.797  1.00  0.00     0.041 A 
ATOM     80  F   UNL A   1      39.124  29.617  27.098  1.00  0.00    -0.206 F 
ATOM     81  C   UNL A   1      37.203  29.912  30.147  1.00  0.00     0.022 A 
BRANCH  78  82
ATOM     82  S   UNL A   1      37.773  29.613  32.858  1.00  0.00     0.124 S 
ATOM     83  O   UNL A   1      36.602  30.481  32.900  1.00  0.00    -0.237 OA
ATOM     84  O   UNL A   1      37.531  28.190  33.074  1.00  0.00    -0.237 OA
ATOM     85  O   UNL A   1      38.971  30.143  33.506  1.00  0.00    -0.744 OA
ENDBRANCH  78  82
ENDBRANCH  51  75
BRANCH  63  86
ATOM     86  C   UNL A   1      45.832  32.957  28.985  1.00  0.00     0.023 A 
ATOM     87  C   UNL A   1      45.628  33.986  28.054  1.00  0.00     0.031 A 
ATOM     88  C   UNL A   1      46.346  33.286  30.250  1.00  0.00     0.131 A 
ATOM     89  C   UNL A   1      45.962  35.302  28.394  1.00  0.00     0.055 A 
ATOM     90  C   UNL A   1      46.625  34.604  30.602  1.00  0.00     0.041 A 
ATOM     91  F   UNL A   1      46.563  32.330  31.168  1.00  0.00    -0.206 F 
ATOM     92  C   UNL A   1      46.438  35.621  29.669  1.00  0.00     0.022 A 
BRANCH  89  93
ATOM     93  S   UNL A   1      45.806  36.588  27.127  1.00  0.00     0.124 S 
ATOM     94  O   UNL A   1      46.267  35.890  25.932  1.00  0.00    -0.237 OA
ATOM     95  O   UNL A   1      44.381  36.902  27.171  1.00  0.00    -0.237 OA
ATOM     96  O   UNL A   1      46.688  37.650  27.608  1.00  0.00    -0.744 OA
ENDBRANCH  89  93
ENDBRANCH  63  86
ENDBRANCH  37  38
ENDBRANCH  30  32
ENDBRANCH  29  30
ENDBRANCH  28  29
ENDBRANCH  27  28
ENDBRANCH  26  27
ENDBRANCH  25  26
ENDBRANCH   1  25
TORSDOF 25
ENDMDL
