MODEL 1
REMARK VINA RESULT:     -10.0      0.000      0.000
REMARK SMILES COc1ccc([C@@H]2[NH2+][C@H](C(=O)OCCOCCOCCOCCOC(=O)c3ccc(-c4c5nc(c(-c6cc(S(=O)(=O)[O-])ccc6F)c6ccc([nH]6)c(-c6cc(S(=O)(=O)[O-])ccc6F)c6nc(c(-c7cc(S(=O)(=O)[O-])ccc7F)c7ccc4[nH]7)C=C6)C=C5)cc3)CS2)cc1Cn1nc(C)c(Br)c1C
REMARK SMILES IDX 18 1 17 2 16 3 15 4 14 5 13 6 12 7 10 8 11 9 9 10 7 11 8 12
REMARK SMILES IDX 91 13 90 16 6 17 3 18 4 19 93 20 5 21 92 22 2 23 1 24 94 25
REMARK SMILES IDX 95 26 96 27 101 28 97 29 99 30 102 31 98 32 100 33 19 34
REMARK SMILES IDX 20 35 21 36 22 37 23 38 24 39 25 40 26 41 27 42 28 43 89 44
REMARK SMILES IDX 29 45 88 46 30 47 31 48 32 49 82 50 33 51 87 52 81 53 83 54
REMARK SMILES IDX 34 55 86 56 80 57 79 58 35 60 67 61 47 62 66 63 48 64 51 65
REMARK SMILES IDX 65 66 84 67 49 68 50 69 64 71 85 72 52 73 36 74 37 75 45 76
REMARK SMILES IDX 38 77 44 78 46 79 43 80 39 81 40 82 41 83 42 84 68 85 69 86
REMARK SMILES IDX 77 87 70 88 76 89 78 90 75 91 71 92 72 93 73 94 74 95 53 96
REMARK SMILES IDX 54 97 62 98 55 99 61 100 63 101 60 102 56 103 57 104 58 105
REMARK SMILES IDX 59 106
REMARK H PARENT 8 14 8 15 83 59 51 70
REMARK Flexibility Score: inf
ROOT
ATOM      1  O   UNL A   1      34.763  17.421  24.346  1.00  0.00    -0.377 OA
ENDROOT
BRANCH   1   2
ATOM      2  C   UNL A   1      34.209  16.242  24.900  1.00  0.00     0.188 C 
BRANCH   2   3
ATOM      3  C   UNL A   1      32.778  16.395  25.462  1.00  0.00     0.188 C 
BRANCH   3   4
ATOM      4  O   UNL A   1      32.316  17.651  25.948  1.00  0.00    -0.376 OA
BRANCH   4   5
ATOM      5  C   UNL A   1      32.231  18.735  25.035  1.00  0.00     0.202 C 
BRANCH   5   6
ATOM      6  C   UNL A   1      32.702  20.116  25.480  1.00  0.00     0.261 C 
BRANCH   6   7
ATOM      7  O   UNL A   1      31.773  21.196  25.380  1.00  0.00    -0.459 OA
BRANCH   7   8
ATOM      8  C   UNL A   1      32.210  22.363  24.869  1.00  0.00     0.365 C 
ATOM      9  O   UNL A   1      31.537  23.387  24.778  1.00  0.00    -0.245 OA
BRANCH   8  10
ATOM     10  C   UNL A   1      33.655  22.298  24.370  1.00  0.00     0.304 C 
ATOM     11  C   UNL A   1      34.851  24.348  23.852  1.00  0.00     0.274 C 
ATOM     12  N   UNL A   1      33.996  23.292  23.317  1.00  0.00    -0.319 N 
ATOM     13  S   UNL A   1      35.830  23.625  25.180  1.00  0.00    -0.087 SA
ATOM     14  H   UNL A   1      34.485  22.818  22.558  1.00  0.00     0.348 HD
ATOM     15  H   UNL A   1      33.131  23.714  22.978  1.00  0.00     0.348 HD
ATOM     16  C   UNL A   1      34.580  22.393  25.580  1.00  0.00     0.153 C 
BRANCH  11  17
ATOM     17  C   UNL A   1      34.120  25.632  24.213  1.00  0.00     0.021 A 
ATOM     18  C   UNL A   1      32.691  27.938  25.002  1.00  0.00     0.123 A 
ATOM     19  C   UNL A   1      33.302  27.124  25.959  1.00  0.00     0.047 A 
ATOM     20  C   UNL A   1      32.825  27.664  23.633  1.00  0.00     0.016 A 
ATOM     21  C   UNL A   1      34.007  25.983  25.569  1.00  0.00     0.015 A 
ATOM     22  C   UNL A   1      33.537  26.499  23.264  1.00  0.00     0.020 A 
BRANCH  18  23
ATOM     23  O   UNL A   1      32.035  29.037  25.485  1.00  0.00    -0.496 OA
ATOM     24  C   UNL A   1      31.523  28.870  26.808  1.00  0.00     0.278 C 
ENDBRANCH  18  23
BRANCH  20  25
ATOM     25  C   UNL A   1      32.158  28.521  22.578  1.00  0.00     0.184 C 
BRANCH  25  26
ATOM     26  N   UNL A   1      30.712  28.689  22.715  1.00  0.00    -0.264 N 
ATOM     27  N   UNL A   1      30.195  29.938  22.621  1.00  0.00    -0.177 NA
ATOM     28  C   UNL A   1      29.776  27.749  23.094  1.00  0.00     0.050 A 
ATOM     29  C   UNL A   1      28.903  29.802  22.939  1.00  0.00     0.074 A 
ATOM     30  C   UNL A   1      28.613  28.467  23.277  1.00  0.00     0.061 A 
ATOM     31  C   UNL A   1      30.024  26.286  23.146  1.00  0.00     0.067 C 
ATOM     32  C   UNL A   1      27.993  30.971  22.852  1.00  0.00     0.070 C 
ATOM     33  Br  UNL A   1      26.919  27.808  23.736  1.00  0.00    -0.047 Br
ENDBRANCH  25  26
ENDBRANCH  20  25
ENDBRANCH  11  17
ENDBRANCH   8  10
ENDBRANCH   7   8
ENDBRANCH   6   7
ENDBRANCH   5   6
ENDBRANCH   4   5
ENDBRANCH   3   4
ENDBRANCH   2   3
ENDBRANCH   1   2
BRANCH   1  34
ATOM     34  C   UNL A   1      35.963  17.898  24.944  1.00  0.00     0.188 C 
BRANCH  34  35
ATOM     35  C   UNL A   1      36.235  19.409  24.817  1.00  0.00     0.188 C 
BRANCH  35  36
ATOM     36  O   UNL A   1      37.574  19.708  24.427  1.00  0.00    -0.376 OA
BRANCH  36  37
ATOM     37  C   UNL A   1      38.503  20.023  25.455  1.00  0.00     0.202 C 
BRANCH  37  38
ATOM     38  C   UNL A   1      39.758  19.138  25.542  1.00  0.00     0.261 C 
BRANCH  38  39
ATOM     39  O   UNL A   1      41.027  19.812  25.604  1.00  0.00    -0.460 OA
BRANCH  39  40
ATOM     40  C   UNL A   1      41.626  19.939  26.808  1.00  0.00     0.338 C 
ATOM     41  O   UNL A   1      42.272  19.086  27.392  1.00  0.00    -0.246 OA
BRANCH  40  42
ATOM     42  C   UNL A   1      41.535  21.357  27.223  1.00  0.00     0.060 A 
ATOM     43  C   UNL A   1      40.839  22.262  26.409  1.00  0.00     0.016 A 
ATOM     44  C   UNL A   1      42.155  21.794  28.395  1.00  0.00     0.016 A 
ATOM     45  C   UNL A   1      40.817  23.621  26.734  1.00  0.00     0.010 A 
ATOM     46  C   UNL A   1      42.152  23.157  28.705  1.00  0.00     0.010 A 
ATOM     47  C   UNL A   1      41.525  24.083  27.851  1.00  0.00    -0.014 A 
BRANCH  47  48
ATOM     48  C   UNL A   1      41.860  25.525  27.984  1.00  0.00     0.031 A 
ATOM     49  C   UNL A   1      43.228  25.966  27.542  1.00  0.00     0.074 A 
ATOM     50  C   UNL A   1      40.994  26.432  28.466  1.00  0.00     0.049 A 
ATOM     51  N   UNL A   1      43.818  27.123  27.687  1.00  0.00    -0.248 NA
ATOM     52  C   UNL A   1      44.039  24.957  26.842  1.00  0.00     0.031 C 
ATOM     53  C   UNL A   1      39.607  26.164  28.828  1.00  0.00     0.029 A 
ATOM     54  N   UNL A   1      41.163  27.770  28.740  1.00  0.00    -0.354 N 
ATOM     55  C   UNL A   1      45.065  26.985  27.090  1.00  0.00     0.074 A 
ATOM     56  C   UNL A   1      45.164  25.618  26.625  1.00  0.00     0.031 C 
ATOM     57  C   UNL A   1      39.060  27.300  29.293  1.00  0.00     0.029 A 
ATOM     58  C   UNL A   1      40.065  28.356  29.327  1.00  0.00     0.049 A 
ATOM     59  H   UNL A   1      41.990  28.262  28.535  1.00  0.00     0.167 HD
ATOM     60  C   UNL A   1      46.035  27.917  26.929  1.00  0.00     0.034 A 
ATOM     61  C   UNL A   1      39.896  29.583  29.864  1.00  0.00     0.034 A 
ATOM     62  C   UNL A   1      45.939  29.269  27.416  1.00  0.00     0.049 A 
ATOM     63  C   UNL A   1      41.046  30.563  29.814  1.00  0.00     0.074 A 
ATOM     64  C   UNL A   1      46.885  30.277  27.350  1.00  0.00     0.029 A 
ATOM     65  N   UNL A   1      44.832  29.803  28.061  1.00  0.00    -0.354 N 
ATOM     66  N   UNL A   1      42.238  30.409  29.285  1.00  0.00    -0.248 NA
ATOM     67  C   UNL A   1      40.826  31.885  30.417  1.00  0.00     0.031 C 
ATOM     68  C   UNL A   1      46.374  31.401  28.007  1.00  0.00     0.029 A 
ATOM     69  C   UNL A   1      45.079  31.121  28.413  1.00  0.00     0.049 A 
ATOM     70  H   UNL A   1      43.994  29.318  28.240  1.00  0.00     0.167 HD
ATOM     71  C   UNL A   1      42.885  31.631  29.446  1.00  0.00     0.074 A 
ATOM     72  C   UNL A   1      41.953  32.511  30.117  1.00  0.00     0.031 C 
ATOM     73  C   UNL A   1      44.135  31.995  29.066  1.00  0.00     0.034 A 
BRANCH  60  74
ATOM     74  C   UNL A   1      47.297  27.477  26.235  1.00  0.00     0.023 A 
ATOM     75  C   UNL A   1      48.353  26.880  26.945  1.00  0.00     0.031 A 
ATOM     76  C   UNL A   1      47.462  27.686  24.855  1.00  0.00     0.131 A 
ATOM     77  C   UNL A   1      49.550  26.570  26.285  1.00  0.00     0.055 A 
ATOM     78  C   UNL A   1      48.626  27.303  24.189  1.00  0.00     0.041 A 
ATOM     79  F   UNL A   1      46.497  28.280  24.134  1.00  0.00    -0.206 F 
ATOM     80  C   UNL A   1      49.684  26.752  24.906  1.00  0.00     0.022 A 
BRANCH  77  81
ATOM     81  S   UNL A   1      50.975  26.046  27.275  1.00  0.00     0.124 S 
ATOM     82  O   UNL A   1      51.817  27.240  27.232  1.00  0.00    -0.237 OA
ATOM     83  O   UNL A   1      50.369  25.739  28.565  1.00  0.00    -0.237 OA
ATOM     84  O   UNL A   1      51.498  24.896  26.541  1.00  0.00    -0.744 OA
ENDBRANCH  77  81
ENDBRANCH  60  74
BRANCH  61  85
ATOM     85  C   UNL A   1      38.624  29.960  30.556  1.00  0.00     0.023 A 
ATOM     86  C   UNL A   1      37.603  30.650  29.882  1.00  0.00     0.031 A 
ATOM     87  C   UNL A   1      38.460  29.739  31.937  1.00  0.00     0.131 A 
ATOM     88  C   UNL A   1      36.506  31.157  30.598  1.00  0.00     0.055 A 
ATOM     89  C   UNL A   1      37.333  30.185  32.631  1.00  0.00     0.041 A 
ATOM     90  F   UNL A   1      39.402  29.090  32.639  1.00  0.00    -0.206 F 
ATOM     91  C   UNL A   1      36.356  30.918  31.965  1.00  0.00     0.022 A 
BRANCH  88  92
ATOM     92  S   UNL A   1      35.347  32.264  29.744  1.00  0.00     0.124 S 
ATOM     93  O   UNL A   1      34.395  32.571  30.806  1.00  0.00    -0.237 OA
ATOM     94  O   UNL A   1      36.223  33.354  29.330  1.00  0.00    -0.237 OA
ATOM     95  O   UNL A   1      34.826  31.437  28.658  1.00  0.00    -0.744 OA
ENDBRANCH  88  92
ENDBRANCH  61  85
BRANCH  73  96
ATOM     96  C   UNL A   1      44.537  33.432  29.289  1.00  0.00     0.023 A 
ATOM     97  C   UNL A   1      44.204  34.450  28.381  1.00  0.00     0.031 A 
ATOM     98  C   UNL A   1      45.265  33.782  30.441  1.00  0.00     0.131 A 
ATOM     99  C   UNL A   1      44.642  35.764  28.614  1.00  0.00     0.055 A 
ATOM    100  C   UNL A   1      45.647  35.099  30.696  1.00  0.00     0.041 A 
ATOM    101  F   UNL A   1      45.612  32.848  31.340  1.00  0.00    -0.206 F 
ATOM    102  C   UNL A   1      45.346  36.097  29.774  1.00  0.00     0.022 A 
BRANCH  99 103
ATOM    103  S   UNL A   1      44.348  37.020  27.340  1.00  0.00     0.124 S 
ATOM    104  O   UNL A   1      45.625  37.040  26.632  1.00  0.00    -0.237 OA
ATOM    105  O   UNL A   1      43.221  36.460  26.602  1.00  0.00    -0.237 OA
ATOM    106  O   UNL A   1      44.046  38.226  28.110  1.00  0.00    -0.744 OA
ENDBRANCH  99 103
ENDBRANCH  73  96
ENDBRANCH  47  48
ENDBRANCH  40  42
ENDBRANCH  39  40
ENDBRANCH  38  39
ENDBRANCH  37  38
ENDBRANCH  36  37
ENDBRANCH  35  36
ENDBRANCH  34  35
ENDBRANCH   1  34
TORSDOF 27
ENDMDL
MODEL 2
REMARK VINA RESULT:      -9.5      4.628      5.559
REMARK SMILES COc1ccc([C@@H]2[NH2+][C@H](C(=O)OCCOCCOCCOCCOC(=O)c3ccc(-c4c5nc(c(-c6cc(S(=O)(=O)[O-])ccc6F)c6ccc([nH]6)c(-c6cc(S(=O)(=O)[O-])ccc6F)c6nc(c(-c7cc(S(=O)(=O)[O-])ccc7F)c7ccc4[nH]7)C=C6)C=C5)cc3)CS2)cc1Cn1nc(C)c(Br)c1C
REMARK SMILES IDX 18 1 17 2 16 3 15 4 14 5 13 6 12 7 10 8 11 9 9 10 7 11 8 12
REMARK SMILES IDX 91 13 90 16 6 17 3 18 4 19 93 20 5 21 92 22 2 23 1 24 94 25
REMARK SMILES IDX 95 26 96 27 101 28 97 29 99 30 102 31 98 32 100 33 19 34
REMARK SMILES IDX 20 35 21 36 22 37 23 38 24 39 25 40 26 41 27 42 28 43 89 44
REMARK SMILES IDX 29 45 88 46 30 47 31 48 32 49 82 50 33 51 87 52 81 53 83 54
REMARK SMILES IDX 34 55 86 56 80 57 79 58 35 60 67 61 47 62 66 63 48 64 51 65
REMARK SMILES IDX 65 66 84 67 49 68 50 69 64 71 85 72 52 73 36 74 37 75 45 76
REMARK SMILES IDX 38 77 44 78 46 79 43 80 39 81 40 82 41 83 42 84 68 85 69 86
REMARK SMILES IDX 77 87 70 88 76 89 78 90 75 91 71 92 72 93 73 94 74 95 53 96
REMARK SMILES IDX 54 97 62 98 55 99 61 100 63 101 60 102 56 103 57 104 58 105
REMARK SMILES IDX 59 106
REMARK H PARENT 8 14 8 15 83 59 51 70
REMARK Flexibility Score: inf
ROOT
ATOM      1  O   UNL A   1      35.715  18.441  24.271  1.00  0.00    -0.377 OA
ENDROOT
BRANCH   1   2
ATOM      2  C   UNL A   1      34.697  17.498  24.554  1.00  0.00     0.188 C 
BRANCH   2   3
ATOM      3  C   UNL A   1      33.977  16.923  23.314  1.00  0.00     0.188 C 
BRANCH   3   4
ATOM      4  O   UNL A   1      32.943  17.657  22.666  1.00  0.00    -0.376 OA
BRANCH   4   5
ATOM      5  C   UNL A   1      32.473  18.845  23.285  1.00  0.00     0.202 C 
BRANCH   5   6
ATOM      6  C   UNL A   1      32.106  20.039  22.410  1.00  0.00     0.261 C 
BRANCH   6   7
ATOM      7  O   UNL A   1      32.024  21.319  23.038  1.00  0.00    -0.459 OA
BRANCH   7   8
ATOM      8  C   UNL A   1      32.424  21.424  24.320  1.00  0.00     0.365 C 
ATOM      9  O   UNL A   1      31.683  21.660  25.271  1.00  0.00    -0.245 OA
BRANCH   8  10
ATOM     10  C   UNL A   1      33.934  21.247  24.494  1.00  0.00     0.304 C 
ATOM     11  C   UNL A   1      35.383  23.196  24.551  1.00  0.00     0.274 C 
ATOM     12  N   UNL A   1      34.767  22.185  23.696  1.00  0.00    -0.319 N 
ATOM     13  S   UNL A   1      35.638  22.447  26.169  1.00  0.00    -0.087 SA
ATOM     14  H   UNL A   1      35.500  21.658  23.221  1.00  0.00     0.348 HD
ATOM     15  H   UNL A   1      34.167  22.654  23.017  1.00  0.00     0.348 HD
ATOM     16  C   UNL A   1      34.251  21.314  25.985  1.00  0.00     0.153 C 
BRANCH  11  17
ATOM     17  C   UNL A   1      34.665  24.536  24.566  1.00  0.00     0.021 A 
ATOM     18  C   UNL A   1      33.271  26.988  24.736  1.00  0.00     0.123 A 
ATOM     19  C   UNL A   1      33.990  26.507  25.832  1.00  0.00     0.047 A 
ATOM     20  C   UNL A   1      33.275  26.298  23.514  1.00  0.00     0.016 A 
ATOM     21  C   UNL A   1      34.678  25.294  25.749  1.00  0.00     0.015 A 
ATOM     22  C   UNL A   1      33.972  25.069  23.457  1.00  0.00     0.020 A 
BRANCH  18  23
ATOM     23  O   UNL A   1      32.642  28.189  24.916  1.00  0.00    -0.496 OA
ATOM     24  C   UNL A   1      31.667  28.181  25.960  1.00  0.00     0.278 C 
ENDBRANCH  18  23
BRANCH  20  25
ATOM     25  C   UNL A   1      32.489  26.790  22.318  1.00  0.00     0.184 C 
BRANCH  25  26
ATOM     26  N   UNL A   1      31.083  27.107  22.565  1.00  0.00    -0.264 N 
ATOM     27  N   UNL A   1      30.631  28.340  22.237  1.00  0.00    -0.177 NA
ATOM     28  C   UNL A   1      30.149  26.358  23.252  1.00  0.00     0.050 A 
ATOM     29  C   UNL A   1      29.382  28.390  22.714  1.00  0.00     0.074 A 
ATOM     30  C   UNL A   1      29.060  27.194  23.385  1.00  0.00     0.061 A 
ATOM     31  C   UNL A   1      30.317  24.930  23.618  1.00  0.00     0.067 C 
ATOM     32  C   UNL A   1      28.537  29.581  22.454  1.00  0.00     0.070 C 
ATOM     33  Br  UNL A   1      27.401  26.802  24.163  1.00  0.00    -0.047 Br
ENDBRANCH  25  26
ENDBRANCH  20  25
ENDBRANCH  11  17
ENDBRANCH   8  10
ENDBRANCH   7   8
ENDBRANCH   6   7
ENDBRANCH   5   6
ENDBRANCH   4   5
ENDBRANCH   3   4
ENDBRANCH   2   3
ENDBRANCH   1   2
BRANCH   1  34
ATOM     34  C   UNL A   1      36.874  18.386  25.096  1.00  0.00     0.188 C 
BRANCH  34  35
ATOM     35  C   UNL A   1      37.875  19.546  24.941  1.00  0.00     0.188 C 
BRANCH  35  36
ATOM     36  O   UNL A   1      39.188  19.219  25.392  1.00  0.00    -0.376 OA
BRANCH  36  37
ATOM     37  C   UNL A   1      39.897  20.209  26.125  1.00  0.00     0.202 C 
BRANCH  37  38
ATOM     38  C   UNL A   1      41.425  20.231  25.952  1.00  0.00     0.261 C 
BRANCH  38  39
ATOM     39  O   UNL A   1      42.140  21.283  26.621  1.00  0.00    -0.460 OA
BRANCH  39  40
ATOM     40  C   UNL A   1      42.585  22.325  25.885  1.00  0.00     0.338 C 
ATOM     41  O   UNL A   1      42.915  22.298  24.712  1.00  0.00    -0.246 OA
BRANCH  40  42
ATOM     42  C   UNL A   1      42.425  23.559  26.687  1.00  0.00     0.060 A 
ATOM     43  C   UNL A   1      43.286  24.640  26.453  1.00  0.00     0.016 A 
ATOM     44  C   UNL A   1      41.449  23.637  27.682  1.00  0.00     0.016 A 
ATOM     45  C   UNL A   1      43.213  25.780  27.258  1.00  0.00     0.010 A 
ATOM     46  C   UNL A   1      41.393  24.768  28.501  1.00  0.00     0.010 A 
ATOM     47  C   UNL A   1      42.306  25.823  28.326  1.00  0.00    -0.014 A 
BRANCH  47  48
ATOM     48  C   UNL A   1      42.484  26.811  29.422  1.00  0.00     0.031 A 
ATOM     49  C   UNL A   1      43.434  26.454  30.532  1.00  0.00     0.074 A 
ATOM     50  C   UNL A   1      41.846  27.992  29.449  1.00  0.00     0.049 A 
ATOM     51  N   UNL A   1      43.655  27.064  31.668  1.00  0.00    -0.248 NA
ATOM     52  C   UNL A   1      44.243  25.242  30.329  1.00  0.00     0.031 C 
ATOM     53  C   UNL A   1      40.985  28.509  28.392  1.00  0.00     0.029 A 
ATOM     54  N   UNL A   1      41.821  28.973  30.415  1.00  0.00    -0.354 N 
ATOM     55  C   UNL A   1      44.633  26.314  32.310  1.00  0.00     0.074 A 
ATOM     56  C   UNL A   1      44.926  25.180  31.460  1.00  0.00     0.031 C 
ATOM     57  C   UNL A   1      40.504  29.703  28.778  1.00  0.00     0.029 A 
ATOM     58  C   UNL A   1      40.962  30.008  30.128  1.00  0.00     0.049 A 
ATOM     59  H   UNL A   1      42.366  28.936  31.233  1.00  0.00     0.167 HD
ATOM     60  C   UNL A   1      45.244  26.556  33.495  1.00  0.00     0.034 A 
ATOM     61  C   UNL A   1      40.561  31.059  30.874  1.00  0.00     0.034 A 
ATOM     62  C   UNL A   1      44.930  27.674  34.347  1.00  0.00     0.049 A 
ATOM     63  C   UNL A   1      41.139  31.229  32.261  1.00  0.00     0.074 A 
ATOM     64  C   UNL A   1      45.454  27.982  35.591  1.00  0.00     0.029 A 
ATOM     65  N   UNL A   1      44.008  28.667  34.046  1.00  0.00    -0.354 N 
ATOM     66  N   UNL A   1      42.031  30.490  32.878  1.00  0.00    -0.248 NA
ATOM     67  C   UNL A   1      40.669  32.379  33.046  1.00  0.00     0.031 C 
ATOM     68  C   UNL A   1      44.807  29.127  36.066  1.00  0.00     0.029 A 
ATOM     69  C   UNL A   1      43.936  29.578  35.088  1.00  0.00     0.049 A 
ATOM     70  H   UNL A   1      43.483  28.717  33.214  1.00  0.00     0.167 HD
ATOM     71  C   UNL A   1      42.266  31.118  34.098  1.00  0.00     0.074 A 
ATOM     72  C   UNL A   1      41.426  32.297  34.129  1.00  0.00     0.031 C 
ATOM     73  C   UNL A   1      43.108  30.759  35.100  1.00  0.00     0.034 A 
BRANCH  60  74
ATOM     74  C   UNL A   1      46.278  25.559  33.946  1.00  0.00     0.023 A 
ATOM     75  C   UNL A   1      45.913  24.374  34.607  1.00  0.00     0.031 A 
ATOM     76  C   UNL A   1      47.646  25.811  33.746  1.00  0.00     0.131 A 
ATOM     77  C   UNL A   1      46.906  23.515  35.099  1.00  0.00     0.055 A 
ATOM     78  C   UNL A   1      48.627  24.913  34.168  1.00  0.00     0.041 A 
ATOM     79  F   UNL A   1      48.052  26.942  33.147  1.00  0.00    -0.206 F 
ATOM     80  C   UNL A   1      48.260  23.763  34.860  1.00  0.00     0.022 A 
BRANCH  77  81
ATOM     81  S   UNL A   1      46.409  22.137  36.167  1.00  0.00     0.124 S 
ATOM     82  O   UNL A   1      45.360  22.755  36.974  1.00  0.00    -0.237 OA
ATOM     83  O   UNL A   1      45.967  21.134  35.206  1.00  0.00    -0.237 OA
ATOM     84  O   UNL A   1      47.634  21.809  36.894  1.00  0.00    -0.744 OA
ENDBRANCH  77  81
ENDBRANCH  60  74
BRANCH  61  85
ATOM     85  C   UNL A   1      39.516  32.010  30.379  1.00  0.00     0.023 A 
ATOM     86  C   UNL A   1      38.184  31.603  30.204  1.00  0.00     0.031 A 
ATOM     87  C   UNL A   1      39.862  33.309  29.961  1.00  0.00     0.131 A 
ATOM     88  C   UNL A   1      37.267  32.453  29.562  1.00  0.00     0.055 A 
ATOM     89  C   UNL A   1      38.929  34.176  29.387  1.00  0.00     0.041 A 
ATOM     90  F   UNL A   1      41.120  33.756  30.097  1.00  0.00    -0.206 F 
ATOM     91  C   UNL A   1      37.627  33.742  29.165  1.00  0.00     0.022 A 
BRANCH  88  92
ATOM     92  S   UNL A   1      35.634  31.795  29.119  1.00  0.00     0.124 S 
ATOM     93  O   UNL A   1      34.805  32.306  30.206  1.00  0.00    -0.237 OA
ATOM     94  O   UNL A   1      35.415  32.394  27.807  1.00  0.00    -0.237 OA
ATOM     95  O   UNL A   1      35.840  30.349  29.117  1.00  0.00    -0.744 OA
ENDBRANCH  88  92
ENDBRANCH  61  85
BRANCH  73  96
ATOM     96  C   UNL A   1      43.225  31.696  36.276  1.00  0.00     0.023 A 
ATOM     97  C   UNL A   1      42.271  31.723  37.307  1.00  0.00     0.031 A 
ATOM     98  C   UNL A   1      44.320  32.575  36.362  1.00  0.00     0.131 A 
ATOM     99  C   UNL A   1      42.404  32.647  38.356  1.00  0.00     0.055 A 
ATOM    100  C   UNL A   1      44.478  33.450  37.437  1.00  0.00     0.041 A 
ATOM    101  F   UNL A   1      45.259  32.592  35.403  1.00  0.00    -0.206 F 
ATOM    102  C   UNL A   1      43.510  33.497  38.436  1.00  0.00     0.022 A 
BRANCH  99 103
ATOM    103  S   UNL A   1      41.069  32.779  39.577  1.00  0.00     0.124 S 
ATOM    104  O   UNL A   1      41.160  34.180  39.976  1.00  0.00    -0.237 OA
ATOM    105  O   UNL A   1      39.893  32.416  38.794  1.00  0.00    -0.237 OA
ATOM    106  O   UNL A   1      41.449  31.813  40.607  1.00  0.00    -0.744 OA
ENDBRANCH  99 103
ENDBRANCH  73  96
ENDBRANCH  47  48
ENDBRANCH  40  42
ENDBRANCH  39  40
ENDBRANCH  38  39
ENDBRANCH  37  38
ENDBRANCH  36  37
ENDBRANCH  35  36
ENDBRANCH  34  35
ENDBRANCH   1  34
TORSDOF 27
ENDMDL
MODEL 3
REMARK VINA RESULT:      -9.2      2.782      4.237
REMARK SMILES COc1ccc([C@@H]2[NH2+][C@H](C(=O)OCCOCCOCCOCCOC(=O)c3ccc(-c4c5nc(c(-c6cc(S(=O)(=O)[O-])ccc6F)c6ccc([nH]6)c(-c6cc(S(=O)(=O)[O-])ccc6F)c6nc(c(-c7cc(S(=O)(=O)[O-])ccc7F)c7ccc4[nH]7)C=C6)C=C5)cc3)CS2)cc1Cn1nc(C)c(Br)c1C
REMARK SMILES IDX 18 1 17 2 16 3 15 4 14 5 13 6 12 7 10 8 11 9 9 10 7 11 8 12
REMARK SMILES IDX 91 13 90 16 6 17 3 18 4 19 93 20 5 21 92 22 2 23 1 24 94 25
REMARK SMILES IDX 95 26 96 27 101 28 97 29 99 30 102 31 98 32 100 33 19 34
REMARK SMILES IDX 20 35 21 36 22 37 23 38 24 39 25 40 26 41 27 42 28 43 89 44
REMARK SMILES IDX 29 45 88 46 30 47 31 48 32 49 82 50 33 51 87 52 81 53 83 54
REMARK SMILES IDX 34 55 86 56 80 57 79 58 35 60 67 61 47 62 66 63 48 64 51 65
REMARK SMILES IDX 65 66 84 67 49 68 50 69 64 71 85 72 52 73 36 74 37 75 45 76
REMARK SMILES IDX 38 77 44 78 46 79 43 80 39 81 40 82 41 83 42 84 68 85 69 86
REMARK SMILES IDX 77 87 70 88 76 89 78 90 75 91 71 92 72 93 73 94 74 95 53 96
REMARK SMILES IDX 54 97 62 98 55 99 61 100 63 101 60 102 56 103 57 104 58 105
REMARK SMILES IDX 59 106
REMARK H PARENT 8 14 8 15 83 59 51 70
REMARK Flexibility Score: inf
ROOT
ATOM      1  O   UNL A   1      36.403  21.184  24.865  1.00  0.00    -0.377 OA
ENDROOT
BRANCH   1   2
ATOM      2  C   UNL A   1      35.567  21.115  26.005  1.00  0.00     0.188 C 
BRANCH   2   3
ATOM      3  C   UNL A   1      34.058  21.291  25.721  1.00  0.00     0.188 C 
BRANCH   3   4
ATOM      4  O   UNL A   1      33.532  22.558  25.340  1.00  0.00    -0.376 OA
BRANCH   4   5
ATOM      5  C   UNL A   1      34.305  23.717  25.613  1.00  0.00     0.202 C 
BRANCH   5   6
ATOM      6  C   UNL A   1      33.589  25.026  25.928  1.00  0.00     0.261 C 
BRANCH   6   7
ATOM      7  O   UNL A   1      34.376  26.216  25.974  1.00  0.00    -0.459 OA
BRANCH   7   8
ATOM      8  C   UNL A   1      33.964  27.277  25.253  1.00  0.00     0.365 C 
ATOM      9  O   UNL A   1      33.583  27.230  24.086  1.00  0.00    -0.245 OA
BRANCH   8  10
ATOM     10  C   UNL A   1      34.041  28.596  26.026  1.00  0.00     0.304 C 
ATOM     11  C   UNL A   1      32.347  30.302  25.679  1.00  0.00     0.274 C 
ATOM     12  N   UNL A   1      33.648  29.799  25.245  1.00  0.00    -0.319 N 
ATOM     13  S   UNL A   1      32.170  29.895  27.425  1.00  0.00    -0.087 SA
ATOM     14  H   UNL A   1      34.349  30.527  25.379  1.00  0.00     0.348 HD
ATOM     15  H   UNL A   1      33.584  29.540  24.260  1.00  0.00     0.348 HD
ATOM     16  C   UNL A   1      33.227  28.443  27.307  1.00  0.00     0.153 C 
BRANCH  11  17
ATOM     17  C   UNL A   1      31.180  29.886  24.797  1.00  0.00     0.021 A 
ATOM     18  C   UNL A   1      28.920  29.216  23.241  1.00  0.00     0.123 A 
ATOM     19  C   UNL A   1      29.204  30.551  23.534  1.00  0.00     0.047 A 
ATOM     20  C   UNL A   1      29.781  28.188  23.658  1.00  0.00     0.016 A 
ATOM     21  C   UNL A   1      30.320  30.883  24.305  1.00  0.00     0.015 A 
ATOM     22  C   UNL A   1      30.899  28.549  24.444  1.00  0.00     0.020 A 
BRANCH  18  23
ATOM     23  O   UNL A   1      27.812  28.996  22.470  1.00  0.00    -0.496 OA
ATOM     24  C   UNL A   1      26.626  28.735  23.223  1.00  0.00     0.278 C 
ENDBRANCH  18  23
BRANCH  20  25
ATOM     25  C   UNL A   1      29.485  26.732  23.368  1.00  0.00     0.184 C 
BRANCH  25  26
ATOM     26  N   UNL A   1      30.584  25.961  22.791  1.00  0.00    -0.264 N 
ATOM     27  N   UNL A   1      31.141  26.394  21.634  1.00  0.00    -0.177 NA
ATOM     28  C   UNL A   1      31.054  24.723  23.181  1.00  0.00     0.050 A 
ATOM     29  C   UNL A   1      31.989  25.424  21.274  1.00  0.00     0.074 A 
ATOM     30  C   UNL A   1      31.935  24.353  22.187  1.00  0.00     0.061 A 
ATOM     31  C   UNL A   1      30.724  24.065  24.470  1.00  0.00     0.067 C 
ATOM     32  C   UNL A   1      32.854  25.603  20.082  1.00  0.00     0.070 C 
ATOM     33  Br  UNL A   1      32.990  22.806  22.107  1.00  0.00    -0.047 Br
ENDBRANCH  25  26
ENDBRANCH  20  25
ENDBRANCH  11  17
ENDBRANCH   8  10
ENDBRANCH   7   8
ENDBRANCH   6   7
ENDBRANCH   5   6
ENDBRANCH   4   5
ENDBRANCH   3   4
ENDBRANCH   2   3
ENDBRANCH   1   2
BRANCH   1  34
ATOM     34  C   UNL A   1      37.803  21.239  25.110  1.00  0.00     0.188 C 
BRANCH  34  35
ATOM     35  C   UNL A   1      38.348  22.571  25.659  1.00  0.00     0.188 C 
BRANCH  35  36
ATOM     36  O   UNL A   1      39.225  22.404  26.771  1.00  0.00    -0.376 OA
BRANCH  36  37
ATOM     37  C   UNL A   1      40.613  22.616  26.551  1.00  0.00     0.202 C 
BRANCH  37  38
ATOM     38  C   UNL A   1      41.437  21.390  26.124  1.00  0.00     0.261 C 
BRANCH  38  39
ATOM     39  O   UNL A   1      42.850  21.433  26.385  1.00  0.00    -0.460 OA
BRANCH  39  40
ATOM     40  C   UNL A   1      43.658  21.984  25.453  1.00  0.00     0.338 C 
ATOM     41  O   UNL A   1      43.935  21.516  24.362  1.00  0.00    -0.246 OA
BRANCH  40  42
ATOM     42  C   UNL A   1      44.005  23.353  25.894  1.00  0.00     0.060 A 
ATOM     43  C   UNL A   1      44.430  23.558  27.214  1.00  0.00     0.016 A 
ATOM     44  C   UNL A   1      43.886  24.433  25.016  1.00  0.00     0.016 A 
ATOM     45  C   UNL A   1      44.675  24.853  27.678  1.00  0.00     0.010 A 
ATOM     46  C   UNL A   1      44.109  25.729  25.489  1.00  0.00     0.010 A 
ATOM     47  C   UNL A   1      44.456  25.950  26.834  1.00  0.00    -0.014 A 
BRANCH  47  48
ATOM     48  C   UNL A   1      44.308  27.316  27.401  1.00  0.00     0.031 A 
ATOM     49  C   UNL A   1      45.553  28.146  27.552  1.00  0.00     0.074 A 
ATOM     50  C   UNL A   1      43.121  27.826  27.768  1.00  0.00     0.049 A 
ATOM     51  N   UNL A   1      45.720  29.297  28.150  1.00  0.00    -0.248 NA
ATOM     52  C   UNL A   1      46.776  27.597  26.945  1.00  0.00     0.031 C 
ATOM     53  C   UNL A   1      41.829  27.177  27.578  1.00  0.00     0.029 A 
ATOM     54  N   UNL A   1      42.814  29.018  28.386  1.00  0.00    -0.354 N 
ATOM     55  C   UNL A   1      47.062  29.613  27.983  1.00  0.00     0.074 A 
ATOM     56  C   UNL A   1      47.674  28.511  27.273  1.00  0.00     0.031 C 
ATOM     57  C   UNL A   1      40.873  27.972  28.088  1.00  0.00     0.029 A 
ATOM     58  C   UNL A   1      41.480  29.150  28.697  1.00  0.00     0.049 A 
ATOM     59  H   UNL A   1      43.485  29.709  28.587  1.00  0.00     0.167 HD
ATOM     60  C   UNL A   1      47.724  30.729  28.373  1.00  0.00     0.034 A 
ATOM     61  C   UNL A   1      40.827  30.085  29.418  1.00  0.00     0.034 A 
ATOM     62  C   UNL A   1      47.114  31.811  29.102  1.00  0.00     0.049 A 
ATOM     63  C   UNL A   1      41.612  31.248  29.980  1.00  0.00     0.074 A 
ATOM     64  C   UNL A   1      47.707  32.963  29.590  1.00  0.00     0.029 A 
ATOM     65  N   UNL A   1      45.772  31.876  29.451  1.00  0.00    -0.354 N 
ATOM     66  N   UNL A   1      42.890  31.518  29.855  1.00  0.00    -0.248 NA
ATOM     67  C   UNL A   1      40.866  32.241  30.767  1.00  0.00     0.031 C 
ATOM     68  C   UNL A   1      46.738  33.694  30.283  1.00  0.00     0.029 A 
ATOM     69  C   UNL A   1      45.523  33.040  30.161  1.00  0.00     0.049 A 
ATOM     70  H   UNL A   1      45.096  31.196  29.225  1.00  0.00     0.167 HD
ATOM     71  C   UNL A   1      43.087  32.735  30.500  1.00  0.00     0.074 A 
ATOM     72  C   UNL A   1      41.798  33.150  31.011  1.00  0.00     0.031 C 
ATOM     73  C   UNL A   1      44.230  33.451  30.651  1.00  0.00     0.034 A 
BRANCH  60  74
ATOM     74  C   UNL A   1      49.194  30.799  28.053  1.00  0.00     0.023 A 
ATOM     75  C   UNL A   1      49.676  31.596  27.001  1.00  0.00     0.031 A 
ATOM     76  C   UNL A   1      50.120  30.035  28.784  1.00  0.00     0.131 A 
ATOM     77  C   UNL A   1      51.039  31.564  26.670  1.00  0.00     0.055 A 
ATOM     78  C   UNL A   1      51.485  30.069  28.500  1.00  0.00     0.041 A 
ATOM     79  F   UNL A   1      49.709  29.233  29.779  1.00  0.00    -0.206 F 
ATOM     80  C   UNL A   1      51.950  30.827  27.429  1.00  0.00     0.022 A 
BRANCH  77  81
ATOM     81  S   UNL A   1      51.582  32.397  25.154  1.00  0.00     0.124 S 
ATOM     82  O   UNL A   1      50.535  33.401  24.980  1.00  0.00    -0.237 OA
ATOM     83  O   UNL A   1      52.897  32.904  25.524  1.00  0.00    -0.237 OA
ATOM     84  O   UNL A   1      51.582  31.327  24.158  1.00  0.00    -0.744 OA
ENDBRANCH  77  81
ENDBRANCH  60  74
BRANCH  61  85
ATOM     85  C   UNL A   1      39.366  29.955  29.718  1.00  0.00     0.023 A 
ATOM     86  C   UNL A   1      38.409  30.721  29.033  1.00  0.00     0.031 A 
ATOM     87  C   UNL A   1      38.917  29.147  30.780  1.00  0.00     0.131 A 
ATOM     88  C   UNL A   1      37.071  30.721  29.461  1.00  0.00     0.055 A 
ATOM     89  C   UNL A   1      37.572  29.098  31.157  1.00  0.00     0.041 A 
ATOM     90  F   UNL A   1      39.782  28.396  31.478  1.00  0.00    -0.206 F 
ATOM     91  C   UNL A   1      36.643  29.905  30.509  1.00  0.00     0.022 A 
BRANCH  88  92
ATOM     92  S   UNL A   1      35.922  31.917  28.722  1.00  0.00     0.124 S 
ATOM     93  O   UNL A   1      34.906  32.032  29.763  1.00  0.00    -0.237 OA
ATOM     94  O   UNL A   1      36.781  33.081  28.532  1.00  0.00    -0.237 OA
ATOM     95  O   UNL A   1      35.487  31.256  27.495  1.00  0.00    -0.744 OA
ENDBRANCH  88  92
ENDBRANCH  61  85
BRANCH  73  96
ATOM     96  C   UNL A   1      44.121  34.797  31.322  1.00  0.00     0.023 A 
ATOM     97  C   UNL A   1      43.991  35.989  30.590  1.00  0.00     0.031 A 
ATOM     98  C   UNL A   1      44.144  34.881  32.727  1.00  0.00     0.131 A 
ATOM     99  C   UNL A   1      43.941  37.220  31.264  1.00  0.00     0.055 A 
ATOM    100  C   UNL A   1      44.033  36.102  33.392  1.00  0.00     0.041 A 
ATOM    101  F   UNL A   1      44.267  33.773  33.475  1.00  0.00    -0.206 F 
ATOM    102  C   UNL A   1      43.942  37.281  32.660  1.00  0.00     0.022 A 
BRANCH  99 103
ATOM    103  S   UNL A   1      43.951  38.749  30.289  1.00  0.00     0.124 S 
ATOM    104  O   UNL A   1      43.433  39.722  31.246  1.00  0.00    -0.237 OA
ATOM    105  O   UNL A   1      45.361  38.889  29.941  1.00  0.00    -0.237 OA
ATOM    106  O   UNL A   1      43.063  38.448  29.168  1.00  0.00    -0.744 OA
ENDBRANCH  99 103
ENDBRANCH  73  96
ENDBRANCH  47  48
ENDBRANCH  40  42
ENDBRANCH  39  40
ENDBRANCH  38  39
ENDBRANCH  37  38
ENDBRANCH  36  37
ENDBRANCH  35  36
ENDBRANCH  34  35
ENDBRANCH   1  34
TORSDOF 27
ENDMDL
