MODEL 1
REMARK VINA RESULT:      -9.7      0.000      0.000
REMARK SMILES CC(C)[N@@H+](C)Cc1cc2c(cc1Cl)C=C(C(=O)OCCOCCOCCOCCOC(=O)c1ccc(-c3c4nc(c(-c5cc(S(=O)(=O)[O-])ccc5F)c5ccc([nH]5)c(-c5cc(S(=O)(=O)[O-])ccc5F)c5nc(c(-c6cc(S(=O)(=O)[O-])ccc6F)c6ccc3[nH]6)C=C5)C=C4)cc1)[C@@H](C(F)(F)F)O2
REMARK SMILES IDX 24 1 23 2 22 3 21 4 20 5 19 6 18 7 16 8 17 9 15 10 7 11 8 12
REMARK SMILES IDX 12 13 9 14 11 15 13 16 10 17 101 18 14 19 96 20 6 21 4 22
REMARK SMILES IDX 5 23 2 25 1 26 3 27 97 28 98 29 99 30 100 31 25 32 26 33
REMARK SMILES IDX 27 34 28 35 29 36 30 37 31 38 32 39 33 40 34 41 95 42 35 43
REMARK SMILES IDX 94 44 36 45 37 46 38 47 88 48 39 49 93 50 87 51 89 52 40 53
REMARK SMILES IDX 92 54 86 55 85 56 41 58 73 59 53 60 72 61 54 62 57 63 71 64
REMARK SMILES IDX 90 65 55 66 56 67 70 69 91 70 58 71 42 72 43 73 51 74 44 75
REMARK SMILES IDX 50 76 52 77 49 78 45 79 46 80 47 81 48 82 74 83 75 84 83 85
REMARK SMILES IDX 76 86 82 87 84 88 81 89 77 90 78 91 79 92 80 93 59 94 60 95
REMARK SMILES IDX 68 96 61 97 67 98 69 99 66 100 62 101 63 102 64 103 65 104
REMARK H PARENT 4 24 89 57 57 68
REMARK Flexibility Score: inf
ROOT
ATOM      1  O   UNL A   1      35.845  23.488  23.175  1.00  0.00    -0.377 OA
ENDROOT
BRANCH   1   2
ATOM      2  C   UNL A   1      35.102  24.548  23.752  1.00  0.00     0.188 C 
BRANCH   2   3
ATOM      3  C   UNL A   1      34.230  25.298  22.729  1.00  0.00     0.188 C 
BRANCH   3   4
ATOM      4  O   UNL A   1      33.615  26.468  23.261  1.00  0.00    -0.376 OA
BRANCH   4   5
ATOM      5  C   UNL A   1      32.871  27.299  22.379  1.00  0.00     0.202 C 
BRANCH   5   6
ATOM      6  C   UNL A   1      31.344  27.136  22.331  1.00  0.00     0.261 C 
BRANCH   6   7
ATOM      7  O   UNL A   1      30.703  27.010  23.607  1.00  0.00    -0.460 OA
BRANCH   7   8
ATOM      8  C   UNL A   1      29.896  25.954  23.811  1.00  0.00     0.338 C 
ATOM      9  O   UNL A   1      28.683  25.918  23.698  1.00  0.00    -0.246 OA
BRANCH   8  10
ATOM     10  C   UNL A   1      30.760  24.774  24.028  1.00  0.00     0.087 C 
ATOM     11  C   UNL A   1      33.030  20.276  23.919  1.00  0.00     0.029 A 
ATOM     12  C   UNL A   1      33.017  21.385  24.777  1.00  0.00     0.058 A 
ATOM     13  C   UNL A   1      32.273  20.380  22.736  1.00  0.00     0.050 A 
ATOM     14  C   UNL A   1      32.326  22.554  24.469  1.00  0.00     0.128 A 
ATOM     15  C   UNL A   1      31.536  21.541  22.444  1.00  0.00     0.033 A 
ATOM     16  Cl  UNL A   1      32.161  19.085  21.594  1.00  0.00    -0.084 Cl
ATOM     17  C   UNL A   1      31.540  22.622  23.329  1.00  0.00     0.019 A 
ATOM     18  O   UNL A   1      32.482  23.566  25.363  1.00  0.00    -0.475 OA
ATOM     19  C   UNL A   1      30.687  23.782  23.127  1.00  0.00     0.027 C 
ATOM     20  C   UNL A   1      31.733  24.795  25.182  1.00  0.00     0.316 C 
BRANCH  11  21
ATOM     21  C   UNL A   1      33.738  18.993  24.318  1.00  0.00     0.300 C 
BRANCH  21  22
ATOM     22  N   UNL A   1      32.956  17.833  24.759  1.00  0.00    -0.332 N 
ATOM     23  C   UNL A   1      32.517  17.827  26.144  1.00  0.00     0.333 C 
ATOM     24  H   UNL A   1      32.123  18.079  24.224  1.00  0.00     0.348 HD
BRANCH  22  25
ATOM     25  C   UNL A   1      33.193  16.511  24.172  1.00  0.00     0.177 C 
ATOM     26  C   UNL A   1      34.307  16.568  23.121  1.00  0.00     0.075 C 
ATOM     27  C   UNL A   1      33.468  15.368  25.154  1.00  0.00     0.075 C 
ENDBRANCH  22  25
ENDBRANCH  21  22
ENDBRANCH  11  21
BRANCH  20  28
ATOM     28  C   UNL A   1      31.067  25.107  26.528  1.00  0.00     0.430 C 
ATOM     29  F   UNL A   1      31.785  26.020  27.225  1.00  0.00    -0.167 F 
ATOM     30  F   UNL A   1      29.821  25.609  26.388  1.00  0.00    -0.167 F 
ATOM     31  F   UNL A   1      30.972  23.996  27.297  1.00  0.00    -0.167 F 
ENDBRANCH  20  28
ENDBRANCH   8  10
ENDBRANCH   7   8
ENDBRANCH   6   7
ENDBRANCH   5   6
ENDBRANCH   4   5
ENDBRANCH   3   4
ENDBRANCH   2   3
ENDBRANCH   1   2
BRANCH   1  32
ATOM     32  C   UNL A   1      36.005  22.293  23.942  1.00  0.00     0.188 C 
BRANCH  32  33
ATOM     33  C   UNL A   1      37.400  21.701  24.253  1.00  0.00     0.188 C 
BRANCH  33  34
ATOM     34  O   UNL A   1      37.614  21.423  25.635  1.00  0.00    -0.376 OA
BRANCH  34  35
ATOM     35  C   UNL A   1      38.962  21.290  26.062  1.00  0.00     0.202 C 
BRANCH  35  36
ATOM     36  C   UNL A   1      39.591  19.928  25.745  1.00  0.00     0.261 C 
BRANCH  36  37
ATOM     37  O   UNL A   1      40.756  19.596  26.511  1.00  0.00    -0.460 OA
BRANCH  37  38
ATOM     38  C   UNL A   1      41.969  19.915  25.999  1.00  0.00     0.338 C 
ATOM     39  O   UNL A   1      42.634  19.253  25.226  1.00  0.00    -0.246 OA
BRANCH  38  40
ATOM     40  C   UNL A   1      42.234  21.316  26.391  1.00  0.00     0.060 A 
ATOM     41  C   UNL A   1      42.266  21.662  27.744  1.00  0.00     0.016 A 
ATOM     42  C   UNL A   1      42.371  22.298  25.402  1.00  0.00     0.016 A 
ATOM     43  C   UNL A   1      42.449  22.995  28.110  1.00  0.00     0.010 A 
ATOM     44  C   UNL A   1      42.546  23.635  25.771  1.00  0.00     0.010 A 
ATOM     45  C   UNL A   1      42.602  23.989  27.128  1.00  0.00    -0.014 A 
BRANCH  45  46
ATOM     46  C   UNL A   1      43.021  25.351  27.539  1.00  0.00     0.031 A 
ATOM     47  C   UNL A   1      44.420  25.851  27.360  1.00  0.00     0.074 A 
ATOM     48  C   UNL A   1      42.078  26.148  28.078  1.00  0.00     0.049 A 
ATOM     49  N   UNL A   1      44.888  27.054  27.571  1.00  0.00    -0.248 NA
ATOM     50  C   UNL A   1      45.424  24.886  26.891  1.00  0.00     0.031 C 
ATOM     51  C   UNL A   1      40.693  25.741  28.319  1.00  0.00     0.029 A 
ATOM     52  N   UNL A   1      42.127  27.448  28.510  1.00  0.00    -0.354 N 
ATOM     53  C   UNL A   1      46.237  27.004  27.241  1.00  0.00     0.074 A 
ATOM     54  C   UNL A   1      46.521  25.636  26.861  1.00  0.00     0.031 C 
ATOM     55  C   UNL A   1      40.018  26.778  28.835  1.00  0.00     0.029 A 
ATOM     56  C   UNL A   1      40.925  27.912  28.990  1.00  0.00     0.049 A 
ATOM     57  H   UNL A   1      42.945  27.996  28.479  1.00  0.00     0.167 HD
ATOM     58  C   UNL A   1      47.138  28.018  27.242  1.00  0.00     0.034 A 
ATOM     59  C   UNL A   1      40.584  29.114  29.496  1.00  0.00     0.034 A 
ATOM     60  C   UNL A   1      46.828  29.370  27.642  1.00  0.00     0.049 A 
ATOM     61  C   UNL A   1      41.612  30.214  29.510  1.00  0.00     0.074 A 
ATOM     62  C   UNL A   1      47.660  30.476  27.624  1.00  0.00     0.029 A 
ATOM     63  N   UNL A   1      45.606  29.805  28.141  1.00  0.00    -0.354 N 
ATOM     64  N   UNL A   1      42.853  30.185  29.084  1.00  0.00    -0.248 NA
ATOM     65  C   UNL A   1      41.195  31.515  30.050  1.00  0.00     0.031 C 
ATOM     66  C   UNL A   1      46.973  31.553  28.185  1.00  0.00     0.029 A 
ATOM     67  C   UNL A   1      45.679  31.151  28.470  1.00  0.00     0.049 A 
ATOM     68  H   UNL A   1      44.806  29.241  28.246  1.00  0.00     0.167 HD
ATOM     69  C   UNL A   1      43.356  31.467  29.279  1.00  0.00     0.074 A 
ATOM     70  C   UNL A   1      42.277  32.254  29.839  1.00  0.00     0.031 C 
ATOM     71  C   UNL A   1      44.601  31.942  29.017  1.00  0.00     0.034 A 
BRANCH  58  72
ATOM     72  C   UNL A   1      48.549  27.745  26.776  1.00  0.00     0.023 A 
ATOM     73  C   UNL A   1      48.881  27.870  25.412  1.00  0.00     0.031 A 
ATOM     74  C   UNL A   1      49.509  27.194  27.643  1.00  0.00     0.131 A 
ATOM     75  C   UNL A   1      50.120  27.406  24.949  1.00  0.00     0.055 A 
ATOM     76  C   UNL A   1      50.758  26.773  27.184  1.00  0.00     0.041 A 
ATOM     77  F   UNL A   1      49.239  27.042  28.950  1.00  0.00    -0.206 F 
ATOM     78  C   UNL A   1      51.062  26.864  25.829  1.00  0.00     0.022 A 
BRANCH  75  79
ATOM     79  S   UNL A   1      50.524  27.409  23.181  1.00  0.00     0.124 S 
ATOM     80  O   UNL A   1      50.591  28.839  22.891  1.00  0.00    -0.237 OA
ATOM     81  O   UNL A   1      51.805  26.707  23.158  1.00  0.00    -0.237 OA
ATOM     82  O   UNL A   1      49.406  26.702  22.564  1.00  0.00    -0.744 OA
ENDBRANCH  75  79
ENDBRANCH  58  72
BRANCH  59  83
ATOM     83  C   UNL A   1      39.179  29.328  29.947  1.00  0.00     0.023 A 
ATOM     84  C   UNL A   1      38.272  30.055  29.152  1.00  0.00     0.031 A 
ATOM     85  C   UNL A   1      38.763  28.931  31.229  1.00  0.00     0.131 A 
ATOM     86  C   UNL A   1      37.030  30.429  29.677  1.00  0.00     0.055 A 
ATOM     87  C   UNL A   1      37.493  29.238  31.718  1.00  0.00     0.041 A 
ATOM     88  F   UNL A   1      39.599  28.254  32.030  1.00  0.00    -0.206 F 
ATOM     89  C   UNL A   1      36.627  30.010  30.948  1.00  0.00     0.022 A 
BRANCH  86  90
ATOM     90  S   UNL A   1      35.961  31.596  28.790  1.00  0.00     0.124 S 
ATOM     91  O   UNL A   1      35.560  30.816  27.623  1.00  0.00    -0.237 OA
ATOM     92  O   UNL A   1      34.911  31.845  29.774  1.00  0.00    -0.237 OA
ATOM     93  O   UNL A   1      36.838  32.730  28.519  1.00  0.00    -0.744 OA
ENDBRANCH  86  90
ENDBRANCH  59  83
BRANCH  71  94
ATOM     94  C   UNL A   1      44.903  33.392  29.320  1.00  0.00     0.023 A 
ATOM     95  C   UNL A   1      44.596  34.388  28.369  1.00  0.00     0.031 A 
ATOM     96  C   UNL A   1      45.635  33.769  30.459  1.00  0.00     0.131 A 
ATOM     97  C   UNL A   1      45.064  35.695  28.550  1.00  0.00     0.055 A 
ATOM     98  C   UNL A   1      46.051  35.086  30.662  1.00  0.00     0.041 A 
ATOM     99  F   UNL A   1      45.964  32.859  31.390  1.00  0.00    -0.206 F 
ATOM    100  C   UNL A   1      45.781  36.052  29.696  1.00  0.00     0.022 A 
BRANCH  97 101
ATOM    101  S   UNL A   1      44.847  36.955  27.263  1.00  0.00     0.124 S 
ATOM    102  O   UNL A   1      46.037  36.752  26.438  1.00  0.00    -0.237 OA
ATOM    103  O   UNL A   1      43.586  36.552  26.648  1.00  0.00    -0.237 OA
ATOM    104  O   UNL A   1      44.813  38.213  28.002  1.00  0.00    -0.744 OA
ENDBRANCH  97 101
ENDBRANCH  71  94
ENDBRANCH  45  46
ENDBRANCH  38  40
ENDBRANCH  37  38
ENDBRANCH  36  37
ENDBRANCH  35  36
ENDBRANCH  34  35
ENDBRANCH  33  34
ENDBRANCH  32  33
ENDBRANCH   1  32
TORSDOF 27
ENDMDL
MODEL 2
REMARK VINA RESULT:      -9.7      3.265      8.882
REMARK SMILES CC(C)[N@@H+](C)Cc1cc2c(cc1Cl)C=C(C(=O)OCCOCCOCCOCCOC(=O)c1ccc(-c3c4nc(c(-c5cc(S(=O)(=O)[O-])ccc5F)c5ccc([nH]5)c(-c5cc(S(=O)(=O)[O-])ccc5F)c5nc(c(-c6cc(S(=O)(=O)[O-])ccc6F)c6ccc3[nH]6)C=C5)C=C4)cc1)[C@@H](C(F)(F)F)O2
REMARK SMILES IDX 24 1 23 2 22 3 21 4 20 5 19 6 18 7 16 8 17 9 15 10 7 11 8 12
REMARK SMILES IDX 12 13 9 14 11 15 13 16 10 17 101 18 14 19 96 20 6 21 4 22
REMARK SMILES IDX 5 23 2 25 1 26 3 27 97 28 98 29 99 30 100 31 25 32 26 33
REMARK SMILES IDX 27 34 28 35 29 36 30 37 31 38 32 39 33 40 34 41 95 42 35 43
REMARK SMILES IDX 94 44 36 45 37 46 38 47 88 48 39 49 93 50 87 51 89 52 40 53
REMARK SMILES IDX 92 54 86 55 85 56 41 58 73 59 53 60 72 61 54 62 57 63 71 64
REMARK SMILES IDX 90 65 55 66 56 67 70 69 91 70 58 71 42 72 43 73 51 74 44 75
REMARK SMILES IDX 50 76 52 77 49 78 45 79 46 80 47 81 48 82 74 83 75 84 83 85
REMARK SMILES IDX 76 86 82 87 84 88 81 89 77 90 78 91 79 92 80 93 59 94 60 95
REMARK SMILES IDX 68 96 61 97 67 98 69 99 66 100 62 101 63 102 64 103 65 104
REMARK H PARENT 4 24 89 57 57 68
REMARK Flexibility Score: inf
ROOT
ATOM      1  O   UNL A   1      40.061  22.984  27.619  1.00  0.00    -0.377 OA
ENDROOT
BRANCH   1   2
ATOM      2  C   UNL A   1      39.599  23.410  26.348  1.00  0.00     0.188 C 
BRANCH   2   3
ATOM      3  C   UNL A   1      38.156  23.946  26.381  1.00  0.00     0.188 C 
BRANCH   3   4
ATOM      4  O   UNL A   1      37.202  23.031  25.852  1.00  0.00    -0.376 OA
BRANCH   4   5
ATOM      5  C   UNL A   1      37.679  21.860  25.202  1.00  0.00     0.202 C 
BRANCH   5   6
ATOM      6  C   UNL A   1      36.653  20.849  24.667  1.00  0.00     0.261 C 
BRANCH   6   7
ATOM      7  O   UNL A   1      35.455  20.727  25.444  1.00  0.00    -0.460 OA
BRANCH   7   8
ATOM      8  C   UNL A   1      34.274  20.859  24.816  1.00  0.00     0.338 C 
ATOM      9  O   UNL A   1      33.604  19.976  24.307  1.00  0.00    -0.246 OA
BRANCH   8  10
ATOM     10  C   UNL A   1      33.827  22.256  25.005  1.00  0.00     0.087 C 
ATOM     11  C   UNL A   1      33.047  27.228  24.751  1.00  0.00     0.029 A 
ATOM     12  C   UNL A   1      32.765  26.202  25.665  1.00  0.00     0.058 A 
ATOM     13  C   UNL A   1      33.669  26.850  23.546  1.00  0.00     0.050 A 
ATOM     14  C   UNL A   1      33.046  24.867  25.391  1.00  0.00     0.128 A 
ATOM     15  C   UNL A   1      33.996  25.508  23.286  1.00  0.00     0.033 A 
ATOM     16  Cl  UNL A   1      34.110  28.003  22.333  1.00  0.00    -0.084 Cl
ATOM     17  C   UNL A   1      33.710  24.515  24.225  1.00  0.00     0.019 A 
ATOM     18  O   UNL A   1      32.636  23.986  26.343  1.00  0.00    -0.475 OA
ATOM     19  C   UNL A   1      34.152  23.141  24.050  1.00  0.00     0.027 C 
ATOM     20  C   UNL A   1      32.960  22.580  26.197  1.00  0.00     0.316 C 
BRANCH  11  21
ATOM     21  C   UNL A   1      32.790  28.681  25.109  1.00  0.00     0.300 C 
BRANCH  21  22
ATOM     22  N   UNL A   1      32.982  29.139  26.489  1.00  0.00    -0.332 N 
ATOM     23  C   UNL A   1      31.783  29.359  27.280  1.00  0.00     0.333 C 
ATOM     24  H   UNL A   1      33.356  28.251  26.826  1.00  0.00     0.348 HD
BRANCH  22  25
ATOM     25  C   UNL A   1      34.125  29.988  26.838  1.00  0.00     0.177 C 
ATOM     26  C   UNL A   1      33.671  31.232  27.609  1.00  0.00     0.075 C 
ATOM     27  C   UNL A   1      35.276  29.309  27.586  1.00  0.00     0.075 C 
ENDBRANCH  22  25
ENDBRANCH  21  22
ENDBRANCH  11  21
BRANCH  20  28
ATOM     28  C   UNL A   1      33.571  22.128  27.530  1.00  0.00     0.430 C 
ATOM     29  F   UNL A   1      34.829  22.610  27.675  1.00  0.00    -0.167 F 
ATOM     30  F   UNL A   1      32.861  22.549  28.598  1.00  0.00    -0.167 F 
ATOM     31  F   UNL A   1      33.647  20.777  27.601  1.00  0.00    -0.167 F 
ENDBRANCH  20  28
ENDBRANCH   8  10
ENDBRANCH   7   8
ENDBRANCH   6   7
ENDBRANCH   5   6
ENDBRANCH   4   5
ENDBRANCH   3   4
ENDBRANCH   2   3
ENDBRANCH   1   2
BRANCH   1  32
ATOM     32  C   UNL A   1      41.206  22.131  27.659  1.00  0.00     0.188 C 
BRANCH  32  33
ATOM     33  C   UNL A   1      41.144  20.655  27.198  1.00  0.00     0.188 C 
BRANCH  33  34
ATOM     34  O   UNL A   1      42.423  20.036  27.067  1.00  0.00    -0.376 OA
BRANCH  34  35
ATOM     35  C   UNL A   1      42.462  18.774  26.417  1.00  0.00     0.202 C 
BRANCH  35  36
ATOM     36  C   UNL A   1      43.552  18.653  25.346  1.00  0.00     0.261 C 
BRANCH  36  37
ATOM     37  O   UNL A   1      44.022  19.894  24.804  1.00  0.00    -0.460 OA
BRANCH  37  38
ATOM     38  C   UNL A   1      45.359  20.065  24.669  1.00  0.00     0.338 C 
ATOM     39  O   UNL A   1      46.154  19.277  24.195  1.00  0.00    -0.246 OA
BRANCH  38  40
ATOM     40  C   UNL A   1      45.637  21.477  25.013  1.00  0.00     0.060 A 
ATOM     41  C   UNL A   1      46.166  22.334  24.045  1.00  0.00     0.016 A 
ATOM     42  C   UNL A   1      45.443  21.921  26.327  1.00  0.00     0.016 A 
ATOM     43  C   UNL A   1      46.491  23.645  24.390  1.00  0.00     0.010 A 
ATOM     44  C   UNL A   1      45.776  23.234  26.673  1.00  0.00     0.010 A 
ATOM     45  C   UNL A   1      46.287  24.109  25.702  1.00  0.00    -0.014 A 
BRANCH  45  46
ATOM     46  C   UNL A   1      46.424  25.558  25.985  1.00  0.00     0.031 A 
ATOM     47  C   UNL A   1      45.256  26.419  26.351  1.00  0.00     0.074 A 
ATOM     48  C   UNL A   1      47.662  26.085  25.915  1.00  0.00     0.049 A 
ATOM     49  N   UNL A   1      45.255  27.670  26.732  1.00  0.00    -0.248 NA
ATOM     50  C   UNL A   1      43.921  25.809  26.277  1.00  0.00     0.031 C 
ATOM     51  C   UNL A   1      48.859  25.332  25.539  1.00  0.00     0.029 A 
ATOM     52  N   UNL A   1      48.123  27.352  26.158  1.00  0.00    -0.354 N 
ATOM     53  C   UNL A   1      43.925  27.999  26.967  1.00  0.00     0.074 A 
ATOM     54  C   UNL A   1      43.143  26.825  26.638  1.00  0.00     0.031 C 
ATOM     55  C   UNL A   1      49.922  26.146  25.599  1.00  0.00     0.029 A 
ATOM     56  C   UNL A   1      49.481  27.484  25.986  1.00  0.00     0.049 A 
ATOM     57  H   UNL A   1      47.538  28.097  26.430  1.00  0.00     0.167 HD
ATOM     58  C   UNL A   1      43.420  29.169  27.432  1.00  0.00     0.034 A 
ATOM     59  C   UNL A   1      50.286  28.555  26.126  1.00  0.00     0.034 A 
ATOM     60  C   UNL A   1      44.225  30.328  27.737  1.00  0.00     0.049 A 
ATOM     61  C   UNL A   1      49.695  29.849  26.618  1.00  0.00     0.074 A 
ATOM     62  C   UNL A   1      43.809  31.539  28.264  1.00  0.00     0.029 A 
ATOM     63  N   UNL A   1      45.595  30.436  27.535  1.00  0.00    -0.354 N 
ATOM     64  N   UNL A   1      48.453  30.111  26.950  1.00  0.00    -0.248 NA
ATOM     65  C   UNL A   1      50.610  30.988  26.777  1.00  0.00     0.031 C 
ATOM     66  C   UNL A   1      44.906  32.401  28.303  1.00  0.00     0.029 A 
ATOM     67  C   UNL A   1      46.029  31.705  27.889  1.00  0.00     0.049 A 
ATOM     68  H   UNL A   1      46.173  29.718  27.190  1.00  0.00     0.167 HD
ATOM     69  C   UNL A   1      48.441  31.434  27.383  1.00  0.00     0.074 A 
ATOM     70  C   UNL A   1      49.806  31.909  27.292  1.00  0.00     0.031 C 
ATOM     71  C   UNL A   1      47.392  32.180  27.812  1.00  0.00     0.034 A 
BRANCH  58  72
ATOM     72  C   UNL A   1      41.934  29.279  27.680  1.00  0.00     0.023 A 
ATOM     73  C   UNL A   1      41.434  29.307  28.997  1.00  0.00     0.031 A 
ATOM     74  C   UNL A   1      41.010  29.174  26.624  1.00  0.00     0.131 A 
ATOM     75  C   UNL A   1      40.057  29.185  29.225  1.00  0.00     0.055 A 
ATOM     76  C   UNL A   1      39.636  29.096  26.855  1.00  0.00     0.041 A 
ATOM     77  F   UNL A   1      41.433  29.132  25.350  1.00  0.00    -0.206 F 
ATOM     78  C   UNL A   1      39.155  29.086  28.161  1.00  0.00     0.022 A 
BRANCH  75  79
ATOM     79  S   UNL A   1      39.390  29.064  30.908  1.00  0.00     0.124 S 
ATOM     80  O   UNL A   1      38.062  28.506  30.664  1.00  0.00    -0.237 OA
ATOM     81  O   UNL A   1      40.339  28.157  31.549  1.00  0.00    -0.237 OA
ATOM     82  O   UNL A   1      39.406  30.439  31.392  1.00  0.00    -0.744 OA
ENDBRANCH  75  79
ENDBRANCH  58  72
BRANCH  59  83
ATOM     83  C   UNL A   1      51.746  28.393  25.864  1.00  0.00     0.023 A 
ATOM     84  C   UNL A   1      52.245  28.404  24.547  1.00  0.00     0.031 A 
ATOM     85  C   UNL A   1      52.637  28.092  26.906  1.00  0.00     0.131 A 
ATOM     86  C   UNL A   1      53.575  28.041  24.303  1.00  0.00     0.055 A 
ATOM     87  C   UNL A   1      53.982  27.809  26.665  1.00  0.00     0.041 A 
ATOM     88  F   UNL A   1      52.204  28.052  28.175  1.00  0.00    -0.206 F 
ATOM     89  C   UNL A   1      54.452  27.762  25.356  1.00  0.00     0.022 A 
BRANCH  86  90
ATOM     90  S   UNL A   1      54.168  27.773  22.609  1.00  0.00     0.124 S 
ATOM     91  O   UNL A   1      55.588  28.089  22.730  1.00  0.00    -0.237 OA
ATOM     92  O   UNL A   1      53.850  26.362  22.404  1.00  0.00    -0.237 OA
ATOM     93  O   UNL A   1      53.378  28.708  21.816  1.00  0.00    -0.744 OA
ENDBRANCH  86  90
ENDBRANCH  59  83
BRANCH  71  94
ATOM     94  C   UNL A   1      47.642  33.610  28.235  1.00  0.00     0.023 A 
ATOM     95  C   UNL A   1      47.848  33.914  29.596  1.00  0.00     0.031 A 
ATOM     96  C   UNL A   1      47.514  34.678  27.330  1.00  0.00     0.131 A 
ATOM     97  C   UNL A   1      47.867  35.249  30.018  1.00  0.00     0.055 A 
ATOM     98  C   UNL A   1      47.590  36.007  27.749  1.00  0.00     0.041 A 
ATOM     99  F   UNL A   1      47.306  34.444  26.024  1.00  0.00    -0.206 F 
ATOM    100  C   UNL A   1      47.749  36.298  29.100  1.00  0.00     0.022 A 
BRANCH  97 101
ATOM    101  S   UNL A   1      47.944  35.675  31.781  1.00  0.00     0.124 S 
ATOM    102  O   UNL A   1      47.434  37.044  31.784  1.00  0.00    -0.237 OA
ATOM    103  O   UNL A   1      47.059  34.678  32.376  1.00  0.00    -0.237 OA
ATOM    104  O   UNL A   1      49.358  35.539  32.115  1.00  0.00    -0.744 OA
ENDBRANCH  97 101
ENDBRANCH  71  94
ENDBRANCH  45  46
ENDBRANCH  38  40
ENDBRANCH  37  38
ENDBRANCH  36  37
ENDBRANCH  35  36
ENDBRANCH  34  35
ENDBRANCH  33  34
ENDBRANCH  32  33
ENDBRANCH   1  32
TORSDOF 27
ENDMDL
MODEL 3
REMARK VINA RESULT:      -9.6      1.954      7.370
REMARK SMILES CC(C)[N@@H+](C)Cc1cc2c(cc1Cl)C=C(C(=O)OCCOCCOCCOCCOC(=O)c1ccc(-c3c4nc(c(-c5cc(S(=O)(=O)[O-])ccc5F)c5ccc([nH]5)c(-c5cc(S(=O)(=O)[O-])ccc5F)c5nc(c(-c6cc(S(=O)(=O)[O-])ccc6F)c6ccc3[nH]6)C=C5)C=C4)cc1)[C@@H](C(F)(F)F)O2
REMARK SMILES IDX 24 1 23 2 22 3 21 4 20 5 19 6 18 7 16 8 17 9 15 10 7 11 8 12
REMARK SMILES IDX 12 13 9 14 11 15 13 16 10 17 101 18 14 19 96 20 6 21 4 22
REMARK SMILES IDX 5 23 2 25 1 26 3 27 97 28 98 29 99 30 100 31 25 32 26 33
REMARK SMILES IDX 27 34 28 35 29 36 30 37 31 38 32 39 33 40 34 41 95 42 35 43
REMARK SMILES IDX 94 44 36 45 37 46 38 47 88 48 39 49 93 50 87 51 89 52 40 53
REMARK SMILES IDX 92 54 86 55 85 56 41 58 73 59 53 60 72 61 54 62 57 63 71 64
REMARK SMILES IDX 90 65 55 66 56 67 70 69 91 70 58 71 42 72 43 73 51 74 44 75
REMARK SMILES IDX 50 76 52 77 49 78 45 79 46 80 47 81 48 82 74 83 75 84 83 85
REMARK SMILES IDX 76 86 82 87 84 88 81 89 77 90 78 91 79 92 80 93 59 94 60 95
REMARK SMILES IDX 68 96 61 97 67 98 69 99 66 100 62 101 63 102 64 103 65 104
REMARK H PARENT 4 24 89 57 57 68
REMARK Flexibility Score: inf
ROOT
ATOM      1  O   UNL A   1      35.823  23.448  23.149  1.00  0.00    -0.377 OA
ENDROOT
BRANCH   1   2
ATOM      2  C   UNL A   1      35.101  24.577  23.610  1.00  0.00     0.188 C 
BRANCH   2   3
ATOM      3  C   UNL A   1      34.056  25.078  22.596  1.00  0.00     0.188 C 
BRANCH   3   4
ATOM      4  O   UNL A   1      33.534  26.365  22.913  1.00  0.00    -0.376 OA
BRANCH   4   5
ATOM      5  C   UNL A   1      32.731  27.025  21.943  1.00  0.00     0.202 C 
BRANCH   5   6
ATOM      6  C   UNL A   1      31.207  27.049  22.145  1.00  0.00     0.261 C 
BRANCH   6   7
ATOM      7  O   UNL A   1      30.770  26.886  23.500  1.00  0.00    -0.460 OA
BRANCH   7   8
ATOM      8  C   UNL A   1      29.946  25.862  23.784  1.00  0.00     0.338 C 
ATOM      9  O   UNL A   1      28.728  25.855  23.721  1.00  0.00    -0.246 OA
BRANCH   8  10
ATOM     10  C   UNL A   1      30.788  24.669  24.017  1.00  0.00     0.087 C 
ATOM     11  C   UNL A   1      33.000  20.142  23.945  1.00  0.00     0.029 A 
ATOM     12  C   UNL A   1      32.978  21.247  24.808  1.00  0.00     0.058 A 
ATOM     13  C   UNL A   1      32.277  20.263  22.742  1.00  0.00     0.050 A 
ATOM     14  C   UNL A   1      32.311  22.426  24.488  1.00  0.00     0.128 A 
ATOM     15  C   UNL A   1      31.564  21.436  22.436  1.00  0.00     0.033 A 
ATOM     16  Cl  UNL A   1      32.180  18.976  21.590  1.00  0.00    -0.084 Cl
ATOM     17  C   UNL A   1      31.558  22.512  23.327  1.00  0.00     0.019 A 
ATOM     18  O   UNL A   1      32.455  23.431  25.392  1.00  0.00    -0.475 OA
ATOM     19  C   UNL A   1      30.726  23.684  23.108  1.00  0.00     0.027 C 
ATOM     20  C   UNL A   1      31.729  24.671  25.198  1.00  0.00     0.316 C 
BRANCH  11  21
ATOM     21  C   UNL A   1      33.679  18.848  24.355  1.00  0.00     0.300 C 
BRANCH  21  22
ATOM     22  N   UNL A   1      32.875  17.722  24.842  1.00  0.00    -0.332 N 
ATOM     23  C   UNL A   1      32.506  17.739  26.247  1.00  0.00     0.333 C 
ATOM     24  H   UNL A   1      32.027  17.999  24.347  1.00  0.00     0.348 HD
BRANCH  22  25
ATOM     25  C   UNL A   1      33.030  16.389  24.252  1.00  0.00     0.177 C 
ATOM     26  C   UNL A   1      34.339  16.285  23.463  1.00  0.00     0.075 C 
ATOM     27  C   UNL A   1      32.908  15.201  25.210  1.00  0.00     0.075 C 
ENDBRANCH  22  25
ENDBRANCH  21  22
ENDBRANCH  11  21
BRANCH  20  28
ATOM     28  C   UNL A   1      31.029  24.985  26.527  1.00  0.00     0.430 C 
ATOM     29  F   UNL A   1      31.641  24.354  27.558  1.00  0.00    -0.167 F 
ATOM     30  F   UNL A   1      31.028  26.304  26.816  1.00  0.00    -0.167 F 
ATOM     31  F   UNL A   1      29.739  24.572  26.511  1.00  0.00    -0.167 F 
ENDBRANCH  20  28
ENDBRANCH   8  10
ENDBRANCH   7   8
ENDBRANCH   6   7
ENDBRANCH   5   6
ENDBRANCH   4   5
ENDBRANCH   3   4
ENDBRANCH   2   3
ENDBRANCH   1   2
BRANCH   1  32
ATOM     32  C   UNL A   1      35.975  22.344  24.043  1.00  0.00     0.188 C 
BRANCH  32  33
ATOM     33  C   UNL A   1      37.354  21.700  24.321  1.00  0.00     0.188 C 
BRANCH  33  34
ATOM     34  O   UNL A   1      37.724  21.699  25.698  1.00  0.00    -0.376 OA
BRANCH  34  35
ATOM     35  C   UNL A   1      39.102  21.525  25.993  1.00  0.00     0.202 C 
BRANCH  35  36
ATOM     36  C   UNL A   1      39.621  20.102  25.755  1.00  0.00     0.261 C 
BRANCH  36  37
ATOM     37  O   UNL A   1      40.656  19.668  26.647  1.00  0.00    -0.460 OA
BRANCH  37  38
ATOM     38  C   UNL A   1      41.931  19.664  26.192  1.00  0.00     0.338 C 
ATOM     39  O   UNL A   1      42.482  18.779  25.565  1.00  0.00    -0.246 OA
BRANCH  38  40
ATOM     40  C   UNL A   1      42.461  21.026  26.416  1.00  0.00     0.060 A 
ATOM     41  C   UNL A   1      42.875  21.797  25.327  1.00  0.00     0.016 A 
ATOM     42  C   UNL A   1      42.618  21.502  27.724  1.00  0.00     0.016 A 
ATOM     43  C   UNL A   1      43.436  23.054  25.546  1.00  0.00     0.010 A 
ATOM     44  C   UNL A   1      43.189  22.759  27.942  1.00  0.00     0.010 A 
ATOM     45  C   UNL A   1      43.587  23.549  26.853  1.00  0.00    -0.014 A 
BRANCH  45  46
ATOM     46  C   UNL A   1      43.971  24.968  27.047  1.00  0.00     0.031 A 
ATOM     47  C   UNL A   1      42.996  26.012  27.493  1.00  0.00     0.074 A 
ATOM     48  C   UNL A   1      45.258  25.294  26.818  1.00  0.00     0.049 A 
ATOM     49  N   UNL A   1      43.226  27.260  27.809  1.00  0.00    -0.248 NA
ATOM     50  C   UNL A   1      41.585  25.614  27.593  1.00  0.00     0.031 C 
ATOM     51  C   UNL A   1      46.278  24.353  26.354  1.00  0.00     0.029 A 
ATOM     52  N   UNL A   1      45.930  26.482  26.947  1.00  0.00    -0.354 N 
ATOM     53  C   UNL A   1      41.997  27.798  28.170  1.00  0.00     0.074 A 
ATOM     54  C   UNL A   1      41.015  26.750  27.986  1.00  0.00     0.031 C 
ATOM     55  C   UNL A   1      47.451  24.993  26.258  1.00  0.00     0.029 A 
ATOM     56  C   UNL A   1      47.263  26.395  26.623  1.00  0.00     0.049 A 
ATOM     57  H   UNL A   1      45.499  27.317  27.243  1.00  0.00     0.167 HD
ATOM     58  C   UNL A   1      41.730  29.047  28.627  1.00  0.00     0.034 A 
ATOM     59  C   UNL A   1      48.232  27.333  26.622  1.00  0.00     0.034 A 
ATOM     60  C   UNL A   1      42.730  30.077  28.785  1.00  0.00     0.049 A 
ATOM     61  C   UNL A   1      47.902  28.718  27.110  1.00  0.00     0.074 A 
ATOM     62  C   UNL A   1      42.564  31.354  29.293  1.00  0.00     0.029 A 
ATOM     63  N   UNL A   1      44.069  29.964  28.432  1.00  0.00    -0.354 N 
ATOM     64  N   UNL A   1      46.759  29.181  27.560  1.00  0.00    -0.248 NA
ATOM     65  C   UNL A   1      48.990  29.706  27.113  1.00  0.00     0.031 C 
ATOM     66  C   UNL A   1      43.775  32.036  29.171  1.00  0.00     0.029 A 
ATOM     67  C   UNL A   1      44.727  31.161  28.674  1.00  0.00     0.049 A 
ATOM     68  H   UNL A   1      44.489  29.154  28.063  1.00  0.00     0.167 HD
ATOM     69  C   UNL A   1      46.997  30.502  27.925  1.00  0.00     0.074 A 
ATOM     70  C   UNL A   1      48.398  30.757  27.665  1.00  0.00     0.031 C 
ATOM     71  C   UNL A   1      46.127  31.416  28.428  1.00  0.00     0.034 A 
BRANCH  58  72
ATOM     72  C   UNL A   1      40.315  29.394  29.027  1.00  0.00     0.023 A 
ATOM     73  C   UNL A   1      39.963  29.477  30.389  1.00  0.00     0.031 A 
ATOM     74  C   UNL A   1      39.285  29.465  28.072  1.00  0.00     0.131 A 
ATOM     75  C   UNL A   1      38.616  29.578  30.758  1.00  0.00     0.055 A 
ATOM     76  C   UNL A   1      37.948  29.609  28.444  1.00  0.00     0.041 A 
ATOM     77  F   UNL A   1      39.564  29.381  26.761  1.00  0.00    -0.206 F 
ATOM     78  C   UNL A   1      37.606  29.651  29.792  1.00  0.00     0.022 A 
BRANCH  75  79
ATOM     79  S   UNL A   1      38.111  29.533  32.500  1.00  0.00     0.124 S 
ATOM     80  O   UNL A   1      38.947  28.455  33.026  1.00  0.00    -0.237 OA
ATOM     81  O   UNL A   1      38.464  30.875  32.957  1.00  0.00    -0.237 OA
ATOM     82  O   UNL A   1      36.684  29.240  32.445  1.00  0.00    -0.744 OA
ENDBRANCH  75  79
ENDBRANCH  58  72
BRANCH  59  83
ATOM     83  C   UNL A   1      49.611  26.938  26.213  1.00  0.00     0.023 A 
ATOM     84  C   UNL A   1      50.643  26.843  27.166  1.00  0.00     0.031 A 
ATOM     85  C   UNL A   1      49.946  26.783  24.858  1.00  0.00     0.131 A 
ATOM     86  C   UNL A   1      51.968  26.681  26.744  1.00  0.00     0.055 A 
ATOM     87  C   UNL A   1      51.257  26.542  24.448  1.00  0.00     0.041 A 
ATOM     88  F   UNL A   1      49.000  26.883  23.912  1.00  0.00    -0.206 F 
ATOM     89  C   UNL A   1      52.280  26.511  25.392  1.00  0.00     0.022 A 
BRANCH  86  90
ATOM     90  S   UNL A   1      53.342  26.837  27.919  1.00  0.00     0.124 S 
ATOM     91  O   UNL A   1      52.650  26.785  29.204  1.00  0.00    -0.237 OA
ATOM     92  O   UNL A   1      54.149  25.665  27.590  1.00  0.00    -0.237 OA
ATOM     93  O   UNL A   1      53.944  28.121  27.577  1.00  0.00    -0.744 OA
ENDBRANCH  86  90
ENDBRANCH  59  83
BRANCH  71  94
ATOM     94  C   UNL A   1      46.637  32.803  28.749  1.00  0.00     0.023 A 
ATOM     95  C   UNL A   1      46.619  33.805  27.758  1.00  0.00     0.031 A 
ATOM     96  C   UNL A   1      47.283  33.086  29.966  1.00  0.00     0.131 A 
ATOM     97  C   UNL A   1      47.280  35.019  27.981  1.00  0.00     0.055 A 
ATOM     98  C   UNL A   1      47.892  34.319  30.203  1.00  0.00     0.041 A 
ATOM     99  F   UNL A   1      47.338  32.163  30.939  1.00  0.00    -0.206 F 
ATOM    100  C   UNL A   1      47.907  35.286  29.202  1.00  0.00     0.022 A 
BRANCH  97 101
ATOM    101  S   UNL A   1      47.436  36.258  26.663  1.00  0.00     0.124 S 
ATOM    102  O   UNL A   1      48.417  37.180  27.231  1.00  0.00    -0.237 OA
ATOM    103  O   UNL A   1      47.913  35.454  25.542  1.00  0.00    -0.237 OA
ATOM    104  O   UNL A   1      46.087  36.796  26.523  1.00  0.00    -0.744 OA
ENDBRANCH  97 101
ENDBRANCH  71  94
ENDBRANCH  45  46
ENDBRANCH  38  40
ENDBRANCH  37  38
ENDBRANCH  36  37
ENDBRANCH  35  36
ENDBRANCH  34  35
ENDBRANCH  33  34
ENDBRANCH  32  33
ENDBRANCH   1  32
TORSDOF 27
ENDMDL
