MODEL 1
REMARK VINA RESULT:      -8.5      0.000      0.000
REMARK SMILES O=C(OCCOCCOCCOCCOC(=O)[C@@H]1CCCC[C@@H]1C(=O)Nc1cccc(Br)c1)c1ccc(-c2c3nc(c(-c4cc(S(=O)(=O)[O-])ccc4F)c4ccc([nH]4)c(-c4cc(S(=O)(=O)[O-])ccc4F)c4nc(c(-c5cc(S(=O)(=O)[O-])ccc5F)c5ccc2[nH]5)C=C4)C=C3)cc1
REMARK SMILES IDX 8 1 7 2 6 3 5 4 4 5 3 6 2 7 1 8 34 9 35 10 96 11 36 12 95 13
REMARK SMILES IDX 37 14 38 15 39 16 89 17 40 18 94 19 88 20 90 21 41 22 93 23
REMARK SMILES IDX 87 24 86 25 42 27 74 28 54 29 73 30 55 31 58 32 72 33 91 34
REMARK SMILES IDX 56 35 57 36 71 38 92 39 59 40 43 41 44 42 52 43 45 44 51 45
REMARK SMILES IDX 53 46 50 47 46 48 47 49 48 50 49 51 75 52 76 53 84 54 77 55
REMARK SMILES IDX 83 56 85 57 82 58 78 59 79 60 80 61 81 62 60 63 61 64 69 65
REMARK SMILES IDX 62 66 68 67 70 68 67 69 63 70 64 71 65 72 66 73 9 74 10 75
REMARK SMILES IDX 11 76 12 77 13 78 14 79 15 80 16 81 17 82 18 83 19 84 23 85
REMARK SMILES IDX 20 86 22 87 21 88 24 89 25 90 26 91 27 93 28 94 33 95 29 96
REMARK SMILES IDX 31 97 30 98 32 99
REMARK H PARENT 90 26 58 37 26 92
REMARK Flexibility Score: inf
ROOT
ATOM      1  C   UNL A   1      50.695  28.181  24.959  1.00  0.00     0.188 C 
ENDROOT
BRANCH   1   2
ATOM      2  C   UNL A   1      52.059  28.826  25.045  1.00  0.00     0.188 C 
BRANCH   2   3
ATOM      3  O   UNL A   1      53.041  27.950  24.541  1.00  0.00    -0.376 OA
BRANCH   3   4
ATOM      4  C   UNL A   1      54.247  27.847  25.276  1.00  0.00     0.202 C 
BRANCH   4   5
ATOM      5  C   UNL A   1      53.864  28.006  26.743  1.00  0.00     0.261 C 
BRANCH   5   6
ATOM      6  O   UNL A   1      53.444  26.743  27.304  1.00  0.00    -0.460 OA
BRANCH   6   7
ATOM      7  C   UNL A   1      53.096  26.472  28.591  1.00  0.00     0.338 C 
ATOM      8  O   UNL A   1      53.997  26.164  29.373  1.00  0.00    -0.246 OA
BRANCH   7   9
ATOM      9  C   UNL A   1      51.703  26.587  29.162  1.00  0.00     0.060 A 
ATOM     10  C   UNL A   1      50.536  25.999  28.658  1.00  0.00     0.016 A 
ATOM     11  C   UNL A   1      51.588  27.313  30.365  1.00  0.00     0.016 A 
ATOM     12  C   UNL A   1      49.316  26.089  29.320  1.00  0.00     0.010 A 
ATOM     13  C   UNL A   1      50.353  27.474  31.004  1.00  0.00     0.010 A 
ATOM     14  C   UNL A   1      49.211  26.877  30.461  1.00  0.00    -0.014 A 
BRANCH  14  15
ATOM     15  C   UNL A   1      47.860  27.352  30.806  1.00  0.00     0.031 A 
ATOM     16  C   UNL A   1      47.201  26.662  31.966  1.00  0.00     0.074 A 
ATOM     17  C   UNL A   1      47.331  28.441  30.225  1.00  0.00     0.049 A 
ATOM     18  N   UNL A   1      46.011  26.825  32.472  1.00  0.00    -0.248 NA
ATOM     19  C   UNL A   1      48.021  25.657  32.670  1.00  0.00     0.031 C 
ATOM     20  C   UNL A   1      47.996  29.270  29.219  1.00  0.00     0.029 A 
ATOM     21  N   UNL A   1      46.120  29.049  30.415  1.00  0.00    -0.354 N 
ATOM     22  C   UNL A   1      45.937  25.934  33.538  1.00  0.00     0.074 A 
ATOM     23  C   UNL A   1      47.194  25.233  33.607  1.00  0.00     0.031 C 
ATOM     24  C   UNL A   1      47.172  30.276  28.871  1.00  0.00     0.029 A 
ATOM     25  C   UNL A   1      45.904  30.120  29.579  1.00  0.00     0.049 A 
ATOM     26  H   UNL A   1      45.466  28.748  31.086  1.00  0.00     0.167 HD
ATOM     27  C   UNL A   1      44.896  25.717  34.374  1.00  0.00     0.034 A 
ATOM     28  C   UNL A   1      44.782  30.844  29.389  1.00  0.00     0.034 A 
ATOM     29  C   UNL A   1      43.644  26.409  34.228  1.00  0.00     0.049 A 
ATOM     30  C   UNL A   1      43.572  30.475  30.220  1.00  0.00     0.074 A 
ATOM     31  C   UNL A   1      42.461  26.224  34.916  1.00  0.00     0.029 A 
ATOM     32  N   UNL A   1      43.418  27.423  33.300  1.00  0.00    -0.354 N 
ATOM     33  N   UNL A   1      43.465  29.565  31.166  1.00  0.00    -0.248 NA
ATOM     34  C   UNL A   1      42.334  31.217  29.959  1.00  0.00     0.031 C 
ATOM     35  C   UNL A   1      41.502  27.074  34.355  1.00  0.00     0.029 A 
ATOM     36  C   UNL A   1      42.108  27.854  33.378  1.00  0.00     0.049 A 
ATOM     37  H   UNL A   1      44.093  27.780  32.680  1.00  0.00     0.167 HD
ATOM     38  C   UNL A   1      42.155  29.644  31.630  1.00  0.00     0.074 A 
ATOM     39  C   UNL A   1      41.520  30.706  30.870  1.00  0.00     0.031 C 
ATOM     40  C   UNL A   1      41.525  28.918  32.591  1.00  0.00     0.034 A 
BRANCH  27  41
ATOM     41  C   UNL A   1      45.060  24.612  35.390  1.00  0.00     0.023 A 
ATOM     42  C   UNL A   1      45.424  24.874  36.724  1.00  0.00     0.031 A 
ATOM     43  C   UNL A   1      44.980  23.270  34.981  1.00  0.00     0.131 A 
ATOM     44  C   UNL A   1      45.784  23.813  37.571  1.00  0.00     0.055 A 
ATOM     45  C   UNL A   1      45.254  22.215  35.855  1.00  0.00     0.041 A 
ATOM     46  F   UNL A   1      44.680  22.958  33.711  1.00  0.00    -0.206 F 
ATOM     47  C   UNL A   1      45.676  22.485  37.154  1.00  0.00     0.022 A 
BRANCH  44  48
ATOM     48  S   UNL A   1      46.568  24.200  39.163  1.00  0.00     0.124 S 
ATOM     49  O   UNL A   1      45.740  25.308  39.637  1.00  0.00    -0.237 OA
ATOM     50  O   UNL A   1      46.436  22.946  39.895  1.00  0.00    -0.237 OA
ATOM     51  O   UNL A   1      47.933  24.567  38.793  1.00  0.00    -0.744 OA
ENDBRANCH  44  48
ENDBRANCH  27  41
BRANCH  28  52
ATOM     52  C   UNL A   1      44.712  31.902  28.335  1.00  0.00     0.023 A 
ATOM     53  C   UNL A   1      45.002  33.246  28.618  1.00  0.00     0.031 A 
ATOM     54  C   UNL A   1      44.280  31.591  27.030  1.00  0.00     0.131 A 
ATOM     55  C   UNL A   1      44.818  34.230  27.630  1.00  0.00     0.055 A 
ATOM     56  C   UNL A   1      44.154  32.564  26.035  1.00  0.00     0.041 A 
ATOM     57  F   UNL A   1      43.971  30.328  26.698  1.00  0.00    -0.206 F 
ATOM     58  C   UNL A   1      44.411  33.895  26.336  1.00  0.00     0.022 A 
BRANCH  55  59
ATOM     59  S   UNL A   1      45.020  35.976  28.086  1.00  0.00     0.124 S 
ATOM     60  O   UNL A   1      43.635  36.423  28.171  1.00  0.00    -0.237 OA
ATOM     61  O   UNL A   1      45.742  35.876  29.350  1.00  0.00    -0.237 OA
ATOM     62  O   UNL A   1      45.788  36.532  26.973  1.00  0.00    -0.744 OA
ENDBRANCH  55  59
ENDBRANCH  28  52
BRANCH  40  63
ATOM     63  C   UNL A   1      40.098  29.293  32.897  1.00  0.00     0.023 A 
ATOM     64  C   UNL A   1      39.783  30.330  33.788  1.00  0.00     0.031 A 
ATOM     65  C   UNL A   1      39.044  28.606  32.270  1.00  0.00     0.131 A 
ATOM     66  C   UNL A   1      38.440  30.614  34.073  1.00  0.00     0.055 A 
ATOM     67  C   UNL A   1      37.712  28.941  32.504  1.00  0.00     0.041 A 
ATOM     68  F   UNL A   1      39.296  27.606  31.410  1.00  0.00    -0.206 F 
ATOM     69  C   UNL A   1      37.404  29.942  33.421  1.00  0.00     0.022 A 
BRANCH  66  70
ATOM     70  S   UNL A   1      38.069  31.808  35.385  1.00  0.00     0.124 S 
ATOM     71  O   UNL A   1      37.798  30.932  36.522  1.00  0.00    -0.237 OA
ATOM     72  O   UNL A   1      39.301  32.585  35.459  1.00  0.00    -0.237 OA
ATOM     73  O   UNL A   1      36.909  32.532  34.869  1.00  0.00    -0.744 OA
ENDBRANCH  66  70
ENDBRANCH  40  63
ENDBRANCH  14  15
ENDBRANCH   7   9
ENDBRANCH   6   7
ENDBRANCH   5   6
ENDBRANCH   4   5
ENDBRANCH   3   4
ENDBRANCH   2   3
ENDBRANCH   1   2
BRANCH   1  74
ATOM     74  O   UNL A   1      50.167  28.044  23.633  1.00  0.00    -0.377 OA
BRANCH  74  75
ATOM     75  C   UNL A   1      48.874  27.436  23.438  1.00  0.00     0.188 C 
BRANCH  75  76
ATOM     76  C   UNL A   1      48.667  25.968  23.923  1.00  0.00     0.188 C 
BRANCH  76  77
ATOM     77  O   UNL A   1      47.543  25.863  24.811  1.00  0.00    -0.376 OA
BRANCH  77  78
ATOM     78  C   UNL A   1      47.529  26.635  26.008  1.00  0.00     0.202 C 
BRANCH  78  79
ATOM     79  C   UNL A   1      46.434  27.782  26.089  1.00  0.00     0.261 C 
BRANCH  79  80
ATOM     80  O   UNL A   1      44.735  27.483  26.076  1.00  0.00    -0.463 OA
BRANCH  80  81
ATOM     81  C   UNL A   1      42.957  27.559  25.467  1.00  0.00     0.309 C 
ATOM     82  O   UNL A   1      42.653  27.773  24.266  1.00  0.00    -0.252 OA
BRANCH  81  83
ATOM     83  C   UNL A   1      41.506  27.335  26.416  1.00  0.00     0.111 C 
ATOM     84  C   UNL A   1      41.134  28.721  27.003  1.00  0.00     0.016 C 
ATOM     85  C   UNL A   1      41.009  26.212  27.413  1.00  0.00     0.093 C 
ATOM     86  C   UNL A   1      39.648  28.841  27.332  1.00  0.00     0.001 C 
ATOM     87  C   UNL A   1      39.507  26.361  27.731  1.00  0.00     0.014 C 
ATOM     88  C   UNL A   1      39.162  27.744  28.269  1.00  0.00     0.001 C 
BRANCH  85  89
ATOM     89  C   UNL A   1      41.791  26.197  28.733  1.00  0.00     0.228 C 
ATOM     90  O   UNL A   1      41.761  27.084  29.582  1.00  0.00    -0.274 OA
ATOM     91  N   UNL A   1      42.631  25.136  28.874  1.00  0.00    -0.326 N 
ATOM     92  H   UNL A   1      43.254  25.096  29.636  1.00  0.00     0.169 HD
BRANCH  91  93
ATOM     93  C   UNL A   1      42.603  24.118  27.945  1.00  0.00     0.042 A 
ATOM     94  C   UNL A   1      41.541  22.696  28.260  1.00  0.00     0.026 A 
ATOM     95  C   UNL A   1      43.825  24.040  26.561  1.00  0.00     0.041 A 
ATOM     96  C   UNL A   1      41.615  21.267  27.166  1.00  0.00     0.003 A 
ATOM     97  C   UNL A   1      43.865  22.598  25.455  1.00  0.00     0.020 A 
ATOM     98  C   UNL A   1      42.736  21.229  25.746  1.00  0.00     0.016 A 
ATOM     99  Br  UNL A   1      44.895  22.587  23.878  1.00  0.00    -0.051 Br
ENDBRANCH  91  93
ENDBRANCH  85  89
ENDBRANCH  81  83
ENDBRANCH  80  81
ENDBRANCH  79  80
ENDBRANCH  78  79
ENDBRANCH  77  78
ENDBRANCH  76  77
ENDBRANCH  75  76
ENDBRANCH  74  75
ENDBRANCH   1  74
TORSDOF 25
ENDMDL
MODEL 2
REMARK VINA RESULT:      -8.3      4.120      9.197
REMARK SMILES O=C(OCCOCCOCCOCCOC(=O)[C@@H]1CCCC[C@@H]1C(=O)Nc1cccc(Br)c1)c1ccc(-c2c3nc(c(-c4cc(S(=O)(=O)[O-])ccc4F)c4ccc([nH]4)c(-c4cc(S(=O)(=O)[O-])ccc4F)c4nc(c(-c5cc(S(=O)(=O)[O-])ccc5F)c5ccc2[nH]5)C=C4)C=C3)cc1
REMARK SMILES IDX 8 1 7 2 6 3 5 4 4 5 3 6 2 7 1 8 34 9 35 10 96 11 36 12 95 13
REMARK SMILES IDX 37 14 38 15 39 16 89 17 40 18 94 19 88 20 90 21 41 22 93 23
REMARK SMILES IDX 87 24 86 25 42 27 74 28 54 29 73 30 55 31 58 32 72 33 91 34
REMARK SMILES IDX 56 35 57 36 71 38 92 39 59 40 43 41 44 42 52 43 45 44 51 45
REMARK SMILES IDX 53 46 50 47 46 48 47 49 48 50 49 51 75 52 76 53 84 54 77 55
REMARK SMILES IDX 83 56 85 57 82 58 78 59 79 60 80 61 81 62 60 63 61 64 69 65
REMARK SMILES IDX 62 66 68 67 70 68 67 69 63 70 64 71 65 72 66 73 9 74 10 75
REMARK SMILES IDX 11 76 12 77 13 78 14 79 15 80 16 81 17 82 18 83 19 84 23 85
REMARK SMILES IDX 20 86 22 87 21 88 24 89 25 90 26 91 27 93 28 94 33 95 29 96
REMARK SMILES IDX 31 97 30 98 32 99
REMARK H PARENT 90 26 58 37 26 92
REMARK Flexibility Score: inf
ROOT
ATOM      1  C   UNL A   1      47.115  20.248  35.947  1.00  0.00     0.188 C 
ENDROOT
BRANCH   1   2
ATOM      2  C   UNL A   1      46.002  21.164  36.405  1.00  0.00     0.188 C 
BRANCH   2   3
ATOM      3  O   UNL A   1      46.466  22.493  36.472  1.00  0.00    -0.376 OA
BRANCH   3   4
ATOM      4  C   UNL A   1      47.225  22.849  37.614  1.00  0.00     0.202 C 
BRANCH   4   5
ATOM      5  C   UNL A   1      46.794  24.263  37.986  1.00  0.00     0.261 C 
BRANCH   5   6
ATOM      6  O   UNL A   1      47.494  25.241  37.184  1.00  0.00    -0.460 OA
BRANCH   6   7
ATOM      7  C   UNL A   1      47.278  25.564  35.881  1.00  0.00     0.338 C 
ATOM      8  O   UNL A   1      48.153  25.264  35.066  1.00  0.00    -0.246 OA
BRANCH   7   9
ATOM      9  C   UNL A   1      46.021  26.198  35.334  1.00  0.00     0.060 A 
ATOM     10  C   UNL A   1      44.741  25.630  35.292  1.00  0.00     0.016 A 
ATOM     11  C   UNL A   1      46.148  27.526  34.880  1.00  0.00     0.016 A 
ATOM     12  C   UNL A   1      43.629  26.342  34.855  1.00  0.00     0.010 A 
ATOM     13  C   UNL A   1      45.053  28.231  34.369  1.00  0.00     0.010 A 
ATOM     14  C   UNL A   1      43.794  27.622  34.337  1.00  0.00    -0.014 A 
BRANCH  14  15
ATOM     15  C   UNL A   1      42.731  28.106  33.440  1.00  0.00     0.031 A 
ATOM     16  C   UNL A   1      41.745  29.061  34.051  1.00  0.00     0.074 A 
ATOM     17  C   UNL A   1      42.748  27.839  32.124  1.00  0.00     0.049 A 
ATOM     18  N   UNL A   1      40.686  29.616  33.534  1.00  0.00    -0.248 NA
ATOM     19  C   UNL A   1      42.015  29.463  35.445  1.00  0.00     0.031 C 
ATOM     20  C   UNL A   1      43.782  27.068  31.432  1.00  0.00     0.029 A 
ATOM     21  N   UNL A   1      41.880  28.204  31.132  1.00  0.00    -0.354 N 
ATOM     22  C   UNL A   1      40.158  30.417  34.542  1.00  0.00     0.074 A 
ATOM     23  C   UNL A   1      41.006  30.276  35.699  1.00  0.00     0.031 C 
ATOM     24  C   UNL A   1      43.477  27.010  30.122  1.00  0.00     0.029 A 
ATOM     25  C   UNL A   1      42.198  27.679  29.901  1.00  0.00     0.049 A 
ATOM     26  H   UNL A   1      41.103  28.788  31.285  1.00  0.00     0.167 HD
ATOM     27  C   UNL A   1      39.048  31.189  34.500  1.00  0.00     0.034 A 
ATOM     28  C   UNL A   1      41.493  27.707  28.752  1.00  0.00     0.034 A 
ATOM     29  C   UNL A   1      38.208  31.254  33.335  1.00  0.00     0.049 A 
ATOM     30  C   UNL A   1      40.168  28.439  28.770  1.00  0.00     0.074 A 
ATOM     31  C   UNL A   1      36.996  31.895  33.170  1.00  0.00     0.029 A 
ATOM     32  N   UNL A   1      38.501  30.626  32.127  1.00  0.00    -0.354 N 
ATOM     33  N   UNL A   1      39.613  29.119  29.753  1.00  0.00    -0.248 NA
ATOM     34  C   UNL A   1      39.371  28.405  27.540  1.00  0.00     0.031 C 
ATOM     35  C   UNL A   1      36.524  31.594  31.888  1.00  0.00     0.029 A 
ATOM     36  C   UNL A   1      37.481  30.840  31.221  1.00  0.00     0.049 A 
ATOM     37  H   UNL A   1      39.316  30.105  31.946  1.00  0.00     0.167 HD
ATOM     38  C   UNL A   1      38.414  29.615  29.248  1.00  0.00     0.074 A 
ATOM     39  C   UNL A   1      38.341  29.169  27.868  1.00  0.00     0.031 C 
ATOM     40  C   UNL A   1      37.459  30.368  29.854  1.00  0.00     0.034 A 
BRANCH  27  41
ATOM     41  C   UNL A   1      38.654  31.881  35.783  1.00  0.00     0.023 A 
ATOM     42  C   UNL A   1      38.118  31.175  36.877  1.00  0.00     0.031 A 
ATOM     43  C   UNL A   1      38.692  33.283  35.860  1.00  0.00     0.131 A 
ATOM     44  C   UNL A   1      37.559  31.879  37.956  1.00  0.00     0.055 A 
ATOM     45  C   UNL A   1      38.214  33.974  36.977  1.00  0.00     0.041 A 
ATOM     46  F   UNL A   1      39.152  34.013  34.832  1.00  0.00    -0.206 F 
ATOM     47  C   UNL A   1      37.627  33.272  38.025  1.00  0.00     0.022 A 
BRANCH  44  48
ATOM     48  S   UNL A   1      36.581  30.959  39.180  1.00  0.00     0.124 S 
ATOM     49  O   UNL A   1      37.522  30.857  40.292  1.00  0.00    -0.237 OA
ATOM     50  O   UNL A   1      35.434  31.834  39.391  1.00  0.00    -0.237 OA
ATOM     51  O   UNL A   1      36.287  29.696  38.504  1.00  0.00    -0.744 OA
ENDBRANCH  44  48
ENDBRANCH  27  41
BRANCH  28  52
ATOM     52  C   UNL A   1      41.957  26.965  27.539  1.00  0.00     0.023 A 
ATOM     53  C   UNL A   1      41.943  25.563  27.481  1.00  0.00     0.031 A 
ATOM     54  C   UNL A   1      42.493  27.656  26.433  1.00  0.00     0.131 A 
ATOM     55  C   UNL A   1      42.489  24.898  26.369  1.00  0.00     0.055 A 
ATOM     56  C   UNL A   1      42.981  26.993  25.305  1.00  0.00     0.041 A 
ATOM     57  F   UNL A   1      42.550  28.998  26.431  1.00  0.00    -0.206 F 
ATOM     58  C   UNL A   1      42.994  25.604  25.275  1.00  0.00     0.022 A 
BRANCH  55  59
ATOM     59  S   UNL A   1      42.627  23.088  26.413  1.00  0.00     0.124 S 
ATOM     60  O   UNL A   1      42.680  22.759  24.994  1.00  0.00    -0.237 OA
ATOM     61  O   UNL A   1      43.863  22.897  27.164  1.00  0.00    -0.237 OA
ATOM     62  O   UNL A   1      41.409  22.671  27.105  1.00  0.00    -0.744 OA
ENDBRANCH  55  59
ENDBRANCH  28  52
BRANCH  40  63
ATOM     63  C   UNL A   1      36.289  30.791  29.004  1.00  0.00     0.023 A 
ATOM     64  C   UNL A   1      35.382  29.856  28.481  1.00  0.00     0.031 A 
ATOM     65  C   UNL A   1      36.077  32.154  28.732  1.00  0.00     0.131 A 
ATOM     66  C   UNL A   1      34.333  30.294  27.661  1.00  0.00     0.055 A 
ATOM     67  C   UNL A   1      34.990  32.588  27.975  1.00  0.00     0.041 A 
ATOM     68  F   UNL A   1      36.918  33.085  29.210  1.00  0.00    -0.206 F 
ATOM     69  C   UNL A   1      34.118  31.654  27.423  1.00  0.00     0.022 A 
BRANCH  66  70
ATOM     70  S   UNL A   1      33.310  29.050  26.828  1.00  0.00     0.124 S 
ATOM     71  O   UNL A   1      34.316  28.245  26.140  1.00  0.00    -0.237 OA
ATOM     72  O   UNL A   1      32.633  28.403  27.946  1.00  0.00    -0.237 OA
ATOM     73  O   UNL A   1      32.449  29.845  25.956  1.00  0.00    -0.744 OA
ENDBRANCH  66  70
ENDBRANCH  40  63
ENDBRANCH  14  15
ENDBRANCH   7   9
ENDBRANCH   6   7
ENDBRANCH   5   6
ENDBRANCH   4   5
ENDBRANCH   3   4
ENDBRANCH   2   3
ENDBRANCH   1   2
BRANCH   1  74
ATOM     74  O   UNL A   1      47.199  20.051  34.530  1.00  0.00    -0.377 OA
BRANCH  74  75
ATOM     75  C   UNL A   1      48.453  20.265  33.852  1.00  0.00     0.188 C 
BRANCH  75  76
ATOM     76  C   UNL A   1      49.692  20.679  34.705  1.00  0.00     0.188 C 
BRANCH  76  77
ATOM     77  O   UNL A   1      50.405  21.769  34.099  1.00  0.00    -0.376 OA
BRANCH  77  78
ATOM     78  C   UNL A   1      49.669  22.867  33.564  1.00  0.00     0.202 C 
BRANCH  78  79
ATOM     79  C   UNL A   1      50.504  23.928  32.730  1.00  0.00     0.261 C 
BRANCH  79  80
ATOM     80  O   UNL A   1      49.789  25.100  31.686  1.00  0.00    -0.463 OA
BRANCH  80  81
ATOM     81  C   UNL A   1      48.515  26.341  31.073  1.00  0.00     0.309 C 
ATOM     82  O   UNL A   1      48.209  27.381  31.711  1.00  0.00    -0.252 OA
BRANCH  81  83
ATOM     83  C   UNL A   1      47.608  26.272  29.580  1.00  0.00     0.111 C 
ATOM     84  C   UNL A   1      48.288  25.201  28.689  1.00  0.00     0.016 C 
ATOM     85  C   UNL A   1      46.947  27.364  28.645  1.00  0.00     0.093 C 
ATOM     86  C   UNL A   1      47.333  24.597  27.662  1.00  0.00     0.001 C 
ATOM     87  C   UNL A   1      45.992  26.725  27.616  1.00  0.00     0.014 C 
ATOM     88  C   UNL A   1      46.675  25.649  26.781  1.00  0.00     0.001 C 
BRANCH  85  89
ATOM     89  C   UNL A   1      47.981  28.212  27.895  1.00  0.00     0.228 C 
ATOM     90  O   UNL A   1      48.995  27.778  27.357  1.00  0.00    -0.274 OA
ATOM     91  N   UNL A   1      47.746  29.551  27.941  1.00  0.00    -0.326 N 
ATOM     92  H   UNL A   1      48.411  30.184  27.584  1.00  0.00     0.169 HD
BRANCH  91  93
ATOM     93  C   UNL A   1      46.570  30.018  28.491  1.00  0.00     0.042 A 
ATOM     94  C   UNL A   1      45.256  30.555  27.380  1.00  0.00     0.026 A 
ATOM     95  C   UNL A   1      46.424  30.375  30.298  1.00  0.00     0.041 A 
ATOM     96  C   UNL A   1      43.782  31.339  28.055  1.00  0.00     0.003 A 
ATOM     97  C   UNL A   1      44.916  31.145  30.960  1.00  0.00     0.020 A 
ATOM     98  C   UNL A   1      43.587  31.596  29.836  1.00  0.00     0.016 A 
ATOM     99  Br  UNL A   1      44.604  31.281  32.812  1.00  0.00    -0.051 Br
ENDBRANCH  91  93
ENDBRANCH  85  89
ENDBRANCH  81  83
ENDBRANCH  80  81
ENDBRANCH  79  80
ENDBRANCH  78  79
ENDBRANCH  77  78
ENDBRANCH  76  77
ENDBRANCH  75  76
ENDBRANCH  74  75
ENDBRANCH   1  74
TORSDOF 25
ENDMDL
MODEL 3
REMARK VINA RESULT:      -8.0      3.898     11.998
REMARK SMILES O=C(OCCOCCOCCOCCOC(=O)[C@@H]1CCCC[C@@H]1C(=O)Nc1cccc(Br)c1)c1ccc(-c2c3nc(c(-c4cc(S(=O)(=O)[O-])ccc4F)c4ccc([nH]4)c(-c4cc(S(=O)(=O)[O-])ccc4F)c4nc(c(-c5cc(S(=O)(=O)[O-])ccc5F)c5ccc2[nH]5)C=C4)C=C3)cc1
REMARK SMILES IDX 8 1 7 2 6 3 5 4 4 5 3 6 2 7 1 8 34 9 35 10 96 11 36 12 95 13
REMARK SMILES IDX 37 14 38 15 39 16 89 17 40 18 94 19 88 20 90 21 41 22 93 23
REMARK SMILES IDX 87 24 86 25 42 27 74 28 54 29 73 30 55 31 58 32 72 33 91 34
REMARK SMILES IDX 56 35 57 36 71 38 92 39 59 40 43 41 44 42 52 43 45 44 51 45
REMARK SMILES IDX 53 46 50 47 46 48 47 49 48 50 49 51 75 52 76 53 84 54 77 55
REMARK SMILES IDX 83 56 85 57 82 58 78 59 79 60 80 61 81 62 60 63 61 64 69 65
REMARK SMILES IDX 62 66 68 67 70 68 67 69 63 70 64 71 65 72 66 73 9 74 10 75
REMARK SMILES IDX 11 76 12 77 13 78 14 79 15 80 16 81 17 82 18 83 19 84 23 85
REMARK SMILES IDX 20 86 22 87 21 88 24 89 25 90 26 91 27 93 28 94 33 95 29 96
REMARK SMILES IDX 31 97 30 98 32 99
REMARK H PARENT 90 26 58 37 26 92
REMARK Flexibility Score: inf
ROOT
ATOM      1  C   UNL A   1      36.317  33.537  32.542  1.00  0.00     0.188 C 
ENDROOT
BRANCH   1   2
ATOM      2  C   UNL A   1      34.964  32.898  32.755  1.00  0.00     0.188 C 
BRANCH   2   3
ATOM      3  O   UNL A   1      34.178  33.031  31.594  1.00  0.00    -0.376 OA
BRANCH   3   4
ATOM      4  C   UNL A   1      34.635  33.942  30.610  1.00  0.00     0.202 C 
BRANCH   4   5
ATOM      5  C   UNL A   1      34.475  33.235  29.269  1.00  0.00     0.261 C 
BRANCH   5   6
ATOM      6  O   UNL A   1      34.715  31.816  29.404  1.00  0.00    -0.460 OA
BRANCH   6   7
ATOM      7  C   UNL A   1      35.243  30.965  28.484  1.00  0.00     0.338 C 
ATOM      8  O   UNL A   1      34.657  30.857  27.405  1.00  0.00    -0.246 OA
BRANCH   7   9
ATOM      9  C   UNL A   1      36.530  30.192  28.647  1.00  0.00     0.060 A 
ATOM     10  C   UNL A   1      36.901  29.397  29.738  1.00  0.00     0.016 A 
ATOM     11  C   UNL A   1      37.415  30.232  27.551  1.00  0.00     0.016 A 
ATOM     12  C   UNL A   1      38.073  28.646  29.742  1.00  0.00     0.010 A 
ATOM     13  C   UNL A   1      38.631  29.541  27.570  1.00  0.00     0.010 A 
ATOM     14  C   UNL A   1      38.967  28.766  28.684  1.00  0.00    -0.014 A 
BRANCH  14  15
ATOM     15  C   UNL A   1      40.363  28.389  28.964  1.00  0.00     0.031 A 
ATOM     16  C   UNL A   1      41.168  29.390  29.742  1.00  0.00     0.074 A 
ATOM     17  C   UNL A   1      40.826  27.159  28.686  1.00  0.00     0.049 A 
ATOM     18  N   UNL A   1      42.421  29.363  30.098  1.00  0.00    -0.248 NA
ATOM     19  C   UNL A   1      40.438  30.586  30.204  1.00  0.00     0.031 C 
ATOM     20  C   UNL A   1      40.040  26.073  28.096  1.00  0.00     0.029 A 
ATOM     21  N   UNL A   1      42.064  26.610  28.881  1.00  0.00    -0.354 N 
ATOM     22  C   UNL A   1      42.630  30.541  30.808  1.00  0.00     0.074 A 
ATOM     23  C   UNL A   1      41.382  31.261  30.833  1.00  0.00     0.031 C 
ATOM     24  C   UNL A   1      40.826  24.988  27.968  1.00  0.00     0.029 A 
ATOM     25  C   UNL A   1      42.179  25.325  28.402  1.00  0.00     0.049 A 
ATOM     26  H   UNL A   1      42.801  27.089  29.323  1.00  0.00     0.167 HD
ATOM     27  C   UNL A   1      43.776  30.983  31.375  1.00  0.00     0.034 A 
ATOM     28  C   UNL A   1      43.276  24.550  28.291  1.00  0.00     0.034 A 
ATOM     29  C   UNL A   1      45.008  30.248  31.278  1.00  0.00     0.049 A 
ATOM     30  C   UNL A   1      44.586  25.129  28.782  1.00  0.00     0.074 A 
ATOM     31  C   UNL A   1      46.273  30.608  31.696  1.00  0.00     0.029 A 
ATOM     32  N   UNL A   1      45.119  28.988  30.693  1.00  0.00    -0.354 N 
ATOM     33  N   UNL A   1      44.809  26.287  29.369  1.00  0.00    -0.248 NA
ATOM     34  C   UNL A   1      45.788  24.311  28.593  1.00  0.00     0.031 C 
ATOM     35  C   UNL A   1      47.159  29.600  31.299  1.00  0.00     0.029 A 
ATOM     36  C   UNL A   1      46.435  28.569  30.714  1.00  0.00     0.049 A 
ATOM     37  H   UNL A   1      44.369  28.472  30.319  1.00  0.00     0.167 HD
ATOM     38  C   UNL A   1      46.174  26.323  29.642  1.00  0.00     0.074 A 
ATOM     39  C   UNL A   1      46.714  25.060  29.171  1.00  0.00     0.031 C 
ATOM     40  C   UNL A   1      46.920  27.297  30.227  1.00  0.00     0.034 A 
BRANCH  27  41
ATOM     41  C   UNL A   1      43.737  32.354  32.006  1.00  0.00     0.023 A 
ATOM     42  C   UNL A   1      44.032  33.520  31.275  1.00  0.00     0.031 A 
ATOM     43  C   UNL A   1      43.531  32.480  33.390  1.00  0.00     0.131 A 
ATOM     44  C   UNL A   1      44.204  34.741  31.946  1.00  0.00     0.055 A 
ATOM     45  C   UNL A   1      43.617  33.715  34.039  1.00  0.00     0.041 A 
ATOM     46  F   UNL A   1      43.289  31.399  34.148  1.00  0.00    -0.206 F 
ATOM     47  C   UNL A   1      43.973  34.851  33.319  1.00  0.00     0.022 A 
BRANCH  44  48
ATOM     48  S   UNL A   1      44.911  36.143  31.033  1.00  0.00     0.124 S 
ATOM     49  O   UNL A   1      45.167  35.543  29.726  1.00  0.00    -0.237 OA
ATOM     50  O   UNL A   1      43.838  37.128  31.084  1.00  0.00    -0.237 OA
ATOM     51  O   UNL A   1      46.108  36.483  31.800  1.00  0.00    -0.744 OA
ENDBRANCH  44  48
ENDBRANCH  27  41
BRANCH  28  52
ATOM     52  C   UNL A   1      43.216  23.212  27.624  1.00  0.00     0.023 A 
ATOM     53  C   UNL A   1      44.043  22.892  26.536  1.00  0.00     0.031 A 
ATOM     54  C   UNL A   1      42.270  22.248  28.027  1.00  0.00     0.131 A 
ATOM     55  C   UNL A   1      43.882  21.667  25.865  1.00  0.00     0.055 A 
ATOM     56  C   UNL A   1      42.153  21.009  27.394  1.00  0.00     0.041 A 
ATOM     57  F   UNL A   1      41.438  22.498  29.051  1.00  0.00    -0.206 F 
ATOM     58  C   UNL A   1      42.953  20.718  26.297  1.00  0.00     0.022 A 
BRANCH  55  59
ATOM     59  S   UNL A   1      44.836  21.368  24.349  1.00  0.00     0.124 S 
ATOM     60  O   UNL A   1      46.195  21.272  24.868  1.00  0.00    -0.237 OA
ATOM     61  O   UNL A   1      44.245  20.128  23.860  1.00  0.00    -0.237 OA
ATOM     62  O   UNL A   1      44.561  22.551  23.536  1.00  0.00    -0.744 OA
ENDBRANCH  55  59
ENDBRANCH  28  52
BRANCH  40  63
ATOM     63  C   UNL A   1      48.383  27.001  30.427  1.00  0.00     0.023 A 
ATOM     64  C   UNL A   1      48.826  26.102  31.410  1.00  0.00     0.031 A 
ATOM     65  C   UNL A   1      49.342  27.620  29.606  1.00  0.00     0.131 A 
ATOM     66  C   UNL A   1      50.200  25.890  31.587  1.00  0.00     0.055 A 
ATOM     67  C   UNL A   1      50.703  27.350  29.741  1.00  0.00     0.041 A 
ATOM     68  F   UNL A   1      48.968  28.487  28.652  1.00  0.00    -0.206 F 
ATOM     69  C   UNL A   1      51.139  26.491  30.745  1.00  0.00     0.022 A 
BRANCH  66  70
ATOM     70  S   UNL A   1      50.746  24.895  33.000  1.00  0.00     0.124 S 
ATOM     71  O   UNL A   1      50.801  23.555  32.421  1.00  0.00    -0.237 OA
ATOM     72  O   UNL A   1      52.033  25.499  33.329  1.00  0.00    -0.237 OA
ATOM     73  O   UNL A   1      49.692  25.101  33.990  1.00  0.00    -0.744 OA
ENDBRANCH  66  70
ENDBRANCH  40  63
ENDBRANCH  14  15
ENDBRANCH   7   9
ENDBRANCH   6   7
ENDBRANCH   5   6
ENDBRANCH   4   5
ENDBRANCH   3   4
ENDBRANCH   2   3
ENDBRANCH   1   2
BRANCH   1  74
ATOM     74  O   UNL A   1      37.230  33.414  33.641  1.00  0.00    -0.377 OA
BRANCH  74  75
ATOM     75  C   UNL A   1      37.348  32.155  34.333  1.00  0.00     0.188 C 
BRANCH  75  76
ATOM     76  C   UNL A   1      38.660  31.331  34.149  1.00  0.00     0.188 C 
BRANCH  76  77
ATOM     77  O   UNL A   1      38.393  30.041  33.577  1.00  0.00    -0.376 OA
BRANCH  77  78
ATOM     78  C   UNL A   1      39.484  29.244  33.122  1.00  0.00     0.202 C 
BRANCH  78  79
ATOM     79  C   UNL A   1      40.772  29.225  34.049  1.00  0.00     0.261 C 
BRANCH  79  80
ATOM     80  O   UNL A   1      42.164  28.258  33.731  1.00  0.00    -0.463 OA
BRANCH  80  81
ATOM     81  C   UNL A   1      43.944  27.665  33.872  1.00  0.00     0.309 C 
ATOM     82  O   UNL A   1      44.922  28.450  33.960  1.00  0.00    -0.252 OA
BRANCH  81  83
ATOM     83  C   UNL A   1      44.504  26.010  33.923  1.00  0.00     0.111 C 
ATOM     84  C   UNL A   1      43.851  25.276  32.723  1.00  0.00     0.016 C 
ATOM     85  C   UNL A   1      44.738  24.966  35.088  1.00  0.00     0.093 C 
ATOM     86  C   UNL A   1      44.653  24.059  32.270  1.00  0.00     0.001 C 
ATOM     87  C   UNL A   1      45.547  23.745  34.601  1.00  0.00     0.014 C 
ATOM     88  C   UNL A   1      44.905  23.067  33.397  1.00  0.00     0.001 C 
BRANCH  85  89
ATOM     89  C   UNL A   1      43.431  24.469  35.717  1.00  0.00     0.228 C 
ATOM     90  O   UNL A   1      42.440  24.104  35.092  1.00  0.00    -0.274 OA
ATOM     91  N   UNL A   1      43.399  24.545  37.075  1.00  0.00    -0.326 N 
ATOM     92  H   UNL A   1      42.564  24.354  37.562  1.00  0.00     0.169 HD
BRANCH  91  93
ATOM     93  C   UNL A   1      44.541  24.893  37.765  1.00  0.00     0.042 A 
ATOM     94  C   UNL A   1      44.895  26.644  38.013  1.00  0.00     0.026 A 
ATOM     95  C   UNL A   1      45.840  23.645  38.175  1.00  0.00     0.041 A 
ATOM     96  C   UNL A   1      46.463  27.141  38.746  1.00  0.00     0.003 A 
ATOM     97  C   UNL A   1      47.405  24.169  38.936  1.00  0.00     0.020 A 
ATOM     98  C   UNL A   1      47.697  25.916  39.247  1.00  0.00     0.016 A 
ATOM     99  Br  UNL A   1      48.641  22.923  39.618  1.00  0.00    -0.051 Br
ENDBRANCH  91  93
ENDBRANCH  85  89
ENDBRANCH  81  83
ENDBRANCH  80  81
ENDBRANCH  79  80
ENDBRANCH  78  79
ENDBRANCH  77  78
ENDBRANCH  76  77
ENDBRANCH  75  76
ENDBRANCH  74  75
ENDBRANCH   1  74
TORSDOF 25
ENDMDL
