MODEL 1
REMARK VINA RESULT:     -10.2      0.000      0.000
REMARK SMILES CC1=C(C)C[C@@H](C(=O)N[C@H](C)C(C)(C)C)[C@@H](C(=O)OCCOCCOCCOCCOC(=O)c2ccc(-c3c4nc(c(-c5cc(S(=O)(=O)[O-])ccc5F)c5ccc([nH]5)c(-c5cc(S(=O)(=O)[O-])ccc5F)c5nc(c(-c6cc(S(=O)(=O)[O-])ccc6F)c6ccc3[nH]6)C=C5)C=C4)cc2)C1
REMARK SMILES IDX 25 1 24 2 23 3 22 4 21 5 20 6 19 7 17 8 18 9 16 10 1 11 2 12
REMARK SMILES IDX 3 13 97 14 4 15 5 16 6 17 7 18 8 19 9 20 10 22 11 23 12 24
REMARK SMILES IDX 13 25 14 26 15 27 26 28 27 29 28 30 29 31 30 32 31 33 32 34
REMARK SMILES IDX 33 35 34 36 35 37 96 38 36 39 95 40 37 41 38 42 39 43 89 44
REMARK SMILES IDX 40 45 94 46 88 47 90 48 41 49 93 50 87 51 86 52 42 54 74 55
REMARK SMILES IDX 54 56 73 57 55 58 58 59 72 60 91 61 56 62 57 63 71 65 92 66
REMARK SMILES IDX 59 67 43 68 44 69 52 70 45 71 51 72 53 73 50 74 46 75 47 76
REMARK SMILES IDX 48 77 49 78 75 79 76 80 84 81 77 82 83 83 85 84 82 85 78 86
REMARK SMILES IDX 79 87 80 88 81 89 60 90 61 91 69 92 62 93 68 94 70 95 67 96
REMARK SMILES IDX 63 97 64 98 65 99 66 100
REMARK H PARENT 9 21 90 53 58 64
REMARK Flexibility Score: inf
ROOT
ATOM      1  O   UNL A   1      29.586  29.371  23.240  1.00  0.00    -0.377 OA
ENDROOT
BRANCH   1   2
ATOM      2  C   UNL A   1      30.686  29.242  22.340  1.00  0.00     0.188 C 
BRANCH   2   3
ATOM      3  C   UNL A   1      31.571  28.033  22.647  1.00  0.00     0.188 C 
BRANCH   3   4
ATOM      4  O   UNL A   1      32.787  28.326  23.334  1.00  0.00    -0.376 OA
BRANCH   4   5
ATOM      5  C   UNL A   1      32.674  29.016  24.576  1.00  0.00     0.202 C 
BRANCH   5   6
ATOM      6  C   UNL A   1      32.539  28.153  25.832  1.00  0.00     0.261 C 
BRANCH   6   7
ATOM      7  O   UNL A   1      31.585  27.077  25.724  1.00  0.00    -0.463 OA
BRANCH   7   8
ATOM      8  C   UNL A   1      32.068  25.841  26.013  1.00  0.00     0.310 C 
ATOM      9  O   UNL A   1      31.617  25.101  26.881  1.00  0.00    -0.252 OA
BRANCH   8  10
ATOM     10  C   UNL A   1      33.223  25.413  25.126  1.00  0.00     0.116 C 
ATOM     11  C   UNL A   1      36.654  23.707  26.002  1.00  0.00     0.039 C 
ATOM     12  C   UNL A   1      35.469  24.135  25.175  1.00  0.00    -0.073 C 
ATOM     13  C   UNL A   1      35.284  23.725  23.899  1.00  0.00    -0.074 C 
ATOM     14  C   UNL A   1      34.445  24.968  25.932  1.00  0.00     0.046 C 
ATOM     15  C   UNL A   1      36.233  22.829  23.138  1.00  0.00     0.039 C 
ATOM     16  C   UNL A   1      34.025  24.031  23.120  1.00  0.00     0.045 C 
ATOM     17  C   UNL A   1      32.834  24.541  23.930  1.00  0.00     0.097 C 
BRANCH  17  18
ATOM     18  C   UNL A   1      31.618  23.607  23.986  1.00  0.00     0.224 C 
ATOM     19  O   UNL A   1      30.519  24.064  23.638  1.00  0.00    -0.275 OA
ATOM     20  N   UNL A   1      31.630  22.276  24.233  1.00  0.00    -0.353 N 
ATOM     21  H   UNL A   1      31.179  21.760  23.525  1.00  0.00     0.163 HD
BRANCH  20  22
ATOM     22  C   UNL A   1      32.156  21.409  25.307  1.00  0.00     0.084 C 
ATOM     23  C   UNL A   1      32.862  22.112  26.435  1.00  0.00     0.031 C 
BRANCH  22  24
ATOM     24  C   UNL A   1      33.007  20.223  24.718  1.00  0.00    -0.018 C 
ATOM     25  C   UNL A   1      34.520  20.361  25.001  1.00  0.00     0.013 C 
ATOM     26  C   UNL A   1      32.520  18.923  25.377  1.00  0.00     0.013 C 
ATOM     27  C   UNL A   1      32.850  20.091  23.191  1.00  0.00     0.013 C 
ENDBRANCH  22  24
ENDBRANCH  20  22
ENDBRANCH  17  18
ENDBRANCH   8  10
ENDBRANCH   7   8
ENDBRANCH   6   7
ENDBRANCH   5   6
ENDBRANCH   4   5
ENDBRANCH   3   4
ENDBRANCH   2   3
ENDBRANCH   1   2
BRANCH   1  28
ATOM     28  C   UNL A   1      28.790  30.555  23.100  1.00  0.00     0.188 C 
BRANCH  28  29
ATOM     29  C   UNL A   1      29.115  31.739  24.016  1.00  0.00     0.188 C 
BRANCH  29  30
ATOM     30  O   UNL A   1      30.186  31.532  24.935  1.00  0.00    -0.376 OA
BRANCH  30  31
ATOM     31  C   UNL A   1      30.652  32.671  25.653  1.00  0.00     0.202 C 
BRANCH  31  32
ATOM     32  C   UNL A   1      31.527  32.321  26.853  1.00  0.00     0.261 C 
BRANCH  32  33
ATOM     33  O   UNL A   1      32.804  32.971  26.737  1.00  0.00    -0.460 OA
BRANCH  33  34
ATOM     34  C   UNL A   1      33.313  33.516  27.865  1.00  0.00     0.338 C 
ATOM     35  O   UNL A   1      32.788  34.350  28.582  1.00  0.00    -0.246 OA
BRANCH  34  36
ATOM     36  C   UNL A   1      34.554  32.792  28.201  1.00  0.00     0.060 A 
ATOM     37  C   UNL A   1      34.501  31.402  28.360  1.00  0.00     0.016 A 
ATOM     38  C   UNL A   1      35.758  33.479  28.371  1.00  0.00     0.016 A 
ATOM     39  C   UNL A   1      35.649  30.698  28.725  1.00  0.00     0.010 A 
ATOM     40  C   UNL A   1      36.907  32.774  28.731  1.00  0.00     0.010 A 
ATOM     41  C   UNL A   1      36.852  31.383  28.943  1.00  0.00    -0.014 A 
BRANCH  41  42
ATOM     42  C   UNL A   1      37.984  30.709  29.629  1.00  0.00     0.031 A 
ATOM     43  C   UNL A   1      38.256  31.102  31.057  1.00  0.00     0.074 A 
ATOM     44  C   UNL A   1      38.744  29.781  29.020  1.00  0.00     0.049 A 
ATOM     45  N   UNL A   1      39.222  30.733  31.855  1.00  0.00    -0.248 NA
ATOM     46  C   UNL A   1      37.314  32.065  31.652  1.00  0.00     0.031 C 
ATOM     47  C   UNL A   1      38.559  29.290  27.656  1.00  0.00     0.029 A 
ATOM     48  N   UNL A   1      39.838  29.088  29.478  1.00  0.00    -0.354 N 
ATOM     49  C   UNL A   1      39.005  31.421  33.044  1.00  0.00     0.074 A 
ATOM     50  C   UNL A   1      37.862  32.281  32.835  1.00  0.00     0.031 C 
ATOM     51  C   UNL A   1      39.516  28.385  27.382  1.00  0.00     0.029 A 
ATOM     52  C   UNL A   1      40.395  28.246  28.542  1.00  0.00     0.049 A 
ATOM     53  H   UNL A   1      40.193  29.184  30.391  1.00  0.00     0.167 HD
ATOM     54  C   UNL A   1      39.679  31.326  34.216  1.00  0.00     0.034 A 
ATOM     55  C   UNL A   1      41.492  27.464  28.616  1.00  0.00     0.034 A 
ATOM     56  C   UNL A   1      40.817  30.467  34.412  1.00  0.00     0.049 A 
ATOM     57  C   UNL A   1      42.277  27.430  29.908  1.00  0.00     0.074 A 
ATOM     58  C   UNL A   1      41.577  30.288  35.552  1.00  0.00     0.029 A 
ATOM     59  N   UNL A   1      41.361  29.643  33.435  1.00  0.00    -0.354 N 
ATOM     60  N   UNL A   1      42.054  28.076  31.031  1.00  0.00    -0.248 NA
ATOM     61  C   UNL A   1      43.455  26.552  29.947  1.00  0.00     0.031 C 
ATOM     62  C   UNL A   1      42.616  29.400  35.249  1.00  0.00     0.029 A 
ATOM     63  C   UNL A   1      42.461  28.971  33.940  1.00  0.00     0.049 A 
ATOM     64  H   UNL A   1      41.014  29.550  32.518  1.00  0.00     0.167 HD
ATOM     65  C   UNL A   1      43.039  27.648  31.918  1.00  0.00     0.074 A 
ATOM     66  C   UNL A   1      43.853  26.686  31.204  1.00  0.00     0.031 C 
ATOM     67  C   UNL A   1      43.255  28.012  33.209  1.00  0.00     0.034 A 
BRANCH  54  68
ATOM     68  C   UNL A   1      39.208  32.210  35.344  1.00  0.00     0.023 A 
ATOM     69  C   UNL A   1      39.665  33.533  35.478  1.00  0.00     0.031 A 
ATOM     70  C   UNL A   1      38.358  31.702  36.341  1.00  0.00     0.131 A 
ATOM     71  C   UNL A   1      39.350  34.270  36.628  1.00  0.00     0.055 A 
ATOM     72  C   UNL A   1      37.973  32.473  37.440  1.00  0.00     0.041 A 
ATOM     73  F   UNL A   1      37.912  30.438  36.281  1.00  0.00    -0.206 F 
ATOM     74  C   UNL A   1      38.486  33.758  37.598  1.00  0.00     0.022 A 
BRANCH  71  75
ATOM     75  S   UNL A   1      40.224  35.832  36.920  1.00  0.00     0.124 S 
ATOM     76  O   UNL A   1      39.841  36.128  38.299  1.00  0.00    -0.237 OA
ATOM     77  O   UNL A   1      41.617  35.458  36.710  1.00  0.00    -0.237 OA
ATOM     78  O   UNL A   1      39.659  36.732  35.917  1.00  0.00    -0.744 OA
ENDBRANCH  71  75
ENDBRANCH  54  68
BRANCH  55  79
ATOM     79  C   UNL A   1      41.945  26.663  27.440  1.00  0.00     0.023 A 
ATOM     80  C   UNL A   1      41.682  25.286  27.356  1.00  0.00     0.031 A 
ATOM     81  C   UNL A   1      42.721  27.247  26.424  1.00  0.00     0.131 A 
ATOM     82  C   UNL A   1      42.239  24.528  26.313  1.00  0.00     0.055 A 
ATOM     83  C   UNL A   1      43.229  26.499  25.360  1.00  0.00     0.041 A 
ATOM     84  F   UNL A   1      43.005  28.559  26.454  1.00  0.00    -0.206 F 
ATOM     85  C   UNL A   1      43.001  25.127  25.309  1.00  0.00     0.022 A 
BRANCH  82  86
ATOM     86  S   UNL A   1      42.035  22.725  26.345  1.00  0.00     0.124 S 
ATOM     87  O   UNL A   1      42.533  22.394  27.675  1.00  0.00    -0.237 OA
ATOM     88  O   UNL A   1      40.598  22.578  26.144  1.00  0.00    -0.237 OA
ATOM     89  O   UNL A   1      42.868  22.268  25.234  1.00  0.00    -0.744 OA
ENDBRANCH  82  86
ENDBRANCH  55  79
BRANCH  67  90
ATOM     90  C   UNL A   1      44.376  27.321  33.944  1.00  0.00     0.023 A 
ATOM     91  C   UNL A   1      44.216  26.047  34.515  1.00  0.00     0.031 A 
ATOM     92  C   UNL A   1      45.631  27.947  34.061  1.00  0.00     0.131 A 
ATOM     93  C   UNL A   1      45.277  25.460  35.221  1.00  0.00     0.055 A 
ATOM     94  C   UNL A   1      46.700  27.334  34.715  1.00  0.00     0.041 A 
ATOM     95  F   UNL A   1      45.839  29.164  33.532  1.00  0.00    -0.206 F 
ATOM     96  C   UNL A   1      46.523  26.088  35.310  1.00  0.00     0.022 A 
BRANCH  93  97
ATOM     97  S   UNL A   1      44.988  23.894  36.088  1.00  0.00     0.124 S 
ATOM     98  O   UNL A   1      45.387  24.224  37.453  1.00  0.00    -0.237 OA
ATOM     99  O   UNL A   1      43.560  23.679  35.877  1.00  0.00    -0.237 OA
ATOM    100  O   UNL A   1      45.865  22.951  35.397  1.00  0.00    -0.744 OA
ENDBRANCH  93  97
ENDBRANCH  67  90
ENDBRANCH  41  42
ENDBRANCH  34  36
ENDBRANCH  33  34
ENDBRANCH  32  33
ENDBRANCH  31  32
ENDBRANCH  30  31
ENDBRANCH  29  30
ENDBRANCH  28  29
ENDBRANCH   1  28
TORSDOF 26
ENDMDL
MODEL 2
REMARK VINA RESULT:      -9.8      1.910      7.733
REMARK SMILES CC1=C(C)C[C@@H](C(=O)N[C@H](C)C(C)(C)C)[C@@H](C(=O)OCCOCCOCCOCCOC(=O)c2ccc(-c3c4nc(c(-c5cc(S(=O)(=O)[O-])ccc5F)c5ccc([nH]5)c(-c5cc(S(=O)(=O)[O-])ccc5F)c5nc(c(-c6cc(S(=O)(=O)[O-])ccc6F)c6ccc3[nH]6)C=C5)C=C4)cc2)C1
REMARK SMILES IDX 25 1 24 2 23 3 22 4 21 5 20 6 19 7 17 8 18 9 16 10 1 11 2 12
REMARK SMILES IDX 3 13 97 14 4 15 5 16 6 17 7 18 8 19 9 20 10 22 11 23 12 24
REMARK SMILES IDX 13 25 14 26 15 27 26 28 27 29 28 30 29 31 30 32 31 33 32 34
REMARK SMILES IDX 33 35 34 36 35 37 96 38 36 39 95 40 37 41 38 42 39 43 89 44
REMARK SMILES IDX 40 45 94 46 88 47 90 48 41 49 93 50 87 51 86 52 42 54 74 55
REMARK SMILES IDX 54 56 73 57 55 58 58 59 72 60 91 61 56 62 57 63 71 65 92 66
REMARK SMILES IDX 59 67 43 68 44 69 52 70 45 71 51 72 53 73 50 74 46 75 47 76
REMARK SMILES IDX 48 77 49 78 75 79 76 80 84 81 77 82 83 83 85 84 82 85 78 86
REMARK SMILES IDX 79 87 80 88 81 89 60 90 61 91 69 92 62 93 68 94 70 95 67 96
REMARK SMILES IDX 63 97 64 98 65 99 66 100
REMARK H PARENT 9 21 90 53 58 64
REMARK Flexibility Score: inf
ROOT
ATOM      1  O   UNL A   1      31.518  26.017  22.445  1.00  0.00    -0.377 OA
ENDROOT
BRANCH   1   2
ATOM      2  C   UNL A   1      32.885  26.043  22.035  1.00  0.00     0.188 C 
BRANCH   2   3
ATOM      3  C   UNL A   1      33.809  25.280  22.986  1.00  0.00     0.188 C 
BRANCH   3   4
ATOM      4  O   UNL A   1      33.923  23.880  22.733  1.00  0.00    -0.376 OA
BRANCH   4   5
ATOM      5  C   UNL A   1      35.222  23.387  22.415  1.00  0.00     0.202 C 
BRANCH   5   6
ATOM      6  C   UNL A   1      36.048  22.830  23.577  1.00  0.00     0.261 C 
BRANCH   6   7
ATOM      7  O   UNL A   1      35.715  23.377  24.869  1.00  0.00    -0.463 OA
BRANCH   7   8
ATOM      8  C   UNL A   1      35.302  22.472  25.793  1.00  0.00     0.310 C 
ATOM      9  O   UNL A   1      35.966  21.515  26.178  1.00  0.00    -0.252 OA
BRANCH   8  10
ATOM     10  C   UNL A   1      33.926  22.764  26.363  1.00  0.00     0.116 C 
ATOM     11  C   UNL A   1      31.809  26.075  26.424  1.00  0.00     0.039 C 
ATOM     12  C   UNL A   1      32.109  24.599  26.470  1.00  0.00    -0.073 C 
ATOM     13  C   UNL A   1      31.138  23.659  26.527  1.00  0.00    -0.074 C 
ATOM     14  C   UNL A   1      33.585  24.255  26.330  1.00  0.00     0.046 C 
ATOM     15  C   UNL A   1      29.657  23.955  26.582  1.00  0.00     0.039 C 
ATOM     16  C   UNL A   1      31.430  22.180  26.423  1.00  0.00     0.045 C 
ATOM     17  C   UNL A   1      32.824  21.797  25.926  1.00  0.00     0.097 C 
BRANCH  17  18
ATOM     18  C   UNL A   1      32.875  21.091  24.565  1.00  0.00     0.224 C 
ATOM     19  O   UNL A   1      32.121  21.502  23.670  1.00  0.00    -0.275 OA
ATOM     20  N   UNL A   1      33.769  20.153  24.172  1.00  0.00    -0.353 N 
ATOM     21  H   UNL A   1      34.225  20.399  23.335  1.00  0.00     0.163 HD
BRANCH  20  22
ATOM     22  C   UNL A   1      34.224  18.849  24.696  1.00  0.00     0.084 C 
ATOM     23  C   UNL A   1      35.694  18.559  24.551  1.00  0.00     0.031 C 
BRANCH  22  24
ATOM     24  C   UNL A   1      33.329  17.673  24.155  1.00  0.00    -0.018 C 
ATOM     25  C   UNL A   1      34.116  16.364  23.924  1.00  0.00     0.013 C 
ATOM     26  C   UNL A   1      32.241  17.391  25.204  1.00  0.00     0.013 C 
ATOM     27  C   UNL A   1      32.645  18.024  22.819  1.00  0.00     0.013 C 
ENDBRANCH  22  24
ENDBRANCH  20  22
ENDBRANCH  17  18
ENDBRANCH   8  10
ENDBRANCH   7   8
ENDBRANCH   6   7
ENDBRANCH   5   6
ENDBRANCH   4   5
ENDBRANCH   3   4
ENDBRANCH   2   3
ENDBRANCH   1   2
BRANCH   1  28
ATOM     28  C   UNL A   1      30.829  27.274  22.429  1.00  0.00     0.188 C 
BRANCH  28  29
ATOM     29  C   UNL A   1      31.647  28.535  22.726  1.00  0.00     0.188 C 
BRANCH  29  30
ATOM     30  O   UNL A   1      31.204  29.310  23.838  1.00  0.00    -0.376 OA
BRANCH  30  31
ATOM     31  C   UNL A   1      32.070  29.372  24.968  1.00  0.00     0.202 C 
BRANCH  31  32
ATOM     32  C   UNL A   1      31.687  30.457  25.971  1.00  0.00     0.261 C 
BRANCH  32  33
ATOM     33  O   UNL A   1      32.601  30.447  27.080  1.00  0.00    -0.460 OA
BRANCH  33  34
ATOM     34  C   UNL A   1      33.280  31.590  27.319  1.00  0.00     0.338 C 
ATOM     35  O   UNL A   1      32.841  32.727  27.299  1.00  0.00    -0.246 OA
BRANCH  34  36
ATOM     36  C   UNL A   1      34.628  31.228  27.799  1.00  0.00     0.060 A 
ATOM     37  C   UNL A   1      34.896  29.888  28.104  1.00  0.00     0.016 A 
ATOM     38  C   UNL A   1      35.614  32.203  27.962  1.00  0.00     0.016 A 
ATOM     39  C   UNL A   1      36.146  29.524  28.607  1.00  0.00     0.010 A 
ATOM     40  C   UNL A   1      36.866  31.838  28.459  1.00  0.00     0.010 A 
ATOM     41  C   UNL A   1      37.129  30.501  28.816  1.00  0.00    -0.014 A 
BRANCH  41  42
ATOM     42  C   UNL A   1      38.330  30.192  29.632  1.00  0.00     0.031 A 
ATOM     43  C   UNL A   1      39.311  29.199  29.066  1.00  0.00     0.074 A 
ATOM     44  C   UNL A   1      38.556  30.767  30.828  1.00  0.00     0.049 A 
ATOM     45  N   UNL A   1      40.391  28.694  29.600  1.00  0.00    -0.248 NA
ATOM     46  C   UNL A   1      39.010  28.694  27.716  1.00  0.00     0.031 C 
ATOM     47  C   UNL A   1      37.703  31.767  31.465  1.00  0.00     0.029 A 
ATOM     48  N   UNL A   1      39.578  30.581  31.726  1.00  0.00    -0.354 N 
ATOM     49  C   UNL A   1      40.895  27.810  28.652  1.00  0.00     0.074 A 
ATOM     50  C   UNL A   1      39.965  27.795  27.547  1.00  0.00     0.031 C 
ATOM     51  C   UNL A   1      38.229  32.096  32.659  1.00  0.00     0.029 A 
ATOM     52  C   UNL A   1      39.445  31.317  32.881  1.00  0.00     0.049 A 
ATOM     53  H   UNL A   1      40.337  29.975  31.559  1.00  0.00     0.167 HD
ATOM     54  C   UNL A   1      42.045  27.094  28.686  1.00  0.00     0.034 A 
ATOM     55  C   UNL A   1      40.214  31.345  33.989  1.00  0.00     0.034 A 
ATOM     56  C   UNL A   1      42.964  27.115  29.793  1.00  0.00     0.049 A 
ATOM     57  C   UNL A   1      41.453  30.480  34.040  1.00  0.00     0.074 A 
ATOM     58  C   UNL A   1      44.157  26.432  29.938  1.00  0.00     0.029 A 
ATOM     59  N   UNL A   1      42.785  27.859  30.952  1.00  0.00    -0.354 N 
ATOM     60  N   UNL A   1      41.928  29.657  33.131  1.00  0.00    -0.248 NA
ATOM     61  C   UNL A   1      42.269  30.557  35.260  1.00  0.00     0.031 C 
ATOM     62  C   UNL A   1      44.671  26.719  31.208  1.00  0.00     0.029 A 
ATOM     63  C   UNL A   1      43.835  27.635  31.826  1.00  0.00     0.049 A 
ATOM     64  H   UNL A   1      42.024  28.459  31.126  1.00  0.00     0.167 HD
ATOM     65  C   UNL A   1      43.115  29.152  33.657  1.00  0.00     0.074 A 
ATOM     66  C   UNL A   1      43.289  29.768  34.956  1.00  0.00     0.031 C 
ATOM     67  C   UNL A   1      43.989  28.264  33.117  1.00  0.00     0.034 A 
BRANCH  54  68
ATOM     68  C   UNL A   1      42.329  26.207  27.498  1.00  0.00     0.023 A 
ATOM     69  C   UNL A   1      41.905  24.867  27.466  1.00  0.00     0.031 A 
ATOM     70  C   UNL A   1      43.098  26.681  26.422  1.00  0.00     0.131 A 
ATOM     71  C   UNL A   1      42.333  24.022  26.433  1.00  0.00     0.055 A 
ATOM     72  C   UNL A   1      43.445  25.858  25.349  1.00  0.00     0.041 A 
ATOM     73  F   UNL A   1      43.553  27.944  26.410  1.00  0.00    -0.206 F 
ATOM     74  C   UNL A   1      43.079  24.515  25.360  1.00  0.00     0.022 A 
BRANCH  71  75
ATOM     75  S   UNL A   1      42.049  22.238  26.602  1.00  0.00     0.124 S 
ATOM     76  O   UNL A   1      43.139  21.691  25.797  1.00  0.00    -0.237 OA
ATOM     77  O   UNL A   1      42.155  22.038  28.042  1.00  0.00    -0.237 OA
ATOM     78  O   UNL A   1      40.714  22.050  26.040  1.00  0.00    -0.744 OA
ENDBRANCH  71  75
ENDBRANCH  54  68
BRANCH  55  79
ATOM     79  C   UNL A   1      39.842  32.194  35.160  1.00  0.00     0.023 A 
ATOM     80  C   UNL A   1      39.054  31.684  36.205  1.00  0.00     0.031 A 
ATOM     81  C   UNL A   1      40.199  33.553  35.210  1.00  0.00     0.131 A 
ATOM     82  C   UNL A   1      38.600  32.538  37.223  1.00  0.00     0.055 A 
ATOM     83  C   UNL A   1      39.789  34.387  36.253  1.00  0.00     0.041 A 
ATOM     84  F   UNL A   1      40.951  34.094  34.238  1.00  0.00    -0.206 F 
ATOM     85  C   UNL A   1      38.971  33.884  37.259  1.00  0.00     0.022 A 
BRANCH  82  86
ATOM     86  S   UNL A   1      37.429  31.886  38.447  1.00  0.00     0.124 S 
ATOM     87  O   UNL A   1      37.260  30.511  37.991  1.00  0.00    -0.237 OA
ATOM     88  O   UNL A   1      38.165  32.061  39.694  1.00  0.00    -0.237 OA
ATOM     89  O   UNL A   1      36.257  32.745  38.290  1.00  0.00    -0.744 OA
ENDBRANCH  82  86
ENDBRANCH  55  79
BRANCH  67  90
ATOM     90  C   UNL A   1      45.237  27.955  33.906  1.00  0.00     0.023 A 
ATOM     91  C   UNL A   1      45.303  26.872  34.798  1.00  0.00     0.031 A 
ATOM     92  C   UNL A   1      46.383  28.756  33.750  1.00  0.00     0.131 A 
ATOM     93  C   UNL A   1      46.474  26.646  35.537  1.00  0.00     0.055 A 
ATOM     94  C   UNL A   1      47.564  28.494  34.445  1.00  0.00     0.041 A 
ATOM     95  F   UNL A   1      46.375  29.803  32.909  1.00  0.00    -0.206 F 
ATOM     96  C   UNL A   1      47.610  27.440  35.354  1.00  0.00     0.022 A 
BRANCH  93  97
ATOM     97  S   UNL A   1      46.471  25.346  36.800  1.00  0.00     0.124 S 
ATOM     98  O   UNL A   1      47.898  25.120  37.008  1.00  0.00    -0.237 OA
ATOM     99  O   UNL A   1      45.760  25.982  37.904  1.00  0.00    -0.237 OA
ATOM    100  O   UNL A   1      45.756  24.244  36.158  1.00  0.00    -0.744 OA
ENDBRANCH  93  97
ENDBRANCH  67  90
ENDBRANCH  41  42
ENDBRANCH  34  36
ENDBRANCH  33  34
ENDBRANCH  32  33
ENDBRANCH  31  32
ENDBRANCH  30  31
ENDBRANCH  29  30
ENDBRANCH  28  29
ENDBRANCH   1  28
TORSDOF 26
ENDMDL
MODEL 3
REMARK VINA RESULT:      -9.4      4.426     10.295
REMARK SMILES CC1=C(C)C[C@@H](C(=O)N[C@H](C)C(C)(C)C)[C@@H](C(=O)OCCOCCOCCOCCOC(=O)c2ccc(-c3c4nc(c(-c5cc(S(=O)(=O)[O-])ccc5F)c5ccc([nH]5)c(-c5cc(S(=O)(=O)[O-])ccc5F)c5nc(c(-c6cc(S(=O)(=O)[O-])ccc6F)c6ccc3[nH]6)C=C5)C=C4)cc2)C1
REMARK SMILES IDX 25 1 24 2 23 3 22 4 21 5 20 6 19 7 17 8 18 9 16 10 1 11 2 12
REMARK SMILES IDX 3 13 97 14 4 15 5 16 6 17 7 18 8 19 9 20 10 22 11 23 12 24
REMARK SMILES IDX 13 25 14 26 15 27 26 28 27 29 28 30 29 31 30 32 31 33 32 34
REMARK SMILES IDX 33 35 34 36 35 37 96 38 36 39 95 40 37 41 38 42 39 43 89 44
REMARK SMILES IDX 40 45 94 46 88 47 90 48 41 49 93 50 87 51 86 52 42 54 74 55
REMARK SMILES IDX 54 56 73 57 55 58 58 59 72 60 91 61 56 62 57 63 71 65 92 66
REMARK SMILES IDX 59 67 43 68 44 69 52 70 45 71 51 72 53 73 50 74 46 75 47 76
REMARK SMILES IDX 48 77 49 78 75 79 76 80 84 81 77 82 83 83 85 84 82 85 78 86
REMARK SMILES IDX 79 87 80 88 81 89 60 90 61 91 69 92 62 93 68 94 70 95 67 96
REMARK SMILES IDX 63 97 64 98 65 99 66 100
REMARK H PARENT 9 21 90 53 58 64
REMARK Flexibility Score: inf
ROOT
ATOM      1  O   UNL A   1      33.876  24.201  22.734  1.00  0.00    -0.377 OA
ENDROOT
BRANCH   1   2
ATOM      2  C   UNL A   1      33.231  24.464  21.488  1.00  0.00     0.188 C 
BRANCH   2   3
ATOM      3  C   UNL A   1      32.910  25.945  21.283  1.00  0.00     0.188 C 
BRANCH   3   4
ATOM      4  O   UNL A   1      33.256  26.801  22.372  1.00  0.00    -0.376 OA
BRANCH   4   5
ATOM      5  C   UNL A   1      33.675  28.123  22.043  1.00  0.00     0.202 C 
BRANCH   5   6
ATOM      6  C   UNL A   1      32.890  29.271  22.681  1.00  0.00     0.261 C 
BRANCH   6   7
ATOM      7  O   UNL A   1      32.802  29.214  24.119  1.00  0.00    -0.463 OA
BRANCH   7   8
ATOM      8  C   UNL A   1      31.542  29.169  24.623  1.00  0.00     0.310 C 
ATOM      9  O   UNL A   1      30.742  30.098  24.587  1.00  0.00    -0.252 OA
BRANCH   8  10
ATOM     10  C   UNL A   1      31.170  27.824  25.220  1.00  0.00     0.116 C 
ATOM     11  C   UNL A   1      30.211  24.418  23.508  1.00  0.00     0.039 C 
ATOM     12  C   UNL A   1      30.693  25.367  24.575  1.00  0.00    -0.073 C 
ATOM     13  C   UNL A   1      31.191  24.941  25.759  1.00  0.00    -0.074 C 
ATOM     14  C   UNL A   1      30.679  26.832  24.164  1.00  0.00     0.046 C 
ATOM     15  C   UNL A   1      31.301  23.492  26.174  1.00  0.00     0.039 C 
ATOM     16  C   UNL A   1      31.810  25.882  26.767  1.00  0.00     0.045 C 
ATOM     17  C   UNL A   1      32.149  27.286  26.266  1.00  0.00     0.097 C 
BRANCH  17  18
ATOM     18  C   UNL A   1      33.642  27.633  26.215  1.00  0.00     0.224 C 
ATOM     19  O   UNL A   1      34.417  26.789  25.740  1.00  0.00    -0.275 OA
ATOM     20  N   UNL A   1      34.205  28.831  26.497  1.00  0.00    -0.353 N 
ATOM     21  H   UNL A   1      34.765  29.163  25.758  1.00  0.00     0.163 HD
BRANCH  20  22
ATOM     22  C   UNL A   1      34.182  29.762  27.643  1.00  0.00     0.084 C 
ATOM     23  C   UNL A   1      33.281  30.959  27.503  1.00  0.00     0.031 C 
BRANCH  22  24
ATOM     24  C   UNL A   1      35.640  30.162  28.081  1.00  0.00    -0.018 C 
ATOM     25  C   UNL A   1      35.904  31.682  28.003  1.00  0.00     0.013 C 
ATOM     26  C   UNL A   1      35.828  29.725  29.543  1.00  0.00     0.013 C 
ATOM     27  C   UNL A   1      36.720  29.478  27.220  1.00  0.00     0.013 C 
ENDBRANCH  22  24
ENDBRANCH  20  22
ENDBRANCH  17  18
ENDBRANCH   8  10
ENDBRANCH   7   8
ENDBRANCH   6   7
ENDBRANCH   5   6
ENDBRANCH   4   5
ENDBRANCH   3   4
ENDBRANCH   2   3
ENDBRANCH   1   2
BRANCH   1  28
ATOM     28  C   UNL A   1      34.095  22.820  23.053  1.00  0.00     0.188 C 
BRANCH  28  29
ATOM     29  C   UNL A   1      35.300  22.480  23.936  1.00  0.00     0.188 C 
BRANCH  29  30
ATOM     30  O   UNL A   1      35.124  21.373  24.817  1.00  0.00    -0.376 OA
BRANCH  30  31
ATOM     31  C   UNL A   1      36.200  21.076  25.705  1.00  0.00     0.202 C 
BRANCH  31  32
ATOM     32  C   UNL A   1      37.427  20.501  25.006  1.00  0.00     0.261 C 
BRANCH  32  33
ATOM     33  O   UNL A   1      38.522  21.429  25.090  1.00  0.00    -0.460 OA
BRANCH  33  34
ATOM     34  C   UNL A   1      39.463  21.175  26.027  1.00  0.00     0.338 C 
ATOM     35  O   UNL A   1      40.013  20.111  26.250  1.00  0.00    -0.246 OA
BRANCH  34  36
ATOM     36  C   UNL A   1      39.863  22.462  26.630  1.00  0.00     0.060 A 
ATOM     37  C   UNL A   1      39.160  23.619  26.275  1.00  0.00     0.016 A 
ATOM     38  C   UNL A   1      40.933  22.527  27.526  1.00  0.00     0.016 A 
ATOM     39  C   UNL A   1      39.548  24.856  26.793  1.00  0.00     0.010 A 
ATOM     40  C   UNL A   1      41.316  23.764  28.048  1.00  0.00     0.010 A 
ATOM     41  C   UNL A   1      40.648  24.940  27.657  1.00  0.00    -0.014 A 
BRANCH  41  42
ATOM     42  C   UNL A   1      41.263  26.257  27.961  1.00  0.00     0.031 A 
ATOM     43  C   UNL A   1      42.638  26.519  27.407  1.00  0.00     0.074 A 
ATOM     44  C   UNL A   1      40.634  27.194  28.694  1.00  0.00     0.049 A 
ATOM     45  N   UNL A   1      43.430  27.543  27.585  1.00  0.00    -0.248 NA
ATOM     46  C   UNL A   1      43.201  25.462  26.550  1.00  0.00     0.031 C 
ATOM     47  C   UNL A   1      39.289  27.075  29.254  1.00  0.00     0.029 A 
ATOM     48  N   UNL A   1      41.054  28.437  29.099  1.00  0.00    -0.354 N 
ATOM     49  C   UNL A   1      44.584  27.250  26.866  1.00  0.00     0.074 A 
ATOM     50  C   UNL A   1      44.416  25.926  26.313  1.00  0.00     0.031 C 
ATOM     51  C   UNL A   1      39.000  28.193  29.943  1.00  0.00     0.029 A 
ATOM     52  C   UNL A   1      40.145  29.101  29.892  1.00  0.00     0.049 A 
ATOM     53  H   UNL A   1      41.926  28.818  28.848  1.00  0.00     0.167 HD
ATOM     54  C   UNL A   1      45.677  28.025  26.661  1.00  0.00     0.034 A 
ATOM     55  C   UNL A   1      40.237  30.297  30.509  1.00  0.00     0.034 A 
ATOM     56  C   UNL A   1      45.834  29.342  27.219  1.00  0.00     0.049 A 
ATOM     57  C   UNL A   1      41.497  31.114  30.331  1.00  0.00     0.074 A 
ATOM     58  C   UNL A   1      46.895  30.218  27.079  1.00  0.00     0.029 A 
ATOM     59  N   UNL A   1      44.900  29.972  28.030  1.00  0.00    -0.354 N 
ATOM     60  N   UNL A   1      42.577  30.832  29.637  1.00  0.00    -0.248 NA
ATOM     61  C   UNL A   1      41.545  32.418  31.009  1.00  0.00     0.031 C 
ATOM     62  C   UNL A   1      46.627  31.353  27.853  1.00  0.00     0.029 A 
ATOM     63  C   UNL A   1      45.369  31.216  28.417  1.00  0.00     0.049 A 
ATOM     64  H   UNL A   1      44.030  29.590  28.291  1.00  0.00     0.167 HD
ATOM     65  C   UNL A   1      43.412  31.941  29.764  1.00  0.00     0.074 A 
ATOM     66  C   UNL A   1      42.708  32.898  30.594  1.00  0.00     0.031 C 
ATOM     67  C   UNL A   1      44.647  32.156  29.242  1.00  0.00     0.034 A 
BRANCH  54  68
ATOM     68  C   UNL A   1      46.786  27.429  25.829  1.00  0.00     0.023 A 
ATOM     69  C   UNL A   1      47.106  27.943  24.559  1.00  0.00     0.031 A 
ATOM     70  C   UNL A   1      47.476  26.289  26.273  1.00  0.00     0.131 A 
ATOM     71  C   UNL A   1      48.017  27.262  23.740  1.00  0.00     0.055 A 
ATOM     72  C   UNL A   1      48.449  25.669  25.488  1.00  0.00     0.041 A 
ATOM     73  F   UNL A   1      47.194  25.739  27.465  1.00  0.00    -0.206 F 
ATOM     74  C   UNL A   1      48.710  26.143  24.205  1.00  0.00     0.022 A 
BRANCH  71  75
ATOM     75  S   UNL A   1      48.151  27.758  22.000  1.00  0.00     0.124 S 
ATOM     76  O   UNL A   1      48.279  26.463  21.336  1.00  0.00    -0.237 OA
ATOM     77  O   UNL A   1      46.897  28.469  21.778  1.00  0.00    -0.237 OA
ATOM     78  O   UNL A   1      49.354  28.586  21.972  1.00  0.00    -0.744 OA
ENDBRANCH  71  75
ENDBRANCH  54  68
BRANCH  55  79
ATOM     79  C   UNL A   1      39.130  30.801  31.375  1.00  0.00     0.023 A 
ATOM     80  C   UNL A   1      38.249  31.797  30.920  1.00  0.00     0.031 A 
ATOM     81  C   UNL A   1      38.990  30.355  32.701  1.00  0.00     0.131 A 
ATOM     82  C   UNL A   1      37.308  32.355  31.800  1.00  0.00     0.055 A 
ATOM     83  C   UNL A   1      38.016  30.876  33.556  1.00  0.00     0.041 A 
ATOM     84  F   UNL A   1      39.804  29.406  33.189  1.00  0.00    -0.206 F 
ATOM     85  C   UNL A   1      37.178  31.894  33.111  1.00  0.00     0.022 A 
BRANCH  82  86
ATOM     86  S   UNL A   1      36.320  33.768  31.232  1.00  0.00     0.124 S 
ATOM     87  O   UNL A   1      35.020  33.148  31.002  1.00  0.00    -0.237 OA
ATOM     88  O   UNL A   1      36.404  34.674  32.372  1.00  0.00    -0.237 OA
ATOM     89  O   UNL A   1      37.022  34.213  30.030  1.00  0.00    -0.744 OA
ENDBRANCH  82  86
ENDBRANCH  55  79
BRANCH  67  90
ATOM     90  C   UNL A   1      45.284  33.497  29.504  1.00  0.00     0.023 A 
ATOM     91  C   UNL A   1      44.969  34.632  28.737  1.00  0.00     0.031 A 
ATOM     92  C   UNL A   1      46.215  33.641  30.549  1.00  0.00     0.131 A 
ATOM     93  C   UNL A   1      45.616  35.850  28.994  1.00  0.00     0.055 A 
ATOM     94  C   UNL A   1      46.813  34.869  30.838  1.00  0.00     0.041 A 
ATOM     95  F   UNL A   1      46.551  32.590  31.314  1.00  0.00    -0.206 F 
ATOM     96  C   UNL A   1      46.523  35.979  30.050  1.00  0.00     0.022 A 
BRANCH  93  97
ATOM     97  S   UNL A   1      45.313  37.250  27.883  1.00  0.00     0.124 S 
ATOM     98  O   UNL A   1      45.839  38.371  28.655  1.00  0.00    -0.237 OA
ATOM     99  O   UNL A   1      46.079  36.879  26.696  1.00  0.00    -0.237 OA
ATOM    100  O   UNL A   1      43.862  37.244  27.708  1.00  0.00    -0.744 OA
ENDBRANCH  93  97
ENDBRANCH  67  90
ENDBRANCH  41  42
ENDBRANCH  34  36
ENDBRANCH  33  34
ENDBRANCH  32  33
ENDBRANCH  31  32
ENDBRANCH  30  31
ENDBRANCH  29  30
ENDBRANCH  28  29
ENDBRANCH   1  28
TORSDOF 26
ENDMDL
