MODEL 1
REMARK VINA RESULT:      -8.8      0.000      0.000
REMARK SMILES C[C@H]1[C@@H]([NH2+]C[C@H]2CC[C@@H](C(=O)OCCOCCOCCOCCOC(=O)c3ccc(-c4c5nc(c(-c6cc(S(=O)(=O)[O-])ccc6F)c6ccc([nH]6)c(-c6cc(S(=O)(=O)[O-])ccc6F)c6nc(c(-c7cc(S(=O)(=O)[O-])ccc7F)c7ccc4[nH]7)C=C6)C=C5)cc3)CC2)CCC[C@@H]1C
REMARK SMILES IDX 18 1 17 2 16 3 15 4 14 5 13 6 12 7 10 8 11 9 9 10 6 11 7 12
REMARK SMILES IDX 91 13 8 14 90 15 5 16 4 17 3 20 1 21 2 22 95 23 92 24 94 25
REMARK SMILES IDX 96 26 93 27 19 28 20 29 21 30 22 31 23 32 24 33 25 34 26 35
REMARK SMILES IDX 27 36 28 37 89 38 29 39 88 40 30 41 31 42 32 43 82 44 33 45
REMARK SMILES IDX 87 46 81 47 83 48 34 49 86 50 80 51 79 52 35 54 67 55 47 56
REMARK SMILES IDX 66 57 48 58 51 59 65 60 84 61 49 62 50 63 64 65 85 66 52 67
REMARK SMILES IDX 36 68 37 69 45 70 38 71 44 72 46 73 43 74 39 75 40 76 41 77
REMARK SMILES IDX 42 78 68 79 69 80 77 81 70 82 76 83 78 84 75 85 71 86 72 87
REMARK SMILES IDX 73 88 74 89 53 90 54 91 62 92 55 93 61 94 63 95 60 96 56 97
REMARK SMILES IDX 57 98 58 99 59 100
REMARK H PARENT 4 18 4 19 83 53 51 64
REMARK Flexibility Score: inf
ROOT
ATOM      1  O   UNL A   1      42.171  20.821  27.626  1.00  0.00    -0.377 OA
ENDROOT
BRANCH   1   2
ATOM      2  C   UNL A   1      41.541  22.059  27.871  1.00  0.00     0.188 C 
BRANCH   2   3
ATOM      3  C   UNL A   1      40.344  22.409  26.978  1.00  0.00     0.188 C 
BRANCH   3   4
ATOM      4  O   UNL A   1      40.147  23.719  26.469  1.00  0.00    -0.376 OA
BRANCH   4   5
ATOM      5  C   UNL A   1      38.933  24.423  26.678  1.00  0.00     0.202 C 
BRANCH   5   6
ATOM      6  C   UNL A   1      37.564  23.791  26.362  1.00  0.00     0.261 C 
BRANCH   6   7
ATOM      7  O   UNL A   1      37.215  23.595  24.979  1.00  0.00    -0.463 OA
BRANCH   7   8
ATOM      8  C   UNL A   1      36.914  22.325  24.625  1.00  0.00     0.309 C 
ATOM      9  O   UNL A   1      37.722  21.400  24.615  1.00  0.00    -0.252 OA
BRANCH   8  10
ATOM     10  C   UNL A   1      35.488  22.134  24.114  1.00  0.00     0.099 C 
ATOM     11  C   UNL A   1      32.746  23.248  23.789  1.00  0.00     0.044 C 
ATOM     12  C   UNL A   1      33.810  23.360  22.693  1.00  0.00     0.010 C 
ATOM     13  C   UNL A   1      32.946  21.929  24.527  1.00  0.00     0.010 C 
ATOM     14  C   UNL A   1      35.212  23.373  23.266  1.00  0.00     0.016 C 
ATOM     15  C   UNL A   1      34.355  21.818  25.113  1.00  0.00     0.016 C 
BRANCH  11  16
ATOM     16  C   UNL A   1      32.708  24.390  24.826  1.00  0.00     0.264 C 
BRANCH  16  17
ATOM     17  N   UNL A   1      32.224  25.622  24.246  1.00  0.00    -0.343 N 
ATOM     18  H   UNL A   1      31.714  25.385  23.395  1.00  0.00     0.346 HD
ATOM     19  H   UNL A   1      31.655  26.058  24.972  1.00  0.00     0.346 HD
BRANCH  17  20
ATOM     20  C   UNL A   1      33.240  26.623  23.894  1.00  0.00     0.185 C 
ATOM     21  C   UNL A   1      33.966  27.678  26.133  1.00  0.00     0.014 C 
ATOM     22  C   UNL A   1      33.249  27.891  24.793  1.00  0.00     0.047 C 
ATOM     23  C   UNL A   1      31.799  28.435  24.890  1.00  0.00    -0.006 C 
ATOM     24  C   UNL A   1      32.876  27.076  22.466  1.00  0.00     0.065 C 
ATOM     25  C   UNL A   1      31.294  28.810  23.476  1.00  0.00     0.004 C 
ATOM     26  C   UNL A   1      31.627  29.620  25.839  1.00  0.00     0.008 C 
ATOM     27  C   UNL A   1      31.484  27.715  22.421  1.00  0.00     0.006 C 
ENDBRANCH  17  20
ENDBRANCH  16  17
ENDBRANCH  11  16
ENDBRANCH   8  10
ENDBRANCH   7   8
ENDBRANCH   6   7
ENDBRANCH   5   6
ENDBRANCH   4   5
ENDBRANCH   3   4
ENDBRANCH   2   3
ENDBRANCH   1   2
BRANCH   1  28
ATOM     28  C   UNL A   1      41.810  20.144  26.434  1.00  0.00     0.188 C 
BRANCH  28  29
ATOM     29  C   UNL A   1      42.471  18.777  26.181  1.00  0.00     0.188 C 
BRANCH  29  30
ATOM     30  O   UNL A   1      43.885  18.836  26.036  1.00  0.00    -0.376 OA
BRANCH  30  31
ATOM     31  C   UNL A   1      44.439  19.550  24.941  1.00  0.00     0.202 C 
BRANCH  31  32
ATOM     32  C   UNL A   1      45.314  20.783  25.230  1.00  0.00     0.261 C 
BRANCH  32  33
ATOM     33  O   UNL A   1      44.684  21.899  25.879  1.00  0.00    -0.460 OA
BRANCH  33  34
ATOM     34  C   UNL A   1      43.982  22.768  25.121  1.00  0.00     0.338 C 
ATOM     35  O   UNL A   1      43.188  22.490  24.238  1.00  0.00    -0.246 OA
BRANCH  34  36
ATOM     36  C   UNL A   1      44.172  24.119  25.694  1.00  0.00     0.060 A 
ATOM     37  C   UNL A   1      44.486  24.243  27.054  1.00  0.00     0.016 A 
ATOM     38  C   UNL A   1      44.046  25.255  24.892  1.00  0.00     0.016 A 
ATOM     39  C   UNL A   1      44.641  25.505  27.626  1.00  0.00     0.010 A 
ATOM     40  C   UNL A   1      44.171  26.521  25.472  1.00  0.00     0.010 A 
ATOM     41  C   UNL A   1      44.434  26.652  26.849  1.00  0.00    -0.014 A 
BRANCH  41  42
ATOM     42  C   UNL A   1      44.267  27.968  27.513  1.00  0.00     0.031 A 
ATOM     43  C   UNL A   1      45.489  28.834  27.675  1.00  0.00     0.074 A 
ATOM     44  C   UNL A   1      43.068  28.396  27.944  1.00  0.00     0.049 A 
ATOM     45  N   UNL A   1      45.623  29.978  28.291  1.00  0.00    -0.248 NA
ATOM     46  C   UNL A   1      46.729  28.331  27.060  1.00  0.00     0.031 C 
ATOM     47  C   UNL A   1      41.806  27.677  27.780  1.00  0.00     0.029 A 
ATOM     48  N   UNL A   1      42.718  29.541  28.616  1.00  0.00    -0.354 N 
ATOM     49  C   UNL A   1      46.964  30.325  28.155  1.00  0.00     0.074 A 
ATOM     50  C   UNL A   1      47.604  29.255  27.421  1.00  0.00     0.031 C 
ATOM     51  C   UNL A   1      40.821  28.394  28.351  1.00  0.00     0.029 A 
ATOM     52  C   UNL A   1      41.387  29.594  28.964  1.00  0.00     0.049 A 
ATOM     53  H   UNL A   1      43.360  30.256  28.832  1.00  0.00     0.167 HD
ATOM     54  C   UNL A   1      47.599  31.435  28.602  1.00  0.00     0.034 A 
ATOM     55  C   UNL A   1      40.718  30.492  29.717  1.00  0.00     0.034 A 
ATOM     56  C   UNL A   1      46.944  32.488  29.337  1.00  0.00     0.049 A 
ATOM     57  C   UNL A   1      41.473  31.670  30.295  1.00  0.00     0.074 A 
ATOM     58  C   UNL A   1      47.486  33.667  29.816  1.00  0.00     0.029 A 
ATOM     59  N   UNL A   1      45.608  32.482  29.717  1.00  0.00    -0.354 N 
ATOM     60  N   UNL A   1      42.739  31.994  30.152  1.00  0.00    -0.248 NA
ATOM     61  C   UNL A   1      40.708  32.606  31.131  1.00  0.00     0.031 C 
ATOM     62  C   UNL A   1      46.506  34.327  30.562  1.00  0.00     0.029 A 
ATOM     63  C   UNL A   1      45.322  33.613  30.464  1.00  0.00     0.049 A 
ATOM     64  H   UNL A   1      44.960  31.776  29.489  1.00  0.00     0.167 HD
ATOM     65  C   UNL A   1      42.907  33.192  30.846  1.00  0.00     0.074 A 
ATOM     66  C   UNL A   1      41.613  33.536  31.397  1.00  0.00     0.031 C 
ATOM     67  C   UNL A   1      44.026  33.944  31.008  1.00  0.00     0.034 A 
BRANCH  54  68
ATOM     68  C   UNL A   1      49.088  31.530  28.369  1.00  0.00     0.023 A 
ATOM     69  C   UNL A   1      49.629  32.135  27.222  1.00  0.00     0.031 A 
ATOM     70  C   UNL A   1      49.981  30.986  29.310  1.00  0.00     0.131 A 
ATOM     71  C   UNL A   1      51.017  32.126  27.016  1.00  0.00     0.055 A 
ATOM     72  C   UNL A   1      51.364  31.054  29.140  1.00  0.00     0.041 A 
ATOM     73  F   UNL A   1      49.522  30.368  30.411  1.00  0.00    -0.206 F 
ATOM     74  C   UNL A   1      51.890  31.616  27.980  1.00  0.00     0.022 A 
BRANCH  71  75
ATOM     75  S   UNL A   1      51.659  32.660  25.405  1.00  0.00     0.124 S 
ATOM     76  O   UNL A   1      52.969  33.193  25.772  1.00  0.00    -0.237 OA
ATOM     77  O   UNL A   1      51.665  31.418  24.641  1.00  0.00    -0.237 OA
ATOM     78  O   UNL A   1      50.689  33.660  24.964  1.00  0.00    -0.744 OA
ENDBRANCH  71  75
ENDBRANCH  54  68
BRANCH  55  79
ATOM     79  C   UNL A   1      39.269  30.303  30.025  1.00  0.00     0.023 A 
ATOM     80  C   UNL A   1      38.278  30.973  29.293  1.00  0.00     0.031 A 
ATOM     81  C   UNL A   1      38.856  29.514  31.115  1.00  0.00     0.131 A 
ATOM     82  C   UNL A   1      36.934  30.893  29.693  1.00  0.00     0.055 A 
ATOM     83  C   UNL A   1      37.512  29.383  31.468  1.00  0.00     0.041 A 
ATOM     84  F   UNL A   1      39.761  28.856  31.860  1.00  0.00    -0.206 F 
ATOM     85  C   UNL A   1      36.543  30.089  30.765  1.00  0.00     0.022 A 
BRANCH  82  86
ATOM     86  S   UNL A   1      35.718  31.953  28.863  1.00  0.00     0.124 S 
ATOM     87  O   UNL A   1      36.560  33.035  28.365  1.00  0.00    -0.237 OA
ATOM     88  O   UNL A   1      35.168  31.051  27.856  1.00  0.00    -0.237 OA
ATOM     89  O   UNL A   1      34.798  32.321  29.938  1.00  0.00    -0.744 OA
ENDBRANCH  82  86
ENDBRANCH  55  79
BRANCH  67  90
ATOM     90  C   UNL A   1      43.886  35.248  31.759  1.00  0.00     0.023 A 
ATOM     91  C   UNL A   1      43.823  35.300  33.162  1.00  0.00     0.031 A 
ATOM     92  C   UNL A   1      43.824  36.463  31.051  1.00  0.00     0.131 A 
ATOM     93  C   UNL A   1      43.647  36.534  33.809  1.00  0.00     0.055 A 
ATOM     94  C   UNL A   1      43.721  37.692  31.703  1.00  0.00     0.041 A 
ATOM     95  F   UNL A   1      43.876  36.475  29.709  1.00  0.00    -0.206 F 
ATOM     96  C   UNL A   1      43.619  37.732  33.090  1.00  0.00     0.022 A 
BRANCH  93  97
ATOM     97  S   UNL A   1      43.362  36.547  35.600  1.00  0.00     0.124 S 
ATOM     98  O   UNL A   1      41.945  36.210  35.683  1.00  0.00    -0.237 OA
ATOM     99  O   UNL A   1      44.289  35.524  36.072  1.00  0.00    -0.237 OA
ATOM    100  O   UNL A   1      43.698  37.915  35.992  1.00  0.00    -0.744 OA
ENDBRANCH  93  97
ENDBRANCH  67  90
ENDBRANCH  41  42
ENDBRANCH  34  36
ENDBRANCH  33  34
ENDBRANCH  32  33
ENDBRANCH  31  32
ENDBRANCH  30  31
ENDBRANCH  29  30
ENDBRANCH  28  29
ENDBRANCH   1  28
TORSDOF 26
ENDMDL
MODEL 2
REMARK VINA RESULT:      -8.6      1.410      2.064
REMARK SMILES C[C@H]1[C@@H]([NH2+]C[C@H]2CC[C@@H](C(=O)OCCOCCOCCOCCOC(=O)c3ccc(-c4c5nc(c(-c6cc(S(=O)(=O)[O-])ccc6F)c6ccc([nH]6)c(-c6cc(S(=O)(=O)[O-])ccc6F)c6nc(c(-c7cc(S(=O)(=O)[O-])ccc7F)c7ccc4[nH]7)C=C6)C=C5)cc3)CC2)CCC[C@@H]1C
REMARK SMILES IDX 18 1 17 2 16 3 15 4 14 5 13 6 12 7 10 8 11 9 9 10 6 11 7 12
REMARK SMILES IDX 91 13 8 14 90 15 5 16 4 17 3 20 1 21 2 22 95 23 92 24 94 25
REMARK SMILES IDX 96 26 93 27 19 28 20 29 21 30 22 31 23 32 24 33 25 34 26 35
REMARK SMILES IDX 27 36 28 37 89 38 29 39 88 40 30 41 31 42 32 43 82 44 33 45
REMARK SMILES IDX 87 46 81 47 83 48 34 49 86 50 80 51 79 52 35 54 67 55 47 56
REMARK SMILES IDX 66 57 48 58 51 59 65 60 84 61 49 62 50 63 64 65 85 66 52 67
REMARK SMILES IDX 36 68 37 69 45 70 38 71 44 72 46 73 43 74 39 75 40 76 41 77
REMARK SMILES IDX 42 78 68 79 69 80 77 81 70 82 76 83 78 84 75 85 71 86 72 87
REMARK SMILES IDX 73 88 74 89 53 90 54 91 62 92 55 93 61 94 63 95 60 96 56 97
REMARK SMILES IDX 57 98 58 99 59 100
REMARK H PARENT 4 18 4 19 83 53 51 64
REMARK Flexibility Score: inf
ROOT
ATOM      1  O   UNL A   1      41.661  21.027  26.604  1.00  0.00    -0.377 OA
ENDROOT
BRANCH   1   2
ATOM      2  C   UNL A   1      40.441  20.533  26.099  1.00  0.00     0.188 C 
BRANCH   2   3
ATOM      3  C   UNL A   1      39.242  21.489  26.141  1.00  0.00     0.188 C 
BRANCH   3   4
ATOM      4  O   UNL A   1      38.189  21.413  25.194  1.00  0.00    -0.376 OA
BRANCH   4   5
ATOM      5  C   UNL A   1      36.903  21.948  25.467  1.00  0.00     0.202 C 
BRANCH   5   6
ATOM      6  C   UNL A   1      36.720  23.366  26.040  1.00  0.00     0.261 C 
BRANCH   6   7
ATOM      7  O   UNL A   1      35.386  23.788  26.381  1.00  0.00    -0.463 OA
BRANCH   7   8
ATOM      8  C   UNL A   1      34.753  24.537  25.451  1.00  0.00     0.309 C 
ATOM      9  O   UNL A   1      34.625  25.757  25.517  1.00  0.00    -0.252 OA
BRANCH   8  10
ATOM     10  C   UNL A   1      34.087  23.732  24.338  1.00  0.00     0.099 C 
ATOM     11  C   UNL A   1      31.676  23.248  22.659  1.00  0.00     0.044 C 
ATOM     12  C   UNL A   1      32.827  24.147  22.198  1.00  0.00     0.010 C 
ATOM     13  C   UNL A   1      32.250  22.117  23.505  1.00  0.00     0.010 C 
ATOM     14  C   UNL A   1      33.552  24.780  23.368  1.00  0.00     0.016 C 
ATOM     15  C   UNL A   1      33.045  22.651  24.698  1.00  0.00     0.016 C 
BRANCH  11  16
ATOM     16  C   UNL A   1      30.550  23.936  23.460  1.00  0.00     0.264 C 
BRANCH  16  17
ATOM     17  N   UNL A   1      30.628  25.377  23.362  1.00  0.00    -0.343 N 
ATOM     18  H   UNL A   1      31.551  25.660  23.691  1.00  0.00     0.346 HD
ATOM     19  H   UNL A   1      30.445  25.591  22.382  1.00  0.00     0.346 HD
BRANCH  17  20
ATOM     20  C   UNL A   1      29.628  26.139  24.122  1.00  0.00     0.185 C 
ATOM     21  C   UNL A   1      29.363  28.371  22.857  1.00  0.00     0.014 C 
ATOM     22  C   UNL A   1      29.851  27.677  24.136  1.00  0.00     0.047 C 
ATOM     23  C   UNL A   1      31.326  27.957  24.528  1.00  0.00    -0.006 C 
ATOM     24  C   UNL A   1      29.768  25.642  25.574  1.00  0.00     0.065 C 
ATOM     25  C   UNL A   1      31.601  27.385  25.939  1.00  0.00     0.004 C 
ATOM     26  C   UNL A   1      31.729  29.430  24.472  1.00  0.00     0.008 C 
ATOM     27  C   UNL A   1      31.168  25.927  26.130  1.00  0.00     0.006 C 
ENDBRANCH  17  20
ENDBRANCH  16  17
ENDBRANCH  11  16
ENDBRANCH   8  10
ENDBRANCH   7   8
ENDBRANCH   6   7
ENDBRANCH   5   6
ENDBRANCH   4   5
ENDBRANCH   3   4
ENDBRANCH   2   3
ENDBRANCH   1   2
BRANCH   1  28
ATOM     28  C   UNL A   1      42.655  20.070  26.930  1.00  0.00     0.188 C 
BRANCH  28  29
ATOM     29  C   UNL A   1      42.735  18.817  26.038  1.00  0.00     0.188 C 
BRANCH  29  30
ATOM     30  O   UNL A   1      43.792  18.852  25.086  1.00  0.00    -0.376 OA
BRANCH  30  31
ATOM     31  C   UNL A   1      45.126  18.644  25.524  1.00  0.00     0.202 C 
BRANCH  31  32
ATOM     32  C   UNL A   1      46.185  19.713  25.200  1.00  0.00     0.261 C 
BRANCH  32  33
ATOM     33  O   UNL A   1      45.881  21.070  25.560  1.00  0.00    -0.460 OA
BRANCH  33  34
ATOM     34  C   UNL A   1      45.113  21.799  24.724  1.00  0.00     0.338 C 
ATOM     35  O   UNL A   1      44.667  21.443  23.646  1.00  0.00    -0.246 OA
BRANCH  34  36
ATOM     36  C   UNL A   1      44.717  23.033  25.437  1.00  0.00     0.060 A 
ATOM     37  C   UNL A   1      44.267  24.133  24.695  1.00  0.00     0.016 A 
ATOM     38  C   UNL A   1      44.783  23.101  26.831  1.00  0.00     0.016 A 
ATOM     39  C   UNL A   1      43.917  25.318  25.341  1.00  0.00     0.010 A 
ATOM     40  C   UNL A   1      44.460  24.299  27.475  1.00  0.00     0.010 A 
ATOM     41  C   UNL A   1      44.060  25.424  26.730  1.00  0.00    -0.014 A 
BRANCH  41  42
ATOM     42  C   UNL A   1      44.012  26.760  27.374  1.00  0.00     0.031 A 
ATOM     43  C   UNL A   1      45.312  27.496  27.563  1.00  0.00     0.074 A 
ATOM     44  C   UNL A   1      42.852  27.316  27.765  1.00  0.00     0.049 A 
ATOM     45  N   UNL A   1      45.547  28.629  28.170  1.00  0.00    -0.248 NA
ATOM     46  C   UNL A   1      46.510  26.859  26.990  1.00  0.00     0.031 C 
ATOM     47  C   UNL A   1      41.527  26.729  27.573  1.00  0.00     0.029 A 
ATOM     48  N   UNL A   1      42.604  28.499  28.415  1.00  0.00    -0.354 N 
ATOM     49  C   UNL A   1      46.920  28.833  28.069  1.00  0.00     0.074 A 
ATOM     50  C   UNL A   1      47.466  27.693  27.366  1.00  0.00     0.031 C 
ATOM     51  C   UNL A   1      40.606  27.551  28.106  1.00  0.00     0.029 A 
ATOM     52  C   UNL A   1      41.277  28.695  28.722  1.00  0.00     0.049 A 
ATOM     53  H   UNL A   1      43.310  29.147  28.641  1.00  0.00     0.167 HD
ATOM     54  C   UNL A   1      47.654  29.878  28.522  1.00  0.00     0.034 A 
ATOM     55  C   UNL A   1      40.684  29.667  29.446  1.00  0.00     0.034 A 
ATOM     56  C   UNL A   1      47.092  31.003  29.226  1.00  0.00     0.049 A 
ATOM     57  C   UNL A   1      41.540  30.770  30.032  1.00  0.00     0.074 A 
ATOM     58  C   UNL A   1      47.740  32.126  29.707  1.00  0.00     0.029 A 
ATOM     59  N   UNL A   1      45.752  31.141  29.566  1.00  0.00    -0.354 N 
ATOM     60  N   UNL A   1      42.837  30.959  29.923  1.00  0.00    -0.248 NA
ATOM     61  C   UNL A   1      40.854  31.791  30.835  1.00  0.00     0.031 C 
ATOM     62  C   UNL A   1      46.813  32.894  30.417  1.00  0.00     0.029 A 
ATOM     63  C   UNL A   1      45.564  32.306  30.293  1.00  0.00     0.049 A 
ATOM     64  H   UNL A   1      45.041  30.503  29.328  1.00  0.00     0.167 HD
ATOM     65  C   UNL A   1      43.108  32.142  30.609  1.00  0.00     0.074 A 
ATOM     66  C   UNL A   1      41.843  32.626  31.118  1.00  0.00     0.031 C 
ATOM     67  C   UNL A   1      44.295  32.776  30.795  1.00  0.00     0.034 A 
BRANCH  54  68
ATOM     68  C   UNL A   1      49.150  29.815  28.332  1.00  0.00     0.023 A 
ATOM     69  C   UNL A   1      49.771  30.222  27.138  1.00  0.00     0.031 A 
ATOM     70  C   UNL A   1      49.968  29.319  29.363  1.00  0.00     0.131 A 
ATOM     71  C   UNL A   1      51.157  30.069  26.984  1.00  0.00     0.055 A 
ATOM     72  C   UNL A   1      51.356  29.247  29.235  1.00  0.00     0.041 A 
ATOM     73  F   UNL A   1      49.430  28.887  30.515  1.00  0.00    -0.206 F 
ATOM     74  C   UNL A   1      51.958  29.611  28.034  1.00  0.00     0.022 A 
BRANCH  71  75
ATOM     75  S   UNL A   1      51.883  30.339  25.344  1.00  0.00     0.124 S 
ATOM     76  O   UNL A   1      53.304  30.129  25.611  1.00  0.00    -0.237 OA
ATOM     77  O   UNL A   1      51.227  29.317  24.536  1.00  0.00    -0.237 OA
ATOM     78  O   UNL A   1      51.514  31.717  25.028  1.00  0.00    -0.744 OA
ENDBRANCH  71  75
ENDBRANCH  54  68
BRANCH  55  79
ATOM     79  C   UNL A   1      39.215  29.634  29.714  1.00  0.00     0.023 A 
ATOM     80  C   UNL A   1      38.326  30.437  28.984  1.00  0.00     0.031 A 
ATOM     81  C   UNL A   1      38.687  28.860  30.764  1.00  0.00     0.131 A 
ATOM     82  C   UNL A   1      36.971  30.497  29.350  1.00  0.00     0.055 A 
ATOM     83  C   UNL A   1      37.327  28.871  31.080  1.00  0.00     0.041 A 
ATOM     84  F   UNL A   1      39.491  28.079  31.504  1.00  0.00    -0.206 F 
ATOM     85  C   UNL A   1      36.463  29.706  30.382  1.00  0.00     0.022 A 
BRANCH  82  86
ATOM     86  S   UNL A   1      35.905  31.716  28.533  1.00  0.00     0.124 S 
ATOM     87  O   UNL A   1      34.991  32.078  29.610  1.00  0.00    -0.237 OA
ATOM     88  O   UNL A   1      36.865  32.739  28.133  1.00  0.00    -0.237 OA
ATOM     89  O   UNL A   1      35.306  30.961  27.433  1.00  0.00    -0.744 OA
ENDBRANCH  82  86
ENDBRANCH  55  79
BRANCH  67  90
ATOM     90  C   UNL A   1      44.270  34.098  31.527  1.00  0.00     0.023 A 
ATOM     91  C   UNL A   1      44.477  34.189  32.914  1.00  0.00     0.031 A 
ATOM     92  C   UNL A   1      44.043  35.291  30.815  1.00  0.00     0.131 A 
ATOM     93  C   UNL A   1      44.400  35.437  33.553  1.00  0.00     0.055 A 
ATOM     94  C   UNL A   1      44.037  36.536  31.445  1.00  0.00     0.041 A 
ATOM     95  F   UNL A   1      43.834  35.267  29.489  1.00  0.00    -0.206 F 
ATOM     96  C   UNL A   1      44.204  36.613  32.824  1.00  0.00     0.022 A 
BRANCH  93  97
ATOM     97  S   UNL A   1      44.466  35.496  35.364  1.00  0.00     0.124 S 
ATOM     98  O   UNL A   1      45.186  36.743  35.600  1.00  0.00    -0.237 OA
ATOM     99  O   UNL A   1      43.054  35.497  35.729  1.00  0.00    -0.237 OA
ATOM    100  O   UNL A   1      45.197  34.281  35.721  1.00  0.00    -0.744 OA
ENDBRANCH  93  97
ENDBRANCH  67  90
ENDBRANCH  41  42
ENDBRANCH  34  36
ENDBRANCH  33  34
ENDBRANCH  32  33
ENDBRANCH  31  32
ENDBRANCH  30  31
ENDBRANCH  29  30
ENDBRANCH  28  29
ENDBRANCH   1  28
TORSDOF 26
ENDMDL
MODEL 3
REMARK VINA RESULT:      -8.5      4.121      8.268
REMARK SMILES C[C@H]1[C@@H]([NH2+]C[C@H]2CC[C@@H](C(=O)OCCOCCOCCOCCOC(=O)c3ccc(-c4c5nc(c(-c6cc(S(=O)(=O)[O-])ccc6F)c6ccc([nH]6)c(-c6cc(S(=O)(=O)[O-])ccc6F)c6nc(c(-c7cc(S(=O)(=O)[O-])ccc7F)c7ccc4[nH]7)C=C6)C=C5)cc3)CC2)CCC[C@@H]1C
REMARK SMILES IDX 18 1 17 2 16 3 15 4 14 5 13 6 12 7 10 8 11 9 9 10 6 11 7 12
REMARK SMILES IDX 91 13 8 14 90 15 5 16 4 17 3 20 1 21 2 22 95 23 92 24 94 25
REMARK SMILES IDX 96 26 93 27 19 28 20 29 21 30 22 31 23 32 24 33 25 34 26 35
REMARK SMILES IDX 27 36 28 37 89 38 29 39 88 40 30 41 31 42 32 43 82 44 33 45
REMARK SMILES IDX 87 46 81 47 83 48 34 49 86 50 80 51 79 52 35 54 67 55 47 56
REMARK SMILES IDX 66 57 48 58 51 59 65 60 84 61 49 62 50 63 64 65 85 66 52 67
REMARK SMILES IDX 36 68 37 69 45 70 38 71 44 72 46 73 43 74 39 75 40 76 41 77
REMARK SMILES IDX 42 78 68 79 69 80 77 81 70 82 76 83 78 84 75 85 71 86 72 87
REMARK SMILES IDX 73 88 74 89 53 90 54 91 62 92 55 93 61 94 63 95 60 96 56 97
REMARK SMILES IDX 57 98 58 99 59 100
REMARK H PARENT 4 18 4 19 83 53 51 64
REMARK Flexibility Score: inf
ROOT
ATOM      1  O   UNL A   1      45.978  23.701  25.870  1.00  0.00    -0.377 OA
ENDROOT
BRANCH   1   2
ATOM      2  C   UNL A   1      46.282  24.985  25.373  1.00  0.00     0.188 C 
BRANCH   2   3
ATOM      3  C   UNL A   1      45.089  25.885  25.020  1.00  0.00     0.188 C 
BRANCH   3   4
ATOM      4  O   UNL A   1      45.197  27.299  25.004  1.00  0.00    -0.376 OA
BRANCH   4   5
ATOM      5  C   UNL A   1      46.454  27.947  24.899  1.00  0.00     0.202 C 
BRANCH   5   6
ATOM      6  C   UNL A   1      46.859  29.092  25.846  1.00  0.00     0.261 C 
BRANCH   6   7
ATOM      7  O   UNL A   1      46.336  30.407  25.578  1.00  0.00    -0.463 OA
BRANCH   7   8
ATOM      8  C   UNL A   1      45.330  30.813  26.386  1.00  0.00     0.309 C 
ATOM      9  O   UNL A   1      44.165  30.438  26.281  1.00  0.00    -0.252 OA
BRANCH   8  10
ATOM     10  C   UNL A   1      45.727  31.888  27.394  1.00  0.00     0.099 C 
ATOM     11  C   UNL A   1      45.986  34.785  28.033  1.00  0.00     0.044 C 
ATOM     12  C   UNL A   1      44.749  33.969  28.421  1.00  0.00     0.010 C 
ATOM     13  C   UNL A   1      47.210  33.879  28.111  1.00  0.00     0.010 C 
ATOM     14  C   UNL A   1      44.515  32.813  27.470  1.00  0.00     0.016 C 
ATOM     15  C   UNL A   1      47.059  32.648  27.215  1.00  0.00     0.016 C 
BRANCH  11  16
ATOM     16  C   UNL A   1      45.957  35.453  26.642  1.00  0.00     0.264 C 
BRANCH  16  17
ATOM     17  N   UNL A   1      46.572  36.761  26.665  1.00  0.00    -0.343 N 
ATOM     18  H   UNL A   1      45.829  37.450  26.783  1.00  0.00     0.346 HD
ATOM     19  H   UNL A   1      47.245  36.730  27.431  1.00  0.00     0.346 HD
BRANCH  17  20
ATOM     20  C   UNL A   1      47.350  37.139  25.478  1.00  0.00     0.185 C 
ATOM     21  C   UNL A   1      49.084  35.255  25.167  1.00  0.00     0.014 C 
ATOM     22  C   UNL A   1      48.848  36.730  25.520  1.00  0.00     0.047 C 
ATOM     23  C   UNL A   1      49.449  37.197  26.873  1.00  0.00    -0.006 C 
ATOM     24  C   UNL A   1      47.296  38.679  25.440  1.00  0.00     0.065 C 
ATOM     25  C   UNL A   1      49.332  38.736  26.983  1.00  0.00     0.004 C 
ATOM     26  C   UNL A   1      50.894  36.763  27.110  1.00  0.00     0.008 C 
ATOM     27  C   UNL A   1      47.933  39.292  26.691  1.00  0.00     0.006 C 
ENDBRANCH  17  20
ENDBRANCH  16  17
ENDBRANCH  11  16
ENDBRANCH   8  10
ENDBRANCH   7   8
ENDBRANCH   6   7
ENDBRANCH   5   6
ENDBRANCH   4   5
ENDBRANCH   3   4
ENDBRANCH   2   3
ENDBRANCH   1   2
BRANCH   1  28
ATOM     28  C   UNL A   1      46.017  22.629  24.942  1.00  0.00     0.188 C 
BRANCH  28  29
ATOM     29  C   UNL A   1      44.763  22.413  24.075  1.00  0.00     0.188 C 
BRANCH  29  30
ATOM     30  O   UNL A   1      44.318  21.062  24.029  1.00  0.00    -0.376 OA
BRANCH  30  31
ATOM     31  C   UNL A   1      44.211  20.328  25.240  1.00  0.00     0.202 C 
BRANCH  31  32
ATOM     32  C   UNL A   1      42.810  20.042  25.810  1.00  0.00     0.261 C 
BRANCH  32  33
ATOM     33  O   UNL A   1      41.881  21.136  25.846  1.00  0.00    -0.460 OA
BRANCH  33  34
ATOM     34  C   UNL A   1      41.306  21.450  27.027  1.00  0.00     0.338 C 
ATOM     35  O   UNL A   1      40.628  20.716  27.726  1.00  0.00    -0.246 OA
BRANCH  34  36
ATOM     36  C   UNL A   1      41.822  22.773  27.440  1.00  0.00     0.060 A 
ATOM     37  C   UNL A   1      42.277  22.944  28.754  1.00  0.00     0.016 A 
ATOM     38  C   UNL A   1      41.862  23.835  26.535  1.00  0.00     0.016 A 
ATOM     39  C   UNL A   1      42.741  24.190  29.179  1.00  0.00     0.010 A 
ATOM     40  C   UNL A   1      42.298  25.090  26.969  1.00  0.00     0.010 A 
ATOM     41  C   UNL A   1      42.706  25.281  28.303  1.00  0.00    -0.014 A 
BRANCH  41  42
ATOM     42  C   UNL A   1      42.876  26.656  28.835  1.00  0.00     0.031 A 
ATOM     43  C   UNL A   1      44.280  27.172  29.016  1.00  0.00     0.074 A 
ATOM     44  C   UNL A   1      41.822  27.434  29.135  1.00  0.00     0.049 A 
ATOM     45  N   UNL A   1      44.693  28.295  29.539  1.00  0.00    -0.248 NA
ATOM     46  C   UNL A   1      45.362  26.292  28.543  1.00  0.00     0.031 C 
ATOM     47  C   UNL A   1      40.420  27.069  28.938  1.00  0.00     0.029 A 
ATOM     48  N   UNL A   1      41.768  28.694  29.677  1.00  0.00    -0.354 N 
ATOM     49  C   UNL A   1      46.083  28.251  29.475  1.00  0.00     0.074 A 
ATOM     50  C   UNL A   1      46.439  26.978  28.888  1.00  0.00     0.031 C 
ATOM     51  C   UNL A   1      39.643  28.080  29.368  1.00  0.00     0.029 A 
ATOM     52  C   UNL A   1      40.488  29.140  29.916  1.00  0.00     0.049 A 
ATOM     53  H   UNL A   1      42.571  29.228  29.878  1.00  0.00     0.167 HD
ATOM     54  C   UNL A   1      46.977  29.189  29.872  1.00  0.00     0.034 A 
ATOM     55  C   UNL A   1      40.056  30.258  30.535  1.00  0.00     0.034 A 
ATOM     56  C   UNL A   1      46.602  30.450  30.461  1.00  0.00     0.049 A 
ATOM     57  C   UNL A   1      41.077  31.243  31.065  1.00  0.00     0.074 A 
ATOM     58  C   UNL A   1      47.423  31.483  30.876  1.00  0.00     0.029 A 
ATOM     59  N   UNL A   1      45.299  30.845  30.736  1.00  0.00    -0.354 N 
ATOM     60  N   UNL A   1      42.389  31.197  30.992  1.00  0.00    -0.248 NA
ATOM     61  C   UNL A   1      40.559  32.432  31.756  1.00  0.00     0.031 C 
ATOM     62  C   UNL A   1      46.627  32.457  31.485  1.00  0.00     0.029 A 
ATOM     63  C   UNL A   1      45.299  32.083  31.359  1.00  0.00     0.049 A 
ATOM     64  H   UNL A   1      44.493  30.320  30.522  1.00  0.00     0.167 HD
ATOM     65  C   UNL A   1      42.845  32.371  31.591  1.00  0.00     0.074 A 
ATOM     66  C   UNL A   1      41.671  33.106  32.009  1.00  0.00     0.031 C 
ATOM     67  C   UNL A   1      44.119  32.805  31.772  1.00  0.00     0.034 A 
BRANCH  54  68
ATOM     68  C   UNL A   1      48.443  28.854  29.746  1.00  0.00     0.023 A 
ATOM     69  C   UNL A   1      49.182  29.150  28.588  1.00  0.00     0.031 A 
ATOM     70  C   UNL A   1      49.109  28.210  30.805  1.00  0.00     0.131 A 
ATOM     71  C   UNL A   1      50.522  28.745  28.492  1.00  0.00     0.055 A 
ATOM     72  C   UNL A   1      50.464  27.885  30.736  1.00  0.00     0.041 A 
ATOM     73  F   UNL A   1      48.448  27.874  31.925  1.00  0.00    -0.206 F 
ATOM     74  C   UNL A   1      51.177  28.141  29.568  1.00  0.00     0.022 A 
BRANCH  71  75
ATOM     75  S   UNL A   1      51.360  28.890  26.889  1.00  0.00     0.124 S 
ATOM     76  O   UNL A   1      52.674  29.388  27.287  1.00  0.00    -0.237 OA
ATOM     77  O   UNL A   1      51.319  27.522  26.387  1.00  0.00    -0.237 OA
ATOM     78  O   UNL A   1      50.535  29.849  26.156  1.00  0.00    -0.744 OA
ENDBRANCH  71  75
ENDBRANCH  54  68
BRANCH  55  79
ATOM     79  C   UNL A   1      38.598  30.500  30.747  1.00  0.00     0.023 A 
ATOM     80  C   UNL A   1      37.848  31.261  29.836  1.00  0.00     0.031 A 
ATOM     81  C   UNL A   1      37.948  30.046  31.910  1.00  0.00     0.131 A 
ATOM     82  C   UNL A   1      36.517  31.596  30.130  1.00  0.00     0.055 A 
ATOM     83  C   UNL A   1      36.604  30.325  32.165  1.00  0.00     0.041 A 
ATOM     84  F   UNL A   1      38.617  29.322  32.824  1.00  0.00    -0.206 F 
ATOM     85  C   UNL A   1      35.885  31.119  31.280  1.00  0.00     0.022 A 
BRANCH  82  86
ATOM     86  S   UNL A   1      35.657  32.768  29.044  1.00  0.00     0.124 S 
ATOM     87  O   UNL A   1      36.536  33.930  29.108  1.00  0.00    -0.237 OA
ATOM     88  O   UNL A   1      35.638  32.046  27.775  1.00  0.00    -0.237 OA
ATOM     89  O   UNL A   1      34.354  32.933  29.685  1.00  0.00    -0.744 OA
ENDBRANCH  82  86
ENDBRANCH  55  79
BRANCH  67  90
ATOM     90  C   UNL A   1      44.307  34.170  32.394  1.00  0.00     0.023 A 
ATOM     91  C   UNL A   1      44.250  35.351  31.636  1.00  0.00     0.031 A 
ATOM     92  C   UNL A   1      44.539  34.286  33.778  1.00  0.00     0.131 A 
ATOM     93  C   UNL A   1      44.476  36.591  32.254  1.00  0.00     0.055 A 
ATOM     94  C   UNL A   1      44.692  35.525  34.399  1.00  0.00     0.041 A 
ATOM     95  F   UNL A   1      44.608  33.191  34.553  1.00  0.00    -0.206 F 
ATOM     96  C   UNL A   1      44.674  36.687  33.635  1.00  0.00     0.022 A 
BRANCH  93  97
ATOM     97  S   UNL A   1      44.600  38.074  31.217  1.00  0.00     0.124 S 
ATOM     98  O   UNL A   1      43.964  39.084  32.057  1.00  0.00    -0.237 OA
ATOM     99  O   UNL A   1      46.041  38.210  31.037  1.00  0.00    -0.237 OA
ATOM    100  O   UNL A   1      43.857  37.713  30.011  1.00  0.00    -0.744 OA
ENDBRANCH  93  97
ENDBRANCH  67  90
ENDBRANCH  41  42
ENDBRANCH  34  36
ENDBRANCH  33  34
ENDBRANCH  32  33
ENDBRANCH  31  32
ENDBRANCH  30  31
ENDBRANCH  29  30
ENDBRANCH  28  29
ENDBRANCH   1  28
TORSDOF 26
ENDMDL
