MODEL 1
REMARK VINA RESULT:      -9.3      0.000      0.000
REMARK SMILES CCc1ccsc1-c1nnnn1C[C@H](CC(C)C)C(=O)OCCOCCOCCOCCOC(=O)c1ccc(-c2c3nc(c(-c4cc(S(=O)(=O)[O-])ccc4F)c4ccc([nH]4)c(-c4cc(S(=O)(=O)[O-])ccc4F)c4nc(c(-c5cc(S(=O)(=O)[O-])ccc5F)c5ccc2[nH]5)C=C4)C=C3)cc1
REMARK SMILES IDX 26 1 25 2 24 3 23 4 22 5 21 6 19 7 20 8 14 9 13 10 12 11
REMARK SMILES IDX 8 12 9 13 10 14 11 15 7 16 3 17 4 18 5 19 6 20 2 21 1 22
REMARK SMILES IDX 15 23 16 24 17 25 18 26 27 27 28 28 29 29 30 30 31 31 32 32
REMARK SMILES IDX 33 33 34 34 35 35 36 36 37 37 98 38 38 39 97 40 39 41 40 42
REMARK SMILES IDX 41 43 91 44 42 45 96 46 90 47 92 48 43 49 95 50 89 51 88 52
REMARK SMILES IDX 44 54 76 55 56 56 75 57 57 58 60 59 74 60 93 61 58 62 59 63
REMARK SMILES IDX 73 65 94 66 61 67 45 68 46 69 54 70 47 71 53 72 55 73 52 74
REMARK SMILES IDX 48 75 49 76 50 77 51 78 77 79 78 80 86 81 79 82 85 83 87 84
REMARK SMILES IDX 84 85 80 86 81 87 82 88 83 89 62 90 63 91 71 92 64 93 70 94
REMARK SMILES IDX 72 95 69 96 65 97 66 98 67 99 68 100
REMARK H PARENT 92 53 60 64
REMARK Flexibility Score: inf
ROOT
ATOM      1  C   UNL A   1      33.288  29.551  24.829  1.00  0.00     0.188 C 
ENDROOT
BRANCH   1   2
ATOM      2  C   UNL A   1      32.281  29.139  23.736  1.00  0.00     0.188 C 
BRANCH   2   3
ATOM      3  O   UNL A   1      32.675  28.480  22.539  1.00  0.00    -0.376 OA
BRANCH   3   4
ATOM      4  C   UNL A   1      32.202  27.184  22.212  1.00  0.00     0.202 C 
BRANCH   4   5
ATOM      5  C   UNL A   1      33.174  26.001  22.199  1.00  0.00     0.261 C 
BRANCH   5   6
ATOM      6  O   UNL A   1      32.564  24.705  22.105  1.00  0.00    -0.463 OA
BRANCH   6   7
ATOM      7  C   UNL A   1      31.767  24.344  23.130  1.00  0.00     0.310 C 
ATOM      8  O   UNL A   1      30.554  24.172  23.057  1.00  0.00    -0.252 OA
BRANCH   7   9
ATOM      9  C   UNL A   1      32.471  24.356  24.475  1.00  0.00     0.121 C 
BRANCH   9  10
ATOM     10  C   UNL A   1      32.181  22.994  25.085  1.00  0.00     0.164 C 
BRANCH  10  11
ATOM     11  N   UNL A   1      32.687  22.705  26.400  1.00  0.00    -0.224 N 
ATOM     12  C   UNL A   1      33.950  22.311  26.747  1.00  0.00     0.192 A 
ATOM     13  N   UNL A   1      33.949  22.072  28.043  1.00  0.00    -0.108 NA
ATOM     14  N   UNL A   1      32.691  22.413  28.492  1.00  0.00    -0.023 NA
ATOM     15  N   UNL A   1      31.929  22.848  27.497  1.00  0.00    -0.045 NA
BRANCH  12  16
ATOM     16  C   UNL A   1      35.041  22.146  25.834  1.00  0.00     0.077 A 
ATOM     17  C   UNL A   1      35.380  21.042  25.046  1.00  0.00    -0.026 A 
ATOM     18  C   UNL A   1      36.679  21.243  24.454  1.00  0.00     0.016 A 
ATOM     19  C   UNL A   1      37.229  22.469  24.744  1.00  0.00     0.066 A 
ATOM     20  S   UNL A   1      36.192  23.414  25.706  1.00  0.00    -0.140 S 
BRANCH  17  21
ATOM     21  C   UNL A   1      34.648  19.725  24.861  1.00  0.00     0.034 C 
ATOM     22  C   UNL A   1      33.406  19.730  23.985  1.00  0.00     0.009 C 
ENDBRANCH  17  21
ENDBRANCH  12  16
ENDBRANCH  10  11
ENDBRANCH   9  10
BRANCH   9  23
ATOM     23  C   UNL A   1      32.342  25.564  25.425  1.00  0.00     0.020 C 
BRANCH  23  24
ATOM     24  C   UNL A   1      30.936  26.167  25.642  1.00  0.00    -0.017 C 
ATOM     25  C   UNL A   1      29.865  25.141  26.040  1.00  0.00     0.007 C 
ATOM     26  C   UNL A   1      30.993  27.253  26.722  1.00  0.00     0.007 C 
ENDBRANCH  23  24
ENDBRANCH   9  23
ENDBRANCH   7   9
ENDBRANCH   6   7
ENDBRANCH   5   6
ENDBRANCH   4   5
ENDBRANCH   3   4
ENDBRANCH   2   3
ENDBRANCH   1   2
BRANCH   1  27
ATOM     27  O   UNL A   1      32.759  29.864  26.100  1.00  0.00    -0.377 OA
BRANCH  27  28
ATOM     28  C   UNL A   1      33.586  29.589  27.227  1.00  0.00     0.188 C 
BRANCH  28  29
ATOM     29  C   UNL A   1      34.463  30.743  27.765  1.00  0.00     0.188 C 
BRANCH  29  30
ATOM     30  O   UNL A   1      33.927  32.047  27.576  1.00  0.00    -0.376 OA
BRANCH  30  31
ATOM     31  C   UNL A   1      34.308  33.152  28.379  1.00  0.00     0.202 C 
BRANCH  31  32
ATOM     32  C   UNL A   1      35.684  33.786  28.185  1.00  0.00     0.261 C 
BRANCH  32  33
ATOM     33  O   UNL A   1      36.779  32.917  28.382  1.00  0.00    -0.460 OA
BRANCH  33  34
ATOM     34  C   UNL A   1      37.726  33.387  29.219  1.00  0.00     0.338 C 
ATOM     35  O   UNL A   1      38.153  34.521  29.287  1.00  0.00    -0.246 OA
BRANCH  34  36
ATOM     36  C   UNL A   1      38.291  32.249  29.937  1.00  0.00     0.060 A 
ATOM     37  C   UNL A   1      39.395  32.523  30.741  1.00  0.00     0.016 A 
ATOM     38  C   UNL A   1      37.981  30.959  29.479  1.00  0.00     0.016 A 
ATOM     39  C   UNL A   1      40.342  31.539  30.866  1.00  0.00     0.010 A 
ATOM     40  C   UNL A   1      38.944  29.993  29.578  1.00  0.00     0.010 A 
ATOM     41  C   UNL A   1      40.146  30.326  30.193  1.00  0.00    -0.014 A 
BRANCH  41  42
ATOM     42  C   UNL A   1      41.159  29.306  30.323  1.00  0.00     0.031 A 
ATOM     43  C   UNL A   1      41.331  28.943  31.740  1.00  0.00     0.074 A 
ATOM     44  C   UNL A   1      41.774  28.721  29.279  1.00  0.00     0.049 A 
ATOM     45  N   UNL A   1      42.263  29.362  32.527  1.00  0.00    -0.248 NA
ATOM     46  C   UNL A   1      40.198  28.309  32.440  1.00  0.00     0.031 C 
ATOM     47  C   UNL A   1      41.482  28.887  27.856  1.00  0.00     0.029 A 
ATOM     48  N   UNL A   1      42.747  27.770  29.282  1.00  0.00    -0.354 N 
ATOM     49  C   UNL A   1      42.003  28.734  33.733  1.00  0.00     0.074 A 
ATOM     50  C   UNL A   1      40.608  28.401  33.706  1.00  0.00     0.031 C 
ATOM     51  C   UNL A   1      42.100  27.904  27.158  1.00  0.00     0.029 A 
ATOM     52  C   UNL A   1      42.917  27.112  28.066  1.00  0.00     0.049 A 
ATOM     53  H   UNL A   1      43.287  27.565  30.079  1.00  0.00     0.167 HD
ATOM     54  C   UNL A   1      43.032  28.184  34.432  1.00  0.00     0.034 A 
ATOM     55  C   UNL A   1      43.623  25.966  27.847  1.00  0.00     0.034 A 
ATOM     56  C   UNL A   1      44.300  28.762  34.011  1.00  0.00     0.049 A 
ATOM     57  C   UNL A   1      44.614  25.862  28.951  1.00  0.00     0.074 A 
ATOM     58  C   UNL A   1      44.774  30.056  33.879  1.00  0.00     0.029 A 
ATOM     59  N   UNL A   1      45.151  27.981  33.258  1.00  0.00    -0.354 N 
ATOM     60  N   UNL A   1      45.599  26.705  29.106  1.00  0.00    -0.248 NA
ATOM     61  C   UNL A   1      44.225  25.145  30.156  1.00  0.00     0.031 C 
ATOM     62  C   UNL A   1      45.568  30.045  32.694  1.00  0.00     0.029 A 
ATOM     63  C   UNL A   1      45.633  28.736  32.218  1.00  0.00     0.049 A 
ATOM     64  H   UNL A   1      45.377  27.039  33.438  1.00  0.00     0.167 HD
ATOM     65  C   UNL A   1      45.633  26.967  30.468  1.00  0.00     0.074 A 
ATOM     66  C   UNL A   1      44.836  25.900  31.074  1.00  0.00     0.031 C 
ATOM     67  C   UNL A   1      46.048  28.180  30.941  1.00  0.00     0.034 A 
BRANCH  54  68
ATOM     68  C   UNL A   1      42.942  26.826  35.103  1.00  0.00     0.023 A 
ATOM     69  C   UNL A   1      43.779  25.827  34.582  1.00  0.00     0.031 A 
ATOM     70  C   UNL A   1      41.910  26.368  35.961  1.00  0.00     0.131 A 
ATOM     71  C   UNL A   1      43.484  24.468  34.771  1.00  0.00     0.055 A 
ATOM     72  C   UNL A   1      41.663  25.015  36.203  1.00  0.00     0.041 A 
ATOM     73  F   UNL A   1      41.031  27.176  36.561  1.00  0.00    -0.206 F 
ATOM     74  C   UNL A   1      42.426  24.054  35.572  1.00  0.00     0.022 A 
BRANCH  71  75
ATOM     75  S   UNL A   1      44.394  23.266  33.779  1.00  0.00     0.124 S 
ATOM     76  O   UNL A   1      44.507  22.156  34.719  1.00  0.00    -0.237 OA
ATOM     77  O   UNL A   1      43.492  23.069  32.650  1.00  0.00    -0.237 OA
ATOM     78  O   UNL A   1      45.641  23.961  33.469  1.00  0.00    -0.744 OA
ENDBRANCH  71  75
ENDBRANCH  54  68
BRANCH  55  79
ATOM     79  C   UNL A   1      43.267  24.818  26.954  1.00  0.00     0.023 A 
ATOM     80  C   UNL A   1      44.214  24.161  26.131  1.00  0.00     0.031 A 
ATOM     81  C   UNL A   1      42.016  24.177  27.096  1.00  0.00     0.131 A 
ATOM     82  C   UNL A   1      43.894  22.926  25.509  1.00  0.00     0.055 A 
ATOM     83  C   UNL A   1      41.706  22.961  26.481  1.00  0.00     0.041 A 
ATOM     84  F   UNL A   1      41.070  24.661  27.914  1.00  0.00    -0.206 F 
ATOM     85  C   UNL A   1      42.649  22.324  25.695  1.00  0.00     0.022 A 
BRANCH  82  86
ATOM     86  S   UNL A   1      45.131  22.020  24.517  1.00  0.00     0.124 S 
ATOM     87  O   UNL A   1      45.455  22.983  23.470  1.00  0.00    -0.237 OA
ATOM     88  O   UNL A   1      46.178  21.741  25.492  1.00  0.00    -0.237 OA
ATOM     89  O   UNL A   1      44.398  20.839  24.055  1.00  0.00    -0.744 OA
ENDBRANCH  82  86
ENDBRANCH  55  79
BRANCH  67  90
ATOM     90  C   UNL A   1      46.854  29.083  30.024  1.00  0.00     0.023 A 
ATOM     91  C   UNL A   1      46.342  29.842  28.946  1.00  0.00     0.031 A 
ATOM     92  C   UNL A   1      48.220  29.232  30.330  1.00  0.00     0.131 A 
ATOM     93  C   UNL A   1      47.198  30.694  28.215  1.00  0.00     0.055 A 
ATOM     94  C   UNL A   1      49.055  30.093  29.622  1.00  0.00     0.041 A 
ATOM     95  F   UNL A   1      48.767  28.554  31.353  1.00  0.00    -0.206 F 
ATOM     96  C   UNL A   1      48.548  30.821  28.555  1.00  0.00     0.022 A 
BRANCH  93  97
ATOM     97  S   UNL A   1      46.585  31.630  26.776  1.00  0.00     0.124 S 
ATOM     98  O   UNL A   1      45.719  32.644  27.365  1.00  0.00    -0.237 OA
ATOM     99  O   UNL A   1      47.821  32.119  26.170  1.00  0.00    -0.237 OA
ATOM    100  O   UNL A   1      45.883  30.615  25.986  1.00  0.00    -0.744 OA
ENDBRANCH  93  97
ENDBRANCH  67  90
ENDBRANCH  41  42
ENDBRANCH  34  36
ENDBRANCH  33  34
ENDBRANCH  32  33
ENDBRANCH  31  32
ENDBRANCH  30  31
ENDBRANCH  29  30
ENDBRANCH  28  29
ENDBRANCH  27  28
ENDBRANCH   1  27
TORSDOF 29
ENDMDL
MODEL 2
REMARK VINA RESULT:      -9.2      2.814      6.812
REMARK SMILES CCc1ccsc1-c1nnnn1C[C@H](CC(C)C)C(=O)OCCOCCOCCOCCOC(=O)c1ccc(-c2c3nc(c(-c4cc(S(=O)(=O)[O-])ccc4F)c4ccc([nH]4)c(-c4cc(S(=O)(=O)[O-])ccc4F)c4nc(c(-c5cc(S(=O)(=O)[O-])ccc5F)c5ccc2[nH]5)C=C4)C=C3)cc1
REMARK SMILES IDX 26 1 25 2 24 3 23 4 22 5 21 6 19 7 20 8 14 9 13 10 12 11
REMARK SMILES IDX 8 12 9 13 10 14 11 15 7 16 3 17 4 18 5 19 6 20 2 21 1 22
REMARK SMILES IDX 15 23 16 24 17 25 18 26 27 27 28 28 29 29 30 30 31 31 32 32
REMARK SMILES IDX 33 33 34 34 35 35 36 36 37 37 98 38 38 39 97 40 39 41 40 42
REMARK SMILES IDX 41 43 91 44 42 45 96 46 90 47 92 48 43 49 95 50 89 51 88 52
REMARK SMILES IDX 44 54 76 55 56 56 75 57 57 58 60 59 74 60 93 61 58 62 59 63
REMARK SMILES IDX 73 65 94 66 61 67 45 68 46 69 54 70 47 71 53 72 55 73 52 74
REMARK SMILES IDX 48 75 49 76 50 77 51 78 77 79 78 80 86 81 79 82 85 83 87 84
REMARK SMILES IDX 84 85 80 86 81 87 82 88 83 89 62 90 63 91 71 92 64 93 70 94
REMARK SMILES IDX 72 95 69 96 65 97 66 98 67 99 68 100
REMARK H PARENT 92 53 60 64
REMARK Flexibility Score: inf
ROOT
ATOM      1  C   UNL A   1      30.524  28.933  23.795  1.00  0.00     0.188 C 
ENDROOT
BRANCH   1   2
ATOM      2  C   UNL A   1      31.298  28.926  22.460  1.00  0.00     0.188 C 
BRANCH   2   3
ATOM      3  O   UNL A   1      32.669  29.293  22.368  1.00  0.00    -0.376 OA
BRANCH   3   4
ATOM      4  C   UNL A   1      33.693  28.319  22.245  1.00  0.00     0.202 C 
BRANCH   4   5
ATOM      5  C   UNL A   1      33.322  26.852  22.013  1.00  0.00     0.261 C 
BRANCH   5   6
ATOM      6  O   UNL A   1      33.074  26.086  23.201  1.00  0.00    -0.463 OA
BRANCH   6   7
ATOM      7  C   UNL A   1      31.998  25.273  23.175  1.00  0.00     0.310 C 
ATOM      8  O   UNL A   1      30.898  25.570  22.721  1.00  0.00    -0.252 OA
BRANCH   7   9
ATOM      9  C   UNL A   1      32.196  23.986  23.957  1.00  0.00     0.121 C 
BRANCH   9  10
ATOM     10  C   UNL A   1      32.957  23.067  23.016  1.00  0.00     0.164 C 
BRANCH  10  11
ATOM     11  N   UNL A   1      34.314  22.718  23.341  1.00  0.00    -0.224 N 
ATOM     12  C   UNL A   1      34.751  21.718  24.165  1.00  0.00     0.192 A 
ATOM     13  N   UNL A   1      36.062  21.814  24.245  1.00  0.00    -0.108 NA
ATOM     14  N   UNL A   1      36.423  22.831  23.387  1.00  0.00    -0.023 NA
ATOM     15  N   UNL A   1      35.359  23.356  22.793  1.00  0.00    -0.045 NA
BRANCH  12  16
ATOM     16  C   UNL A   1      33.905  20.783  24.845  1.00  0.00     0.077 A 
ATOM     17  C   UNL A   1      33.650  20.650  26.213  1.00  0.00    -0.026 A 
ATOM     18  C   UNL A   1      32.913  19.435  26.458  1.00  0.00     0.016 A 
ATOM     19  C   UNL A   1      32.588  18.751  25.310  1.00  0.00     0.066 A 
ATOM     20  S   UNL A   1      33.132  19.562  23.917  1.00  0.00    -0.140 S 
BRANCH  17  21
ATOM     21  C   UNL A   1      34.125  21.504  27.373  1.00  0.00     0.034 C 
ATOM     22  C   UNL A   1      33.823  22.993  27.318  1.00  0.00     0.009 C 
ENDBRANCH  17  21
ENDBRANCH  12  16
ENDBRANCH  10  11
ENDBRANCH   9  10
BRANCH   9  23
ATOM     23  C   UNL A   1      31.029  23.345  24.734  1.00  0.00     0.020 C 
BRANCH  23  24
ATOM     24  C   UNL A   1      30.701  23.902  26.137  1.00  0.00    -0.017 C 
ATOM     25  C   UNL A   1      29.903  25.214  26.123  1.00  0.00     0.007 C 
ATOM     26  C   UNL A   1      29.912  22.863  26.942  1.00  0.00     0.007 C 
ENDBRANCH  23  24
ENDBRANCH   9  23
ENDBRANCH   7   9
ENDBRANCH   6   7
ENDBRANCH   5   6
ENDBRANCH   4   5
ENDBRANCH   3   4
ENDBRANCH   2   3
ENDBRANCH   1   2
BRANCH   1  27
ATOM     27  O   UNL A   1      31.277  28.734  24.972  1.00  0.00    -0.377 OA
BRANCH  27  28
ATOM     28  C   UNL A   1      32.307  29.679  25.245  1.00  0.00     0.188 C 
BRANCH  28  29
ATOM     29  C   UNL A   1      32.185  30.511  26.543  1.00  0.00     0.188 C 
BRANCH  29  30
ATOM     30  O   UNL A   1      33.367  31.205  26.927  1.00  0.00    -0.376 OA
BRANCH  30  31
ATOM     31  C   UNL A   1      34.203  30.761  27.983  1.00  0.00     0.202 C 
BRANCH  31  32
ATOM     32  C   UNL A   1      35.500  30.023  27.657  1.00  0.00     0.261 C 
BRANCH  32  33
ATOM     33  O   UNL A   1      36.628  30.436  28.398  1.00  0.00    -0.460 OA
BRANCH  33  34
ATOM     34  C   UNL A   1      37.014  29.576  29.362  1.00  0.00     0.338 C 
ATOM     35  O   UNL A   1      36.571  29.483  30.488  1.00  0.00    -0.246 OA
BRANCH  34  36
ATOM     36  C   UNL A   1      38.194  28.866  28.880  1.00  0.00     0.060 A 
ATOM     37  C   UNL A   1      38.540  27.712  29.580  1.00  0.00     0.016 A 
ATOM     38  C   UNL A   1      39.099  29.564  28.065  1.00  0.00     0.016 A 
ATOM     39  C   UNL A   1      39.874  27.409  29.674  1.00  0.00     0.010 A 
ATOM     40  C   UNL A   1      40.431  29.278  28.190  1.00  0.00     0.010 A 
ATOM     41  C   UNL A   1      40.803  28.261  29.063  1.00  0.00    -0.014 A 
BRANCH  41  42
ATOM     42  C   UNL A   1      42.204  27.935  29.182  1.00  0.00     0.031 A 
ATOM     43  C   UNL A   1      42.507  26.716  28.414  1.00  0.00     0.074 A 
ATOM     44  C   UNL A   1      43.100  28.703  29.829  1.00  0.00     0.049 A 
ATOM     45  N   UNL A   1      42.631  25.524  28.892  1.00  0.00    -0.248 NA
ATOM     46  C   UNL A   1      42.350  26.758  26.948  1.00  0.00     0.031 C 
ATOM     47  C   UNL A   1      42.894  30.026  30.415  1.00  0.00     0.029 A 
ATOM     48  N   UNL A   1      44.430  28.489  30.020  1.00  0.00    -0.354 N 
ATOM     49  C   UNL A   1      42.925  24.740  27.790  1.00  0.00     0.074 A 
ATOM     50  C   UNL A   1      42.421  25.459  26.655  1.00  0.00     0.031 C 
ATOM     51  C   UNL A   1      44.097  30.584  30.688  1.00  0.00     0.029 A 
ATOM     52  C   UNL A   1      45.149  29.619  30.403  1.00  0.00     0.049 A 
ATOM     53  H   UNL A   1      44.850  27.607  29.898  1.00  0.00     0.167 HD
ATOM     54  C   UNL A   1      43.909  23.806  27.881  1.00  0.00     0.034 A 
ATOM     55  C   UNL A   1      46.505  29.761  30.417  1.00  0.00     0.034 A 
ATOM     56  C   UNL A   1      44.170  23.476  29.274  1.00  0.00     0.049 A 
ATOM     57  C   UNL A   1      47.073  28.390  30.510  1.00  0.00     0.074 A 
ATOM     58  C   UNL A   1      43.375  23.081  30.337  1.00  0.00     0.029 A 
ATOM     59  N   UNL A   1      45.341  23.931  29.842  1.00  0.00    -0.354 N 
ATOM     60  N   UNL A   1      46.919  27.625  31.556  1.00  0.00    -0.248 NA
ATOM     61  C   UNL A   1      47.368  27.685  29.272  1.00  0.00     0.031 C 
ATOM     62  C   UNL A   1      43.906  23.758  31.475  1.00  0.00     0.029 A 
ATOM     63  C   UNL A   1      45.056  24.444  31.082  1.00  0.00     0.049 A 
ATOM     64  H   UNL A   1      46.233  23.894  29.427  1.00  0.00     0.167 HD
ATOM     65  C   UNL A   1      46.632  26.369  31.040  1.00  0.00     0.074 A 
ATOM     66  C   UNL A   1      47.027  26.444  29.634  1.00  0.00     0.031 C 
ATOM     67  C   UNL A   1      45.831  25.495  31.721  1.00  0.00     0.034 A 
BRANCH  54  68
ATOM     68  C   UNL A   1      44.937  23.579  26.787  1.00  0.00     0.023 A 
ATOM     69  C   UNL A   1      45.784  24.663  26.507  1.00  0.00     0.031 A 
ATOM     70  C   UNL A   1      44.934  22.543  25.820  1.00  0.00     0.131 A 
ATOM     71  C   UNL A   1      46.434  24.767  25.267  1.00  0.00     0.055 A 
ATOM     72  C   UNL A   1      45.638  22.620  24.617  1.00  0.00     0.041 A 
ATOM     73  F   UNL A   1      44.203  21.429  25.928  1.00  0.00    -0.206 F 
ATOM     74  C   UNL A   1      46.360  23.756  24.315  1.00  0.00     0.022 A 
BRANCH  71  75
ATOM     75  S   UNL A   1      47.206  26.345  24.856  1.00  0.00     0.124 S 
ATOM     76  O   UNL A   1      46.033  27.201  24.713  1.00  0.00    -0.237 OA
ATOM     77  O   UNL A   1      48.041  26.582  26.028  1.00  0.00    -0.237 OA
ATOM     78  O   UNL A   1      47.930  26.054  23.621  1.00  0.00    -0.744 OA
ENDBRANCH  71  75
ENDBRANCH  54  68
BRANCH  55  79
ATOM     79  C   UNL A   1      47.313  30.958  30.019  1.00  0.00     0.023 A 
ATOM     80  C   UNL A   1      47.518  31.334  28.669  1.00  0.00     0.031 A 
ATOM     81  C   UNL A   1      47.687  31.911  30.994  1.00  0.00     0.131 A 
ATOM     82  C   UNL A   1      48.061  32.606  28.351  1.00  0.00     0.055 A 
ATOM     83  C   UNL A   1      48.221  33.161  30.674  1.00  0.00     0.041 A 
ATOM     84  F   UNL A   1      47.465  31.700  32.300  1.00  0.00    -0.206 F 
ATOM     85  C   UNL A   1      48.398  33.520  29.350  1.00  0.00     0.022 A 
BRANCH  82  86
ATOM     86  S   UNL A   1      48.250  33.144  26.616  1.00  0.00     0.124 S 
ATOM     87  O   UNL A   1      49.490  32.486  26.220  1.00  0.00    -0.237 OA
ATOM     88  O   UNL A   1      47.026  32.654  25.996  1.00  0.00    -0.237 OA
ATOM     89  O   UNL A   1      48.339  34.602  26.719  1.00  0.00    -0.744 OA
ENDBRANCH  82  86
ENDBRANCH  55  79
BRANCH  67  90
ATOM     90  C   UNL A   1      45.597  25.724  33.203  1.00  0.00     0.023 A 
ATOM     91  C   UNL A   1      44.534  26.463  33.772  1.00  0.00     0.031 A 
ATOM     92  C   UNL A   1      46.478  25.071  34.087  1.00  0.00     0.131 A 
ATOM     93  C   UNL A   1      44.401  26.539  35.175  1.00  0.00     0.055 A 
ATOM     94  C   UNL A   1      46.328  25.128  35.470  1.00  0.00     0.041 A 
ATOM     95  F   UNL A   1      47.499  24.337  33.613  1.00  0.00    -0.206 F 
ATOM     96  C   UNL A   1      45.293  25.871  36.020  1.00  0.00     0.022 A 
BRANCH  93  97
ATOM     97  S   UNL A   1      43.086  27.543  35.940  1.00  0.00     0.124 S 
ATOM     98  O   UNL A   1      43.381  28.898  35.493  1.00  0.00    -0.237 OA
ATOM     99  O   UNL A   1      41.873  26.940  35.394  1.00  0.00    -0.237 OA
ATOM    100  O   UNL A   1      43.280  27.320  37.375  1.00  0.00    -0.744 OA
ENDBRANCH  93  97
ENDBRANCH  67  90
ENDBRANCH  41  42
ENDBRANCH  34  36
ENDBRANCH  33  34
ENDBRANCH  32  33
ENDBRANCH  31  32
ENDBRANCH  30  31
ENDBRANCH  29  30
ENDBRANCH  28  29
ENDBRANCH  27  28
ENDBRANCH   1  27
TORSDOF 29
ENDMDL
MODEL 3
REMARK VINA RESULT:      -8.5      2.554      3.811
REMARK SMILES CCc1ccsc1-c1nnnn1C[C@H](CC(C)C)C(=O)OCCOCCOCCOCCOC(=O)c1ccc(-c2c3nc(c(-c4cc(S(=O)(=O)[O-])ccc4F)c4ccc([nH]4)c(-c4cc(S(=O)(=O)[O-])ccc4F)c4nc(c(-c5cc(S(=O)(=O)[O-])ccc5F)c5ccc2[nH]5)C=C4)C=C3)cc1
REMARK SMILES IDX 26 1 25 2 24 3 23 4 22 5 21 6 19 7 20 8 14 9 13 10 12 11
REMARK SMILES IDX 8 12 9 13 10 14 11 15 7 16 3 17 4 18 5 19 6 20 2 21 1 22
REMARK SMILES IDX 15 23 16 24 17 25 18 26 27 27 28 28 29 29 30 30 31 31 32 32
REMARK SMILES IDX 33 33 34 34 35 35 36 36 37 37 98 38 38 39 97 40 39 41 40 42
REMARK SMILES IDX 41 43 91 44 42 45 96 46 90 47 92 48 43 49 95 50 89 51 88 52
REMARK SMILES IDX 44 54 76 55 56 56 75 57 57 58 60 59 74 60 93 61 58 62 59 63
REMARK SMILES IDX 73 65 94 66 61 67 45 68 46 69 54 70 47 71 53 72 55 73 52 74
REMARK SMILES IDX 48 75 49 76 50 77 51 78 77 79 78 80 86 81 79 82 85 83 87 84
REMARK SMILES IDX 84 85 80 86 81 87 82 88 83 89 62 90 63 91 71 92 64 93 70 94
REMARK SMILES IDX 72 95 69 96 65 97 66 98 67 99 68 100
REMARK H PARENT 92 53 60 64
REMARK Flexibility Score: inf
ROOT
ATOM      1  C   UNL A   1      30.573  28.853  23.856  1.00  0.00     0.188 C 
ENDROOT
BRANCH   1   2
ATOM      2  C   UNL A   1      31.442  28.955  22.585  1.00  0.00     0.188 C 
BRANCH   2   3
ATOM      3  O   UNL A   1      32.861  29.024  22.629  1.00  0.00    -0.376 OA
BRANCH   3   4
ATOM      4  C   UNL A   1      33.658  27.864  22.801  1.00  0.00     0.202 C 
BRANCH   4   5
ATOM      5  C   UNL A   1      33.249  26.554  22.121  1.00  0.00     0.261 C 
BRANCH   5   6
ATOM      6  O   UNL A   1      33.978  25.391  22.541  1.00  0.00    -0.463 OA
BRANCH   6   7
ATOM      7  C   UNL A   1      33.739  24.255  21.854  1.00  0.00     0.310 C 
ATOM      8  O   UNL A   1      33.229  24.196  20.740  1.00  0.00    -0.252 OA
BRANCH   7   9
ATOM      9  C   UNL A   1      33.975  22.997  22.671  1.00  0.00     0.121 C 
BRANCH   9  10
ATOM     10  C   UNL A   1      32.680  22.208  22.562  1.00  0.00     0.164 C 
BRANCH  10  11
ATOM     11  N   UNL A   1      32.403  21.200  23.550  1.00  0.00    -0.224 N 
ATOM     12  C   UNL A   1      31.965  21.377  24.833  1.00  0.00     0.192 A 
ATOM     13  N   UNL A   1      31.930  20.193  25.408  1.00  0.00    -0.108 NA
ATOM     14  N   UNL A   1      32.268  19.284  24.429  1.00  0.00    -0.023 NA
ATOM     15  N   UNL A   1      32.511  19.892  23.275  1.00  0.00    -0.045 NA
BRANCH  12  16
ATOM     16  C   UNL A   1      31.657  22.643  25.430  1.00  0.00     0.077 A 
ATOM     17  C   UNL A   1      31.993  23.131  26.696  1.00  0.00    -0.026 A 
ATOM     18  C   UNL A   1      31.283  24.361  26.951  1.00  0.00     0.016 A 
ATOM     19  C   UNL A   1      30.520  24.782  25.888  1.00  0.00     0.066 A 
ATOM     20  S   UNL A   1      30.658  23.732  24.557  1.00  0.00    -0.140 S 
BRANCH  17  21
ATOM     21  C   UNL A   1      32.850  22.503  27.780  1.00  0.00     0.034 C 
ATOM     22  C   UNL A   1      34.355  22.692  27.682  1.00  0.00     0.009 C 
ENDBRANCH  17  21
ENDBRANCH  12  16
ENDBRANCH  10  11
ENDBRANCH   9  10
BRANCH   9  23
ATOM     23  C   UNL A   1      34.607  23.072  24.075  1.00  0.00     0.020 C 
BRANCH  23  24
ATOM     24  C   UNL A   1      36.140  22.922  24.188  1.00  0.00    -0.017 C 
ATOM     25  C   UNL A   1      36.595  21.741  25.058  1.00  0.00     0.007 C 
ATOM     26  C   UNL A   1      36.756  22.763  22.794  1.00  0.00     0.007 C 
ENDBRANCH  23  24
ENDBRANCH   9  23
ENDBRANCH   7   9
ENDBRANCH   6   7
ENDBRANCH   5   6
ENDBRANCH   4   5
ENDBRANCH   3   4
ENDBRANCH   2   3
ENDBRANCH   1   2
BRANCH   1  27
ATOM     27  O   UNL A   1      31.024  27.979  24.869  1.00  0.00    -0.377 OA
BRANCH  27  28
ATOM     28  C   UNL A   1      31.349  28.565  26.126  1.00  0.00     0.188 C 
BRANCH  28  29
ATOM     29  C   UNL A   1      32.825  28.960  26.367  1.00  0.00     0.188 C 
BRANCH  29  30
ATOM     30  O   UNL A   1      33.121  30.337  26.168  1.00  0.00    -0.376 OA
BRANCH  30  31
ATOM     31  C   UNL A   1      33.181  31.266  27.238  1.00  0.00     0.202 C 
BRANCH  31  32
ATOM     32  C   UNL A   1      34.337  31.194  28.234  1.00  0.00     0.261 C 
BRANCH  32  33
ATOM     33  O   UNL A   1      35.609  30.970  27.663  1.00  0.00    -0.460 OA
BRANCH  33  34
ATOM     34  C   UNL A   1      36.040  29.695  27.735  1.00  0.00     0.338 C 
ATOM     35  O   UNL A   1      35.501  28.707  27.279  1.00  0.00    -0.246 OA
BRANCH  34  36
ATOM     36  C   UNL A   1      37.204  29.667  28.615  1.00  0.00     0.060 A 
ATOM     37  C   UNL A   1      37.977  30.825  28.640  1.00  0.00     0.016 A 
ATOM     38  C   UNL A   1      37.689  28.417  29.029  1.00  0.00     0.016 A 
ATOM     39  C   UNL A   1      39.327  30.678  28.832  1.00  0.00     0.010 A 
ATOM     40  C   UNL A   1      39.040  28.270  29.186  1.00  0.00     0.010 A 
ATOM     41  C   UNL A   1      39.847  29.387  28.997  1.00  0.00    -0.014 A 
BRANCH  41  42
ATOM     42  C   UNL A   1      41.271  29.247  29.184  1.00  0.00     0.031 A 
ATOM     43  C   UNL A   1      41.609  29.393  30.610  1.00  0.00     0.074 A 
ATOM     44  C   UNL A   1      42.131  28.936  28.198  1.00  0.00     0.049 A 
ATOM     45  N   UNL A   1      42.074  30.453  31.180  1.00  0.00    -0.248 NA
ATOM     46  C   UNL A   1      41.098  28.382  31.555  1.00  0.00     0.031 C 
ATOM     47  C   UNL A   1      41.820  28.566  26.817  1.00  0.00     0.029 A 
ATOM     48  N   UNL A   1      43.483  28.796  28.253  1.00  0.00    -0.354 N 
ATOM     49  C   UNL A   1      42.239  30.088  32.505  1.00  0.00     0.074 A 
ATOM     50  C   UNL A   1      41.347  28.985  32.719  1.00  0.00     0.031 C 
ATOM     51  C   UNL A   1      42.922  28.030  26.242  1.00  0.00     0.029 A 
ATOM     52  C   UNL A   1      44.040  28.121  27.169  1.00  0.00     0.049 A 
ATOM     53  H   UNL A   1      44.024  29.145  28.999  1.00  0.00     0.167 HD
ATOM     54  C   UNL A   1      43.377  30.446  33.156  1.00  0.00     0.034 A 
ATOM     55  C   UNL A   1      45.306  27.622  27.078  1.00  0.00     0.034 A 
ATOM     56  C   UNL A   1      44.025  31.557  32.477  1.00  0.00     0.049 A 
ATOM     57  C   UNL A   1      46.134  28.389  28.047  1.00  0.00     0.074 A 
ATOM     58  C   UNL A   1      43.602  32.803  32.046  1.00  0.00     0.029 A 
ATOM     59  N   UNL A   1      45.188  31.304  31.779  1.00  0.00    -0.354 N 
ATOM     60  N   UNL A   1      46.388  29.663  27.915  1.00  0.00    -0.248 NA
ATOM     61  C   UNL A   1      46.252  27.877  29.403  1.00  0.00     0.031 C 
ATOM     62  C   UNL A   1      44.250  33.008  30.792  1.00  0.00     0.029 A 
ATOM     63  C   UNL A   1      45.116  31.938  30.564  1.00  0.00     0.049 A 
ATOM     64  H   UNL A   1      45.943  30.761  32.101  1.00  0.00     0.167 HD
ATOM     65  C   UNL A   1      46.233  30.191  29.188  1.00  0.00     0.074 A 
ATOM     66  C   UNL A   1      46.255  29.031  30.079  1.00  0.00     0.031 C 
ATOM     67  C   UNL A   1      45.804  31.476  29.370  1.00  0.00     0.034 A 
BRANCH  54  68
ATOM     68  C   UNL A   1      44.135  29.503  34.074  1.00  0.00     0.023 A 
ATOM     69  C   UNL A   1      44.522  28.277  33.511  1.00  0.00     0.031 A 
ATOM     70  C   UNL A   1      44.217  29.577  35.488  1.00  0.00     0.131 A 
ATOM     71  C   UNL A   1      44.796  27.166  34.323  1.00  0.00     0.055 A 
ATOM     72  C   UNL A   1      44.557  28.486  36.289  1.00  0.00     0.041 A 
ATOM     73  F   UNL A   1      43.905  30.667  36.194  1.00  0.00    -0.206 F 
ATOM     74  C   UNL A   1      44.808  27.258  35.711  1.00  0.00     0.022 A 
BRANCH  71  75
ATOM     75  S   UNL A   1      44.932  25.555  33.521  1.00  0.00     0.124 S 
ATOM     76  O   UNL A   1      44.815  25.931  32.117  1.00  0.00    -0.237 OA
ATOM     77  O   UNL A   1      46.250  25.113  33.965  1.00  0.00    -0.237 OA
ATOM     78  O   UNL A   1      43.805  24.808  34.072  1.00  0.00    -0.744 OA
ENDBRANCH  71  75
ENDBRANCH  54  68
BRANCH  55  79
ATOM     79  C   UNL A   1      45.747  26.328  26.468  1.00  0.00     0.023 A 
ATOM     80  C   UNL A   1      44.949  25.158  26.485  1.00  0.00     0.031 A 
ATOM     81  C   UNL A   1      46.876  26.298  25.619  1.00  0.00     0.131 A 
ATOM     82  C   UNL A   1      45.289  24.043  25.675  1.00  0.00     0.055 A 
ATOM     83  C   UNL A   1      47.206  25.197  24.824  1.00  0.00     0.041 A 
ATOM     84  F   UNL A   1      47.659  27.375  25.457  1.00  0.00    -0.206 F 
ATOM     85  C   UNL A   1      46.406  24.069  24.839  1.00  0.00     0.022 A 
BRANCH  82  86
ATOM     86  S   UNL A   1      44.225  22.560  25.617  1.00  0.00     0.124 S 
ATOM     87  O   UNL A   1      45.202  21.478  25.566  1.00  0.00    -0.237 OA
ATOM     88  O   UNL A   1      43.446  22.678  26.843  1.00  0.00    -0.237 OA
ATOM     89  O   UNL A   1      43.453  22.743  24.385  1.00  0.00    -0.744 OA
ENDBRANCH  82  86
ENDBRANCH  55  79
BRANCH  67  90
ATOM     90  C   UNL A   1      45.895  32.446  28.206  1.00  0.00     0.023 A 
ATOM     91  C   UNL A   1      47.028  33.214  27.850  1.00  0.00     0.031 A 
ATOM     92  C   UNL A   1      44.770  32.523  27.363  1.00  0.00     0.131 A 
ATOM     93  C   UNL A   1      46.994  34.029  26.699  1.00  0.00     0.055 A 
ATOM     94  C   UNL A   1      44.749  33.309  26.213  1.00  0.00     0.041 A 
ATOM     95  F   UNL A   1      43.666  31.806  27.632  1.00  0.00    -0.206 F 
ATOM     96  C   UNL A   1      45.859  34.073  25.882  1.00  0.00     0.022 A 
BRANCH  93  97
ATOM     97  S   UNL A   1      48.411  35.086  26.254  1.00  0.00     0.124 S 
ATOM     98  O   UNL A   1      47.853  36.432  26.259  1.00  0.00    -0.237 OA
ATOM     99  O   UNL A   1      49.369  34.788  27.315  1.00  0.00    -0.237 OA
ATOM    100  O   UNL A   1      48.800  34.592  24.931  1.00  0.00    -0.744 OA
ENDBRANCH  93  97
ENDBRANCH  67  90
ENDBRANCH  41  42
ENDBRANCH  34  36
ENDBRANCH  33  34
ENDBRANCH  32  33
ENDBRANCH  31  32
ENDBRANCH  30  31
ENDBRANCH  29  30
ENDBRANCH  28  29
ENDBRANCH  27  28
ENDBRANCH   1  27
TORSDOF 29
ENDMDL
