MODEL 1
REMARK VINA RESULT:     -10.6      0.000      0.000
REMARK SMILES C[C@]1(Cn2c(=O)[nH]c3cc(C(=O)OCCOCCOCCOCCOC(=O)c4ccc(-c5c6nc(c(-c7cc(S(=O)(=O)[O-])ccc7F)c7ccc([nH]7)c(-c7cc(S(=O)(=O)[O-])ccc7F)c7nc(c(-c8cc(S(=O)(=O)[O-])ccc8F)c8ccc5[nH]8)C=C7)C=C6)cc4)ccc32)CCCO1
REMARK SMILES IDX 20 1 19 2 18 3 17 4 16 5 15 6 14 7 13 8 11 9 12 10 10 11
REMARK SMILES IDX 4 12 5 13 93 14 6 15 7 16 8 17 92 18 9 20 91 21 3 22 2 23
REMARK SMILES IDX 1 24 94 25 97 26 95 27 96 28 21 29 22 30 23 31 24 32 25 33
REMARK SMILES IDX 26 34 27 35 28 36 29 37 90 38 30 39 89 40 31 41 32 42 33 43
REMARK SMILES IDX 83 44 34 45 88 46 82 47 84 48 35 49 87 50 81 51 80 52 36 54
REMARK SMILES IDX 68 55 48 56 67 57 49 58 52 59 66 60 85 61 50 62 51 63 65 65
REMARK SMILES IDX 86 66 53 67 37 68 38 69 46 70 39 71 45 72 47 73 44 74 40 75
REMARK SMILES IDX 41 76 42 77 43 78 69 79 70 80 78 81 71 82 77 83 79 84 76 85
REMARK SMILES IDX 72 86 73 87 74 88 75 89 54 90 55 91 63 92 56 93 62 94 64 95
REMARK SMILES IDX 61 96 57 97 58 98 59 99 60 100
REMARK H PARENT 7 19 84 53 52 64
REMARK Flexibility Score: inf
ROOT
ATOM      1  C   UNL A   1      33.200  28.554  25.747  1.00  0.00     0.188 C 
ENDROOT
BRANCH   1   2
ATOM      2  O   UNL A   1      32.991  29.342  24.583  1.00  0.00    -0.377 OA
BRANCH   2   3
ATOM      3  C   UNL A   1      32.661  28.689  23.376  1.00  0.00     0.188 C 
BRANCH   3   4
ATOM      4  C   UNL A   1      31.209  28.735  22.857  1.00  0.00     0.188 C 
BRANCH   4   5
ATOM      5  O   UNL A   1      30.227  28.329  23.786  1.00  0.00    -0.376 OA
BRANCH   5   6
ATOM      6  C   UNL A   1      29.595  27.061  23.698  1.00  0.00     0.202 C 
BRANCH   6   7
ATOM      7  C   UNL A   1      30.416  25.762  23.756  1.00  0.00     0.261 C 
BRANCH   7   8
ATOM      8  O   UNL A   1      31.409  25.722  24.778  1.00  0.00    -0.460 OA
BRANCH   8   9
ATOM      9  C   UNL A   1      31.129  24.937  25.837  1.00  0.00     0.338 C 
ATOM     10  O   UNL A   1      30.301  25.136  26.707  1.00  0.00    -0.246 OA
BRANCH   9  11
ATOM     11  C   UNL A   1      31.818  23.644  25.634  1.00  0.00     0.062 A 
ATOM     12  N   UNL A   1      34.092  20.328  24.801  1.00  0.00    -0.289 N 
ATOM     13  C   UNL A   1      35.384  20.820  25.126  1.00  0.00     0.326 A 
ATOM     14  C   UNL A   1      33.139  21.280  25.189  1.00  0.00     0.069 A 
ATOM     15  O   UNL A   1      36.453  20.292  24.955  1.00  0.00    -0.248 OA
ATOM     16  N   UNL A   1      35.184  22.113  25.649  1.00  0.00    -0.306 N 
ATOM     17  C   UNL A   1      33.831  22.415  25.604  1.00  0.00     0.067 A 
ATOM     18  C   UNL A   1      31.763  21.256  25.147  1.00  0.00     0.029 A 
ATOM     19  H   UNL A   1      35.891  22.706  25.991  1.00  0.00     0.171 HD
ATOM     20  C   UNL A   1      33.207  23.616  25.824  1.00  0.00     0.044 A 
ATOM     21  C   UNL A   1      31.093  22.464  25.346  1.00  0.00     0.018 A 
BRANCH  12  22
ATOM     22  C   UNL A   1      33.849  19.196  23.927  1.00  0.00     0.162 C 
BRANCH  22  23
ATOM     23  C   UNL A   1      33.858  17.797  24.619  1.00  0.00     0.083 C 
ATOM     24  C   UNL A   1      35.280  17.315  24.963  1.00  0.00     0.044 C 
ATOM     25  C   UNL A   1      32.916  17.695  25.819  1.00  0.00     0.039 C 
ATOM     26  O   UNL A   1      33.318  16.805  23.707  1.00  0.00    -0.373 OA
ATOM     27  C   UNL A   1      32.718  16.202  25.946  1.00  0.00     0.031 C 
ATOM     28  C   UNL A   1      32.773  15.729  24.503  1.00  0.00     0.161 C 
ENDBRANCH  22  23
ENDBRANCH  12  22
ENDBRANCH   9  11
ENDBRANCH   8   9
ENDBRANCH   7   8
ENDBRANCH   6   7
ENDBRANCH   5   6
ENDBRANCH   4   5
ENDBRANCH   3   4
ENDBRANCH   2   3
ENDBRANCH   1   2
BRANCH   1  29
ATOM     29  C   UNL A   1      32.934  29.143  27.152  1.00  0.00     0.188 C 
BRANCH  29  30
ATOM     30  O   UNL A   1      33.922  30.042  27.596  1.00  0.00    -0.376 OA
BRANCH  30  31
ATOM     31  C   UNL A   1      33.811  31.406  27.236  1.00  0.00     0.202 C 
BRANCH  31  32
ATOM     32  C   UNL A   1      34.020  32.611  28.194  1.00  0.00     0.261 C 
BRANCH  32  33
ATOM     33  O   UNL A   1      35.329  33.198  28.268  1.00  0.00    -0.460 OA
BRANCH  33  34
ATOM     34  C   UNL A   1      36.048  33.165  29.420  1.00  0.00     0.338 C 
ATOM     35  O   UNL A   1      35.690  33.591  30.502  1.00  0.00    -0.246 OA
BRANCH  34  36
ATOM     36  C   UNL A   1      37.177  32.204  29.189  1.00  0.00     0.060 A 
ATOM     37  C   UNL A   1      36.953  30.877  28.817  1.00  0.00     0.016 A 
ATOM     38  C   UNL A   1      38.444  32.577  29.675  1.00  0.00     0.016 A 
ATOM     39  C   UNL A   1      37.949  29.921  29.066  1.00  0.00     0.010 A 
ATOM     40  C   UNL A   1      39.440  31.616  29.918  1.00  0.00     0.010 A 
ATOM     41  C   UNL A   1      39.194  30.270  29.648  1.00  0.00    -0.014 A 
BRANCH  41  42
ATOM     42  C   UNL A   1      40.285  29.263  29.566  1.00  0.00     0.031 A 
ATOM     43  C   UNL A   1      40.665  28.862  30.946  1.00  0.00     0.074 A 
ATOM     44  C   UNL A   1      40.854  28.576  28.543  1.00  0.00     0.049 A 
ATOM     45  N   UNL A   1      41.732  29.200  31.588  1.00  0.00    -0.248 NA
ATOM     46  C   UNL A   1      39.625  28.229  31.774  1.00  0.00     0.031 C 
ATOM     47  C   UNL A   1      40.427  28.524  27.145  1.00  0.00     0.029 A 
ATOM     48  N   UNL A   1      41.922  27.695  28.558  1.00  0.00    -0.354 N 
ATOM     49  C   UNL A   1      41.599  28.602  32.836  1.00  0.00     0.074 A 
ATOM     50  C   UNL A   1      40.212  28.248  32.970  1.00  0.00     0.031 C 
ATOM     51  C   UNL A   1      41.081  27.522  26.502  1.00  0.00     0.029 A 
ATOM     52  C   UNL A   1      42.068  26.931  27.395  1.00  0.00     0.049 A 
ATOM     53  H   UNL A   1      42.532  27.611  29.326  1.00  0.00     0.167 HD
ATOM     54  C   UNL A   1      42.694  28.151  33.507  1.00  0.00     0.034 A 
ATOM     55  C   UNL A   1      42.908  25.882  27.168  1.00  0.00     0.034 A 
ATOM     56  C   UNL A   1      43.903  28.686  32.940  1.00  0.00     0.049 A 
ATOM     57  C   UNL A   1      44.030  25.927  28.121  1.00  0.00     0.074 A 
ATOM     58  C   UNL A   1      44.600  29.871  32.972  1.00  0.00     0.029 A 
ATOM     59  N   UNL A   1      44.362  27.973  31.868  1.00  0.00    -0.354 N 
ATOM     60  N   UNL A   1      45.006  26.783  28.045  1.00  0.00    -0.248 NA
ATOM     61  C   UNL A   1      43.974  25.138  29.348  1.00  0.00     0.031 C 
ATOM     62  C   UNL A   1      45.444  29.879  31.822  1.00  0.00     0.029 A 
ATOM     63  C   UNL A   1      45.270  28.684  31.131  1.00  0.00     0.049 A 
ATOM     64  H   UNL A   1      44.074  27.057  31.652  1.00  0.00     0.167 HD
ATOM     65  C   UNL A   1      45.352  26.981  29.360  1.00  0.00     0.074 A 
ATOM     66  C   UNL A   1      44.865  25.812  30.078  1.00  0.00     0.031 C 
ATOM     67  C   UNL A   1      45.634  28.235  29.805  1.00  0.00     0.034 A 
BRANCH  54  68
ATOM     68  C   UNL A   1      42.699  26.864  34.310  1.00  0.00     0.023 A 
ATOM     69  C   UNL A   1      43.427  25.721  33.929  1.00  0.00     0.031 A 
ATOM     70  C   UNL A   1      42.166  26.837  35.613  1.00  0.00     0.131 A 
ATOM     71  C   UNL A   1      43.582  24.618  34.777  1.00  0.00     0.055 A 
ATOM     72  C   UNL A   1      42.380  25.765  36.492  1.00  0.00     0.041 A 
ATOM     73  F   UNL A   1      41.467  27.876  36.095  1.00  0.00    -0.206 F 
ATOM     74  C   UNL A   1      43.090  24.645  36.075  1.00  0.00     0.022 A 
BRANCH  71  75
ATOM     75  S   UNL A   1      44.452  23.140  34.185  1.00  0.00     0.124 S 
ATOM     76  O   UNL A   1      43.588  22.691  33.100  1.00  0.00    -0.237 OA
ATOM     77  O   UNL A   1      45.740  23.701  33.784  1.00  0.00    -0.237 OA
ATOM     78  O   UNL A   1      44.497  22.274  35.361  1.00  0.00    -0.744 OA
ENDBRANCH  71  75
ENDBRANCH  54  68
BRANCH  55  79
ATOM     79  C   UNL A   1      42.776  24.673  26.312  1.00  0.00     0.023 A 
ATOM     80  C   UNL A   1      41.743  23.766  26.585  1.00  0.00     0.031 A 
ATOM     81  C   UNL A   1      43.854  24.206  25.523  1.00  0.00     0.131 A 
ATOM     82  C   UNL A   1      41.850  22.429  26.167  1.00  0.00     0.055 A 
ATOM     83  C   UNL A   1      43.943  22.878  25.085  1.00  0.00     0.041 A 
ATOM     84  F   UNL A   1      44.891  25.008  25.237  1.00  0.00    -0.206 F 
ATOM     85  C   UNL A   1      42.946  21.975  25.429  1.00  0.00     0.022 A 
BRANCH  82  86
ATOM     86  S   UNL A   1      40.615  21.209  26.693  1.00  0.00     0.124 S 
ATOM     87  O   UNL A   1      41.116  19.978  26.084  1.00  0.00    -0.237 OA
ATOM     88  O   UNL A   1      40.728  21.282  28.146  1.00  0.00    -0.237 OA
ATOM     89  O   UNL A   1      39.372  21.719  26.122  1.00  0.00    -0.744 OA
ENDBRANCH  82  86
ENDBRANCH  55  79
BRANCH  67  90
ATOM     90  C   UNL A   1      46.196  29.227  28.829  1.00  0.00     0.023 A 
ATOM     91  C   UNL A   1      45.283  30.147  28.292  1.00  0.00     0.031 A 
ATOM     92  C   UNL A   1      47.516  29.252  28.347  1.00  0.00     0.131 A 
ATOM     93  C   UNL A   1      45.675  31.026  27.280  1.00  0.00     0.055 A 
ATOM     94  C   UNL A   1      47.927  30.189  27.391  1.00  0.00     0.041 A 
ATOM     95  F   UNL A   1      48.426  28.345  28.731  1.00  0.00    -0.206 F 
ATOM     96  C   UNL A   1      47.000  31.071  26.841  1.00  0.00     0.022 A 
BRANCH  93  97
ATOM     97  S   UNL A   1      44.432  32.015  26.415  1.00  0.00     0.124 S 
ATOM     98  O   UNL A   1      45.203  32.597  25.322  1.00  0.00    -0.237 OA
ATOM     99  O   UNL A   1      43.451  31.004  26.024  1.00  0.00    -0.237 OA
ATOM    100  O   UNL A   1      43.967  32.961  27.427  1.00  0.00    -0.744 OA
ENDBRANCH  93  97
ENDBRANCH  67  90
ENDBRANCH  41  42
ENDBRANCH  34  36
ENDBRANCH  33  34
ENDBRANCH  32  33
ENDBRANCH  31  32
ENDBRANCH  30  31
ENDBRANCH  29  30
ENDBRANCH   1  29
TORSDOF 25
ENDMDL
MODEL 2
REMARK VINA RESULT:     -10.1      2.556      4.631
REMARK SMILES C[C@]1(Cn2c(=O)[nH]c3cc(C(=O)OCCOCCOCCOCCOC(=O)c4ccc(-c5c6nc(c(-c7cc(S(=O)(=O)[O-])ccc7F)c7ccc([nH]7)c(-c7cc(S(=O)(=O)[O-])ccc7F)c7nc(c(-c8cc(S(=O)(=O)[O-])ccc8F)c8ccc5[nH]8)C=C7)C=C6)cc4)ccc32)CCCO1
REMARK SMILES IDX 20 1 19 2 18 3 17 4 16 5 15 6 14 7 13 8 11 9 12 10 10 11
REMARK SMILES IDX 4 12 5 13 93 14 6 15 7 16 8 17 92 18 9 20 91 21 3 22 2 23
REMARK SMILES IDX 1 24 94 25 97 26 95 27 96 28 21 29 22 30 23 31 24 32 25 33
REMARK SMILES IDX 26 34 27 35 28 36 29 37 90 38 30 39 89 40 31 41 32 42 33 43
REMARK SMILES IDX 83 44 34 45 88 46 82 47 84 48 35 49 87 50 81 51 80 52 36 54
REMARK SMILES IDX 68 55 48 56 67 57 49 58 52 59 66 60 85 61 50 62 51 63 65 65
REMARK SMILES IDX 86 66 53 67 37 68 38 69 46 70 39 71 45 72 47 73 44 74 40 75
REMARK SMILES IDX 41 76 42 77 43 78 69 79 70 80 78 81 71 82 77 83 79 84 76 85
REMARK SMILES IDX 72 86 73 87 74 88 75 89 54 90 55 91 63 92 56 93 62 94 64 95
REMARK SMILES IDX 61 96 57 97 58 98 59 99 60 100
REMARK H PARENT 7 19 84 53 52 64
REMARK Flexibility Score: inf
ROOT
ATOM      1  C   UNL A   1      32.612  26.890  24.877  1.00  0.00     0.188 C 
ENDROOT
BRANCH   1   2
ATOM      2  O   UNL A   1      32.805  25.842  23.937  1.00  0.00    -0.377 OA
BRANCH   2   3
ATOM      3  C   UNL A   1      33.011  26.181  22.583  1.00  0.00     0.188 C 
BRANCH   3   4
ATOM      4  C   UNL A   1      32.864  25.096  21.496  1.00  0.00     0.188 C 
BRANCH   4   5
ATOM      5  O   UNL A   1      33.623  23.925  21.710  1.00  0.00    -0.376 OA
BRANCH   5   6
ATOM      6  C   UNL A   1      33.033  22.730  22.198  1.00  0.00     0.202 C 
BRANCH   6   7
ATOM      7  C   UNL A   1      32.885  22.480  23.709  1.00  0.00     0.261 C 
BRANCH   7   8
ATOM      8  O   UNL A   1      34.103  22.525  24.448  1.00  0.00    -0.460 OA
BRANCH   8   9
ATOM      9  C   UNL A   1      34.660  21.332  24.732  1.00  0.00     0.338 C 
ATOM     10  O   UNL A   1      34.220  20.227  24.469  1.00  0.00    -0.246 OA
BRANCH   9  11
ATOM     11  C   UNL A   1      36.044  21.578  25.191  1.00  0.00     0.062 A 
ATOM     12  N   UNL A   1      39.801  22.771  26.343  1.00  0.00    -0.289 N 
ATOM     13  C   UNL A   1      39.477  23.922  27.108  1.00  0.00     0.326 A 
ATOM     14  C   UNL A   1      38.613  22.112  25.998  1.00  0.00     0.069 A 
ATOM     15  O   UNL A   1      40.222  24.737  27.592  1.00  0.00    -0.248 OA
ATOM     16  N   UNL A   1      38.069  23.973  27.150  1.00  0.00    -0.306 N 
ATOM     17  C   UNL A   1      37.556  22.922  26.405  1.00  0.00     0.067 A 
ATOM     18  C   UNL A   1      38.392  20.933  25.322  1.00  0.00     0.029 A 
ATOM     19  H   UNL A   1      37.537  24.647  27.631  1.00  0.00     0.171 HD
ATOM     20  C   UNL A   1      36.262  22.694  26.012  1.00  0.00     0.044 A 
ATOM     21  C   UNL A   1      37.090  20.676  24.889  1.00  0.00     0.018 A 
BRANCH  12  22
ATOM     22  C   UNL A   1      41.105  22.525  25.756  1.00  0.00     0.162 C 
BRANCH  22  23
ATOM     23  C   UNL A   1      41.957  21.417  26.450  1.00  0.00     0.083 C 
ATOM     24  C   UNL A   1      43.309  21.944  26.967  1.00  0.00     0.044 C 
ATOM     25  C   UNL A   1      41.201  20.637  27.526  1.00  0.00     0.039 C 
ATOM     26  O   UNL A   1      42.284  20.384  25.483  1.00  0.00    -0.373 OA
ATOM     27  C   UNL A   1      42.012  19.367  27.634  1.00  0.00     0.031 C 
ATOM     28  C   UNL A   1      42.499  19.155  26.210  1.00  0.00     0.161 C 
ENDBRANCH  22  23
ENDBRANCH  12  22
ENDBRANCH   9  11
ENDBRANCH   8   9
ENDBRANCH   7   8
ENDBRANCH   6   7
ENDBRANCH   5   6
ENDBRANCH   4   5
ENDBRANCH   3   4
ENDBRANCH   2   3
ENDBRANCH   1   2
BRANCH   1  29
ATOM     29  C   UNL A   1      31.620  26.717  26.052  1.00  0.00     0.188 C 
BRANCH  29  30
ATOM     30  O   UNL A   1      31.974  27.429  27.214  1.00  0.00    -0.376 OA
BRANCH  30  31
ATOM     31  C   UNL A   1      31.760  28.827  27.245  1.00  0.00     0.202 C 
BRANCH  31  32
ATOM     32  C   UNL A   1      32.706  29.897  26.635  1.00  0.00     0.261 C 
BRANCH  32  33
ATOM     33  O   UNL A   1      34.087  29.883  27.026  1.00  0.00    -0.460 OA
BRANCH  33  34
ATOM     34  C   UNL A   1      34.626  30.909  27.734  1.00  0.00     0.338 C 
ATOM     35  O   UNL A   1      34.012  31.732  28.386  1.00  0.00    -0.246 OA
BRANCH  34  36
ATOM     36  C   UNL A   1      36.094  30.618  27.853  1.00  0.00     0.060 A 
ATOM     37  C   UNL A   1      36.625  29.363  27.548  1.00  0.00     0.016 A 
ATOM     38  C   UNL A   1      36.869  31.532  28.591  1.00  0.00     0.016 A 
ATOM     39  C   UNL A   1      37.860  28.992  28.099  1.00  0.00     0.010 A 
ATOM     40  C   UNL A   1      38.107  31.156  29.139  1.00  0.00     0.010 A 
ATOM     41  C   UNL A   1      38.605  29.870  28.928  1.00  0.00    -0.014 A 
BRANCH  41  42
ATOM     42  C   UNL A   1      40.025  29.515  29.186  1.00  0.00     0.031 A 
ATOM     43  C   UNL A   1      40.182  29.210  30.632  1.00  0.00     0.074 A 
ATOM     44  C   UNL A   1      41.096  29.282  28.385  1.00  0.00     0.049 A 
ATOM     45  N   UNL A   1      40.748  29.949  31.526  1.00  0.00    -0.248 NA
ATOM     46  C   UNL A   1      39.404  28.083  31.172  1.00  0.00     0.031 C 
ATOM     47  C   UNL A   1      41.123  29.170  26.926  1.00  0.00     0.029 A 
ATOM     48  N   UNL A   1      42.412  29.016  28.725  1.00  0.00    -0.354 N 
ATOM     49  C   UNL A   1      40.604  29.242  32.714  1.00  0.00     0.074 A 
ATOM     50  C   UNL A   1      39.579  28.261  32.481  1.00  0.00     0.031 C 
ATOM     51  C   UNL A   1      42.318  28.665  26.527  1.00  0.00     0.029 A 
ATOM     52  C   UNL A   1      43.201  28.530  27.677  1.00  0.00     0.049 A 
ATOM     53  H   UNL A   1      42.765  29.158  29.633  1.00  0.00     0.167 HD
ATOM     54  C   UNL A   1      41.567  29.302  33.675  1.00  0.00     0.034 A 
ATOM     55  C   UNL A   1      44.468  28.032  27.730  1.00  0.00     0.034 A 
ATOM     56  C   UNL A   1      42.467  30.398  33.436  1.00  0.00     0.049 A 
ATOM     57  C   UNL A   1      45.141  28.511  28.949  1.00  0.00     0.074 A 
ATOM     58  C   UNL A   1      42.471  31.762  33.608  1.00  0.00     0.029 A 
ATOM     59  N   UNL A   1      43.471  30.096  32.559  1.00  0.00    -0.354 N 
ATOM     60  N   UNL A   1      45.566  29.730  29.106  1.00  0.00    -0.248 NA
ATOM     61  C   UNL A   1      45.160  27.675  30.145  1.00  0.00     0.031 C 
ATOM     62  C   UNL A   1      43.469  32.280  32.732  1.00  0.00     0.029 A 
ATOM     63  C   UNL A   1      44.077  31.219  32.068  1.00  0.00     0.049 A 
ATOM     64  H   UNL A   1      43.727  29.178  32.310  1.00  0.00     0.167 HD
ATOM     65  C   UNL A   1      45.422  29.941  30.456  1.00  0.00     0.074 A 
ATOM     66  C   UNL A   1      45.394  28.617  31.062  1.00  0.00     0.031 C 
ATOM     67  C   UNL A   1      44.940  31.128  30.910  1.00  0.00     0.034 A 
BRANCH  54  68
ATOM     68  C   UNL A   1      41.985  28.100  34.500  1.00  0.00     0.023 A 
ATOM     69  C   UNL A   1      42.820  27.079  34.007  1.00  0.00     0.031 A 
ATOM     70  C   UNL A   1      41.755  28.076  35.890  1.00  0.00     0.131 A 
ATOM     71  C   UNL A   1      43.357  26.088  34.836  1.00  0.00     0.055 A 
ATOM     72  C   UNL A   1      42.350  27.128  36.735  1.00  0.00     0.041 A 
ATOM     73  F   UNL A   1      40.991  29.008  36.479  1.00  0.00    -0.206 F 
ATOM     74  C   UNL A   1      43.155  26.124  36.209  1.00  0.00     0.022 A 
BRANCH  71  75
ATOM     75  S   UNL A   1      44.346  24.747  34.118  1.00  0.00     0.124 S 
ATOM     76  O   UNL A   1      44.164  24.967  32.688  1.00  0.00    -0.237 OA
ATOM     77  O   UNL A   1      45.675  25.051  34.645  1.00  0.00    -0.237 OA
ATOM     78  O   UNL A   1      43.731  23.538  34.659  1.00  0.00    -0.744 OA
ENDBRANCH  71  75
ENDBRANCH  54  68
BRANCH  55  79
ATOM     79  C   UNL A   1      45.161  26.995  26.919  1.00  0.00     0.023 A 
ATOM     80  C   UNL A   1      46.230  27.384  26.100  1.00  0.00     0.031 A 
ATOM     81  C   UNL A   1      44.550  25.751  26.636  1.00  0.00     0.131 A 
ATOM     82  C   UNL A   1      46.590  26.601  24.991  1.00  0.00     0.055 A 
ATOM     83  C   UNL A   1      44.931  24.960  25.544  1.00  0.00     0.041 A 
ATOM     84  F   UNL A   1      43.507  25.318  27.360  1.00  0.00    -0.206 F 
ATOM     85  C   UNL A   1      45.942  25.398  24.699  1.00  0.00     0.022 A 
BRANCH  82  86
ATOM     86  S   UNL A   1      47.834  27.203  23.817  1.00  0.00     0.124 S 
ATOM     87  O   UNL A   1      47.071  28.161  23.021  1.00  0.00    -0.237 OA
ATOM     88  O   UNL A   1      48.830  27.782  24.713  1.00  0.00    -0.237 OA
ATOM     89  O   UNL A   1      48.241  25.994  23.107  1.00  0.00    -0.744 OA
ENDBRANCH  82  86
ENDBRANCH  55  79
BRANCH  67  90
ATOM     90  C   UNL A   1      45.182  32.357  30.084  1.00  0.00     0.023 A 
ATOM     91  C   UNL A   1      44.625  32.353  28.796  1.00  0.00     0.031 A 
ATOM     92  C   UNL A   1      45.984  33.452  30.451  1.00  0.00     0.131 A 
ATOM     93  C   UNL A   1      44.900  33.390  27.902  1.00  0.00     0.055 A 
ATOM     94  C   UNL A   1      46.191  34.529  29.580  1.00  0.00     0.041 A 
ATOM     95  F   UNL A   1      46.636  33.489  31.622  1.00  0.00    -0.206 F 
ATOM     96  C   UNL A   1      45.662  34.493  28.293  1.00  0.00     0.022 A 
BRANCH  93  97
ATOM     97  S   UNL A   1      44.398  33.242  26.170  1.00  0.00     0.124 S 
ATOM     98  O   UNL A   1      43.913  31.867  26.104  1.00  0.00    -0.237 OA
ATOM     99  O   UNL A   1      43.372  34.277  26.058  1.00  0.00    -0.237 OA
ATOM    100  O   UNL A   1      45.624  33.510  25.424  1.00  0.00    -0.744 OA
ENDBRANCH  93  97
ENDBRANCH  67  90
ENDBRANCH  41  42
ENDBRANCH  34  36
ENDBRANCH  33  34
ENDBRANCH  32  33
ENDBRANCH  31  32
ENDBRANCH  30  31
ENDBRANCH  29  30
ENDBRANCH   1  29
TORSDOF 25
ENDMDL
MODEL 3
REMARK VINA RESULT:      -9.8      2.589      4.891
REMARK SMILES C[C@]1(Cn2c(=O)[nH]c3cc(C(=O)OCCOCCOCCOCCOC(=O)c4ccc(-c5c6nc(c(-c7cc(S(=O)(=O)[O-])ccc7F)c7ccc([nH]7)c(-c7cc(S(=O)(=O)[O-])ccc7F)c7nc(c(-c8cc(S(=O)(=O)[O-])ccc8F)c8ccc5[nH]8)C=C7)C=C6)cc4)ccc32)CCCO1
REMARK SMILES IDX 20 1 19 2 18 3 17 4 16 5 15 6 14 7 13 8 11 9 12 10 10 11
REMARK SMILES IDX 4 12 5 13 93 14 6 15 7 16 8 17 92 18 9 20 91 21 3 22 2 23
REMARK SMILES IDX 1 24 94 25 97 26 95 27 96 28 21 29 22 30 23 31 24 32 25 33
REMARK SMILES IDX 26 34 27 35 28 36 29 37 90 38 30 39 89 40 31 41 32 42 33 43
REMARK SMILES IDX 83 44 34 45 88 46 82 47 84 48 35 49 87 50 81 51 80 52 36 54
REMARK SMILES IDX 68 55 48 56 67 57 49 58 52 59 66 60 85 61 50 62 51 63 65 65
REMARK SMILES IDX 86 66 53 67 37 68 38 69 46 70 39 71 45 72 47 73 44 74 40 75
REMARK SMILES IDX 41 76 42 77 43 78 69 79 70 80 78 81 71 82 77 83 79 84 76 85
REMARK SMILES IDX 72 86 73 87 74 88 75 89 54 90 55 91 63 92 56 93 62 94 64 95
REMARK SMILES IDX 61 96 57 97 58 98 59 99 60 100
REMARK H PARENT 7 19 84 53 52 64
REMARK Flexibility Score: inf
ROOT
ATOM      1  C   UNL A   1      31.496  27.148  26.764  1.00  0.00     0.188 C 
ENDROOT
BRANCH   1   2
ATOM      2  O   UNL A   1      30.267  26.459  26.947  1.00  0.00    -0.377 OA
BRANCH   2   3
ATOM      3  C   UNL A   1      29.947  25.404  26.066  1.00  0.00     0.188 C 
BRANCH   3   4
ATOM      4  C   UNL A   1      31.073  24.504  25.515  1.00  0.00     0.188 C 
BRANCH   4   5
ATOM      5  O   UNL A   1      31.250  23.281  26.196  1.00  0.00    -0.376 OA
BRANCH   5   6
ATOM      6  C   UNL A   1      31.374  22.049  25.501  1.00  0.00     0.202 C 
BRANCH   6   7
ATOM      7  C   UNL A   1      32.752  21.523  25.064  1.00  0.00     0.261 C 
BRANCH   7   8
ATOM      8  O   UNL A   1      33.523  22.432  24.283  1.00  0.00    -0.460 OA
BRANCH   8   9
ATOM      9  C   UNL A   1      33.113  22.608  23.012  1.00  0.00     0.338 C 
ATOM     10  O   UNL A   1      32.668  21.765  22.254  1.00  0.00    -0.246 OA
BRANCH   9  11
ATOM     11  C   UNL A   1      33.042  24.063  22.759  1.00  0.00     0.062 A 
ATOM     12  N   UNL A   1      32.704  28.151  22.564  1.00  0.00    -0.289 N 
ATOM     13  C   UNL A   1      33.406  28.519  23.742  1.00  0.00     0.326 A 
ATOM     14  C   UNL A   1      32.860  26.773  22.360  1.00  0.00     0.069 A 
ATOM     15  O   UNL A   1      33.515  29.610  24.241  1.00  0.00    -0.248 OA
ATOM     16  N   UNL A   1      33.921  27.320  24.274  1.00  0.00    -0.306 N 
ATOM     17  C   UNL A   1      33.514  26.260  23.478  1.00  0.00     0.067 A 
ATOM     18  C   UNL A   1      32.431  25.951  21.342  1.00  0.00     0.029 A 
ATOM     19  H   UNL A   1      34.480  27.247  25.081  1.00  0.00     0.171 HD
ATOM     20  C   UNL A   1      33.614  24.914  23.716  1.00  0.00     0.044 A 
ATOM     21  C   UNL A   1      32.498  24.574  21.557  1.00  0.00     0.018 A 
BRANCH  12  22
ATOM     22  C   UNL A   1      31.737  29.001  21.895  1.00  0.00     0.162 C 
BRANCH  22  23
ATOM     23  C   UNL A   1      30.302  29.000  22.508  1.00  0.00     0.083 C 
ATOM     24  C   UNL A   1      29.880  27.612  23.026  1.00  0.00     0.044 C 
ATOM     25  C   UNL A   1      30.075  30.091  23.554  1.00  0.00     0.039 C 
ATOM     26  O   UNL A   1      29.337  29.343  21.479  1.00  0.00    -0.373 OA
ATOM     27  C   UNL A   1      28.569  30.209  23.574  1.00  0.00     0.031 C 
ATOM     28  C   UNL A   1      28.187  29.924  22.132  1.00  0.00     0.161 C 
ENDBRANCH  22  23
ENDBRANCH  12  22
ENDBRANCH   9  11
ENDBRANCH   8   9
ENDBRANCH   7   8
ENDBRANCH   6   7
ENDBRANCH   5   6
ENDBRANCH   4   5
ENDBRANCH   3   4
ENDBRANCH   2   3
ENDBRANCH   1   2
BRANCH   1  29
ATOM     29  C   UNL A   1      31.609  28.653  27.100  1.00  0.00     0.188 C 
BRANCH  29  30
ATOM     30  O   UNL A   1      32.848  29.029  27.652  1.00  0.00    -0.376 OA
BRANCH  30  31
ATOM     31  C   UNL A   1      33.550  30.111  27.071  1.00  0.00     0.202 C 
BRANCH  31  32
ATOM     32  C   UNL A   1      34.067  31.362  27.833  1.00  0.00     0.261 C 
BRANCH  32  33
ATOM     33  O   UNL A   1      34.699  31.167  29.108  1.00  0.00    -0.460 OA
BRANCH  33  34
ATOM     34  C   UNL A   1      35.671  32.009  29.545  1.00  0.00     0.338 C 
ATOM     35  O   UNL A   1      35.515  33.160  29.904  1.00  0.00    -0.246 OA
BRANCH  34  36
ATOM     36  C   UNL A   1      36.871  31.155  29.839  1.00  0.00     0.060 A 
ATOM     37  C   UNL A   1      38.167  31.676  29.836  1.00  0.00     0.016 A 
ATOM     38  C   UNL A   1      36.690  29.760  29.791  1.00  0.00     0.016 A 
ATOM     39  C   UNL A   1      39.251  30.807  29.645  1.00  0.00     0.010 A 
ATOM     40  C   UNL A   1      37.781  28.894  29.604  1.00  0.00     0.010 A 
ATOM     41  C   UNL A   1      39.072  29.408  29.495  1.00  0.00    -0.014 A 
BRANCH  41  42
ATOM     42  C   UNL A   1      40.282  28.554  29.628  1.00  0.00     0.031 A 
ATOM     43  C   UNL A   1      40.741  28.597  31.042  1.00  0.00     0.074 A 
ATOM     44  C   UNL A   1      40.912  27.682  28.800  1.00  0.00     0.049 A 
ATOM     45  N   UNL A   1      41.769  29.223  31.506  1.00  0.00    -0.248 NA
ATOM     46  C   UNL A   1      39.809  28.101  32.068  1.00  0.00     0.031 C 
ATOM     47  C   UNL A   1      40.465  27.195  27.495  1.00  0.00     0.029 A 
ATOM     48  N   UNL A   1      42.085  26.971  28.993  1.00  0.00    -0.354 N 
ATOM     49  C   UNL A   1      41.741  28.982  32.876  1.00  0.00     0.074 A 
ATOM     50  C   UNL A   1      40.414  28.518  33.179  1.00  0.00     0.031 C 
ATOM     51  C   UNL A   1      41.227  26.139  27.113  1.00  0.00     0.029 A 
ATOM     52  C   UNL A   1      42.302  25.938  28.074  1.00  0.00     0.049 A 
ATOM     53  H   UNL A   1      42.716  27.176  29.719  1.00  0.00     0.167 HD
ATOM     54  C   UNL A   1      42.900  28.866  33.580  1.00  0.00     0.034 A 
ATOM     55  C   UNL A   1      43.264  24.974  28.094  1.00  0.00     0.034 A 
ATOM     56  C   UNL A   1      44.017  29.362  32.822  1.00  0.00     0.049 A 
ATOM     57  C   UNL A   1      44.392  25.412  28.934  1.00  0.00     0.074 A 
ATOM     58  C   UNL A   1      44.557  30.582  32.491  1.00  0.00     0.029 A 
ATOM     59  N   UNL A   1      44.541  28.439  31.959  1.00  0.00    -0.354 N 
ATOM     60  N   UNL A   1      45.248  26.322  28.574  1.00  0.00    -0.248 NA
ATOM     61  C   UNL A   1      44.464  24.992  30.330  1.00  0.00     0.031 C 
ATOM     62  C   UNL A   1      45.367  30.371  31.337  1.00  0.00     0.029 A 
ATOM     63  C   UNL A   1      45.333  29.019  31.007  1.00  0.00     0.049 A 
ATOM     64  H   UNL A   1      44.368  27.471  32.017  1.00  0.00     0.167 HD
ATOM     65  C   UNL A   1      45.595  26.916  29.763  1.00  0.00     0.074 A 
ATOM     66  C   UNL A   1      45.277  25.942  30.798  1.00  0.00     0.031 C 
ATOM     67  C   UNL A   1      45.723  28.267  29.835  1.00  0.00     0.034 A 
BRANCH  54  68
ATOM     68  C   UNL A   1      43.088  27.861  34.701  1.00  0.00     0.023 A 
ATOM     69  C   UNL A   1      43.323  26.491  34.476  1.00  0.00     0.031 A 
ATOM     70  C   UNL A   1      43.283  28.300  36.025  1.00  0.00     0.131 A 
ATOM     71  C   UNL A   1      43.692  25.618  35.506  1.00  0.00     0.055 A 
ATOM     72  C   UNL A   1      43.723  27.444  37.045  1.00  0.00     0.041 A 
ATOM     73  F   UNL A   1      43.106  29.588  36.358  1.00  0.00    -0.206 F 
ATOM     74  C   UNL A   1      43.928  26.092  36.789  1.00  0.00     0.022 A 
BRANCH  71  75
ATOM     75  S   UNL A   1      43.884  23.847  35.163  1.00  0.00     0.124 S 
ATOM     76  O   UNL A   1      44.609  23.385  36.342  1.00  0.00    -0.237 OA
ATOM     77  O   UNL A   1      42.491  23.417  35.064  1.00  0.00    -0.237 OA
ATOM     78  O   UNL A   1      44.629  23.819  33.907  1.00  0.00    -0.744 OA
ENDBRANCH  71  75
ENDBRANCH  54  68
BRANCH  55  79
ATOM     79  C   UNL A   1      43.270  23.568  27.608  1.00  0.00     0.023 A 
ATOM     80  C   UNL A   1      44.198  23.202  26.623  1.00  0.00     0.031 A 
ATOM     81  C   UNL A   1      42.153  22.720  27.790  1.00  0.00     0.131 A 
ATOM     82  C   UNL A   1      43.950  22.091  25.799  1.00  0.00     0.055 A 
ATOM     83  C   UNL A   1      41.924  21.597  26.983  1.00  0.00     0.041 A 
ATOM     84  F   UNL A   1      41.209  23.014  28.697  1.00  0.00    -0.206 F 
ATOM     85  C   UNL A   1      42.816  21.293  25.964  1.00  0.00     0.022 A 
BRANCH  82  86
ATOM     86  S   UNL A   1      45.043  21.736  24.396  1.00  0.00     0.124 S 
ATOM     87  O   UNL A   1      46.351  21.637  25.039  1.00  0.00    -0.237 OA
ATOM     88  O   UNL A   1      44.489  20.480  23.902  1.00  0.00    -0.237 OA
ATOM     89  O   UNL A   1      44.867  22.896  23.529  1.00  0.00    -0.744 OA
ENDBRANCH  82  86
ENDBRANCH  55  79
BRANCH  67  90
ATOM     90  C   UNL A   1      46.130  29.009  28.596  1.00  0.00     0.023 A 
ATOM     91  C   UNL A   1      47.511  29.142  28.383  1.00  0.00     0.031 A 
ATOM     92  C   UNL A   1      45.262  29.651  27.696  1.00  0.00     0.131 A 
ATOM     93  C   UNL A   1      47.994  29.923  27.332  1.00  0.00     0.055 A 
ATOM     94  C   UNL A   1      45.748  30.367  26.595  1.00  0.00     0.041 A 
ATOM     95  F   UNL A   1      43.933  29.661  27.882  1.00  0.00    -0.206 F 
ATOM     96  C   UNL A   1      47.121  30.520  26.419  1.00  0.00     0.022 A 
BRANCH  93  97
ATOM     97  S   UNL A   1      49.760  30.301  27.229  1.00  0.00     0.124 S 
ATOM     98  O   UNL A   1      49.759  31.633  26.631  1.00  0.00    -0.237 OA
ATOM     99  O   UNL A   1      50.170  30.242  28.631  1.00  0.00    -0.237 OA
ATOM    100  O   UNL A   1      50.300  29.237  26.387  1.00  0.00    -0.744 OA
ENDBRANCH  93  97
ENDBRANCH  67  90
ENDBRANCH  41  42
ENDBRANCH  34  36
ENDBRANCH  33  34
ENDBRANCH  32  33
ENDBRANCH  31  32
ENDBRANCH  30  31
ENDBRANCH  29  30
ENDBRANCH   1  29
TORSDOF 25
ENDMDL
