MODEL 1
REMARK VINA RESULT:      -8.2      0.000      0.000
REMARK SMILES CC(C)c1cc(C2CC[NH+](Cc3c[nH]nc3C(=O)OCCOCCOCCOCCOC(=O)c3ccc(-c4c5nc(c(-c6cc(S(=O)(=O)[O-])ccc6F)c6ccc([nH]6)c(-c6cc(S(=O)(=O)[O-])ccc6F)c6nc(c(-c7cc(S(=O)(=O)[O-])ccc7F)c7ccc4[nH]7)C=C6)C=C5)cc3)CC2)n[nH]1
REMARK SMILES IDX 24 1 23 2 22 3 21 4 20 5 19 6 17 7 18 8 16 9 12 10 13 11
REMARK SMILES IDX 14 12 15 13 11 15 10 16 7 17 8 18 98 19 9 20 97 21 6 23 4 24
REMARK SMILES IDX 5 25 100 26 99 27 2 29 1 30 3 31 25 32 26 33 27 34 28 35
REMARK SMILES IDX 29 36 30 37 31 38 32 39 33 40 34 41 35 42 96 43 36 44 95 45
REMARK SMILES IDX 37 46 38 47 39 48 89 49 40 50 94 51 88 52 90 53 41 54 93 55
REMARK SMILES IDX 87 56 86 57 42 59 74 60 54 61 73 62 55 63 58 64 72 65 91 66
REMARK SMILES IDX 56 67 57 68 71 70 92 71 59 72 43 73 44 74 52 75 45 76 51 77
REMARK SMILES IDX 53 78 50 79 46 80 47 81 48 82 49 83 75 84 76 85 84 86 77 87
REMARK SMILES IDX 83 88 85 89 82 90 78 91 79 92 80 93 81 94 60 95 61 96 69 97
REMARK SMILES IDX 62 98 68 99 70 100 67 101 63 102 64 103 65 104 66 105
REMARK H PARENT 14 14 10 22 100 28 90 58 58 69
REMARK Flexibility Score: inf
ROOT
ATOM      1  C   UNL A   1      35.361  31.221  28.253  1.00  0.00     0.188 C 
ENDROOT
BRANCH   1   2
ATOM      2  C   UNL A   1      35.086  29.776  27.820  1.00  0.00     0.188 C 
BRANCH   2   3
ATOM      3  O   UNL A   1      34.434  29.677  26.554  1.00  0.00    -0.376 OA
BRANCH   3   4
ATOM      4  C   UNL A   1      33.151  29.059  26.563  1.00  0.00     0.202 C 
BRANCH   4   5
ATOM      5  C   UNL A   1      33.024  27.753  25.756  1.00  0.00     0.261 C 
BRANCH   5   6
ATOM      6  O   UNL A   1      31.712  27.472  25.239  1.00  0.00    -0.458 OA
BRANCH   6   7
ATOM      7  C   UNL A   1      31.093  26.359  25.708  1.00  0.00     0.359 C 
ATOM      8  O   UNL A   1      30.471  26.325  26.766  1.00  0.00    -0.244 OA
BRANCH   7   9
ATOM      9  C   UNL A   1      31.142  25.238  24.750  1.00  0.00     0.178 A 
ATOM     10  C   UNL A   1      32.133  24.195  24.567  1.00  0.00     0.059 A 
ATOM     11  C   UNL A   1      31.556  23.390  23.599  1.00  0.00     0.115 A 
ATOM     12  N   UNL A   1      30.426  24.007  23.172  1.00  0.00    -0.284 N 
ATOM     13  N   UNL A   1      30.136  25.111  23.855  1.00  0.00    -0.168 NA
ATOM     14  H   UNL A   1      29.873  23.672  22.430  1.00  0.00     0.189 HD
BRANCH  10  15
ATOM     15  C   UNL A   1      33.392  23.942  25.373  1.00  0.00     0.303 C 
BRANCH  15  16
ATOM     16  N   UNL A   1      34.405  23.053  24.765  1.00  0.00    -0.331 N 
ATOM     17  C   UNL A   1      37.052  21.781  24.435  1.00  0.00     0.051 C 
ATOM     18  C   UNL A   1      36.495  22.764  23.400  1.00  0.00     0.071 C 
ATOM     19  C   UNL A   1      35.872  21.009  25.030  1.00  0.00     0.071 C 
ATOM     20  C   UNL A   1      35.465  23.710  24.014  1.00  0.00     0.263 C 
ATOM     21  C   UNL A   1      34.767  21.909  25.598  1.00  0.00     0.263 C 
ATOM     22  H   UNL A   1      33.919  22.604  23.990  1.00  0.00     0.348 HD
BRANCH  17  23
ATOM     23  C   UNL A   1      37.953  22.439  25.459  1.00  0.00     0.066 A 
ATOM     24  C   UNL A   1      39.072  23.888  26.738  1.00  0.00     0.038 A 
ATOM     25  C   UNL A   1      38.084  23.808  25.788  1.00  0.00     0.049 A 
ATOM     26  N   UNL A   1      39.454  22.594  26.957  1.00  0.00    -0.282 N 
ATOM     27  N   UNL A   1      38.809  21.702  26.184  1.00  0.00    -0.180 NA
ATOM     28  H   UNL A   1      40.137  22.338  27.618  1.00  0.00     0.190 HD
BRANCH  24  29
ATOM     29  C   UNL A   1      39.662  25.091  27.400  1.00  0.00     0.031 C 
ATOM     30  C   UNL A   1      38.878  25.524  28.634  1.00  0.00     0.014 C 
ATOM     31  C   UNL A   1      41.139  24.866  27.725  1.00  0.00     0.014 C 
ENDBRANCH  24  29
ENDBRANCH  17  23
ENDBRANCH  15  16
ENDBRANCH  10  15
ENDBRANCH   7   9
ENDBRANCH   6   7
ENDBRANCH   5   6
ENDBRANCH   4   5
ENDBRANCH   3   4
ENDBRANCH   2   3
ENDBRANCH   1   2
BRANCH   1  32
ATOM     32  O   UNL A   1      35.689  31.349  29.624  1.00  0.00    -0.377 OA
BRANCH  32  33
ATOM     33  C   UNL A   1      36.804  30.626  30.139  1.00  0.00     0.188 C 
BRANCH  33  34
ATOM     34  C   UNL A   1      38.246  30.953  29.709  1.00  0.00     0.188 C 
BRANCH  34  35
ATOM     35  O   UNL A   1      38.549  30.594  28.361  1.00  0.00    -0.376 OA
BRANCH  35  36
ATOM     36  C   UNL A   1      39.167  29.324  28.178  1.00  0.00     0.202 C 
BRANCH  36  37
ATOM     37  C   UNL A   1      39.691  29.091  26.754  1.00  0.00     0.261 C 
BRANCH  37  38
ATOM     38  O   UNL A   1      40.866  28.271  26.664  1.00  0.00    -0.460 OA
BRANCH  38  39
ATOM     39  C   UNL A   1      41.877  28.725  25.890  1.00  0.00     0.338 C 
ATOM     40  O   UNL A   1      41.785  29.448  24.915  1.00  0.00    -0.246 OA
BRANCH  39  41
ATOM     41  C   UNL A   1      43.152  28.339  26.525  1.00  0.00     0.060 A 
ATOM     42  C   UNL A   1      43.641  27.044  26.322  1.00  0.00     0.016 A 
ATOM     43  C   UNL A   1      43.839  29.240  27.341  1.00  0.00     0.016 A 
ATOM     44  C   UNL A   1      44.802  26.629  26.977  1.00  0.00     0.010 A 
ATOM     45  C   UNL A   1      44.992  28.818  28.008  1.00  0.00     0.010 A 
ATOM     46  C   UNL A   1      45.458  27.501  27.857  1.00  0.00    -0.014 A 
BRANCH  46  47
ATOM     47  C   UNL A   1      46.508  26.984  28.769  1.00  0.00     0.031 A 
ATOM     48  C   UNL A   1      46.084  26.449  30.111  1.00  0.00     0.074 A 
ATOM     49  C   UNL A   1      47.807  26.998  28.420  1.00  0.00     0.049 A 
ATOM     50  N   UNL A   1      46.817  26.001  31.097  1.00  0.00    -0.248 NA
ATOM     51  C   UNL A   1      44.636  26.421  30.375  1.00  0.00     0.031 C 
ATOM     52  C   UNL A   1      48.334  27.467  27.139  1.00  0.00     0.029 A 
ATOM     53  N   UNL A   1      48.923  26.618  29.124  1.00  0.00    -0.354 N 
ATOM     54  C   UNL A   1      45.922  25.642  32.099  1.00  0.00     0.074 A 
ATOM     55  C   UNL A   1      44.595  25.950  31.613  1.00  0.00     0.031 C 
ATOM     56  C   UNL A   1      49.674  27.365  27.157  1.00  0.00     0.029 A 
ATOM     57  C   UNL A   1      50.103  26.856  28.459  1.00  0.00     0.049 A 
ATOM     58  H   UNL A   1      48.882  26.213  30.021  1.00  0.00     0.167 HD
ATOM     59  C   UNL A   1      46.184  25.102  33.314  1.00  0.00     0.034 A 
ATOM     60  C   UNL A   1      51.380  26.705  28.869  1.00  0.00     0.034 A 
ATOM     61  C   UNL A   1      47.510  24.812  33.795  1.00  0.00     0.049 A 
ATOM     62  C   UNL A   1      51.648  26.164  30.256  1.00  0.00     0.074 A 
ATOM     63  C   UNL A   1      47.884  24.245  35.001  1.00  0.00     0.029 A 
ATOM     64  N   UNL A   1      48.682  25.081  33.101  1.00  0.00    -0.354 N 
ATOM     65  N   UNL A   1      50.790  25.798  31.181  1.00  0.00    -0.248 NA
ATOM     66  C   UNL A   1      53.055  26.007  30.649  1.00  0.00     0.031 C 
ATOM     67  C   UNL A   1      49.281  24.229  35.063  1.00  0.00     0.029 A 
ATOM     68  C   UNL A   1      49.779  24.721  33.867  1.00  0.00     0.049 A 
ATOM     69  H   UNL A   1      48.726  25.471  32.199  1.00  0.00     0.167 HD
ATOM     70  C   UNL A   1      51.557  25.334  32.249  1.00  0.00     0.074 A 
ATOM     71  C   UNL A   1      52.943  25.456  31.849  1.00  0.00     0.031 C 
ATOM     72  C   UNL A   1      51.155  24.848  33.451  1.00  0.00     0.034 A 
BRANCH  59  73
ATOM     73  C   UNL A   1      45.011  24.842  34.224  1.00  0.00     0.023 A 
ATOM     74  C   UNL A   1      44.505  25.832  35.082  1.00  0.00     0.031 A 
ATOM     75  C   UNL A   1      44.396  23.577  34.236  1.00  0.00     0.131 A 
ATOM     76  C   UNL A   1      43.450  25.526  35.955  1.00  0.00     0.055 A 
ATOM     77  C   UNL A   1      43.304  23.299  35.060  1.00  0.00     0.041 A 
ATOM     78  F   UNL A   1      44.854  22.588  33.453  1.00  0.00    -0.206 F 
ATOM     79  C   UNL A   1      42.831  24.274  35.933  1.00  0.00     0.022 A 
BRANCH  76  80
ATOM     80  S   UNL A   1      42.962  26.757  37.194  1.00  0.00     0.124 S 
ATOM     81  O   UNL A   1      41.531  26.491  37.328  1.00  0.00    -0.237 OA
ATOM     82  O   UNL A   1      43.789  26.398  38.341  1.00  0.00    -0.237 OA
ATOM     83  O   UNL A   1      43.294  28.032  36.561  1.00  0.00    -0.744 OA
ENDBRANCH  76  80
ENDBRANCH  59  73
BRANCH  60  84
ATOM     84  C   UNL A   1      52.518  27.113  27.993  1.00  0.00     0.023 A 
ATOM     85  C   UNL A   1      53.072  28.400  28.072  1.00  0.00     0.031 A 
ATOM     86  C   UNL A   1      53.006  26.246  26.999  1.00  0.00     0.131 A 
ATOM     87  C   UNL A   1      54.037  28.806  27.135  1.00  0.00     0.055 A 
ATOM     88  C   UNL A   1      54.006  26.635  26.106  1.00  0.00     0.041 A 
ATOM     89  F   UNL A   1      52.509  25.004  26.877  1.00  0.00    -0.206 F 
ATOM     90  C   UNL A   1      54.515  27.928  26.160  1.00  0.00     0.022 A 
BRANCH  87  91
ATOM     91  S   UNL A   1      54.576  30.539  27.137  1.00  0.00     0.124 S 
ATOM     92  O   UNL A   1      55.945  30.425  26.648  1.00  0.00    -0.237 OA
ATOM     93  O   UNL A   1      53.617  31.153  26.226  1.00  0.00    -0.237 OA
ATOM     94  O   UNL A   1      54.444  30.933  28.539  1.00  0.00    -0.744 OA
ENDBRANCH  87  91
ENDBRANCH  60  84
BRANCH  72  95
ATOM     95  C   UNL A   1      52.230  24.356  34.389  1.00  0.00     0.023 A 
ATOM     96  C   UNL A   1      52.815  25.195  35.353  1.00  0.00     0.031 A 
ATOM     97  C   UNL A   1      52.674  23.024  34.314  1.00  0.00     0.131 A 
ATOM     98  C   UNL A   1      53.847  24.708  36.169  1.00  0.00     0.055 A 
ATOM     99  C   UNL A   1      53.662  22.529  35.165  1.00  0.00     0.041 A 
ATOM    100  F   UNL A   1      52.147  22.178  33.412  1.00  0.00    -0.206 F 
ATOM    101  C   UNL A   1      54.264  23.376  36.091  1.00  0.00     0.022 A 
BRANCH  98 102
ATOM    102  S   UNL A   1      54.699  25.860  37.282  1.00  0.00     0.124 S 
ATOM    103  O   UNL A   1      54.831  27.049  36.446  1.00  0.00    -0.237 OA
ATOM    104  O   UNL A   1      53.763  25.966  38.396  1.00  0.00    -0.237 OA
ATOM    105  O   UNL A   1      55.953  25.176  37.591  1.00  0.00    -0.744 OA
ENDBRANCH  98 102
ENDBRANCH  72  95
ENDBRANCH  46  47
ENDBRANCH  39  41
ENDBRANCH  38  39
ENDBRANCH  37  38
ENDBRANCH  36  37
ENDBRANCH  35  36
ENDBRANCH  34  35
ENDBRANCH  33  34
ENDBRANCH  32  33
ENDBRANCH   1  32
TORSDOF 27
ENDMDL
MODEL 2
REMARK VINA RESULT:      -7.7     10.112     14.193
REMARK SMILES CC(C)c1cc(C2CC[NH+](Cc3c[nH]nc3C(=O)OCCOCCOCCOCCOC(=O)c3ccc(-c4c5nc(c(-c6cc(S(=O)(=O)[O-])ccc6F)c6ccc([nH]6)c(-c6cc(S(=O)(=O)[O-])ccc6F)c6nc(c(-c7cc(S(=O)(=O)[O-])ccc7F)c7ccc4[nH]7)C=C6)C=C5)cc3)CC2)n[nH]1
REMARK SMILES IDX 24 1 23 2 22 3 21 4 20 5 19 6 17 7 18 8 16 9 12 10 13 11
REMARK SMILES IDX 14 12 15 13 11 15 10 16 7 17 8 18 98 19 9 20 97 21 6 23 4 24
REMARK SMILES IDX 5 25 100 26 99 27 2 29 1 30 3 31 25 32 26 33 27 34 28 35
REMARK SMILES IDX 29 36 30 37 31 38 32 39 33 40 34 41 35 42 96 43 36 44 95 45
REMARK SMILES IDX 37 46 38 47 39 48 89 49 40 50 94 51 88 52 90 53 41 54 93 55
REMARK SMILES IDX 87 56 86 57 42 59 74 60 54 61 73 62 55 63 58 64 72 65 91 66
REMARK SMILES IDX 56 67 57 68 71 70 92 71 59 72 43 73 44 74 52 75 45 76 51 77
REMARK SMILES IDX 53 78 50 79 46 80 47 81 48 82 49 83 75 84 76 85 84 86 77 87
REMARK SMILES IDX 83 88 85 89 82 90 78 91 79 92 80 93 81 94 60 95 61 96 69 97
REMARK SMILES IDX 62 98 68 99 70 100 67 101 63 102 64 103 65 104 66 105
REMARK H PARENT 14 14 10 22 100 28 90 58 58 69
REMARK Flexibility Score: inf
ROOT
ATOM      1  C   UNL A   1      35.416  31.340  28.013  1.00  0.00     0.188 C 
ENDROOT
BRANCH   1   2
ATOM      2  C   UNL A   1      35.338  29.818  27.836  1.00  0.00     0.188 C 
BRANCH   2   3
ATOM      3  O   UNL A   1      34.885  29.419  26.542  1.00  0.00    -0.376 OA
BRANCH   3   4
ATOM      4  C   UNL A   1      33.514  29.042  26.454  1.00  0.00     0.202 C 
BRANCH   4   5
ATOM      5  C   UNL A   1      33.236  27.630  25.905  1.00  0.00     0.261 C 
BRANCH   5   6
ATOM      6  O   UNL A   1      31.947  27.446  25.296  1.00  0.00    -0.458 OA
BRANCH   6   7
ATOM      7  C   UNL A   1      31.201  26.404  25.740  1.00  0.00     0.359 C 
ATOM      8  O   UNL A   1      30.517  26.447  26.759  1.00  0.00    -0.244 OA
BRANCH   7   9
ATOM      9  C   UNL A   1      31.200  25.266  24.800  1.00  0.00     0.178 A 
ATOM     10  C   UNL A   1      32.137  24.169  24.647  1.00  0.00     0.059 A 
ATOM     11  C   UNL A   1      31.528  23.380  23.685  1.00  0.00     0.115 A 
ATOM     12  N   UNL A   1      30.438  24.049  23.234  1.00  0.00    -0.284 N 
ATOM     13  N   UNL A   1      30.200  25.179  23.896  1.00  0.00    -0.168 NA
ATOM     14  H   UNL A   1      29.876  23.732  22.491  1.00  0.00     0.189 HD
BRANCH  10  15
ATOM     15  C   UNL A   1      33.371  23.863  25.472  1.00  0.00     0.303 C 
BRANCH  15  16
ATOM     16  N   UNL A   1      34.382  22.979  24.855  1.00  0.00    -0.331 N 
ATOM     17  C   UNL A   1      37.042  21.745  24.478  1.00  0.00     0.051 C 
ATOM     18  C   UNL A   1      36.439  22.696  23.439  1.00  0.00     0.071 C 
ATOM     19  C   UNL A   1      35.892  20.966  25.122  1.00  0.00     0.071 C 
ATOM     20  C   UNL A   1      35.410  23.638  24.061  1.00  0.00     0.263 C 
ATOM     21  C   UNL A   1      34.787  21.859  25.701  1.00  0.00     0.263 C 
ATOM     22  H   UNL A   1      33.883  22.505  24.103  1.00  0.00     0.348 HD
BRANCH  17  23
ATOM     23  C   UNL A   1      37.959  22.440  25.463  1.00  0.00     0.066 A 
ATOM     24  C   UNL A   1      39.083  23.935  26.683  1.00  0.00     0.038 A 
ATOM     25  C   UNL A   1      38.067  23.817  25.766  1.00  0.00     0.049 A 
ATOM     26  N   UNL A   1      39.502  22.654  26.909  1.00  0.00    -0.282 N 
ATOM     27  N   UNL A   1      38.853  21.735  26.172  1.00  0.00    -0.180 NA
ATOM     28  H   UNL A   1      40.211  22.425  27.552  1.00  0.00     0.190 HD
BRANCH  24  29
ATOM     29  C   UNL A   1      39.665  25.162  27.307  1.00  0.00     0.031 C 
ATOM     30  C   UNL A   1      39.041  25.482  28.662  1.00  0.00     0.014 C 
ATOM     31  C   UNL A   1      41.187  25.057  27.401  1.00  0.00     0.014 C 
ENDBRANCH  24  29
ENDBRANCH  17  23
ENDBRANCH  15  16
ENDBRANCH  10  15
ENDBRANCH   7   9
ENDBRANCH   6   7
ENDBRANCH   5   6
ENDBRANCH   4   5
ENDBRANCH   3   4
ENDBRANCH   2   3
ENDBRANCH   1   2
BRANCH   1  32
ATOM     32  O   UNL A   1      35.266  31.763  29.355  1.00  0.00    -0.377 OA
BRANCH  32  33
ATOM     33  C   UNL A   1      36.177  31.279  30.338  1.00  0.00     0.188 C 
BRANCH  33  34
ATOM     34  C   UNL A   1      37.698  31.268  30.093  1.00  0.00     0.188 C 
BRANCH  34  35
ATOM     35  O   UNL A   1      38.240  29.969  29.853  1.00  0.00    -0.376 OA
BRANCH  35  36
ATOM     36  C   UNL A   1      38.627  29.232  31.008  1.00  0.00     0.202 C 
BRANCH  36  37
ATOM     37  C   UNL A   1      40.132  28.945  31.084  1.00  0.00     0.261 C 
BRANCH  37  38
ATOM     38  O   UNL A   1      40.880  29.837  31.925  1.00  0.00    -0.460 OA
BRANCH  38  39
ATOM     39  C   UNL A   1      41.299  30.998  31.372  1.00  0.00     0.338 C 
ATOM     40  O   UNL A   1      41.410  31.247  30.186  1.00  0.00    -0.246 OA
BRANCH  39  41
ATOM     41  C   UNL A   1      41.443  31.995  32.451  1.00  0.00     0.060 A 
ATOM     42  C   UNL A   1      42.490  31.849  33.369  1.00  0.00     0.016 A 
ATOM     43  C   UNL A   1      40.532  33.045  32.573  1.00  0.00     0.016 A 
ATOM     44  C   UNL A   1      42.599  32.732  34.444  1.00  0.00     0.010 A 
ATOM     45  C   UNL A   1      40.633  33.919  33.658  1.00  0.00     0.010 A 
ATOM     46  C   UNL A   1      41.645  33.744  34.618  1.00  0.00    -0.014 A 
BRANCH  46  47
ATOM     47  C   UNL A   1      41.581  34.494  35.897  1.00  0.00     0.031 A 
ATOM     48  C   UNL A   1      42.458  35.708  36.054  1.00  0.00     0.074 A 
ATOM     49  C   UNL A   1      40.772  34.103  36.898  1.00  0.00     0.049 A 
ATOM     50  N   UNL A   1      42.621  36.486  37.091  1.00  0.00    -0.248 NA
ATOM     51  C   UNL A   1      43.261  36.090  34.881  1.00  0.00     0.031 C 
ATOM     52  C   UNL A   1      39.861  32.960  36.851  1.00  0.00     0.029 A 
ATOM     53  N   UNL A   1      40.601  34.618  38.158  1.00  0.00    -0.354 N 
ATOM     54  C   UNL A   1      43.548  37.447  36.700  1.00  0.00     0.074 A 
ATOM     55  C   UNL A   1      43.930  37.137  35.339  1.00  0.00     0.031 C 
ATOM     56  C   UNL A   1      39.241  32.851  38.039  1.00  0.00     0.029 A 
ATOM     57  C   UNL A   1      39.733  33.891  38.940  1.00  0.00     0.049 A 
ATOM     58  H   UNL A   1      41.057  35.432  38.474  1.00  0.00     0.167 HD
ATOM     59  C   UNL A   1      44.033  38.494  37.410  1.00  0.00     0.034 A 
ATOM     60  C   UNL A   1      39.400  34.037  40.239  1.00  0.00     0.034 A 
ATOM     61  C   UNL A   1      43.656  38.787  38.769  1.00  0.00     0.049 A 
ATOM     62  C   UNL A   1      40.007  35.175  41.030  1.00  0.00     0.074 A 
ATOM     63  C   UNL A   1      44.072  39.835  39.571  1.00  0.00     0.029 A 
ATOM     64  N   UNL A   1      42.787  38.020  39.533  1.00  0.00    -0.354 N 
ATOM     65  N   UNL A   1      40.858  36.095  40.636  1.00  0.00    -0.248 NA
ATOM     66  C   UNL A   1      39.602  35.297  42.437  1.00  0.00     0.031 C 
ATOM     67  C   UNL A   1      43.505  39.667  40.839  1.00  0.00     0.029 A 
ATOM     68  C   UNL A   1      42.679  38.555  40.807  1.00  0.00     0.049 A 
ATOM     69  H   UNL A   1      42.317  37.216  39.217  1.00  0.00     0.167 HD
ATOM     70  C   UNL A   1      41.058  36.925  41.739  1.00  0.00     0.074 A 
ATOM     71  C   UNL A   1      40.232  36.403  42.807  1.00  0.00     0.031 C 
ATOM     72  C   UNL A   1      41.849  38.022  41.860  1.00  0.00     0.034 A 
BRANCH  59  73
ATOM     73  C   UNL A   1      45.064  39.366  36.741  1.00  0.00     0.023 A 
ATOM     74  C   UNL A   1      44.708  40.531  36.042  1.00  0.00     0.031 A 
ATOM     75  C   UNL A   1      46.425  39.016  36.796  1.00  0.00     0.131 A 
ATOM     76  C   UNL A   1      45.696  41.280  35.384  1.00  0.00     0.055 A 
ATOM     77  C   UNL A   1      47.410  39.801  36.194  1.00  0.00     0.041 A 
ATOM     78  F   UNL A   1      46.819  37.900  37.430  1.00  0.00    -0.206 F 
ATOM     79  C   UNL A   1      47.047  40.935  35.475  1.00  0.00     0.022 A 
BRANCH  76  80
ATOM     80  S   UNL A   1      45.181  42.655  34.320  1.00  0.00     0.124 S 
ATOM     81  O   UNL A   1      46.337  42.795  33.437  1.00  0.00    -0.237 OA
ATOM     82  O   UNL A   1      43.964  42.140  33.702  1.00  0.00    -0.237 OA
ATOM     83  O   UNL A   1      44.984  43.759  35.258  1.00  0.00    -0.744 OA
ENDBRANCH  76  80
ENDBRANCH  59  73
BRANCH  60  84
ATOM     84  C   UNL A   1      38.487  33.064  40.908  1.00  0.00     0.023 A 
ATOM     85  C   UNL A   1      37.107  33.306  41.000  1.00  0.00     0.031 A 
ATOM     86  C   UNL A   1      38.999  31.921  41.547  1.00  0.00     0.131 A 
ATOM     87  C   UNL A   1      36.297  32.451  41.765  1.00  0.00     0.055 A 
ATOM     88  C   UNL A   1      38.180  31.043  42.259  1.00  0.00     0.041 A 
ATOM     89  F   UNL A   1      40.312  31.643  41.493  1.00  0.00    -0.206 F 
ATOM     90  C   UNL A   1      36.822  31.316  42.386  1.00  0.00     0.022 A 
BRANCH  87  91
ATOM     91  S   UNL A   1      34.562  32.910  42.034  1.00  0.00     0.124 S 
ATOM     92  O   UNL A   1      34.696  34.156  42.780  1.00  0.00    -0.237 OA
ATOM     93  O   UNL A   1      34.067  33.031  40.667  1.00  0.00    -0.237 OA
ATOM     94  O   UNL A   1      34.025  31.782  42.793  1.00  0.00    -0.744 OA
ENDBRANCH  87  91
ENDBRANCH  60  84
BRANCH  72  95
ATOM     95  C   UNL A   1      41.807  38.760  43.175  1.00  0.00     0.023 A 
ATOM     96  C   UNL A   1      42.705  38.472  44.217  1.00  0.00     0.031 A 
ATOM     97  C   UNL A   1      40.849  39.768  43.386  1.00  0.00     0.131 A 
ATOM     98  C   UNL A   1      42.594  39.149  45.441  1.00  0.00     0.055 A 
ATOM     99  C   UNL A   1      40.779  40.476  44.585  1.00  0.00     0.041 A 
ATOM    100  F   UNL A   1      39.967  40.084  42.423  1.00  0.00    -0.206 F 
ATOM    101  C   UNL A   1      41.646  40.160  45.626  1.00  0.00     0.022 A 
BRANCH  98 102
ATOM    102  S   UNL A   1      43.655  38.637  46.822  1.00  0.00     0.124 S 
ATOM    103  O   UNL A   1      43.576  37.183  46.742  1.00  0.00    -0.237 OA
ATOM    104  O   UNL A   1      44.941  39.226  46.462  1.00  0.00    -0.237 OA
ATOM    105  O   UNL A   1      43.008  39.231  47.990  1.00  0.00    -0.744 OA
ENDBRANCH  98 102
ENDBRANCH  72  95
ENDBRANCH  46  47
ENDBRANCH  39  41
ENDBRANCH  38  39
ENDBRANCH  37  38
ENDBRANCH  36  37
ENDBRANCH  35  36
ENDBRANCH  34  35
ENDBRANCH  33  34
ENDBRANCH  32  33
ENDBRANCH   1  32
TORSDOF 27
ENDMDL
MODEL 3
REMARK VINA RESULT:      -7.7      7.468     11.860
REMARK SMILES CC(C)c1cc(C2CC[NH+](Cc3c[nH]nc3C(=O)OCCOCCOCCOCCOC(=O)c3ccc(-c4c5nc(c(-c6cc(S(=O)(=O)[O-])ccc6F)c6ccc([nH]6)c(-c6cc(S(=O)(=O)[O-])ccc6F)c6nc(c(-c7cc(S(=O)(=O)[O-])ccc7F)c7ccc4[nH]7)C=C6)C=C5)cc3)CC2)n[nH]1
REMARK SMILES IDX 24 1 23 2 22 3 21 4 20 5 19 6 17 7 18 8 16 9 12 10 13 11
REMARK SMILES IDX 14 12 15 13 11 15 10 16 7 17 8 18 98 19 9 20 97 21 6 23 4 24
REMARK SMILES IDX 5 25 100 26 99 27 2 29 1 30 3 31 25 32 26 33 27 34 28 35
REMARK SMILES IDX 29 36 30 37 31 38 32 39 33 40 34 41 35 42 96 43 36 44 95 45
REMARK SMILES IDX 37 46 38 47 39 48 89 49 40 50 94 51 88 52 90 53 41 54 93 55
REMARK SMILES IDX 87 56 86 57 42 59 74 60 54 61 73 62 55 63 58 64 72 65 91 66
REMARK SMILES IDX 56 67 57 68 71 70 92 71 59 72 43 73 44 74 52 75 45 76 51 77
REMARK SMILES IDX 53 78 50 79 46 80 47 81 48 82 49 83 75 84 76 85 84 86 77 87
REMARK SMILES IDX 83 88 85 89 82 90 78 91 79 92 80 93 81 94 60 95 61 96 69 97
REMARK SMILES IDX 62 98 68 99 70 100 67 101 63 102 64 103 65 104 66 105
REMARK H PARENT 14 14 10 22 100 28 90 58 58 69
REMARK Flexibility Score: inf
ROOT
ATOM      1  C   UNL A   1      34.316  29.580  26.893  1.00  0.00     0.188 C 
ENDROOT
BRANCH   1   2
ATOM      2  C   UNL A   1      33.058  28.718  27.055  1.00  0.00     0.188 C 
BRANCH   2   3
ATOM      3  O   UNL A   1      31.856  29.481  27.159  1.00  0.00    -0.376 OA
BRANCH   3   4
ATOM      4  C   UNL A   1      31.718  30.553  26.231  1.00  0.00     0.202 C 
BRANCH   4   5
ATOM      5  C   UNL A   1      31.802  31.972  26.823  1.00  0.00     0.261 C 
BRANCH   5   6
ATOM      6  O   UNL A   1      32.993  32.258  27.576  1.00  0.00    -0.458 OA
BRANCH   6   7
ATOM      7  C   UNL A   1      33.192  33.549  27.943  1.00  0.00     0.359 C 
ATOM      8  O   UNL A   1      32.294  34.385  27.992  1.00  0.00    -0.244 OA
BRANCH   7   9
ATOM      9  C   UNL A   1      34.572  33.802  28.399  1.00  0.00     0.178 A 
ATOM     10  C   UNL A   1      35.071  34.316  29.661  1.00  0.00     0.059 A 
ATOM     11  C   UNL A   1      36.444  34.211  29.512  1.00  0.00     0.115 A 
ATOM     12  N   UNL A   1      36.691  33.824  28.236  1.00  0.00    -0.284 N 
ATOM     13  N   UNL A   1      35.589  33.551  27.544  1.00  0.00    -0.168 NA
ATOM     14  H   UNL A   1      37.597  33.750  27.858  1.00  0.00     0.189 HD
BRANCH  10  15
ATOM     15  C   UNL A   1      34.283  34.688  30.901  1.00  0.00     0.303 C 
BRANCH  15  16
ATOM     16  N   UNL A   1      34.668  34.015  32.160  1.00  0.00    -0.331 N 
ATOM     17  C   UNL A   1      36.477  33.151  34.333  1.00  0.00     0.051 C 
ATOM     18  C   UNL A   1      35.871  32.151  33.342  1.00  0.00     0.071 C 
ATOM     19  C   UNL A   1      35.456  34.270  34.552  1.00  0.00     0.071 C 
ATOM     20  C   UNL A   1      35.491  32.821  32.023  1.00  0.00     0.263 C 
ATOM     21  C   UNL A   1      34.977  34.933  33.253  1.00  0.00     0.263 C 
ATOM     22  H   UNL A   1      33.809  33.577  32.490  1.00  0.00     0.348 HD
BRANCH  17  23
ATOM     23  C   UNL A   1      37.857  33.629  33.932  1.00  0.00     0.066 A 
ATOM     24  C   UNL A   1      39.920  33.817  33.099  1.00  0.00     0.038 A 
ATOM     25  C   UNL A   1      38.814  33.004  33.100  1.00  0.00     0.049 A 
ATOM     26  N   UNL A   1      39.572  34.883  33.881  1.00  0.00    -0.282 N 
ATOM     27  N   UNL A   1      38.340  34.785  34.411  1.00  0.00    -0.180 NA
ATOM     28  H   UNL A   1      40.168  35.651  34.040  1.00  0.00     0.190 HD
BRANCH  24  29
ATOM     29  C   UNL A   1      41.246  33.621  32.438  1.00  0.00     0.031 C 
ATOM     30  C   UNL A   1      41.193  33.874  30.935  1.00  0.00     0.014 C 
ATOM     31  C   UNL A   1      42.323  34.469  33.112  1.00  0.00     0.014 C 
ENDBRANCH  24  29
ENDBRANCH  17  23
ENDBRANCH  15  16
ENDBRANCH  10  15
ENDBRANCH   7   9
ENDBRANCH   6   7
ENDBRANCH   5   6
ENDBRANCH   4   5
ENDBRANCH   3   4
ENDBRANCH   2   3
ENDBRANCH   1   2
BRANCH   1  32
ATOM     32  O   UNL A   1      35.484  28.983  27.424  1.00  0.00    -0.377 OA
BRANCH  32  33
ATOM     33  C   UNL A   1      35.963  29.411  28.696  1.00  0.00     0.188 C 
BRANCH  33  34
ATOM     34  C   UNL A   1      37.095  30.447  28.826  1.00  0.00     0.188 C 
BRANCH  34  35
ATOM     35  O   UNL A   1      38.313  30.063  28.187  1.00  0.00    -0.376 OA
BRANCH  35  36
ATOM     36  C   UNL A   1      38.715  28.710  28.373  1.00  0.00     0.202 C 
BRANCH  36  37
ATOM     37  C   UNL A   1      39.392  28.447  29.725  1.00  0.00     0.261 C 
BRANCH  37  38
ATOM     38  O   UNL A   1      39.743  29.623  30.470  1.00  0.00    -0.460 OA
BRANCH  38  39
ATOM     39  C   UNL A   1      41.036  30.016  30.427  1.00  0.00     0.338 C 
ATOM     40  O   UNL A   1      41.615  30.526  29.486  1.00  0.00    -0.246 OA
BRANCH  39  41
ATOM     41  C   UNL A   1      41.602  29.884  31.783  1.00  0.00     0.060 A 
ATOM     42  C   UNL A   1      40.867  29.197  32.756  1.00  0.00     0.016 A 
ATOM     43  C   UNL A   1      42.833  30.462  32.098  1.00  0.00     0.016 A 
ATOM     44  C   UNL A   1      41.344  29.128  34.066  1.00  0.00     0.010 A 
ATOM     45  C   UNL A   1      43.302  30.405  33.413  1.00  0.00     0.010 A 
ATOM     46  C   UNL A   1      42.542  29.769  34.410  1.00  0.00    -0.014 A 
BRANCH  46  47
ATOM     47  C   UNL A   1      42.906  29.950  35.837  1.00  0.00     0.031 A 
ATOM     48  C   UNL A   1      43.828  28.941  36.469  1.00  0.00     0.074 A 
ATOM     49  C   UNL A   1      42.424  30.979  36.557  1.00  0.00     0.049 A 
ATOM     50  N   UNL A   1      44.239  28.852  37.707  1.00  0.00    -0.248 NA
ATOM     51  C   UNL A   1      44.350  27.887  35.584  1.00  0.00     0.031 C 
ATOM     52  C   UNL A   1      41.547  32.031  36.046  1.00  0.00     0.029 A 
ATOM     53  N   UNL A   1      42.595  31.296  37.881  1.00  0.00    -0.354 N 
ATOM     54  C   UNL A   1      45.064  27.733  37.751  1.00  0.00     0.074 A 
ATOM     55  C   UNL A   1      45.072  27.160  36.422  1.00  0.00     0.031 C 
ATOM     56  C   UNL A   1      41.240  32.867  37.053  1.00  0.00     0.029 A 
ATOM     57  C   UNL A   1      41.870  32.394  38.285  1.00  0.00     0.049 A 
ATOM     58  H   UNL A   1      43.181  30.786  38.487  1.00  0.00     0.167 HD
ATOM     59  C   UNL A   1      45.754  27.231  38.803  1.00  0.00     0.034 A 
ATOM     60  C   UNL A   1      41.715  32.933  39.512  1.00  0.00     0.034 A 
ATOM     61  C   UNL A   1      45.730  27.800  40.125  1.00  0.00     0.049 A 
ATOM     62  C   UNL A   1      42.444  32.313  40.684  1.00  0.00     0.074 A 
ATOM     63  C   UNL A   1      46.409  27.383  41.257  1.00  0.00     0.029 A 
ATOM     64  N   UNL A   1      44.973  28.903  40.500  1.00  0.00    -0.354 N 
ATOM     65  N   UNL A   1      43.246  31.273  40.704  1.00  0.00    -0.248 NA
ATOM     66  C   UNL A   1      42.251  32.946  41.996  1.00  0.00     0.031 C 
ATOM     67  C   UNL A   1      46.015  28.191  42.328  1.00  0.00     0.029 A 
ATOM     68  C   UNL A   1      45.145  29.158  41.851  1.00  0.00     0.049 A 
ATOM     69  H   UNL A   1      44.398  29.424  39.895  1.00  0.00     0.167 HD
ATOM     70  C   UNL A   1      43.681  31.154  42.023  1.00  0.00     0.074 A 
ATOM     71  C   UNL A   1      43.061  32.232  42.764  1.00  0.00     0.031 C 
ATOM     72  C   UNL A   1      44.519  30.239  42.574  1.00  0.00     0.034 A 
BRANCH  59  73
ATOM     73  C   UNL A   1      46.551  25.973  38.571  1.00  0.00     0.023 A 
ATOM     74  C   UNL A   1      46.038  24.703  38.883  1.00  0.00     0.031 A 
ATOM     75  C   UNL A   1      47.851  26.050  38.040  1.00  0.00     0.131 A 
ATOM     76  C   UNL A   1      46.839  23.564  38.707  1.00  0.00     0.055 A 
ATOM     77  C   UNL A   1      48.618  24.907  37.806  1.00  0.00     0.041 A 
ATOM     78  F   UNL A   1      48.399  27.240  37.746  1.00  0.00    -0.206 F 
ATOM     79  C   UNL A   1      48.116  23.656  38.149  1.00  0.00     0.022 A 
BRANCH  76  80
ATOM     80  S   UNL A   1      46.227  21.968  39.314  1.00  0.00     0.124 S 
ATOM     81  O   UNL A   1      47.399  21.448  40.013  1.00  0.00    -0.237 OA
ATOM     82  O   UNL A   1      45.102  22.359  40.156  1.00  0.00    -0.237 OA
ATOM     83  O   UNL A   1      45.870  21.251  38.091  1.00  0.00    -0.744 OA
ENDBRANCH  76  80
ENDBRANCH  59  73
BRANCH  60  84
ATOM     84  C   UNL A   1      40.800  34.092  39.728  1.00  0.00     0.023 A 
ATOM     85  C   UNL A   1      41.287  35.408  39.764  1.00  0.00     0.031 A 
ATOM     86  C   UNL A   1      39.433  33.888  39.993  1.00  0.00     0.131 A 
ATOM     87  C   UNL A   1      40.429  36.462  40.119  1.00  0.00     0.055 A 
ATOM     88  C   UNL A   1      38.573  34.946  40.290  1.00  0.00     0.041 A 
ATOM     89  F   UNL A   1      38.915  32.649  39.975  1.00  0.00    -0.206 F 
ATOM     90  C   UNL A   1      39.074  36.241  40.372  1.00  0.00     0.022 A 
BRANCH  87  91
ATOM     91  S   UNL A   1      41.139  38.115  40.360  1.00  0.00     0.124 S 
ATOM     92  O   UNL A   1      42.247  38.104  39.412  1.00  0.00    -0.237 OA
ATOM     93  O   UNL A   1      40.013  38.978  40.021  1.00  0.00    -0.237 OA
ATOM     94  O   UNL A   1      41.524  38.117  41.770  1.00  0.00    -0.744 OA
ENDBRANCH  87  91
ENDBRANCH  60  84
BRANCH  72  95
ATOM     95  C   UNL A   1      44.858  30.407  44.035  1.00  0.00     0.023 A 
ATOM     96  C   UNL A   1      45.956  31.176  44.460  1.00  0.00     0.031 A 
ATOM     97  C   UNL A   1      44.067  29.784  45.017  1.00  0.00     0.131 A 
ATOM     98  C   UNL A   1      46.262  31.260  45.826  1.00  0.00     0.055 A 
ATOM     99  C   UNL A   1      44.344  29.917  46.377  1.00  0.00     0.041 A 
ATOM    100  F   UNL A   1      43.005  29.039  44.667  1.00  0.00    -0.206 F 
ATOM    101  C   UNL A   1      45.454  30.647  46.788  1.00  0.00     0.022 A 
BRANCH  98 102
ATOM    102  S   UNL A   1      47.781  32.116  46.329  1.00  0.00     0.124 S 
ATOM    103  O   UNL A   1      48.602  31.014  46.820  1.00  0.00    -0.237 OA
ATOM    104  O   UNL A   1      48.220  32.731  45.081  1.00  0.00    -0.237 OA
ATOM    105  O   UNL A   1      47.324  33.054  47.353  1.00  0.00    -0.744 OA
ENDBRANCH  98 102
ENDBRANCH  72  95
ENDBRANCH  46  47
ENDBRANCH  39  41
ENDBRANCH  38  39
ENDBRANCH  37  38
ENDBRANCH  36  37
ENDBRANCH  35  36
ENDBRANCH  34  35
ENDBRANCH  33  34
ENDBRANCH  32  33
ENDBRANCH   1  32
TORSDOF 27
ENDMDL
