MODEL 1
REMARK VINA RESULT:      -9.7      0.000      0.000
REMARK SMILES O=C(CN1C(=O)c2ccccc2[C@@H]1O)OCCOCCOCCOCCOC(=O)c1ccc(-c2c3nc(c(-c4cc(S(=O)(=O)[O-])ccc4F)c4ccc([nH]4)c(-c4cc(S(=O)(=O)[O-])ccc4F)c4nc(c(-c5cc(S(=O)(=O)[O-])ccc5F)c5ccc2[nH]5)C=C4)C=C3)cc1
REMARK SMILES IDX 22 1 21 2 20 3 19 4 18 5 17 6 16 7 15 8 2 9 1 10 3 11 4 12
REMARK SMILES IDX 5 13 13 14 6 15 7 16 12 17 8 18 11 19 9 20 10 21 14 22 23 24
REMARK SMILES IDX 24 25 25 26 26 27 27 28 28 29 29 30 30 31 31 32 92 33 32 34
REMARK SMILES IDX 91 35 33 36 34 37 35 38 85 39 36 40 90 41 84 42 86 43 37 44
REMARK SMILES IDX 89 45 83 46 82 47 38 49 70 50 50 51 69 52 51 53 54 54 68 55
REMARK SMILES IDX 87 56 52 57 53 58 67 60 88 61 55 62 39 63 40 64 48 65 41 66
REMARK SMILES IDX 47 67 49 68 46 69 42 70 43 71 44 72 45 73 71 74 72 75 80 76
REMARK SMILES IDX 73 77 79 78 81 79 78 80 74 81 75 82 76 83 77 84 56 85 57 86
REMARK SMILES IDX 65 87 58 88 64 89 66 90 63 91 59 92 60 93 61 94 62 95
REMARK H PARENT 14 23 86 48 54 59
REMARK Flexibility Score: inf
ROOT
ATOM      1  C   UNL A   1      35.551  20.527  24.995  1.00  0.00     0.188 C 
ENDROOT
BRANCH   1   2
ATOM      2  O   UNL A   1      34.397  21.342  25.111  1.00  0.00    -0.377 OA
BRANCH   2   3
ATOM      3  C   UNL A   1      33.985  21.584  26.450  1.00  0.00     0.188 C 
BRANCH   3   4
ATOM      4  C   UNL A   1      34.098  23.040  26.917  1.00  0.00     0.188 C 
BRANCH   4   5
ATOM      5  O   UNL A   1      32.991  23.882  26.675  1.00  0.00    -0.376 OA
BRANCH   5   6
ATOM      6  C   UNL A   1      31.648  23.504  26.468  1.00  0.00     0.202 C 
BRANCH   6   7
ATOM      7  C   UNL A   1      30.762  24.017  25.335  1.00  0.00     0.261 C 
BRANCH   7   8
ATOM      8  O   UNL A   1      30.304  25.372  25.379  1.00  0.00    -0.462 OA
BRANCH   8   9
ATOM      9  C   UNL A   1      30.020  26.188  24.348  1.00  0.00     0.325 C 
ATOM     10  O   UNL A   1      28.893  26.147  23.848  1.00  0.00    -0.250 OA
BRANCH   9  11
ATOM     11  C   UNL A   1      31.126  26.971  23.660  1.00  0.00     0.245 C 
BRANCH  11  12
ATOM     12  N   UNL A   1      31.940  27.842  24.468  1.00  0.00    -0.298 N 
ATOM     13  C   UNL A   1      31.539  29.104  24.866  1.00  0.00     0.257 C 
ATOM     14  C   UNL A   1      33.030  27.326  25.250  1.00  0.00     0.247 C 
ATOM     15  O   UNL A   1      30.567  29.737  24.521  1.00  0.00    -0.269 OA
ATOM     16  C   UNL A   1      32.532  29.559  25.837  1.00  0.00     0.047 A 
ATOM     17  C   UNL A   1      33.434  28.517  26.048  1.00  0.00     0.014 A 
ATOM     18  C   UNL A   1      32.622  30.778  26.476  1.00  0.00     0.014 A 
ATOM     19  C   UNL A   1      34.490  28.676  26.923  1.00  0.00     0.009 A 
ATOM     20  C   UNL A   1      33.680  30.940  27.369  1.00  0.00     0.001 A 
ATOM     21  C   UNL A   1      34.607  29.900  27.585  1.00  0.00     0.001 A 
BRANCH  14  22
ATOM     22  O   UNL A   1      34.031  26.863  24.386  1.00  0.00    -0.369 OA
ATOM     23  H   UNL A   1      34.270  27.564  23.761  1.00  0.00     0.213 HD
ENDBRANCH  14  22
ENDBRANCH  11  12
ENDBRANCH   9  11
ENDBRANCH   8   9
ENDBRANCH   7   8
ENDBRANCH   6   7
ENDBRANCH   5   6
ENDBRANCH   4   5
ENDBRANCH   3   4
ENDBRANCH   2   3
ENDBRANCH   1   2
BRANCH   1  24
ATOM     24  C   UNL A   1      36.843  21.294  24.633  1.00  0.00     0.188 C 
BRANCH  24  25
ATOM     25  O   UNL A   1      38.098  20.945  25.195  1.00  0.00    -0.376 OA
BRANCH  25  26
ATOM     26  C   UNL A   1      38.504  19.591  25.280  1.00  0.00     0.202 C 
BRANCH  26  27
ATOM     27  C   UNL A   1      39.942  19.156  25.616  1.00  0.00     0.261 C 
BRANCH  27  28
ATOM     28  O   UNL A   1      40.863  20.165  26.034  1.00  0.00    -0.460 OA
BRANCH  28  29
ATOM     29  C   UNL A   1      40.920  20.410  27.366  1.00  0.00     0.338 C 
ATOM     30  O   UNL A   1      40.975  19.587  28.262  1.00  0.00    -0.246 OA
BRANCH  29  31
ATOM     31  C   UNL A   1      41.122  21.865  27.547  1.00  0.00     0.060 A 
ATOM     32  C   UNL A   1      40.419  22.756  26.720  1.00  0.00     0.016 A 
ATOM     33  C   UNL A   1      41.949  22.348  28.562  1.00  0.00     0.016 A 
ATOM     34  C   UNL A   1      40.522  24.132  26.921  1.00  0.00     0.010 A 
ATOM     35  C   UNL A   1      42.094  23.727  28.725  1.00  0.00     0.010 A 
ATOM     36  C   UNL A   1      41.390  24.624  27.901  1.00  0.00    -0.014 A 
BRANCH  36  37
ATOM     37  C   UNL A   1      41.717  26.068  27.946  1.00  0.00     0.031 A 
ATOM     38  C   UNL A   1      43.010  26.512  27.321  1.00  0.00     0.074 A 
ATOM     39  C   UNL A   1      40.903  26.954  28.547  1.00  0.00     0.049 A 
ATOM     40  N   UNL A   1      43.595  27.679  27.368  1.00  0.00    -0.248 NA
ATOM     41  C   UNL A   1      43.744  25.498  26.544  1.00  0.00     0.031 C 
ATOM     42  C   UNL A   1      39.595  26.645  29.122  1.00  0.00     0.029 A 
ATOM     43  N   UNL A   1      41.072  28.294  28.799  1.00  0.00    -0.354 N 
ATOM     44  C   UNL A   1      44.778  27.534  26.652  1.00  0.00     0.074 A 
ATOM     45  C   UNL A   1      44.828  26.167  26.182  1.00  0.00     0.031 C 
ATOM     46  C   UNL A   1      39.098  27.756  29.694  1.00  0.00     0.029 A 
ATOM     47  C   UNL A   1      40.075  28.838  29.576  1.00  0.00     0.049 A 
ATOM     48  H   UNL A   1      41.833  28.816  28.455  1.00  0.00     0.167 HD
ATOM     49  C   UNL A   1      45.739  28.460  26.425  1.00  0.00     0.034 A 
ATOM     50  C   UNL A   1      39.994  30.047  30.172  1.00  0.00     0.034 A 
ATOM     51  C   UNL A   1      45.670  29.814  26.909  1.00  0.00     0.049 A 
ATOM     52  C   UNL A   1      41.134  31.029  29.984  1.00  0.00     0.074 A 
ATOM     53  C   UNL A   1      46.567  30.846  26.695  1.00  0.00     0.029 A 
ATOM     54  N   UNL A   1      44.667  30.319  27.722  1.00  0.00    -0.354 N 
ATOM     55  N   UNL A   1      42.232  30.895  29.276  1.00  0.00    -0.248 NA
ATOM     56  C   UNL A   1      41.025  32.320  30.678  1.00  0.00     0.031 C 
ATOM     57  C   UNL A   1      46.157  31.943  27.458  1.00  0.00     0.029 A 
ATOM     58  C   UNL A   1      44.953  31.629  28.068  1.00  0.00     0.049 A 
ATOM     59  H   UNL A   1      43.868  29.820  28.011  1.00  0.00     0.167 HD
ATOM     60  C   UNL A   1      42.927  32.095  29.421  1.00  0.00     0.074 A 
ATOM     61  C   UNL A   1      42.114  32.948  30.261  1.00  0.00     0.031 C 
ATOM     62  C   UNL A   1      44.131  32.463  28.911  1.00  0.00     0.034 A 
BRANCH  49  63
ATOM     63  C   UNL A   1      46.978  28.028  25.686  1.00  0.00     0.023 A 
ATOM     64  C   UNL A   1      47.102  28.152  24.293  1.00  0.00     0.031 A 
ATOM     65  C   UNL A   1      48.072  27.516  26.406  1.00  0.00     0.131 A 
ATOM     66  C   UNL A   1      48.286  27.740  23.660  1.00  0.00     0.055 A 
ATOM     67  C   UNL A   1      49.271  27.172  25.780  1.00  0.00     0.041 A 
ATOM     68  F   UNL A   1      47.996  27.349  27.737  1.00  0.00    -0.206 F 
ATOM     69  C   UNL A   1      49.380  27.280  24.397  1.00  0.00     0.022 A 
BRANCH  66  70
ATOM     70  S   UNL A   1      48.346  27.728  21.848  1.00  0.00     0.124 S 
ATOM     71  O   UNL A   1      49.483  28.606  21.584  1.00  0.00    -0.237 OA
ATOM     72  O   UNL A   1      48.548  26.315  21.548  1.00  0.00    -0.237 OA
ATOM     73  O   UNL A   1      47.046  28.269  21.458  1.00  0.00    -0.744 OA
ENDBRANCH  66  70
ENDBRANCH  49  63
BRANCH  50  74
ATOM     74  C   UNL A   1      38.854  30.388  31.077  1.00  0.00     0.023 A 
ATOM     75  C   UNL A   1      37.795  31.200  30.640  1.00  0.00     0.031 A 
ATOM     76  C   UNL A   1      38.865  30.002  32.431  1.00  0.00     0.131 A 
ATOM     77  C   UNL A   1      36.837  31.659  31.559  1.00  0.00     0.055 A 
ATOM     78  C   UNL A   1      37.868  30.398  33.323  1.00  0.00     0.041 A 
ATOM     79  F   UNL A   1      39.857  29.237  32.913  1.00  0.00    -0.206 F 
ATOM     80  C   UNL A   1      36.856  31.251  32.894  1.00  0.00     0.022 A 
BRANCH  77  81
ATOM     81  S   UNL A   1      35.650  32.920  31.015  1.00  0.00     0.124 S 
ATOM     82  O   UNL A   1      34.452  32.535  31.752  1.00  0.00    -0.237 OA
ATOM     83  O   UNL A   1      36.302  34.152  31.445  1.00  0.00    -0.237 OA
ATOM     84  O   UNL A   1      35.584  32.723  29.568  1.00  0.00    -0.744 OA
ENDBRANCH  77  81
ENDBRANCH  50  74
BRANCH  62  85
ATOM     85  C   UNL A   1      44.619  33.859  29.214  1.00  0.00     0.023 A 
ATOM     86  C   UNL A   1      44.317  34.947  28.376  1.00  0.00     0.031 A 
ATOM     87  C   UNL A   1      45.381  34.107  30.370  1.00  0.00     0.131 A 
ATOM     88  C   UNL A   1      44.815  36.223  28.680  1.00  0.00     0.055 A 
ATOM     89  C   UNL A   1      45.816  35.391  30.703  1.00  0.00     0.041 A 
ATOM     90  F   UNL A   1      45.703  33.106  31.205  1.00  0.00    -0.206 F 
ATOM     91  C   UNL A   1      45.543  36.455  29.851  1.00  0.00     0.022 A 
BRANCH  88  92
ATOM     92  S   UNL A   1      44.570  37.562  27.484  1.00  0.00     0.124 S 
ATOM     93  O   UNL A   1      44.520  38.735  28.350  1.00  0.00    -0.237 OA
ATOM     94  O   UNL A   1      45.751  37.445  26.635  1.00  0.00    -0.237 OA
ATOM     95  O   UNL A   1      43.306  37.216  26.835  1.00  0.00    -0.744 OA
ENDBRANCH  88  92
ENDBRANCH  62  85
ENDBRANCH  36  37
ENDBRANCH  29  31
ENDBRANCH  28  29
ENDBRANCH  27  28
ENDBRANCH  26  27
ENDBRANCH  25  26
ENDBRANCH  24  25
ENDBRANCH   1  24
TORSDOF 25
ENDMDL
MODEL 2
REMARK VINA RESULT:      -9.4      1.543      2.129
REMARK SMILES O=C(CN1C(=O)c2ccccc2[C@@H]1O)OCCOCCOCCOCCOC(=O)c1ccc(-c2c3nc(c(-c4cc(S(=O)(=O)[O-])ccc4F)c4ccc([nH]4)c(-c4cc(S(=O)(=O)[O-])ccc4F)c4nc(c(-c5cc(S(=O)(=O)[O-])ccc5F)c5ccc2[nH]5)C=C4)C=C3)cc1
REMARK SMILES IDX 22 1 21 2 20 3 19 4 18 5 17 6 16 7 15 8 2 9 1 10 3 11 4 12
REMARK SMILES IDX 5 13 13 14 6 15 7 16 12 17 8 18 11 19 9 20 10 21 14 22 23 24
REMARK SMILES IDX 24 25 25 26 26 27 27 28 28 29 29 30 30 31 31 32 92 33 32 34
REMARK SMILES IDX 91 35 33 36 34 37 35 38 85 39 36 40 90 41 84 42 86 43 37 44
REMARK SMILES IDX 89 45 83 46 82 47 38 49 70 50 50 51 69 52 51 53 54 54 68 55
REMARK SMILES IDX 87 56 52 57 53 58 67 60 88 61 55 62 39 63 40 64 48 65 41 66
REMARK SMILES IDX 47 67 49 68 46 69 42 70 43 71 44 72 45 73 71 74 72 75 80 76
REMARK SMILES IDX 73 77 79 78 81 79 78 80 74 81 75 82 76 83 77 84 56 85 57 86
REMARK SMILES IDX 65 87 58 88 64 89 66 90 63 91 59 92 60 93 61 94 62 95
REMARK H PARENT 14 23 86 48 54 59
REMARK Flexibility Score: inf
ROOT
ATOM      1  C   UNL A   1      35.780  20.672  25.299  1.00  0.00     0.188 C 
ENDROOT
BRANCH   1   2
ATOM      2  O   UNL A   1      34.803  21.691  25.428  1.00  0.00    -0.377 OA
BRANCH   2   3
ATOM      3  C   UNL A   1      33.632  21.291  26.130  1.00  0.00     0.188 C 
BRANCH   3   4
ATOM      4  C   UNL A   1      33.014  22.362  27.036  1.00  0.00     0.188 C 
BRANCH   4   5
ATOM      5  O   UNL A   1      31.818  22.969  26.593  1.00  0.00    -0.376 OA
BRANCH   5   6
ATOM      6  C   UNL A   1      31.122  22.727  25.390  1.00  0.00     0.202 C 
BRANCH   6   7
ATOM      7  C   UNL A   1      31.066  23.690  24.206  1.00  0.00     0.261 C 
BRANCH   7   8
ATOM      8  O   UNL A   1      31.029  25.098  24.464  1.00  0.00    -0.462 OA
BRANCH   8   9
ATOM      9  C   UNL A   1      30.055  25.810  25.058  1.00  0.00     0.325 C 
ATOM     10  O   UNL A   1      30.139  26.042  26.267  1.00  0.00    -0.250 OA
BRANCH   9  11
ATOM     11  C   UNL A   1      28.764  26.117  24.316  1.00  0.00     0.245 C 
BRANCH  11  12
ATOM     12  N   UNL A   1      28.716  27.312  23.514  1.00  0.00    -0.298 N 
ATOM     13  C   UNL A   1      27.614  28.147  23.461  1.00  0.00     0.257 C 
ATOM     14  C   UNL A   1      29.919  27.940  23.042  1.00  0.00     0.247 C 
ATOM     15  O   UNL A   1      26.509  27.977  23.922  1.00  0.00    -0.269 OA
ATOM     16  C   UNL A   1      28.042  29.338  22.729  1.00  0.00     0.047 A 
ATOM     17  C   UNL A   1      29.403  29.208  22.454  1.00  0.00     0.014 A 
ATOM     18  C   UNL A   1      27.296  30.434  22.348  1.00  0.00     0.014 A 
ATOM     19  C   UNL A   1      30.072  30.196  21.762  1.00  0.00     0.009 A 
ATOM     20  C   UNL A   1      27.969  31.440  21.658  1.00  0.00     0.001 A 
ATOM     21  C   UNL A   1      29.343  31.319  21.363  1.00  0.00     0.001 A 
BRANCH  14  22
ATOM     22  O   UNL A   1      30.535  27.097  22.106  1.00  0.00    -0.369 OA
ATOM     23  H   UNL A   1      31.487  27.054  22.286  1.00  0.00     0.213 HD
ENDBRANCH  14  22
ENDBRANCH  11  12
ENDBRANCH   9  11
ENDBRANCH   8   9
ENDBRANCH   7   8
ENDBRANCH   6   7
ENDBRANCH   5   6
ENDBRANCH   4   5
ENDBRANCH   3   4
ENDBRANCH   2   3
ENDBRANCH   1   2
BRANCH   1  24
ATOM     24  C   UNL A   1      37.119  21.142  24.687  1.00  0.00     0.188 C 
BRANCH  24  25
ATOM     25  O   UNL A   1      38.364  20.818  25.285  1.00  0.00    -0.376 OA
BRANCH  25  26
ATOM     26  C   UNL A   1      38.821  19.478  25.331  1.00  0.00     0.202 C 
BRANCH  26  27
ATOM     27  C   UNL A   1      40.270  19.087  25.671  1.00  0.00     0.261 C 
BRANCH  27  28
ATOM     28  O   UNL A   1      41.130  20.103  26.193  1.00  0.00    -0.460 OA
BRANCH  28  29
ATOM     29  C   UNL A   1      40.994  20.385  27.511  1.00  0.00     0.338 C 
ATOM     30  O   UNL A   1      40.909  19.587  28.427  1.00  0.00    -0.246 OA
BRANCH  29  31
ATOM     31  C   UNL A   1      41.183  21.843  27.680  1.00  0.00     0.060 A 
ATOM     32  C   UNL A   1      40.387  22.723  26.929  1.00  0.00     0.016 A 
ATOM     33  C   UNL A   1      42.093  22.338  28.615  1.00  0.00     0.016 A 
ATOM     34  C   UNL A   1      40.481  24.100  27.127  1.00  0.00     0.010 A 
ATOM     35  C   UNL A   1      42.226  23.720  28.772  1.00  0.00     0.010 A 
ATOM     36  C   UNL A   1      41.429  24.606  28.023  1.00  0.00    -0.014 A 
BRANCH  36  37
ATOM     37  C   UNL A   1      41.730  26.056  28.045  1.00  0.00     0.031 A 
ATOM     38  C   UNL A   1      43.019  26.511  27.423  1.00  0.00     0.074 A 
ATOM     39  C   UNL A   1      40.895  26.937  28.624  1.00  0.00     0.049 A 
ATOM     40  N   UNL A   1      43.583  27.689  27.454  1.00  0.00    -0.248 NA
ATOM     41  C   UNL A   1      43.778  25.497  26.670  1.00  0.00     0.031 C 
ATOM     42  C   UNL A   1      39.587  26.615  29.195  1.00  0.00     0.029 A 
ATOM     43  N   UNL A   1      41.038  28.284  28.853  1.00  0.00    -0.354 N 
ATOM     44  C   UNL A   1      44.774  27.553  26.750  1.00  0.00     0.074 A 
ATOM     45  C   UNL A   1      44.853  26.179  26.304  1.00  0.00     0.031 C 
ATOM     46  C   UNL A   1      39.066  27.727  29.743  1.00  0.00     0.029 A 
ATOM     47  C   UNL A   1      40.025  28.824  29.613  1.00  0.00     0.049 A 
ATOM     48  H   UNL A   1      41.792  28.813  28.507  1.00  0.00     0.167 HD
ATOM     49  C   UNL A   1      45.720  28.492  26.514  1.00  0.00     0.034 A 
ATOM     50  C   UNL A   1      39.917  30.042  30.187  1.00  0.00     0.034 A 
ATOM     51  C   UNL A   1      45.624  29.853  26.973  1.00  0.00     0.049 A 
ATOM     52  C   UNL A   1      41.041  31.040  29.991  1.00  0.00     0.074 A 
ATOM     53  C   UNL A   1      46.504  30.897  26.749  1.00  0.00     0.029 A 
ATOM     54  N   UNL A   1      44.604  30.355  27.770  1.00  0.00    -0.354 N 
ATOM     55  N   UNL A   1      42.147  30.914  29.294  1.00  0.00    -0.248 NA
ATOM     56  C   UNL A   1      40.904  32.341  30.661  1.00  0.00     0.031 C 
ATOM     57  C   UNL A   1      46.068  31.999  27.488  1.00  0.00     0.029 A 
ATOM     58  C   UNL A   1      44.865  31.676  28.095  1.00  0.00     0.049 A 
ATOM     59  H   UNL A   1      43.812  29.847  28.061  1.00  0.00     0.167 HD
ATOM     60  C   UNL A   1      42.820  32.129  29.423  1.00  0.00     0.074 A 
ATOM     61  C   UNL A   1      41.984  32.981  30.241  1.00  0.00     0.031 C 
ATOM     62  C   UNL A   1      44.021  32.509  28.916  1.00  0.00     0.034 A 
BRANCH  49  63
ATOM     63  C   UNL A   1      46.973  28.070  25.793  1.00  0.00     0.023 A 
ATOM     64  C   UNL A   1      47.092  28.135  24.395  1.00  0.00     0.031 A 
ATOM     65  C   UNL A   1      48.085  27.629  26.533  1.00  0.00     0.131 A 
ATOM     66  C   UNL A   1      48.288  27.735  23.779  1.00  0.00     0.055 A 
ATOM     67  C   UNL A   1      49.293  27.298  25.920  1.00  0.00     0.041 A 
ATOM     68  F   UNL A   1      48.015  27.520  27.870  1.00  0.00    -0.206 F 
ATOM     69  C   UNL A   1      49.398  27.346  24.534  1.00  0.00     0.022 A 
BRANCH  66  70
ATOM     70  S   UNL A   1      48.348  27.644  21.969  1.00  0.00     0.124 S 
ATOM     71  O   UNL A   1      49.509  28.476  21.668  1.00  0.00    -0.237 OA
ATOM     72  O   UNL A   1      48.509  26.213  21.730  1.00  0.00    -0.237 OA
ATOM     73  O   UNL A   1      47.064  28.204  21.555  1.00  0.00    -0.744 OA
ENDBRANCH  66  70
ENDBRANCH  49  63
BRANCH  50  74
ATOM     74  C   UNL A   1      38.764  30.377  31.077  1.00  0.00     0.023 A 
ATOM     75  C   UNL A   1      37.639  31.058  30.585  1.00  0.00     0.031 A 
ATOM     76  C   UNL A   1      38.821  30.126  32.461  1.00  0.00     0.131 A 
ATOM     77  C   UNL A   1      36.657  31.527  31.474  1.00  0.00     0.055 A 
ATOM     78  C   UNL A   1      37.806  30.527  33.330  1.00  0.00     0.041 A 
ATOM     79  F   UNL A   1      39.877  29.492  32.994  1.00  0.00    -0.206 F 
ATOM     80  C   UNL A   1      36.725  31.253  32.841  1.00  0.00     0.022 A 
BRANCH  77  81
ATOM     81  S   UNL A   1      35.368  32.633  30.834  1.00  0.00     0.124 S 
ATOM     82  O   UNL A   1      35.246  32.176  29.455  1.00  0.00    -0.237 OA
ATOM     83  O   UNL A   1      34.245  32.326  31.714  1.00  0.00    -0.237 OA
ATOM     84  O   UNL A   1      35.946  33.964  31.003  1.00  0.00    -0.744 OA
ENDBRANCH  77  81
ENDBRANCH  50  74
BRANCH  62  85
ATOM     85  C   UNL A   1      44.481  33.918  29.199  1.00  0.00     0.023 A 
ATOM     86  C   UNL A   1      43.991  35.017  28.470  1.00  0.00     0.031 A 
ATOM     87  C   UNL A   1      45.410  34.168  30.225  1.00  0.00     0.131 A 
ATOM     88  C   UNL A   1      44.467  36.307  28.747  1.00  0.00     0.055 A 
ATOM     89  C   UNL A   1      45.829  35.461  30.540  1.00  0.00     0.041 A 
ATOM     90  F   UNL A   1      45.915  33.157  30.951  1.00  0.00    -0.206 F 
ATOM     91  C   UNL A   1      45.366  36.538  29.792  1.00  0.00     0.022 A 
BRANCH  88  92
ATOM     92  S   UNL A   1      43.961  37.672  27.667  1.00  0.00     0.124 S 
ATOM     93  O   UNL A   1      43.292  38.567  28.606  1.00  0.00    -0.237 OA
ATOM     94  O   UNL A   1      45.237  38.143  27.137  1.00  0.00    -0.237 OA
ATOM     95  O   UNL A   1      43.085  37.030  26.690  1.00  0.00    -0.744 OA
ENDBRANCH  88  92
ENDBRANCH  62  85
ENDBRANCH  36  37
ENDBRANCH  29  31
ENDBRANCH  28  29
ENDBRANCH  27  28
ENDBRANCH  26  27
ENDBRANCH  25  26
ENDBRANCH  24  25
ENDBRANCH   1  24
TORSDOF 25
ENDMDL
MODEL 3
REMARK VINA RESULT:      -9.3      4.614     11.318
REMARK SMILES O=C(CN1C(=O)c2ccccc2[C@@H]1O)OCCOCCOCCOCCOC(=O)c1ccc(-c2c3nc(c(-c4cc(S(=O)(=O)[O-])ccc4F)c4ccc([nH]4)c(-c4cc(S(=O)(=O)[O-])ccc4F)c4nc(c(-c5cc(S(=O)(=O)[O-])ccc5F)c5ccc2[nH]5)C=C4)C=C3)cc1
REMARK SMILES IDX 22 1 21 2 20 3 19 4 18 5 17 6 16 7 15 8 2 9 1 10 3 11 4 12
REMARK SMILES IDX 5 13 13 14 6 15 7 16 12 17 8 18 11 19 9 20 10 21 14 22 23 24
REMARK SMILES IDX 24 25 25 26 26 27 27 28 28 29 29 30 30 31 31 32 92 33 32 34
REMARK SMILES IDX 91 35 33 36 34 37 35 38 85 39 36 40 90 41 84 42 86 43 37 44
REMARK SMILES IDX 89 45 83 46 82 47 38 49 70 50 50 51 69 52 51 53 54 54 68 55
REMARK SMILES IDX 87 56 52 57 53 58 67 60 88 61 55 62 39 63 40 64 48 65 41 66
REMARK SMILES IDX 47 67 49 68 46 69 42 70 43 71 44 72 45 73 71 74 72 75 80 76
REMARK SMILES IDX 73 77 79 78 81 79 78 80 74 81 75 82 76 83 77 84 56 85 57 86
REMARK SMILES IDX 65 87 58 88 64 89 66 90 63 91 59 92 60 93 61 94 62 95
REMARK H PARENT 14 23 86 48 54 59
REMARK Flexibility Score: inf
ROOT
ATOM      1  C   UNL A   1      33.277  36.612  30.452  1.00  0.00     0.188 C 
ENDROOT
BRANCH   1   2
ATOM      2  O   UNL A   1      32.503  36.915  31.600  1.00  0.00    -0.377 OA
BRANCH   2   3
ATOM      3  C   UNL A   1      33.270  37.206  32.761  1.00  0.00     0.188 C 
BRANCH   3   4
ATOM      4  C   UNL A   1      33.958  36.001  33.411  1.00  0.00     0.188 C 
BRANCH   4   5
ATOM      5  O   UNL A   1      35.365  35.929  33.308  1.00  0.00    -0.376 OA
BRANCH   5   6
ATOM      6  C   UNL A   1      36.169  34.772  33.272  1.00  0.00     0.202 C 
BRANCH   6   7
ATOM      7  C   UNL A   1      36.118  33.706  32.180  1.00  0.00     0.261 C 
BRANCH   7   8
ATOM      8  O   UNL A   1      37.151  32.716  32.134  1.00  0.00    -0.462 OA
BRANCH   8   9
ATOM      9  C   UNL A   1      37.273  31.606  32.884  1.00  0.00     0.325 C 
ATOM     10  O   UNL A   1      36.363  30.774  32.868  1.00  0.00    -0.250 OA
BRANCH   9  11
ATOM     11  C   UNL A   1      38.391  31.487  33.907  1.00  0.00     0.245 C 
BRANCH  11  12
ATOM     12  N   UNL A   1      38.648  32.618  34.760  1.00  0.00    -0.298 N 
ATOM     13  C   UNL A   1      38.155  32.724  36.048  1.00  0.00     0.257 C 
ATOM     14  C   UNL A   1      39.744  33.510  34.503  1.00  0.00     0.247 C 
ATOM     15  O   UNL A   1      37.355  32.017  36.617  1.00  0.00    -0.269 OA
ATOM     16  C   UNL A   1      38.814  33.887  36.641  1.00  0.00     0.047 A 
ATOM     17  C   UNL A   1      39.739  34.373  35.717  1.00  0.00     0.014 A 
ATOM     18  C   UNL A   1      38.616  34.455  37.882  1.00  0.00     0.014 A 
ATOM     19  C   UNL A   1      40.505  35.480  36.016  1.00  0.00     0.009 A 
ATOM     20  C   UNL A   1      39.395  35.568  38.193  1.00  0.00     0.001 A 
ATOM     21  C   UNL A   1      40.327  36.077  37.266  1.00  0.00     0.001 A 
BRANCH  14  22
ATOM     22  O   UNL A   1      39.493  34.210  33.315  1.00  0.00    -0.369 OA
ATOM     23  H   UNL A   1      39.110  33.608  32.659  1.00  0.00     0.213 HD
ENDBRANCH  14  22
ENDBRANCH  11  12
ENDBRANCH   9  11
ENDBRANCH   8   9
ENDBRANCH   7   8
ENDBRANCH   6   7
ENDBRANCH   5   6
ENDBRANCH   4   5
ENDBRANCH   3   4
ENDBRANCH   2   3
ENDBRANCH   1   2
BRANCH   1  24
ATOM     24  C   UNL A   1      33.383  35.105  30.129  1.00  0.00     0.188 C 
BRANCH  24  25
ATOM     25  O   UNL A   1      32.680  34.525  29.042  1.00  0.00    -0.376 OA
BRANCH  25  26
ATOM     26  C   UNL A   1      33.374  33.864  27.999  1.00  0.00     0.202 C 
BRANCH  26  27
ATOM     27  C   UNL A   1      34.807  33.320  28.145  1.00  0.00     0.261 C 
BRANCH  27  28
ATOM     28  O   UNL A   1      34.986  32.098  28.864  1.00  0.00    -0.460 OA
BRANCH  28  29
ATOM     29  C   UNL A   1      35.013  30.965  28.122  1.00  0.00     0.338 C 
ATOM     30  O   UNL A   1      34.228  30.639  27.251  1.00  0.00    -0.246 OA
BRANCH  29  31
ATOM     31  C   UNL A   1      36.295  30.278  28.399  1.00  0.00     0.060 A 
ATOM     32  C   UNL A   1      36.436  29.560  29.597  1.00  0.00     0.016 A 
ATOM     33  C   UNL A   1      37.326  30.290  27.458  1.00  0.00     0.016 A 
ATOM     34  C   UNL A   1      37.599  28.833  29.849  1.00  0.00     0.010 A 
ATOM     35  C   UNL A   1      38.512  29.607  27.737  1.00  0.00     0.010 A 
ATOM     36  C   UNL A   1      38.657  28.885  28.936  1.00  0.00    -0.014 A 
BRANCH  36  37
ATOM     37  C   UNL A   1      39.987  28.348  29.310  1.00  0.00     0.031 A 
ATOM     38  C   UNL A   1      40.784  29.107  30.333  1.00  0.00     0.074 A 
ATOM     39  C   UNL A   1      40.481  27.236  28.737  1.00  0.00     0.049 A 
ATOM     40  N   UNL A   1      42.023  28.938  30.708  1.00  0.00    -0.248 NA
ATOM     41  C   UNL A   1      40.088  30.209  31.020  1.00  0.00     0.031 C 
ATOM     42  C   UNL A   1      39.766  26.385  27.787  1.00  0.00     0.029 A 
ATOM     43  N   UNL A   1      41.717  26.647  28.852  1.00  0.00    -0.354 N 
ATOM     44  C   UNL A   1      42.267  29.929  31.653  1.00  0.00     0.074 A 
ATOM     45  C   UNL A   1      41.048  30.694  31.794  1.00  0.00     0.031 C 
ATOM     46  C   UNL A   1      40.590  25.404  27.376  1.00  0.00     0.029 A 
ATOM     47  C   UNL A   1      41.905  25.592  27.988  1.00  0.00     0.049 A 
ATOM     48  H   UNL A   1      42.402  26.950  29.491  1.00  0.00     0.167 HD
ATOM     49  C   UNL A   1      43.413  30.180  32.327  1.00  0.00     0.034 A 
ATOM     50  C   UNL A   1      43.026  24.901  27.685  1.00  0.00     0.034 A 
ATOM     51  C   UNL A   1      44.618  29.408  32.166  1.00  0.00     0.049 A 
ATOM     52  C   UNL A   1      44.320  25.272  28.382  1.00  0.00     0.074 A 
ATOM     53  C   UNL A   1      45.821  29.549  32.835  1.00  0.00     0.029 A 
ATOM     54  N   UNL A   1      44.785  28.372  31.258  1.00  0.00    -0.354 N 
ATOM     55  N   UNL A   1      44.532  26.187  29.301  1.00  0.00    -0.248 NA
ATOM     56  C   UNL A   1      45.524  24.522  27.998  1.00  0.00     0.031 C 
ATOM     57  C   UNL A   1      46.741  28.665  32.265  1.00  0.00     0.029 A 
ATOM     58  C   UNL A   1      46.088  27.905  31.308  1.00  0.00     0.049 A 
ATOM     59  H   UNL A   1      44.081  28.021  30.665  1.00  0.00     0.167 HD
ATOM     60  C   UNL A   1      45.887  26.099  29.619  1.00  0.00     0.074 A 
ATOM     61  C   UNL A   1      46.435  25.028  28.816  1.00  0.00     0.031 C 
ATOM     62  C   UNL A   1      46.617  26.838  30.495  1.00  0.00     0.034 A 
BRANCH  49  63
ATOM     63  C   UNL A   1      43.449  31.375  33.243  1.00  0.00     0.023 A 
ATOM     64  C   UNL A   1      43.645  32.680  32.765  1.00  0.00     0.031 A 
ATOM     65  C   UNL A   1      43.245  31.197  34.623  1.00  0.00     0.131 A 
ATOM     66  C   UNL A   1      43.661  33.757  33.667  1.00  0.00     0.055 A 
ATOM     67  C   UNL A   1      43.194  32.277  35.505  1.00  0.00     0.041 A 
ATOM     68  F   UNL A   1      43.082  29.967  35.137  1.00  0.00    -0.206 F 
ATOM     69  C   UNL A   1      43.407  33.566  35.028  1.00  0.00     0.022 A 
BRANCH  66  70
ATOM     70  S   UNL A   1      44.109  35.402  33.052  1.00  0.00     0.124 S 
ATOM     71  O   UNL A   1      45.485  35.531  33.523  1.00  0.00    -0.237 OA
ATOM     72  O   UNL A   1      43.940  35.257  31.610  1.00  0.00    -0.237 OA
ATOM     73  O   UNL A   1      43.147  36.286  33.707  1.00  0.00    -0.744 OA
ENDBRANCH  66  70
ENDBRANCH  49  63
BRANCH  50  74
ATOM     74  C   UNL A   1      43.023  23.854  26.618  1.00  0.00     0.023 A 
ATOM     75  C   UNL A   1      42.407  22.609  26.822  1.00  0.00     0.031 A 
ATOM     76  C   UNL A   1      43.740  24.040  25.420  1.00  0.00     0.131 A 
ATOM     77  C   UNL A   1      42.579  21.578  25.883  1.00  0.00     0.055 A 
ATOM     78  C   UNL A   1      43.844  23.037  24.455  1.00  0.00     0.041 A 
ATOM     79  F   UNL A   1      44.363  25.203  25.173  1.00  0.00    -0.206 F 
ATOM     80  C   UNL A   1      43.279  21.788  24.693  1.00  0.00     0.022 A 
BRANCH  77  81
ATOM     81  S   UNL A   1      42.000  19.912  26.311  1.00  0.00     0.124 S 
ATOM     82  O   UNL A   1      40.555  20.060  26.181  1.00  0.00    -0.237 OA
ATOM     83  O   UNL A   1      42.656  19.095  25.296  1.00  0.00    -0.237 OA
ATOM     84  O   UNL A   1      42.489  19.722  27.675  1.00  0.00    -0.744 OA
ENDBRANCH  77  81
ENDBRANCH  50  74
BRANCH  62  85
ATOM     85  C   UNL A   1      48.076  26.484  30.656  1.00  0.00     0.023 A 
ATOM     86  C   UNL A   1      49.059  26.983  29.784  1.00  0.00     0.031 A 
ATOM     87  C   UNL A   1      48.490  25.650  31.711  1.00  0.00     0.131 A 
ATOM     88  C   UNL A   1      50.400  26.605  29.953  1.00  0.00     0.055 A 
ATOM     89  C   UNL A   1      49.833  25.334  31.915  1.00  0.00     0.041 A 
ATOM     90  F   UNL A   1      47.594  25.142  32.572  1.00  0.00    -0.206 F 
ATOM     91  C   UNL A   1      50.796  25.802  31.027  1.00  0.00     0.022 A 
BRANCH  88  92
ATOM     92  S   UNL A   1      51.611  27.110  28.703  1.00  0.00     0.124 S 
ATOM     93  O   UNL A   1      51.645  25.943  27.826  1.00  0.00    -0.237 OA
ATOM     94  O   UNL A   1      51.002  28.311  28.141  1.00  0.00    -0.237 OA
ATOM     95  O   UNL A   1      52.829  27.338  29.477  1.00  0.00    -0.744 OA
ENDBRANCH  88  92
ENDBRANCH  62  85
ENDBRANCH  36  37
ENDBRANCH  29  31
ENDBRANCH  28  29
ENDBRANCH  27  28
ENDBRANCH  26  27
ENDBRANCH  25  26
ENDBRANCH  24  25
ENDBRANCH   1  24
TORSDOF 25
ENDMDL
