MODEL 1
REMARK VINA RESULT:     -10.6      0.000      0.000
REMARK SMILES Cc1cc(C)c2c(c1)C=C(C(=O)OCCOCCOCCOCCOC(=O)c1ccc(-c3c4nc(c(-c5cc(S(=O)(=O)[O-])ccc5F)c5ccc([nH]5)c(-c5cc(S(=O)(=O)[O-])ccc5F)c5nc(c(-c6cc(S(=O)(=O)[O-])ccc6F)c6ccc3[nH]6)C=C5)C=C4)cc1)[C@@H](C(F)(F)F)O2
REMARK SMILES IDX 20 1 19 2 18 3 17 4 16 5 15 6 14 7 13 8 11 9 12 10 10 11
REMARK SMILES IDX 1 12 2 13 3 14 8 15 4 16 7 17 5 18 6 19 9 20 96 21 91 22
REMARK SMILES IDX 92 23 93 24 94 25 95 26 21 27 22 28 23 29 24 30 25 31 26 32
REMARK SMILES IDX 27 33 28 34 29 35 90 36 30 37 89 38 31 39 32 40 33 41 83 42
REMARK SMILES IDX 34 43 88 44 82 45 84 46 35 47 87 48 81 49 80 50 36 52 68 53
REMARK SMILES IDX 48 54 67 55 49 56 52 57 66 58 85 59 50 60 51 61 65 63 86 64
REMARK SMILES IDX 53 65 37 66 38 67 46 68 39 69 45 70 47 71 44 72 40 73 41 74
REMARK SMILES IDX 42 75 43 76 69 77 70 78 78 79 71 80 77 81 79 82 76 83 72 84
REMARK SMILES IDX 73 85 74 86 75 87 54 88 55 89 63 90 56 91 62 92 64 93 61 94
REMARK SMILES IDX 57 95 58 96 59 97 60 98
REMARK H PARENT 84 51 52 62
REMARK Flexibility Score: inf
ROOT
ATOM      1  C   UNL A   1      43.764  18.467  25.434  1.00  0.00     0.188 C 
ENDROOT
BRANCH   1   2
ATOM      2  O   UNL A   1      42.559  19.227  25.359  1.00  0.00    -0.377 OA
BRANCH   2   3
ATOM      3  C   UNL A   1      42.031  19.723  26.576  1.00  0.00     0.188 C 
BRANCH   3   4
ATOM      4  C   UNL A   1      40.572  20.199  26.451  1.00  0.00     0.188 C 
BRANCH   4   5
ATOM      5  O   UNL A   1      40.343  21.594  26.430  1.00  0.00    -0.376 OA
BRANCH   5   6
ATOM      6  C   UNL A   1      39.055  22.177  26.304  1.00  0.00     0.202 C 
BRANCH   6   7
ATOM      7  C   UNL A   1      38.109  22.115  25.086  1.00  0.00     0.261 C 
BRANCH   7   8
ATOM      8  O   UNL A   1      37.058  23.070  25.003  1.00  0.00    -0.460 OA
BRANCH   8   9
ATOM      9  C   UNL A   1      36.304  23.051  23.891  1.00  0.00     0.338 C 
ATOM     10  O   UNL A   1      36.667  22.788  22.758  1.00  0.00    -0.246 OA
BRANCH   9  11
ATOM     11  C   UNL A   1      34.897  23.230  24.306  1.00  0.00     0.087 C 
ATOM     12  C   UNL A   1      30.844  27.650  25.634  1.00  0.00     0.044 C 
ATOM     13  C   UNL A   1      31.318  26.242  25.423  1.00  0.00    -0.050 A 
ATOM     14  C   UNL A   1      30.555  25.155  25.866  1.00  0.00     0.010 A 
ATOM     15  C   UNL A   1      32.582  26.008  24.875  1.00  0.00     0.015 A 
ATOM     16  C   UNL A   1      31.028  23.839  25.729  1.00  0.00    -0.008 A 
ATOM     17  C   UNL A   1      33.077  24.704  24.767  1.00  0.00     0.018 A 
ATOM     18  C   UNL A   1      30.203  22.686  26.231  1.00  0.00     0.048 C 
ATOM     19  C   UNL A   1      32.288  23.620  25.154  1.00  0.00     0.130 A 
ATOM     20  C   UNL A   1      34.447  24.489  24.341  1.00  0.00     0.027 C 
ATOM     21  O   UNL A   1      32.689  22.319  25.027  1.00  0.00    -0.475 OA
ATOM     22  C   UNL A   1      34.043  22.023  24.587  1.00  0.00     0.316 C 
BRANCH  22  23
ATOM     23  C   UNL A   1      34.681  21.092  25.626  1.00  0.00     0.430 C 
ATOM     24  F   UNL A   1      33.753  20.295  26.211  1.00  0.00    -0.167 F 
ATOM     25  F   UNL A   1      35.609  20.276  25.080  1.00  0.00    -0.167 F 
ATOM     26  F   UNL A   1      35.289  21.791  26.614  1.00  0.00    -0.167 F 
ENDBRANCH  22  23
ENDBRANCH   9  11
ENDBRANCH   8   9
ENDBRANCH   7   8
ENDBRANCH   6   7
ENDBRANCH   5   6
ENDBRANCH   4   5
ENDBRANCH   3   4
ENDBRANCH   2   3
ENDBRANCH   1   2
BRANCH   1  27
ATOM     27  C   UNL A   1      45.121  19.116  25.076  1.00  0.00     0.188 C 
BRANCH  27  28
ATOM     28  O   UNL A   1      45.214  20.495  25.419  1.00  0.00    -0.376 OA
BRANCH  28  29
ATOM     29  C   UNL A   1      46.299  21.243  24.894  1.00  0.00     0.202 C 
BRANCH  29  30
ATOM     30  C   UNL A   1      45.996  22.701  24.523  1.00  0.00     0.261 C 
BRANCH  30  31
ATOM     31  O   UNL A   1      45.051  23.375  25.367  1.00  0.00    -0.460 OA
BRANCH  31  32
ATOM     32  C   UNL A   1      43.810  23.569  24.869  1.00  0.00     0.338 C 
ATOM     33  O   UNL A   1      43.283  22.950  23.960  1.00  0.00    -0.246 OA
BRANCH  32  34
ATOM     34  C   UNL A   1      43.122  24.534  25.749  1.00  0.00     0.060 A 
ATOM     35  C   UNL A   1      43.454  25.892  25.660  1.00  0.00     0.016 A 
ATOM     36  C   UNL A   1      42.150  24.099  26.653  1.00  0.00     0.016 A 
ATOM     37  C   UNL A   1      42.839  26.816  26.505  1.00  0.00     0.010 A 
ATOM     38  C   UNL A   1      41.554  25.021  27.517  1.00  0.00     0.010 A 
ATOM     39  C   UNL A   1      41.924  26.377  27.471  1.00  0.00    -0.014 A 
BRANCH  39  40
ATOM     40  C   UNL A   1      41.544  27.283  28.581  1.00  0.00     0.031 A 
ATOM     41  C   UNL A   1      42.401  27.276  29.818  1.00  0.00     0.074 A 
ATOM     42  C   UNL A   1      40.496  28.122  28.484  1.00  0.00     0.049 A 
ATOM     43  N   UNL A   1      42.244  27.923  30.942  1.00  0.00    -0.248 NA
ATOM     44  C   UNL A   1      43.601  26.421  29.776  1.00  0.00     0.031 C 
ATOM     45  C   UNL A   1      39.641  28.275  27.309  1.00  0.00     0.029 A 
ATOM     46  N   UNL A   1      39.979  29.008  29.396  1.00  0.00    -0.354 N 
ATOM     47  C   UNL A   1      43.325  27.560  31.738  1.00  0.00     0.074 A 
ATOM     48  C   UNL A   1      44.109  26.607  30.985  1.00  0.00     0.031 C 
ATOM     49  C   UNL A   1      38.705  29.205  27.572  1.00  0.00     0.029 A 
ATOM     50  C   UNL A   1      38.867  29.679  28.947  1.00  0.00     0.049 A 
ATOM     51  H   UNL A   1      40.369  29.149  30.289  1.00  0.00     0.167 HD
ATOM     52  C   UNL A   1      43.640  27.990  32.982  1.00  0.00     0.034 A 
ATOM     53  C   UNL A   1      38.062  30.557  29.580  1.00  0.00     0.034 A 
ATOM     54  C   UNL A   1      42.847  28.932  33.728  1.00  0.00     0.049 A 
ATOM     55  C   UNL A   1      38.364  30.929  31.013  1.00  0.00     0.074 A 
ATOM     56  C   UNL A   1      43.070  29.422  35.002  1.00  0.00     0.029 A 
ATOM     57  N   UNL A   1      41.678  29.524  33.271  1.00  0.00    -0.354 N 
ATOM     58  N   UNL A   1      39.364  30.546  31.773  1.00  0.00    -0.248 NA
ATOM     59  C   UNL A   1      37.426  31.847  31.673  1.00  0.00     0.031 C 
ATOM     60  C   UNL A   1      42.002  30.257  35.342  1.00  0.00     0.029 A 
ATOM     61  C   UNL A   1      41.152  30.348  34.250  1.00  0.00     0.049 A 
ATOM     62  H   UNL A   1      41.282  29.378  32.382  1.00  0.00     0.167 HD
ATOM     63  C   UNL A   1      39.188  31.195  32.992  1.00  0.00     0.074 A 
ATOM     64  C   UNL A   1      37.991  32.002  32.864  1.00  0.00     0.031 C 
ATOM     65  C   UNL A   1      39.949  31.135  34.114  1.00  0.00     0.034 A 
BRANCH  52  66
ATOM     66  C   UNL A   1      44.872  27.415  33.628  1.00  0.00     0.023 A 
ATOM     67  C   UNL A   1      46.161  27.804  33.228  1.00  0.00     0.031 A 
ATOM     68  C   UNL A   1      44.753  26.478  34.669  1.00  0.00     0.131 A 
ATOM     69  C   UNL A   1      47.284  27.231  33.844  1.00  0.00     0.055 A 
ATOM     70  C   UNL A   1      45.873  25.959  35.319  1.00  0.00     0.041 A 
ATOM     71  F   UNL A   1      43.544  26.055  35.071  1.00  0.00    -0.206 F 
ATOM     72  C   UNL A   1      47.149  26.331  34.903  1.00  0.00     0.022 A 
BRANCH  69  73
ATOM     73  S   UNL A   1      48.929  27.621  33.188  1.00  0.00     0.124 S 
ATOM     74  O   UNL A   1      49.599  28.155  34.373  1.00  0.00    -0.237 OA
ATOM     75  O   UNL A   1      49.399  26.325  32.719  1.00  0.00    -0.237 OA
ATOM     76  O   UNL A   1      48.656  28.602  32.140  1.00  0.00    -0.744 OA
ENDBRANCH  69  73
ENDBRANCH  52  66
BRANCH  53  77
ATOM     77  C   UNL A   1      36.871  31.121  28.885  1.00  0.00     0.023 A 
ATOM     78  C   UNL A   1      35.868  30.283  28.371  1.00  0.00     0.031 A 
ATOM     79  C   UNL A   1      36.729  32.509  28.704  1.00  0.00     0.131 A 
ATOM     80  C   UNL A   1      34.778  30.840  27.684  1.00  0.00     0.055 A 
ATOM     81  C   UNL A   1      35.623  33.060  28.056  1.00  0.00     0.041 A 
ATOM     82  F   UNL A   1      37.663  33.352  29.174  1.00  0.00    -0.206 F 
ATOM     83  C   UNL A   1      34.642  32.222  27.535  1.00  0.00     0.022 A 
BRANCH  80  84
ATOM     84  S   UNL A   1      33.549  29.725  26.951  1.00  0.00     0.124 S 
ATOM     85  O   UNL A   1      32.559  30.668  26.442  1.00  0.00    -0.237 OA
ATOM     86  O   UNL A   1      34.338  29.020  25.948  1.00  0.00    -0.237 OA
ATOM     87  O   UNL A   1      33.111  28.909  28.082  1.00  0.00    -0.744 OA
ENDBRANCH  80  84
ENDBRANCH  53  77
BRANCH  65  88
ATOM     88  C   UNL A   1      39.531  31.982  35.289  1.00  0.00     0.023 A 
ATOM     89  C   UNL A   1      39.966  33.310  35.428  1.00  0.00     0.031 A 
ATOM     90  C   UNL A   1      38.646  31.469  36.255  1.00  0.00     0.131 A 
ATOM     91  C   UNL A   1      39.544  34.071  36.528  1.00  0.00     0.055 A 
ATOM     92  C   UNL A   1      38.187  32.247  37.317  1.00  0.00     0.041 A 
ATOM     93  F   UNL A   1      38.195  30.208  36.165  1.00  0.00    -0.206 F 
ATOM     94  C   UNL A   1      38.642  33.554  37.463  1.00  0.00     0.022 A 
BRANCH  91  95
ATOM     95  S   UNL A   1      40.229  35.735  36.751  1.00  0.00     0.124 S 
ATOM     96  O   UNL A   1      41.665  35.480  36.703  1.00  0.00    -0.237 OA
ATOM     97  O   UNL A   1      39.673  36.460  35.613  1.00  0.00    -0.237 OA
ATOM     98  O   UNL A   1      39.716  36.147  38.057  1.00  0.00    -0.744 OA
ENDBRANCH  91  95
ENDBRANCH  65  88
ENDBRANCH  39  40
ENDBRANCH  32  34
ENDBRANCH  31  32
ENDBRANCH  30  31
ENDBRANCH  29  30
ENDBRANCH  28  29
ENDBRANCH  27  28
ENDBRANCH   1  27
TORSDOF 24
ENDMDL
MODEL 2
REMARK VINA RESULT:     -10.3      3.508      9.827
REMARK SMILES Cc1cc(C)c2c(c1)C=C(C(=O)OCCOCCOCCOCCOC(=O)c1ccc(-c3c4nc(c(-c5cc(S(=O)(=O)[O-])ccc5F)c5ccc([nH]5)c(-c5cc(S(=O)(=O)[O-])ccc5F)c5nc(c(-c6cc(S(=O)(=O)[O-])ccc6F)c6ccc3[nH]6)C=C5)C=C4)cc1)[C@@H](C(F)(F)F)O2
REMARK SMILES IDX 20 1 19 2 18 3 17 4 16 5 15 6 14 7 13 8 11 9 12 10 10 11
REMARK SMILES IDX 1 12 2 13 3 14 8 15 4 16 7 17 5 18 6 19 9 20 96 21 91 22
REMARK SMILES IDX 92 23 93 24 94 25 95 26 21 27 22 28 23 29 24 30 25 31 26 32
REMARK SMILES IDX 27 33 28 34 29 35 90 36 30 37 89 38 31 39 32 40 33 41 83 42
REMARK SMILES IDX 34 43 88 44 82 45 84 46 35 47 87 48 81 49 80 50 36 52 68 53
REMARK SMILES IDX 48 54 67 55 49 56 52 57 66 58 85 59 50 60 51 61 65 63 86 64
REMARK SMILES IDX 53 65 37 66 38 67 46 68 39 69 45 70 47 71 44 72 40 73 41 74
REMARK SMILES IDX 42 75 43 76 69 77 70 78 78 79 71 80 77 81 79 82 76 83 72 84
REMARK SMILES IDX 73 85 74 86 75 87 54 88 55 89 63 90 56 91 62 92 64 93 61 94
REMARK SMILES IDX 57 95 58 96 59 97 60 98
REMARK H PARENT 84 51 52 62
REMARK Flexibility Score: inf
ROOT
ATOM      1  C   UNL A   1      35.673  32.832  28.291  1.00  0.00     0.188 C 
ENDROOT
BRANCH   1   2
ATOM      2  O   UNL A   1      35.649  31.573  27.619  1.00  0.00    -0.377 OA
BRANCH   2   3
ATOM      3  C   UNL A   1      34.411  30.885  27.581  1.00  0.00     0.188 C 
BRANCH   3   4
ATOM      4  C   UNL A   1      34.564  29.388  27.257  1.00  0.00     0.188 C 
BRANCH   4   5
ATOM      5  O   UNL A   1      33.484  28.750  26.605  1.00  0.00    -0.376 OA
BRANCH   5   6
ATOM      6  C   UNL A   1      32.769  29.325  25.521  1.00  0.00     0.202 C 
BRANCH   6   7
ATOM      7  C   UNL A   1      32.534  28.717  24.123  1.00  0.00     0.261 C 
BRANCH   7   8
ATOM      8  O   UNL A   1      32.721  27.316  23.960  1.00  0.00    -0.460 OA
BRANCH   8   9
ATOM      9  C   UNL A   1      31.963  26.506  24.719  1.00  0.00     0.338 C 
ATOM     10  O   UNL A   1      30.817  26.700  25.085  1.00  0.00    -0.246 OA
BRANCH   9  11
ATOM     11  C   UNL A   1      32.701  25.238  24.890  1.00  0.00     0.087 C 
ATOM     12  C   UNL A   1      38.347  23.130  26.073  1.00  0.00     0.044 C 
ATOM     13  C   UNL A   1      36.875  23.030  25.801  1.00  0.00    -0.050 A 
ATOM     14  C   UNL A   1      36.292  21.806  25.449  1.00  0.00     0.010 A 
ATOM     15  C   UNL A   1      36.089  24.185  25.790  1.00  0.00     0.015 A 
ATOM     16  C   UNL A   1      34.927  21.723  25.130  1.00  0.00    -0.008 A 
ATOM     17  C   UNL A   1      34.737  24.120  25.438  1.00  0.00     0.018 A 
ATOM     18  C   UNL A   1      34.325  20.404  24.734  1.00  0.00     0.048 C 
ATOM     19  C   UNL A   1      34.147  22.888  25.148  1.00  0.00     0.130 A 
ATOM     20  C   UNL A   1      33.975  25.344  25.282  1.00  0.00     0.027 C 
ATOM     21  O   UNL A   1      32.820  22.746  24.849  1.00  0.00    -0.475 OA
ATOM     22  C   UNL A   1      31.986  23.927  24.694  1.00  0.00     0.316 C 
BRANCH  22  23
ATOM     23  C   UNL A   1      31.299  23.841  23.326  1.00  0.00     0.430 C 
ATOM     24  F   UNL A   1      31.942  24.597  22.402  1.00  0.00    -0.167 F 
ATOM     25  F   UNL A   1      31.272  22.578  22.846  1.00  0.00    -0.167 F 
ATOM     26  F   UNL A   1      30.019  24.279  23.383  1.00  0.00    -0.167 F 
ENDBRANCH  22  23
ENDBRANCH   9  11
ENDBRANCH   8   9
ENDBRANCH   7   8
ENDBRANCH   6   7
ENDBRANCH   5   6
ENDBRANCH   4   5
ENDBRANCH   3   4
ENDBRANCH   2   3
ENDBRANCH   1   2
BRANCH   1  27
ATOM     27  C   UNL A   1      34.426  33.331  29.059  1.00  0.00     0.188 C 
BRANCH  27  28
ATOM     28  O   UNL A   1      34.296  34.749  29.096  1.00  0.00    -0.376 OA
BRANCH  28  29
ATOM     29  C   UNL A   1      32.988  35.300  29.098  1.00  0.00     0.202 C 
BRANCH  29  30
ATOM     30  C   UNL A   1      32.571  36.041  30.376  1.00  0.00     0.261 C 
BRANCH  30  31
ATOM     31  O   UNL A   1      32.586  35.261  31.581  1.00  0.00    -0.460 OA
BRANCH  31  32
ATOM     32  C   UNL A   1      33.452  35.638  32.547  1.00  0.00     0.338 C 
ATOM     33  O   UNL A   1      33.252  36.458  33.427  1.00  0.00    -0.246 OA
BRANCH  32  34
ATOM     34  C   UNL A   1      34.620  34.738  32.475  1.00  0.00     0.060 A 
ATOM     35  C   UNL A   1      34.458  33.387  32.811  1.00  0.00     0.016 A 
ATOM     36  C   UNL A   1      35.866  35.225  32.074  1.00  0.00     0.016 A 
ATOM     37  C   UNL A   1      35.554  32.526  32.781  1.00  0.00     0.010 A 
ATOM     38  C   UNL A   1      36.969  34.368  32.071  1.00  0.00     0.010 A 
ATOM     39  C   UNL A   1      36.823  33.024  32.460  1.00  0.00    -0.014 A 
BRANCH  39  40
ATOM     40  C   UNL A   1      38.025  32.211  32.766  1.00  0.00     0.031 A 
ATOM     41  C   UNL A   1      38.729  32.462  34.073  1.00  0.00     0.074 A 
ATOM     42  C   UNL A   1      38.460  31.248  31.933  1.00  0.00     0.049 A 
ATOM     43  N   UNL A   1      39.827  31.933  34.540  1.00  0.00    -0.248 NA
ATOM     44  C   UNL A   1      38.100  33.444  34.974  1.00  0.00     0.031 C 
ATOM     45  C   UNL A   1      37.817  30.860  30.680  1.00  0.00     0.029 A 
ATOM     46  N   UNL A   1      39.547  30.415  32.027  1.00  0.00    -0.354 N 
ATOM     47  C   UNL A   1      40.020  32.511  35.790  1.00  0.00     0.074 A 
ATOM     48  C   UNL A   1      38.947  33.459  35.992  1.00  0.00     0.031 C 
ATOM     49  C   UNL A   1      38.524  29.861  30.120  1.00  0.00     0.029 A 
ATOM     50  C   UNL A   1      39.691  29.569  30.953  1.00  0.00     0.049 A 
ATOM     51  H   UNL A   1      40.167  30.424  32.792  1.00  0.00     0.167 HD
ATOM     52  C   UNL A   1      40.998  32.265  36.692  1.00  0.00     0.034 A 
ATOM     53  C   UNL A   1      40.664  28.679  30.667  1.00  0.00     0.034 A 
ATOM     54  C   UNL A   1      42.068  31.326  36.478  1.00  0.00     0.049 A 
ATOM     55  C   UNL A   1      41.813  28.511  31.634  1.00  0.00     0.074 A 
ATOM     56  C   UNL A   1      43.119  31.015  37.322  1.00  0.00     0.029 A 
ATOM     57  N   UNL A   1      42.228  30.551  35.338  1.00  0.00    -0.354 N 
ATOM     58  N   UNL A   1      42.009  29.095  32.793  1.00  0.00    -0.248 NA
ATOM     59  C   UNL A   1      42.872  27.568  31.250  1.00  0.00     0.031 C 
ATOM     60  C   UNL A   1      43.949  30.102  36.666  1.00  0.00     0.029 A 
ATOM     61  C   UNL A   1      43.377  29.786  35.444  1.00  0.00     0.049 A 
ATOM     62  H   UNL A   1      41.614  30.546  34.568  1.00  0.00     0.167 HD
ATOM     63  C   UNL A   1      43.202  28.572  33.287  1.00  0.00     0.074 A 
ATOM     64  C   UNL A   1      43.676  27.619  32.304  1.00  0.00     0.031 C 
ATOM     65  C   UNL A   1      43.845  28.850  34.449  1.00  0.00     0.034 A 
BRANCH  52  66
ATOM     66  C   UNL A   1      40.979  33.053  37.975  1.00  0.00     0.023 A 
ATOM     67  C   UNL A   1      40.264  32.610  39.100  1.00  0.00     0.031 A 
ATOM     68  C   UNL A   1      41.698  34.257  38.077  1.00  0.00     0.131 A 
ATOM     69  C   UNL A   1      40.257  33.382  40.270  1.00  0.00     0.055 A 
ATOM     70  C   UNL A   1      41.738  34.989  39.264  1.00  0.00     0.041 A 
ATOM     71  F   UNL A   1      42.377  34.737  37.023  1.00  0.00    -0.206 F 
ATOM     72  C   UNL A   1      41.009  34.555  40.368  1.00  0.00     0.022 A 
BRANCH  69  73
ATOM     73  S   UNL A   1      39.186  32.873  41.642  1.00  0.00     0.124 S 
ATOM     74  O   UNL A   1      38.222  33.970  41.686  1.00  0.00    -0.237 OA
ATOM     75  O   UNL A   1      38.672  31.589  41.184  1.00  0.00    -0.237 OA
ATOM     76  O   UNL A   1      40.099  32.808  42.782  1.00  0.00    -0.744 OA
ENDBRANCH  69  73
ENDBRANCH  52  66
BRANCH  53  77
ATOM     77  C   UNL A   1      40.620  27.901  29.398  1.00  0.00     0.023 A 
ATOM     78  C   UNL A   1      41.525  28.162  28.357  1.00  0.00     0.031 A 
ATOM     79  C   UNL A   1      39.656  26.896  29.199  1.00  0.00     0.131 A 
ATOM     80  C   UNL A   1      41.435  27.440  27.156  1.00  0.00     0.055 A 
ATOM     81  C   UNL A   1      39.596  26.154  28.018  1.00  0.00     0.041 A 
ATOM     82  F   UNL A   1      38.765  26.611  30.162  1.00  0.00    -0.206 F 
ATOM     83  C   UNL A   1      40.486  26.430  26.984  1.00  0.00     0.022 A 
BRANCH  80  84
ATOM     84  S   UNL A   1      42.559  27.867  25.797  1.00  0.00     0.124 S 
ATOM     85  O   UNL A   1      43.611  28.593  26.500  1.00  0.00    -0.237 OA
ATOM     86  O   UNL A   1      42.923  26.552  25.280  1.00  0.00    -0.237 OA
ATOM     87  O   UNL A   1      41.728  28.675  24.908  1.00  0.00    -0.744 OA
ENDBRANCH  80  84
ENDBRANCH  53  77
BRANCH  65  88
ATOM     88  C   UNL A   1      45.118  28.099  34.741  1.00  0.00     0.023 A 
ATOM     89  C   UNL A   1      45.098  26.814  35.309  1.00  0.00     0.031 A 
ATOM     90  C   UNL A   1      46.365  28.655  34.402  1.00  0.00     0.131 A 
ATOM     91  C   UNL A   1      46.304  26.141  35.553  1.00  0.00     0.055 A 
ATOM     92  C   UNL A   1      47.558  27.959  34.597  1.00  0.00     0.041 A 
ATOM     93  F   UNL A   1      46.439  29.878  33.852  1.00  0.00    -0.206 F 
ATOM     94  C   UNL A   1      47.533  26.697  35.183  1.00  0.00     0.022 A 
BRANCH  91  95
ATOM     95  S   UNL A   1      46.252  24.542  36.408  1.00  0.00     0.124 S 
ATOM     96  O   UNL A   1      46.891  23.659  35.436  1.00  0.00    -0.237 OA
ATOM     97  O   UNL A   1      47.015  24.809  37.623  1.00  0.00    -0.237 OA
ATOM     98  O   UNL A   1      44.824  24.308  36.613  1.00  0.00    -0.744 OA
ENDBRANCH  91  95
ENDBRANCH  65  88
ENDBRANCH  39  40
ENDBRANCH  32  34
ENDBRANCH  31  32
ENDBRANCH  30  31
ENDBRANCH  29  30
ENDBRANCH  28  29
ENDBRANCH  27  28
ENDBRANCH   1  27
TORSDOF 24
ENDMDL
MODEL 3
REMARK VINA RESULT:     -10.2      3.669      4.174
REMARK SMILES Cc1cc(C)c2c(c1)C=C(C(=O)OCCOCCOCCOCCOC(=O)c1ccc(-c3c4nc(c(-c5cc(S(=O)(=O)[O-])ccc5F)c5ccc([nH]5)c(-c5cc(S(=O)(=O)[O-])ccc5F)c5nc(c(-c6cc(S(=O)(=O)[O-])ccc6F)c6ccc3[nH]6)C=C5)C=C4)cc1)[C@@H](C(F)(F)F)O2
REMARK SMILES IDX 20 1 19 2 18 3 17 4 16 5 15 6 14 7 13 8 11 9 12 10 10 11
REMARK SMILES IDX 1 12 2 13 3 14 8 15 4 16 7 17 5 18 6 19 9 20 96 21 91 22
REMARK SMILES IDX 92 23 93 24 94 25 95 26 21 27 22 28 23 29 24 30 25 31 26 32
REMARK SMILES IDX 27 33 28 34 29 35 90 36 30 37 89 38 31 39 32 40 33 41 83 42
REMARK SMILES IDX 34 43 88 44 82 45 84 46 35 47 87 48 81 49 80 50 36 52 68 53
REMARK SMILES IDX 48 54 67 55 49 56 52 57 66 58 85 59 50 60 51 61 65 63 86 64
REMARK SMILES IDX 53 65 37 66 38 67 46 68 39 69 45 70 47 71 44 72 40 73 41 74
REMARK SMILES IDX 42 75 43 76 69 77 70 78 78 79 71 80 77 81 79 82 76 83 72 84
REMARK SMILES IDX 73 85 74 86 75 87 54 88 55 89 63 90 56 91 62 92 64 93 61 94
REMARK SMILES IDX 57 95 58 96 59 97 60 98
REMARK H PARENT 84 51 52 62
REMARK Flexibility Score: inf
ROOT
ATOM      1  C   UNL A   1      43.659  18.615  25.391  1.00  0.00     0.188 C 
ENDROOT
BRANCH   1   2
ATOM      2  O   UNL A   1      42.429  19.314  25.199  1.00  0.00    -0.377 OA
BRANCH   2   3
ATOM      3  C   UNL A   1      41.843  19.914  26.340  1.00  0.00     0.188 C 
BRANCH   3   4
ATOM      4  C   UNL A   1      40.381  20.341  26.112  1.00  0.00     0.188 C 
BRANCH   4   5
ATOM      5  O   UNL A   1      40.111  21.726  26.044  1.00  0.00    -0.376 OA
BRANCH   5   6
ATOM      6  C   UNL A   1      38.807  22.280  26.142  1.00  0.00     0.202 C 
BRANCH   6   7
ATOM      7  C   UNL A   1      37.617  22.056  25.185  1.00  0.00     0.261 C 
BRANCH   7   8
ATOM      8  O   UNL A   1      36.486  22.910  25.311  1.00  0.00    -0.460 OA
BRANCH   8   9
ATOM      9  C   UNL A   1      35.837  23.233  24.179  1.00  0.00     0.338 C 
ATOM     10  O   UNL A   1      36.124  22.898  23.044  1.00  0.00    -0.246 OA
BRANCH   9  11
ATOM     11  C   UNL A   1      34.592  23.929  24.565  1.00  0.00     0.087 C 
ATOM     12  C   UNL A   1      32.659  29.007  27.430  1.00  0.00     0.044 C 
ATOM     13  C   UNL A   1      32.514  27.720  26.671  1.00  0.00    -0.050 A 
ATOM     14  C   UNL A   1      31.274  27.077  26.582  1.00  0.00     0.010 A 
ATOM     15  C   UNL A   1      33.644  27.096  26.136  1.00  0.00     0.015 A 
ATOM     16  C   UNL A   1      31.149  25.840  25.928  1.00  0.00    -0.008 A 
ATOM     17  C   UNL A   1      33.537  25.847  25.515  1.00  0.00     0.018 A 
ATOM     18  C   UNL A   1      29.812  25.154  25.863  1.00  0.00     0.048 C 
ATOM     19  C   UNL A   1      32.288  25.239  25.375  1.00  0.00     0.130 A 
ATOM     20  C   UNL A   1      34.737  25.145  25.103  1.00  0.00     0.027 C 
ATOM     21  O   UNL A   1      32.105  24.046  24.733  1.00  0.00    -0.475 OA
ATOM     22  C   UNL A   1      33.260  23.290  24.274  1.00  0.00     0.316 C 
BRANCH  22  23
ATOM     23  C   UNL A   1      33.158  21.876  24.857  1.00  0.00     0.430 C 
ATOM     24  F   UNL A   1      31.866  21.488  24.988  1.00  0.00    -0.167 F 
ATOM     25  F   UNL A   1      33.764  20.955  24.073  1.00  0.00    -0.167 F 
ATOM     26  F   UNL A   1      33.727  21.799  26.083  1.00  0.00    -0.167 F 
ENDBRANCH  22  23
ENDBRANCH   9  11
ENDBRANCH   8   9
ENDBRANCH   7   8
ENDBRANCH   6   7
ENDBRANCH   5   6
ENDBRANCH   4   5
ENDBRANCH   3   4
ENDBRANCH   2   3
ENDBRANCH   1   2
BRANCH   1  27
ATOM     27  C   UNL A   1      45.004  19.284  25.024  1.00  0.00     0.188 C 
BRANCH  27  28
ATOM     28  O   UNL A   1      45.060  20.676  25.321  1.00  0.00    -0.376 OA
BRANCH  28  29
ATOM     29  C   UNL A   1      46.029  21.464  24.647  1.00  0.00     0.202 C 
BRANCH  29  30
ATOM     30  C   UNL A   1      45.528  22.791  24.062  1.00  0.00     0.261 C 
BRANCH  30  31
ATOM     31  O   UNL A   1      44.961  23.713  25.004  1.00  0.00    -0.460 OA
BRANCH  31  32
ATOM     32  C   UNL A   1      43.612  23.767  25.075  1.00  0.00     0.338 C 
ATOM     33  O   UNL A   1      42.827  22.914  24.699  1.00  0.00    -0.246 OA
BRANCH  32  34
ATOM     34  C   UNL A   1      43.255  24.958  25.871  1.00  0.00     0.060 A 
ATOM     35  C   UNL A   1      43.146  26.198  25.228  1.00  0.00     0.016 A 
ATOM     36  C   UNL A   1      43.024  24.848  27.244  1.00  0.00     0.016 A 
ATOM     37  C   UNL A   1      42.842  27.341  25.967  1.00  0.00     0.010 A 
ATOM     38  C   UNL A   1      42.745  25.997  27.987  1.00  0.00     0.010 A 
ATOM     39  C   UNL A   1      42.690  27.253  27.356  1.00  0.00    -0.014 A 
BRANCH  39  40
ATOM     40  C   UNL A   1      42.718  28.490  28.173  1.00  0.00     0.031 A 
ATOM     41  C   UNL A   1      44.062  29.083  28.503  1.00  0.00     0.074 A 
ATOM     42  C   UNL A   1      41.588  29.099  28.577  1.00  0.00     0.049 A 
ATOM     43  N   UNL A   1      44.354  30.115  29.248  1.00  0.00    -0.248 NA
ATOM     44  C   UNL A   1      45.233  28.419  27.905  1.00  0.00     0.031 C 
ATOM     45  C   UNL A   1      40.231  28.665  28.254  1.00  0.00     0.029 A 
ATOM     46  N   UNL A   1      41.409  30.222  29.345  1.00  0.00    -0.354 N 
ATOM     47  C   UNL A   1      45.739  30.228  29.206  1.00  0.00     0.074 A 
ATOM     48  C   UNL A   1      46.232  29.138  28.393  1.00  0.00     0.031 C 
ATOM     49  C   UNL A   1      39.356  29.515  28.820  1.00  0.00     0.029 A 
ATOM     50  C   UNL A   1      40.089  30.527  29.581  1.00  0.00     0.049 A 
ATOM     51  H   UNL A   1      42.157  30.759  29.696  1.00  0.00     0.167 HD
ATOM     52  C   UNL A   1      46.529  31.163  29.784  1.00  0.00     0.034 A 
ATOM     53  C   UNL A   1      39.540  31.498  30.340  1.00  0.00     0.034 A 
ATOM     54  C   UNL A   1      46.030  32.239  30.600  1.00  0.00     0.049 A 
ATOM     55  C   UNL A   1      40.446  32.457  31.076  1.00  0.00     0.074 A 
ATOM     56  C   UNL A   1      46.747  33.231  31.245  1.00  0.00     0.029 A 
ATOM     57  N   UNL A   1      44.691  32.463  30.886  1.00  0.00    -0.354 N 
ATOM     58  N   UNL A   1      41.757  32.528  31.065  1.00  0.00    -0.248 NA
ATOM     59  C   UNL A   1      39.798  33.461  31.930  1.00  0.00     0.031 C 
ATOM     60  C   UNL A   1      45.849  34.013  31.975  1.00  0.00     0.029 A 
ATOM     61  C   UNL A   1      44.564  33.557  31.725  1.00  0.00     0.049 A 
ATOM     62  H   UNL A   1      43.942  31.923  30.544  1.00  0.00     0.167 HD
ATOM     63  C   UNL A   1      42.088  33.599  31.891  1.00  0.00     0.074 A 
ATOM     64  C   UNL A   1      40.840  34.150  32.377  1.00  0.00     0.031 C 
ATOM     65  C   UNL A   1      43.313  34.086  32.214  1.00  0.00     0.034 A 
BRANCH  52  66
ATOM     66  C   UNL A   1      48.016  31.038  29.588  1.00  0.00     0.023 A 
ATOM     67  C   UNL A   1      48.699  31.807  28.631  1.00  0.00     0.031 A 
ATOM     68  C   UNL A   1      48.763  30.150  30.381  1.00  0.00     0.131 A 
ATOM     69  C   UNL A   1      50.083  31.648  28.467  1.00  0.00     0.055 A 
ATOM     70  C   UNL A   1      50.148  30.042  30.257  1.00  0.00     0.041 A 
ATOM     71  F   UNL A   1      48.155  29.375  31.294  1.00  0.00    -0.206 F 
ATOM     72  C   UNL A   1      50.815  30.790  29.291  1.00  0.00     0.022 A 
BRANCH  69  73
ATOM     73  S   UNL A   1      50.904  32.524  27.108  1.00  0.00     0.124 S 
ATOM     74  O   UNL A   1      52.303  32.165  27.330  1.00  0.00    -0.237 OA
ATOM     75  O   UNL A   1      50.275  31.942  25.929  1.00  0.00    -0.237 OA
ATOM     76  O   UNL A   1      50.580  33.926  27.360  1.00  0.00    -0.744 OA
ENDBRANCH  69  73
ENDBRANCH  52  66
BRANCH  53  77
ATOM     77  C   UNL A   1      38.060  31.597  30.475  1.00  0.00     0.023 A 
ATOM     78  C   UNL A   1      37.275  32.164  29.458  1.00  0.00     0.031 A 
ATOM     79  C   UNL A   1      37.408  31.144  31.637  1.00  0.00     0.131 A 
ATOM     80  C   UNL A   1      35.887  32.282  29.629  1.00  0.00     0.055 A 
ATOM     81  C   UNL A   1      36.022  31.226  31.786  1.00  0.00     0.041 A 
ATOM     82  F   UNL A   1      38.113  30.597  32.640  1.00  0.00    -0.206 F 
ATOM     83  C   UNL A   1      35.254  31.805  30.780  1.00  0.00     0.022 A 
BRANCH  80  84
ATOM     84  S   UNL A   1      34.916  33.104  28.337  1.00  0.00     0.124 S 
ATOM     85  O   UNL A   1      35.963  33.691  27.508  1.00  0.00    -0.237 OA
ATOM     86  O   UNL A   1      34.184  31.987  27.750  1.00  0.00    -0.237 OA
ATOM     87  O   UNL A   1      34.098  34.059  29.081  1.00  0.00    -0.744 OA
ENDBRANCH  80  84
ENDBRANCH  53  77
BRANCH  65  88
ATOM     88  C   UNL A   1      43.369  35.293  33.116  1.00  0.00     0.023 A 
ATOM     89  C   UNL A   1      43.468  36.594  32.597  1.00  0.00     0.031 A 
ATOM     90  C   UNL A   1      43.273  35.141  34.512  1.00  0.00     0.131 A 
ATOM     91  C   UNL A   1      43.504  37.692  33.468  1.00  0.00     0.055 A 
ATOM     92  C   UNL A   1      43.255  36.239  35.370  1.00  0.00     0.041 A 
ATOM     93  F   UNL A   1      43.172  33.919  35.059  1.00  0.00    -0.206 F 
ATOM     94  C   UNL A   1      43.379  37.524  34.851  1.00  0.00     0.022 A 
BRANCH  91  95
ATOM     95  S   UNL A   1      43.766  39.347  32.775  1.00  0.00     0.124 S 
ATOM     96  O   UNL A   1      42.642  40.091  33.337  1.00  0.00    -0.237 OA
ATOM     97  O   UNL A   1      45.085  39.700  33.290  1.00  0.00    -0.237 OA
ATOM     98  O   UNL A   1      43.705  39.129  31.331  1.00  0.00    -0.744 OA
ENDBRANCH  91  95
ENDBRANCH  65  88
ENDBRANCH  39  40
ENDBRANCH  32  34
ENDBRANCH  31  32
ENDBRANCH  30  31
ENDBRANCH  29  30
ENDBRANCH  28  29
ENDBRANCH  27  28
ENDBRANCH   1  27
TORSDOF 24
ENDMDL
