MODEL 1
REMARK VINA RESULT:      -7.4      0.000      0.000
REMARK SMILES [NH3+][C@@H](CSCc1nccs1)C(=O)OCCOCCOCCOCCOC(=O)c1ccc(-c2c3nc(c(-c4cc(S(=O)(=O)[O-])ccc4F)c4ccc([nH]4)c(-c4cc(S(=O)(=O)[O-])ccc4F)c4nc(c(-c5cc(S(=O)(=O)[O-])ccc5F)c5ccc2[nH]5)C=C4)C=C3)cc1
REMARK SMILES IDX 18 1 17 2 16 3 15 4 14 5 13 6 11 7 12 8 2 9 1 10 3 14 4 15
REMARK SMILES IDX 5 16 6 17 7 18 10 19 8 20 9 21 19 22 20 23 21 24 22 25 23 26
REMARK SMILES IDX 24 27 25 28 26 29 27 30 28 31 29 32 90 33 30 34 89 35 31 36
REMARK SMILES IDX 32 37 33 38 83 39 34 40 88 41 82 42 84 43 35 44 87 45 81 46
REMARK SMILES IDX 80 47 36 49 68 50 48 51 67 52 49 53 52 54 66 55 85 56 50 57
REMARK SMILES IDX 51 58 65 60 86 61 53 62 37 63 38 64 46 65 39 66 45 67 47 68
REMARK SMILES IDX 44 69 40 70 41 71 42 72 43 73 69 74 70 75 78 76 71 77 77 78
REMARK SMILES IDX 79 79 76 80 72 81 73 82 74 83 75 84 54 85 55 86 63 87 56 88
REMARK SMILES IDX 62 89 64 90 61 91 57 92 58 93 59 94 60 95
REMARK H PARENT 1 11 1 12 1 13 84 48 52 59
REMARK Flexibility Score: inf
ROOT
ATOM      1  C   UNL A   1      39.194  23.083  26.519  1.00  0.00     0.188 C 
ENDROOT
BRANCH   1   2
ATOM      2  C   UNL A   1      38.283  22.117  25.747  1.00  0.00     0.188 C 
BRANCH   2   3
ATOM      3  O   UNL A   1      36.903  22.402  25.537  1.00  0.00    -0.376 OA
BRANCH   3   4
ATOM      4  C   UNL A   1      36.177  21.845  24.449  1.00  0.00     0.202 C 
BRANCH   4   5
ATOM      5  C   UNL A   1      35.227  22.665  23.564  1.00  0.00     0.261 C 
BRANCH   5   6
ATOM      6  O   UNL A   1      35.099  24.048  23.891  1.00  0.00    -0.459 OA
BRANCH   6   7
ATOM      7  C   UNL A   1      33.992  24.669  23.406  1.00  0.00     0.365 C 
ATOM      8  O   UNL A   1      33.720  24.800  22.217  1.00  0.00    -0.245 OA
BRANCH   7   9
ATOM      9  C   UNL A   1      33.110  25.225  24.527  1.00  0.00     0.301 C 
BRANCH   9  10
ATOM     10  N   UNL A   1      33.648  24.997  25.878  1.00  0.00    -0.345 N 
ATOM     11  H   UNL A   1      34.415  25.646  26.053  1.00  0.00     0.345 HD
ATOM     12  H   UNL A   1      33.991  24.039  25.949  1.00  0.00     0.345 HD
ATOM     13  H   UNL A   1      32.912  25.146  26.567  1.00  0.00     0.345 HD
ENDBRANCH   9  10
BRANCH   9  14
ATOM     14  C   UNL A   1      32.737  26.675  24.237  1.00  0.00     0.147 C 
BRANCH  14  15
ATOM     15  S   UNL A   1      30.996  27.107  23.839  1.00  0.00    -0.148 SA
BRANCH  15  16
ATOM     16  C   UNL A   1      31.054  28.832  23.253  1.00  0.00     0.137 C 
BRANCH  16  17
ATOM     17  C   UNL A   1      29.819  29.698  23.297  1.00  0.00     0.102 A 
ATOM     18  N   UNL A   1      29.807  30.855  23.936  1.00  0.00    -0.249 NA
ATOM     19  S   UNL A   1      28.341  29.327  22.493  1.00  0.00    -0.126 S 
ATOM     20  C   UNL A   1      28.590  31.486  23.780  1.00  0.00     0.123 A 
ATOM     21  C   UNL A   1      27.644  30.772  23.083  1.00  0.00     0.087 A 
ENDBRANCH  16  17
ENDBRANCH  15  16
ENDBRANCH  14  15
ENDBRANCH   9  14
ENDBRANCH   7   9
ENDBRANCH   6   7
ENDBRANCH   5   6
ENDBRANCH   4   5
ENDBRANCH   3   4
ENDBRANCH   2   3
ENDBRANCH   1   2
BRANCH   1  22
ATOM     22  O   UNL A   1      40.351  22.469  27.051  1.00  0.00    -0.377 OA
BRANCH  22  23
ATOM     23  C   UNL A   1      41.092  21.661  26.139  1.00  0.00     0.188 C 
BRANCH  23  24
ATOM     24  C   UNL A   1      42.476  21.123  26.588  1.00  0.00     0.188 C 
BRANCH  24  25
ATOM     25  O   UNL A   1      43.581  21.619  25.844  1.00  0.00    -0.376 OA
BRANCH  25  26
ATOM     26  C   UNL A   1      43.349  22.581  24.824  1.00  0.00     0.202 C 
BRANCH  26  27
ATOM     27  C   UNL A   1      43.574  24.068  25.149  1.00  0.00     0.261 C 
BRANCH  27  28
ATOM     28  O   UNL A   1      42.430  24.815  25.586  1.00  0.00    -0.460 OA
BRANCH  28  29
ATOM     29  C   UNL A   1      42.508  26.162  25.573  1.00  0.00     0.338 C 
ATOM     30  O   UNL A   1      42.396  26.894  24.605  1.00  0.00    -0.246 OA
BRANCH  29  31
ATOM     31  C   UNL A   1      42.543  26.608  26.983  1.00  0.00     0.060 A 
ATOM     32  C   UNL A   1      41.701  25.996  27.923  1.00  0.00     0.016 A 
ATOM     33  C   UNL A   1      43.431  27.612  27.375  1.00  0.00     0.016 A 
ATOM     34  C   UNL A   1      41.723  26.408  29.257  1.00  0.00     0.010 A 
ATOM     35  C   UNL A   1      43.434  28.040  28.702  1.00  0.00     0.010 A 
ATOM     36  C   UNL A   1      42.558  27.464  29.641  1.00  0.00    -0.014 A 
BRANCH  36  37
ATOM     37  C   UNL A   1      42.371  28.141  30.947  1.00  0.00     0.031 A 
ATOM     38  C   UNL A   1      41.401  29.285  31.003  1.00  0.00     0.074 A 
ATOM     39  C   UNL A   1      43.080  27.795  32.034  1.00  0.00     0.049 A 
ATOM     40  N   UNL A   1      41.201  30.167  31.945  1.00  0.00    -0.248 NA
ATOM     41  C   UNL A   1      40.557  29.467  29.811  1.00  0.00     0.031 C 
ATOM     42  C   UNL A   1      44.008  26.671  32.114  1.00  0.00     0.029 A 
ATOM     43  N   UNL A   1      43.151  28.386  33.271  1.00  0.00    -0.354 N 
ATOM     44  C   UNL A   1      40.229  31.030  31.450  1.00  0.00     0.074 A 
ATOM     45  C   UNL A   1      39.908  30.579  30.113  1.00  0.00     0.031 C 
ATOM     46  C   UNL A   1      44.588  26.677  33.326  1.00  0.00     0.029 A 
ATOM     47  C   UNL A   1      44.116  27.837  34.083  1.00  0.00     0.049 A 
ATOM     48  H   UNL A   1      42.569  29.130  33.549  1.00  0.00     0.167 HD
ATOM     49  C   UNL A   1      39.663  32.103  32.056  1.00  0.00     0.034 A 
ATOM     50  C   UNL A   1      44.599  28.256  35.270  1.00  0.00     0.034 A 
ATOM     51  C   UNL A   1      40.021  32.544  33.383  1.00  0.00     0.049 A 
ATOM     52  C   UNL A   1      44.028  29.505  35.899  1.00  0.00     0.074 A 
ATOM     53  C   UNL A   1      39.500  33.597  34.110  1.00  0.00     0.029 A 
ATOM     54  N   UNL A   1      41.013  31.969  34.170  1.00  0.00    -0.354 N 
ATOM     55  N   UNL A   1      43.106  30.318  35.434  1.00  0.00    -0.248 NA
ATOM     56  C   UNL A   1      44.558  29.892  37.213  1.00  0.00     0.031 C 
ATOM     57  C   UNL A   1      40.239  33.720  35.292  1.00  0.00     0.029 A 
ATOM     58  C   UNL A   1      41.150  32.675  35.355  1.00  0.00     0.049 A 
ATOM     59  H   UNL A   1      41.542  31.177  33.922  1.00  0.00     0.167 HD
ATOM     60  C   UNL A   1      42.923  31.292  36.414  1.00  0.00     0.074 A 
ATOM     61  C   UNL A   1      43.832  30.966  37.493  1.00  0.00     0.031 C 
ATOM     62  C   UNL A   1      42.067  32.347  36.425  1.00  0.00     0.034 A 
BRANCH  49  63
ATOM     63  C   UNL A   1      38.669  32.906  31.248  1.00  0.00     0.023 A 
ATOM     64  C   UNL A   1      37.282  32.710  31.367  1.00  0.00     0.031 A 
ATOM     65  C   UNL A   1      39.120  33.826  30.286  1.00  0.00     0.131 A 
ATOM     66  C   UNL A   1      36.407  33.335  30.466  1.00  0.00     0.055 A 
ATOM     67  C   UNL A   1      38.235  34.525  29.463  1.00  0.00     0.041 A 
ATOM     68  F   UNL A   1      40.433  34.039  30.103  1.00  0.00    -0.206 F 
ATOM     69  C   UNL A   1      36.871  34.264  29.534  1.00  0.00     0.022 A 
BRANCH  66  70
ATOM     70  S   UNL A   1      34.688  32.758  30.394  1.00  0.00     0.124 S 
ATOM     71  O   UNL A   1      34.758  31.753  29.335  1.00  0.00    -0.237 OA
ATOM     72  O   UNL A   1      34.468  32.250  31.743  1.00  0.00    -0.237 OA
ATOM     73  O   UNL A   1      33.936  33.963  30.048  1.00  0.00    -0.744 OA
ENDBRANCH  66  70
ENDBRANCH  49  63
BRANCH  50  74
ATOM     74  C   UNL A   1      45.731  27.522  35.907  1.00  0.00     0.023 A 
ATOM     75  C   UNL A   1      45.512  26.523  36.867  1.00  0.00     0.031 A 
ATOM     76  C   UNL A   1      47.061  27.819  35.554  1.00  0.00     0.131 A 
ATOM     77  C   UNL A   1      46.607  25.870  37.458  1.00  0.00     0.055 A 
ATOM     78  C   UNL A   1      48.144  27.132  36.107  1.00  0.00     0.041 A 
ATOM     79  F   UNL A   1      47.327  28.769  34.643  1.00  0.00    -0.206 F 
ATOM     80  C   UNL A   1      47.919  26.154  37.071  1.00  0.00     0.022 A 
BRANCH  77  81
ATOM     81  S   UNL A   1      46.296  24.675  38.786  1.00  0.00     0.124 S 
ATOM     82  O   UNL A   1      46.395  25.517  39.973  1.00  0.00    -0.237 OA
ATOM     83  O   UNL A   1      44.960  24.191  38.452  1.00  0.00    -0.237 OA
ATOM     84  O   UNL A   1      47.369  23.696  38.622  1.00  0.00    -0.744 OA
ENDBRANCH  77  81
ENDBRANCH  50  74
BRANCH  62  85
ATOM     85  C   UNL A   1      42.015  33.197  37.674  1.00  0.00     0.023 A 
ATOM     86  C   UNL A   1      41.202  32.874  38.774  1.00  0.00     0.031 A 
ATOM     87  C   UNL A   1      42.837  34.337  37.773  1.00  0.00     0.131 A 
ATOM     88  C   UNL A   1      41.203  33.702  39.909  1.00  0.00     0.055 A 
ATOM     89  C   UNL A   1      42.879  35.119  38.927  1.00  0.00     0.041 A 
ATOM     90  F   UNL A   1      43.630  34.699  36.751  1.00  0.00    -0.206 F 
ATOM     91  C   UNL A   1      42.052  34.807  40.002  1.00  0.00     0.022 A 
BRANCH  88  92
ATOM     92  S   UNL A   1      40.022  33.360  41.243  1.00  0.00     0.124 S 
ATOM     93  O   UNL A   1      40.908  33.114  42.377  1.00  0.00    -0.237 OA
ATOM     94  O   UNL A   1      39.243  34.592  41.297  1.00  0.00    -0.237 OA
ATOM     95  O   UNL A   1      39.292  32.187  40.764  1.00  0.00    -0.744 OA
ENDBRANCH  88  92
ENDBRANCH  62  85
ENDBRANCH  36  37
ENDBRANCH  29  31
ENDBRANCH  28  29
ENDBRANCH  27  28
ENDBRANCH  26  27
ENDBRANCH  25  26
ENDBRANCH  24  25
ENDBRANCH  23  24
ENDBRANCH  22  23
ENDBRANCH   1  22
TORSDOF 28
ENDMDL
MODEL 2
REMARK VINA RESULT:      -7.3      4.887      7.545
REMARK SMILES [NH3+][C@@H](CSCc1nccs1)C(=O)OCCOCCOCCOCCOC(=O)c1ccc(-c2c3nc(c(-c4cc(S(=O)(=O)[O-])ccc4F)c4ccc([nH]4)c(-c4cc(S(=O)(=O)[O-])ccc4F)c4nc(c(-c5cc(S(=O)(=O)[O-])ccc5F)c5ccc2[nH]5)C=C4)C=C3)cc1
REMARK SMILES IDX 18 1 17 2 16 3 15 4 14 5 13 6 11 7 12 8 2 9 1 10 3 14 4 15
REMARK SMILES IDX 5 16 6 17 7 18 10 19 8 20 9 21 19 22 20 23 21 24 22 25 23 26
REMARK SMILES IDX 24 27 25 28 26 29 27 30 28 31 29 32 90 33 30 34 89 35 31 36
REMARK SMILES IDX 32 37 33 38 83 39 34 40 88 41 82 42 84 43 35 44 87 45 81 46
REMARK SMILES IDX 80 47 36 49 68 50 48 51 67 52 49 53 52 54 66 55 85 56 50 57
REMARK SMILES IDX 51 58 65 60 86 61 53 62 37 63 38 64 46 65 39 66 45 67 47 68
REMARK SMILES IDX 44 69 40 70 41 71 42 72 43 73 69 74 70 75 78 76 71 77 77 78
REMARK SMILES IDX 79 79 76 80 72 81 73 82 74 83 75 84 54 85 55 86 63 87 56 88
REMARK SMILES IDX 62 89 64 90 61 91 57 92 58 93 59 94 60 95
REMARK H PARENT 1 11 1 12 1 13 84 48 52 59
REMARK Flexibility Score: inf
ROOT
ATOM      1  C   UNL A   1      45.443  18.795  24.596  1.00  0.00     0.188 C 
ENDROOT
BRANCH   1   2
ATOM      2  C   UNL A   1      46.061  19.944  25.408  1.00  0.00     0.188 C 
BRANCH   2   3
ATOM      3  O   UNL A   1      46.171  21.259  24.873  1.00  0.00    -0.376 OA
BRANCH   3   4
ATOM      4  C   UNL A   1      45.463  22.359  25.428  1.00  0.00     0.202 C 
BRANCH   4   5
ATOM      5  C   UNL A   1      45.974  23.170  26.628  1.00  0.00     0.261 C 
BRANCH   5   6
ATOM      6  O   UNL A   1      45.388  24.459  26.811  1.00  0.00    -0.459 OA
BRANCH   6   7
ATOM      7  C   UNL A   1      45.380  25.263  25.716  1.00  0.00     0.365 C 
ATOM      8  O   UNL A   1      44.408  25.465  24.996  1.00  0.00    -0.245 OA
BRANCH   7   9
ATOM      9  C   UNL A   1      46.753  25.888  25.455  1.00  0.00     0.301 C 
BRANCH   9  10
ATOM     10  N   UNL A   1      47.556  25.166  24.456  1.00  0.00    -0.345 N 
ATOM     11  H   UNL A   1      48.341  24.707  24.918  1.00  0.00     0.345 HD
ATOM     12  H   UNL A   1      47.908  25.826  23.763  1.00  0.00     0.345 HD
ATOM     13  H   UNL A   1      46.976  24.465  23.995  1.00  0.00     0.345 HD
ENDBRANCH   9  10
BRANCH   9  14
ATOM     14  C   UNL A   1      46.612  27.383  25.185  1.00  0.00     0.147 C 
BRANCH  14  15
ATOM     15  S   UNL A   1      47.006  28.591  26.513  1.00  0.00    -0.148 SA
BRANCH  15  16
ATOM     16  C   UNL A   1      45.858  29.982  26.248  1.00  0.00     0.137 C 
BRANCH  16  17
ATOM     17  C   UNL A   1      46.305  31.401  26.495  1.00  0.00     0.102 A 
ATOM     18  N   UNL A   1      47.576  31.754  26.403  1.00  0.00    -0.249 NA
ATOM     19  S   UNL A   1      45.242  32.709  26.857  1.00  0.00    -0.126 S 
ATOM     20  C   UNL A   1      47.723  33.109  26.612  1.00  0.00     0.123 A 
ATOM     21  C   UNL A   1      46.570  33.781  26.941  1.00  0.00     0.087 A 
ENDBRANCH  16  17
ENDBRANCH  15  16
ENDBRANCH  14  15
ENDBRANCH   9  14
ENDBRANCH   7   9
ENDBRANCH   6   7
ENDBRANCH   5   6
ENDBRANCH   4   5
ENDBRANCH   3   4
ENDBRANCH   2   3
ENDBRANCH   1   2
BRANCH   1  22
ATOM     22  O   UNL A   1      44.030  18.774  24.627  1.00  0.00    -0.377 OA
BRANCH  22  23
ATOM     23  C   UNL A   1      43.439  19.073  25.890  1.00  0.00     0.188 C 
BRANCH  23  24
ATOM     24  C   UNL A   1      41.897  19.216  25.966  1.00  0.00     0.188 C 
BRANCH  24  25
ATOM     25  O   UNL A   1      41.414  19.896  27.117  1.00  0.00    -0.376 OA
BRANCH  25  26
ATOM     26  C   UNL A   1      40.495  20.966  26.950  1.00  0.00     0.202 C 
BRANCH  26  27
ATOM     27  C   UNL A   1      40.942  22.387  27.336  1.00  0.00     0.261 C 
BRANCH  27  28
ATOM     28  O   UNL A   1      40.633  23.437  26.409  1.00  0.00    -0.460 OA
BRANCH  28  29
ATOM     29  C   UNL A   1      39.419  24.020  26.489  1.00  0.00     0.338 C 
ATOM     30  O   UNL A   1      38.363  23.571  26.078  1.00  0.00    -0.246 OA
BRANCH  29  31
ATOM     31  C   UNL A   1      39.564  25.209  27.356  1.00  0.00     0.060 A 
ATOM     32  C   UNL A   1      40.194  26.357  26.855  1.00  0.00     0.016 A 
ATOM     33  C   UNL A   1      39.050  25.192  28.654  1.00  0.00     0.016 A 
ATOM     34  C   UNL A   1      40.338  27.487  27.664  1.00  0.00     0.010 A 
ATOM     35  C   UNL A   1      39.218  26.311  29.469  1.00  0.00     0.010 A 
ATOM     36  C   UNL A   1      39.890  27.450  28.989  1.00  0.00    -0.014 A 
BRANCH  36  37
ATOM     37  C   UNL A   1      40.316  28.485  29.962  1.00  0.00     0.031 A 
ATOM     38  C   UNL A   1      39.307  29.524  30.358  1.00  0.00     0.074 A 
ATOM     39  C   UNL A   1      41.573  28.541  30.435  1.00  0.00     0.049 A 
ATOM     40  N   UNL A   1      39.469  30.639  31.017  1.00  0.00    -0.248 NA
ATOM     41  C   UNL A   1      37.925  29.271  29.921  1.00  0.00     0.031 C 
ATOM     42  C   UNL A   1      42.621  27.561  30.165  1.00  0.00     0.029 A 
ATOM     43  N   UNL A   1      42.185  29.490  31.216  1.00  0.00    -0.354 N 
ATOM     44  C   UNL A   1      38.216  31.240  31.050  1.00  0.00     0.074 A 
ATOM     45  C   UNL A   1      37.316  30.376  30.316  1.00  0.00     0.031 C 
ATOM     46  C   UNL A   1      43.761  27.980  30.739  1.00  0.00     0.029 A 
ATOM     47  C   UNL A   1      43.537  29.284  31.365  1.00  0.00     0.049 A 
ATOM     48  H   UNL A   1      41.703  30.243  31.629  1.00  0.00     0.167 HD
ATOM     49  C   UNL A   1      37.853  32.408  31.636  1.00  0.00     0.034 A 
ATOM     50  C   UNL A   1      44.488  30.081  31.892  1.00  0.00     0.034 A 
ATOM     51  C   UNL A   1      38.779  33.261  32.342  1.00  0.00     0.049 A 
ATOM     52  C   UNL A   1      44.092  31.424  32.461  1.00  0.00     0.074 A 
ATOM     53  C   UNL A   1      38.524  34.452  32.996  1.00  0.00     0.029 A 
ATOM     54  N   UNL A   1      40.144  33.026  32.460  1.00  0.00    -0.354 N 
ATOM     55  N   UNL A   1      42.906  31.989  32.497  1.00  0.00    -0.248 NA
ATOM     56  C   UNL A   1      45.159  32.233  33.064  1.00  0.00     0.031 C 
ATOM     57  C   UNL A   1      39.746  34.983  33.426  1.00  0.00     0.029 A 
ATOM     58  C   UNL A   1      40.751  34.072  33.138  1.00  0.00     0.049 A 
ATOM     59  H   UNL A   1      40.612  32.232  32.113  1.00  0.00     0.167 HD
ATOM     60  C   UNL A   1      43.080  33.205  33.156  1.00  0.00     0.074 A 
ATOM     61  C   UNL A   1      44.486  33.291  33.497  1.00  0.00     0.031 C 
ATOM     62  C   UNL A   1      42.158  34.153  33.466  1.00  0.00     0.034 A 
BRANCH  49  63
ATOM     63  C   UNL A   1      36.420  32.854  31.455  1.00  0.00     0.023 A 
ATOM     64  C   UNL A   1      35.912  33.236  30.201  1.00  0.00     0.031 A 
ATOM     65  C   UNL A   1      35.571  32.973  32.570  1.00  0.00     0.131 A 
ATOM     66  C   UNL A   1      34.641  33.823  30.111  1.00  0.00     0.055 A 
ATOM     67  C   UNL A   1      34.267  33.460  32.455  1.00  0.00     0.041 A 
ATOM     68  F   UNL A   1      36.004  32.651  33.799  1.00  0.00    -0.206 F 
ATOM     69  C   UNL A   1      33.804  33.911  31.224  1.00  0.00     0.022 A 
BRANCH  66  70
ATOM     70  S   UNL A   1      34.185  34.657  28.564  1.00  0.00     0.124 S 
ATOM     71  O   UNL A   1      32.770  34.308  28.447  1.00  0.00    -0.237 OA
ATOM     72  O   UNL A   1      34.476  36.055  28.863  1.00  0.00    -0.237 OA
ATOM     73  O   UNL A   1      35.055  34.034  27.569  1.00  0.00    -0.744 OA
ENDBRANCH  66  70
ENDBRANCH  49  63
BRANCH  50  74
ATOM     74  C   UNL A   1      45.917  29.658  31.843  1.00  0.00     0.023 A 
ATOM     75  C   UNL A   1      46.518  28.974  32.911  1.00  0.00     0.031 A 
ATOM     76  C   UNL A   1      46.705  29.937  30.710  1.00  0.00     0.131 A 
ATOM     77  C   UNL A   1      47.873  28.611  32.833  1.00  0.00     0.055 A 
ATOM     78  C   UNL A   1      48.037  29.529  30.617  1.00  0.00     0.041 A 
ATOM     79  F   UNL A   1      46.180  30.592  29.663  1.00  0.00    -0.206 F 
ATOM     80  C   UNL A   1      48.630  28.867  31.687  1.00  0.00     0.022 A 
BRANCH  77  81
ATOM     81  S   UNL A   1      48.653  27.842  34.278  1.00  0.00     0.124 S 
ATOM     82  O   UNL A   1      47.529  27.135  34.882  1.00  0.00    -0.237 OA
ATOM     83  O   UNL A   1      49.679  27.007  33.662  1.00  0.00    -0.237 OA
ATOM     84  O   UNL A   1      49.156  28.982  35.042  1.00  0.00    -0.744 OA
ENDBRANCH  77  81
ENDBRANCH  50  74
BRANCH  62  85
ATOM     85  C   UNL A   1      42.618  35.343  34.277  1.00  0.00     0.023 A 
ATOM     86  C   UNL A   1      42.989  36.562  33.686  1.00  0.00     0.031 A 
ATOM     87  C   UNL A   1      42.644  35.257  35.683  1.00  0.00     0.131 A 
ATOM     88  C   UNL A   1      43.402  37.634  34.495  1.00  0.00     0.055 A 
ATOM     89  C   UNL A   1      42.995  36.344  36.483  1.00  0.00     0.041 A 
ATOM     90  F   UNL A   1      42.306  34.115  36.304  1.00  0.00    -0.206 F 
ATOM     91  C   UNL A   1      43.385  37.539  35.889  1.00  0.00     0.022 A 
BRANCH  88  92
ATOM     92  S   UNL A   1      44.037  39.137  33.702  1.00  0.00     0.124 S 
ATOM     93  O   UNL A   1      42.805  39.843  33.361  1.00  0.00    -0.237 OA
ATOM     94  O   UNL A   1      44.842  39.735  34.761  1.00  0.00    -0.237 OA
ATOM     95  O   UNL A   1      44.795  38.629  32.560  1.00  0.00    -0.744 OA
ENDBRANCH  88  92
ENDBRANCH  62  85
ENDBRANCH  36  37
ENDBRANCH  29  31
ENDBRANCH  28  29
ENDBRANCH  27  28
ENDBRANCH  26  27
ENDBRANCH  25  26
ENDBRANCH  24  25
ENDBRANCH  23  24
ENDBRANCH  22  23
ENDBRANCH   1  22
TORSDOF 28
ENDMDL
MODEL 3
REMARK VINA RESULT:      -7.0      6.541     11.614
REMARK SMILES [NH3+][C@@H](CSCc1nccs1)C(=O)OCCOCCOCCOCCOC(=O)c1ccc(-c2c3nc(c(-c4cc(S(=O)(=O)[O-])ccc4F)c4ccc([nH]4)c(-c4cc(S(=O)(=O)[O-])ccc4F)c4nc(c(-c5cc(S(=O)(=O)[O-])ccc5F)c5ccc2[nH]5)C=C4)C=C3)cc1
REMARK SMILES IDX 18 1 17 2 16 3 15 4 14 5 13 6 11 7 12 8 2 9 1 10 3 14 4 15
REMARK SMILES IDX 5 16 6 17 7 18 10 19 8 20 9 21 19 22 20 23 21 24 22 25 23 26
REMARK SMILES IDX 24 27 25 28 26 29 27 30 28 31 29 32 90 33 30 34 89 35 31 36
REMARK SMILES IDX 32 37 33 38 83 39 34 40 88 41 82 42 84 43 35 44 87 45 81 46
REMARK SMILES IDX 80 47 36 49 68 50 48 51 67 52 49 53 52 54 66 55 85 56 50 57
REMARK SMILES IDX 51 58 65 60 86 61 53 62 37 63 38 64 46 65 39 66 45 67 47 68
REMARK SMILES IDX 44 69 40 70 41 71 42 72 43 73 69 74 70 75 78 76 71 77 77 78
REMARK SMILES IDX 79 79 76 80 72 81 73 82 74 83 75 84 54 85 55 86 63 87 56 88
REMARK SMILES IDX 62 89 64 90 61 91 57 92 58 93 59 94 60 95
REMARK H PARENT 1 11 1 12 1 13 84 48 52 59
REMARK Flexibility Score: inf
ROOT
ATOM      1  C   UNL A   1      33.956  31.764  27.906  1.00  0.00     0.188 C 
ENDROOT
BRANCH   1   2
ATOM      2  C   UNL A   1      34.665  30.494  27.410  1.00  0.00     0.188 C 
BRANCH   2   3
ATOM      3  O   UNL A   1      34.056  29.211  27.516  1.00  0.00    -0.376 OA
BRANCH   3   4
ATOM      4  C   UNL A   1      33.029  28.790  26.627  1.00  0.00     0.202 C 
BRANCH   4   5
ATOM      5  C   UNL A   1      33.169  28.833  25.098  1.00  0.00     0.261 C 
BRANCH   5   6
ATOM      6  O   UNL A   1      32.256  28.021  24.361  1.00  0.00    -0.459 OA
BRANCH   6   7
ATOM      7  C   UNL A   1      32.802  26.958  23.715  1.00  0.00     0.365 C 
ATOM      8  O   UNL A   1      33.893  26.460  23.972  1.00  0.00    -0.245 OA
BRANCH   7   9
ATOM      9  C   UNL A   1      31.901  26.450  22.586  1.00  0.00     0.301 C 
BRANCH   9  10
ATOM     10  N   UNL A   1      32.638  25.960  21.410  1.00  0.00    -0.345 N 
ATOM     11  H   UNL A   1      32.272  26.407  20.570  1.00  0.00     0.345 HD
ATOM     12  H   UNL A   1      32.523  24.950  21.335  1.00  0.00     0.345 HD
ATOM     13  H   UNL A   1      33.628  26.183  21.511  1.00  0.00     0.345 HD
ENDBRANCH   9  10
BRANCH   9  14
ATOM     14  C   UNL A   1      30.869  25.469  23.133  1.00  0.00     0.147 C 
BRANCH  14  15
ATOM     15  S   UNL A   1      31.200  24.580  24.706  1.00  0.00    -0.148 SA
BRANCH  15  16
ATOM     16  C   UNL A   1      32.092  23.066  24.220  1.00  0.00     0.137 C 
BRANCH  16  17
ATOM     17  C   UNL A   1      33.142  22.472  25.126  1.00  0.00     0.102 A 
ATOM     18  N   UNL A   1      32.928  22.304  26.419  1.00  0.00    -0.249 NA
ATOM     19  S   UNL A   1      34.678  21.899  24.592  1.00  0.00    -0.126 S 
ATOM     20  C   UNL A   1      34.007  21.689  27.018  1.00  0.00     0.123 A 
ATOM     21  C   UNL A   1      35.082  21.456  26.192  1.00  0.00     0.087 A 
ENDBRANCH  16  17
ENDBRANCH  15  16
ENDBRANCH  14  15
ENDBRANCH   9  14
ENDBRANCH   7   9
ENDBRANCH   6   7
ENDBRANCH   5   6
ENDBRANCH   4   5
ENDBRANCH   3   4
ENDBRANCH   2   3
ENDBRANCH   1   2
BRANCH   1  22
ATOM     22  O   UNL A   1      34.798  32.636  28.632  1.00  0.00    -0.377 OA
BRANCH  22  23
ATOM     23  C   UNL A   1      35.293  32.124  29.868  1.00  0.00     0.188 C 
BRANCH  23  24
ATOM     24  C   UNL A   1      34.670  32.652  31.187  1.00  0.00     0.188 C 
BRANCH  24  25
ATOM     25  O   UNL A   1      35.589  33.265  32.081  1.00  0.00    -0.376 OA
BRANCH  25  26
ATOM     26  C   UNL A   1      36.778  32.570  32.430  1.00  0.00     0.202 C 
BRANCH  26  27
ATOM     27  C   UNL A   1      36.660  31.287  33.271  1.00  0.00     0.261 C 
BRANCH  27  28
ATOM     28  O   UNL A   1      36.652  30.043  32.557  1.00  0.00    -0.460 OA
BRANCH  28  29
ATOM     29  C   UNL A   1      37.788  29.315  32.535  1.00  0.00     0.338 C 
ATOM     30  O   UNL A   1      37.919  28.152  32.875  1.00  0.00    -0.246 OA
BRANCH  29  31
ATOM     31  C   UNL A   1      38.805  30.118  31.822  1.00  0.00     0.060 A 
ATOM     32  C   UNL A   1      38.652  30.368  30.451  1.00  0.00     0.016 A 
ATOM     33  C   UNL A   1      39.892  30.645  32.522  1.00  0.00     0.016 A 
ATOM     34  C   UNL A   1      39.605  31.125  29.766  1.00  0.00     0.010 A 
ATOM     35  C   UNL A   1      40.857  31.378  31.831  1.00  0.00     0.010 A 
ATOM     36  C   UNL A   1      40.735  31.593  30.446  1.00  0.00    -0.014 A 
BRANCH  36  37
ATOM     37  C   UNL A   1      41.912  32.102  29.700  1.00  0.00     0.031 A 
ATOM     38  C   UNL A   1      42.993  31.119  29.355  1.00  0.00     0.074 A 
ATOM     39  C   UNL A   1      42.049  33.402  29.391  1.00  0.00     0.049 A 
ATOM     40  N   UNL A   1      44.198  31.327  28.898  1.00  0.00    -0.248 NA
ATOM     41  C   UNL A   1      42.666  29.703  29.584  1.00  0.00     0.031 C 
ATOM     42  C   UNL A   1      41.045  34.436  29.626  1.00  0.00     0.029 A 
ATOM     43  N   UNL A   1      43.111  34.075  28.840  1.00  0.00    -0.354 N 
ATOM     44  C   UNL A   1      44.788  30.071  28.812  1.00  0.00     0.074 A 
ATOM     45  C   UNL A   1      43.815  29.116  29.296  1.00  0.00     0.031 C 
ATOM     46  C   UNL A   1      41.557  35.624  29.259  1.00  0.00     0.029 A 
ATOM     47  C   UNL A   1      42.940  35.440  28.820  1.00  0.00     0.049 A 
ATOM     48  H   UNL A   1      43.917  33.625  28.496  1.00  0.00     0.167 HD
ATOM     49  C   UNL A   1      46.031  29.749  28.375  1.00  0.00     0.034 A 
ATOM     50  C   UNL A   1      43.816  36.425  28.535  1.00  0.00     0.034 A 
ATOM     51  C   UNL A   1      46.989  30.728  27.921  1.00  0.00     0.049 A 
ATOM     52  C   UNL A   1      45.228  36.063  28.137  1.00  0.00     0.074 A 
ATOM     53  C   UNL A   1      48.266  30.520  27.432  1.00  0.00     0.029 A 
ATOM     54  N   UNL A   1      46.784  32.103  27.927  1.00  0.00    -0.354 N 
ATOM     55  N   UNL A   1      45.784  34.876  28.051  1.00  0.00    -0.248 NA
ATOM     56  C   UNL A   1      46.128  37.172  27.793  1.00  0.00     0.031 C 
ATOM     57  C   UNL A   1      48.865  31.769  27.233  1.00  0.00     0.029 A 
ATOM     58  C   UNL A   1      47.927  32.757  27.493  1.00  0.00     0.049 A 
ATOM     59  H   UNL A   1      45.950  32.548  28.199  1.00  0.00     0.167 HD
ATOM     60  C   UNL A   1      47.089  35.094  27.611  1.00  0.00     0.074 A 
ATOM     61  C   UNL A   1      47.236  36.527  27.453  1.00  0.00     0.031 C 
ATOM     62  C   UNL A   1      48.068  34.190  27.346  1.00  0.00     0.034 A 
BRANCH  49  63
ATOM     63  C   UNL A   1      46.434  28.294  28.455  1.00  0.00     0.023 A 
ATOM     64  C   UNL A   1      46.249  27.410  27.377  1.00  0.00     0.031 A 
ATOM     65  C   UNL A   1      46.937  27.765  29.656  1.00  0.00     0.131 A 
ATOM     66  C   UNL A   1      46.456  26.035  27.556  1.00  0.00     0.055 A 
ATOM     67  C   UNL A   1      47.242  26.409  29.794  1.00  0.00     0.041 A 
ATOM     68  F   UNL A   1      47.111  28.549  30.731  1.00  0.00    -0.206 F 
ATOM     69  C   UNL A   1      46.979  25.531  28.748  1.00  0.00     0.022 A 
BRANCH  66  70
ATOM     70  S   UNL A   1      45.834  24.897  26.286  1.00  0.00     0.124 S 
ATOM     71  O   UNL A   1      46.778  23.787  26.398  1.00  0.00    -0.237 OA
ATOM     72  O   UNL A   1      44.475  24.628  26.742  1.00  0.00    -0.237 OA
ATOM     73  O   UNL A   1      45.940  25.670  25.051  1.00  0.00    -0.744 OA
ENDBRANCH  66  70
ENDBRANCH  49  63
BRANCH  50  74
ATOM     74  C   UNL A   1      43.399  37.849  28.684  1.00  0.00     0.023 A 
ATOM     75  C   UNL A   1      43.699  38.585  29.840  1.00  0.00     0.031 A 
ATOM     76  C   UNL A   1      42.689  38.496  27.655  1.00  0.00     0.131 A 
ATOM     77  C   UNL A   1      43.270  39.919  29.949  1.00  0.00     0.055 A 
ATOM     78  C   UNL A   1      42.310  39.836  27.747  1.00  0.00     0.041 A 
ATOM     79  F   UNL A   1      42.374  37.836  26.529  1.00  0.00    -0.206 F 
ATOM     80  C   UNL A   1      42.595  40.554  28.904  1.00  0.00     0.022 A 
BRANCH  77  81
ATOM     81  S   UNL A   1      43.562  40.803  31.506  1.00  0.00     0.124 S 
ATOM     82  O   UNL A   1      43.885  42.143  31.029  1.00  0.00    -0.237 OA
ATOM     83  O   UNL A   1      42.278  40.656  32.184  1.00  0.00    -0.237 OA
ATOM     84  O   UNL A   1      44.672  40.071  32.112  1.00  0.00    -0.744 OA
ENDBRANCH  77  81
ENDBRANCH  50  74
BRANCH  62  85
ATOM     85  C   UNL A   1      49.372  34.710  26.786  1.00  0.00     0.023 A 
ATOM     86  C   UNL A   1      50.532  34.837  27.569  1.00  0.00     0.031 A 
ATOM     87  C   UNL A   1      49.457  35.046  25.421  1.00  0.00     0.131 A 
ATOM     88  C   UNL A   1      51.717  35.321  26.988  1.00  0.00     0.055 A 
ATOM     89  C   UNL A   1      50.651  35.468  24.838  1.00  0.00     0.041 A 
ATOM     90  F   UNL A   1      48.379  34.952  24.626  1.00  0.00    -0.206 F 
ATOM     91  C   UNL A   1      51.789  35.614  25.624  1.00  0.00     0.022 A 
BRANCH  88  92
ATOM     92  S   UNL A   1      53.150  35.636  28.054  1.00  0.00     0.124 S 
ATOM     93  O   UNL A   1      53.946  36.543  27.232  1.00  0.00    -0.237 OA
ATOM     94  O   UNL A   1      52.537  36.223  29.240  1.00  0.00    -0.237 OA
ATOM     95  O   UNL A   1      53.731  34.308  28.250  1.00  0.00    -0.744 OA
ENDBRANCH  88  92
ENDBRANCH  62  85
ENDBRANCH  36  37
ENDBRANCH  29  31
ENDBRANCH  28  29
ENDBRANCH  27  28
ENDBRANCH  26  27
ENDBRANCH  25  26
ENDBRANCH  24  25
ENDBRANCH  23  24
ENDBRANCH  22  23
ENDBRANCH   1  22
TORSDOF 28
ENDMDL
