MODEL 1
REMARK VINA RESULT:     -10.4      0.000      0.000
REMARK SMILES O=C(OCCOCCOCCOCCOC(=O)c1nnn(-c2cccc(C(F)(F)F)c2)c1[C@@H]1COc2ccccc2O1)c1ccc(-c2c3nc(c(-c4cc(S(=O)(=O)[O-])ccc4F)c4ccc([nH]4)c(-c4cc(S(=O)(=O)[O-])ccc4F)c4nc(c(-c5cc(S(=O)(=O)[O-])ccc5F)c5ccc2[nH]5)C=C4)C=C3)cc1
REMARK SMILES IDX 8 1 7 2 6 3 5 4 4 5 3 6 2 7 1 8 43 9 44 10 105 11 45 12
REMARK SMILES IDX 104 13 46 14 47 15 48 16 98 17 49 18 103 19 97 20 99 21
REMARK SMILES IDX 50 22 102 23 96 24 95 25 51 27 83 28 63 29 82 30 64 31 67 32
REMARK SMILES IDX 81 33 100 34 65 35 66 36 80 38 101 39 68 40 52 41 53 42
REMARK SMILES IDX 61 43 54 44 60 45 62 46 59 47 55 48 56 49 57 50 58 51 84 52
REMARK SMILES IDX 85 53 93 54 86 55 92 56 94 57 91 58 87 59 88 60 89 61 90 62
REMARK SMILES IDX 69 63 70 64 78 65 71 66 77 67 79 68 76 69 72 70 73 71 74 72
REMARK SMILES IDX 75 73 9 74 10 75 11 76 12 77 13 78 14 79 15 80 16 81 17 82
REMARK SMILES IDX 18 83 19 84 32 85 20 86 21 87 33 88 34 89 42 90 35 91 41 92
REMARK SMILES IDX 36 93 40 94 37 95 39 96 38 97 22 98 23 99 31 100 24 101
REMARK SMILES IDX 26 102 25 103 27 104 28 105 29 106 30 107
REMARK H PARENT 99 26 67 37
REMARK Flexibility Score: inf
ROOT
ATOM      1  C   UNL A   1      31.453  29.831  25.019  1.00  0.00     0.188 C 
ENDROOT
BRANCH   1   2
ATOM      2  C   UNL A   1      32.846  29.315  24.628  1.00  0.00     0.188 C 
BRANCH   2   3
ATOM      3  O   UNL A   1      33.204  28.164  25.368  1.00  0.00    -0.376 OA
BRANCH   3   4
ATOM      4  C   UNL A   1      34.034  28.218  26.509  1.00  0.00     0.202 C 
BRANCH   4   5
ATOM      5  C   UNL A   1      34.200  29.487  27.356  1.00  0.00     0.261 C 
BRANCH   5   6
ATOM      6  O   UNL A   1      35.265  29.537  28.314  1.00  0.00    -0.460 OA
BRANCH   6   7
ATOM      7  C   UNL A   1      36.465  30.145  28.335  1.00  0.00     0.338 C 
ATOM      8  O   UNL A   1      36.488  31.374  28.290  1.00  0.00    -0.246 OA
BRANCH   7   9
ATOM      9  C   UNL A   1      37.751  29.408  28.223  1.00  0.00     0.060 A 
ATOM     10  C   UNL A   1      38.233  28.481  29.144  1.00  0.00     0.016 A 
ATOM     11  C   UNL A   1      38.530  29.708  27.087  1.00  0.00     0.016 A 
ATOM     12  C   UNL A   1      39.483  27.903  28.970  1.00  0.00     0.010 A 
ATOM     13  C   UNL A   1      39.788  29.146  26.916  1.00  0.00     0.010 A 
ATOM     14  C   UNL A   1      40.282  28.285  27.892  1.00  0.00    -0.014 A 
BRANCH  14  15
ATOM     15  C   UNL A   1      41.675  27.861  27.931  1.00  0.00     0.031 A 
ATOM     16  C   UNL A   1      42.036  26.566  27.297  1.00  0.00     0.074 A 
ATOM     17  C   UNL A   1      42.613  28.611  28.542  1.00  0.00     0.049 A 
ATOM     18  N   UNL A   1      42.567  25.525  27.853  1.00  0.00    -0.248 NA
ATOM     19  C   UNL A   1      41.732  26.395  25.871  1.00  0.00     0.031 C 
ATOM     20  C   UNL A   1      42.490  29.994  29.011  1.00  0.00     0.029 A 
ATOM     21  N   UNL A   1      43.917  28.307  28.787  1.00  0.00    -0.354 N 
ATOM     22  C   UNL A   1      42.835  24.625  26.824  1.00  0.00     0.074 A 
ATOM     23  C   UNL A   1      42.211  25.170  25.644  1.00  0.00     0.031 C 
ATOM     24  C   UNL A   1      43.720  30.480  29.277  1.00  0.00     0.029 A 
ATOM     25  C   UNL A   1      44.687  29.406  29.134  1.00  0.00     0.049 A 
ATOM     26  H   UNL A   1      44.279  27.394  28.724  1.00  0.00     0.167 HD
ATOM     27  C   UNL A   1      43.677  23.565  26.981  1.00  0.00     0.034 A 
ATOM     28  C   UNL A   1      46.036  29.462  29.227  1.00  0.00     0.034 A 
ATOM     29  C   UNL A   1      43.846  23.216  28.369  1.00  0.00     0.049 A 
ATOM     30  C   UNL A   1      46.528  28.088  29.476  1.00  0.00     0.074 A 
ATOM     31  C   UNL A   1      42.989  22.801  29.371  1.00  0.00     0.029 A 
ATOM     32  N   UNL A   1      45.010  23.568  29.008  1.00  0.00    -0.354 N 
ATOM     33  N   UNL A   1      46.279  27.420  30.568  1.00  0.00    -0.248 NA
ATOM     34  C   UNL A   1      46.962  27.282  28.346  1.00  0.00     0.031 C 
ATOM     35  C   UNL A   1      43.498  23.393  30.564  1.00  0.00     0.029 A 
ATOM     36  C   UNL A   1      44.651  24.103  30.223  1.00  0.00     0.049 A 
ATOM     37  H   UNL A   1      45.925  23.458  28.663  1.00  0.00     0.167 HD
ATOM     38  C   UNL A   1      46.114  26.107  30.159  1.00  0.00     0.074 A 
ATOM     39  C   UNL A   1      46.671  26.064  28.811  1.00  0.00     0.031 C 
ATOM     40  C   UNL A   1      45.299  25.246  30.839  1.00  0.00     0.034 A 
BRANCH  27  41
ATOM     41  C   UNL A   1      44.527  22.969  25.884  1.00  0.00     0.023 A 
ATOM     42  C   UNL A   1      44.517  21.571  25.697  1.00  0.00     0.031 A 
ATOM     43  C   UNL A   1      45.532  23.675  25.185  1.00  0.00     0.131 A 
ATOM     44  C   UNL A   1      45.479  20.942  24.884  1.00  0.00     0.055 A 
ATOM     45  C   UNL A   1      46.442  23.054  24.324  1.00  0.00     0.041 A 
ATOM     46  F   UNL A   1      45.743  24.984  25.369  1.00  0.00    -0.206 F 
ATOM     47  C   UNL A   1      46.432  21.677  24.185  1.00  0.00     0.022 A 
BRANCH  44  48
ATOM     48  S   UNL A   1      45.579  19.130  24.886  1.00  0.00     0.124 S 
ATOM     49  O   UNL A   1      46.782  18.894  25.677  1.00  0.00    -0.237 OA
ATOM     50  O   UNL A   1      44.313  18.760  25.509  1.00  0.00    -0.237 OA
ATOM     51  O   UNL A   1      45.695  18.796  23.467  1.00  0.00    -0.744 OA
ENDBRANCH  44  48
ENDBRANCH  27  41
BRANCH  28  52
ATOM     52  C   UNL A   1      46.874  30.597  28.775  1.00  0.00     0.023 A 
ATOM     53  C   UNL A   1      47.714  31.309  29.646  1.00  0.00     0.031 A 
ATOM     54  C   UNL A   1      47.008  30.866  27.391  1.00  0.00     0.131 A 
ATOM     55  C   UNL A   1      48.624  32.257  29.130  1.00  0.00     0.055 A 
ATOM     56  C   UNL A   1      47.894  31.816  26.888  1.00  0.00     0.041 A 
ATOM     57  F   UNL A   1      46.337  30.151  26.474  1.00  0.00    -0.206 F 
ATOM     58  C   UNL A   1      48.712  32.516  27.759  1.00  0.00     0.022 A 
BRANCH  55  59
ATOM     59  S   UNL A   1      49.792  33.093  30.244  1.00  0.00     0.124 S 
ATOM     60  O   UNL A   1      50.457  34.031  29.346  1.00  0.00    -0.237 OA
ATOM     61  O   UNL A   1      48.907  33.672  31.248  1.00  0.00    -0.237 OA
ATOM     62  O   UNL A   1      50.637  32.002  30.731  1.00  0.00    -0.744 OA
ENDBRANCH  55  59
ENDBRANCH  28  52
BRANCH  40  63
ATOM     63  C   UNL A   1      44.815  25.649  32.218  1.00  0.00     0.023 A 
ATOM     64  C   UNL A   1      43.827  26.630  32.457  1.00  0.00     0.031 A 
ATOM     65  C   UNL A   1      45.279  24.914  33.324  1.00  0.00     0.131 A 
ATOM     66  C   UNL A   1      43.352  26.856  33.763  1.00  0.00     0.055 A 
ATOM     67  C   UNL A   1      44.795  25.128  34.616  1.00  0.00     0.041 A 
ATOM     68  F   UNL A   1      46.190  23.939  33.161  1.00  0.00    -0.206 F 
ATOM     69  C   UNL A   1      43.833  26.107  34.841  1.00  0.00     0.022 A 
BRANCH  66  70
ATOM     70  S   UNL A   1      42.092  28.133  34.078  1.00  0.00     0.124 S 
ATOM     71  O   UNL A   1      42.775  29.378  33.749  1.00  0.00    -0.237 OA
ATOM     72  O   UNL A   1      41.011  27.737  33.178  1.00  0.00    -0.237 OA
ATOM     73  O   UNL A   1      41.785  27.963  35.500  1.00  0.00    -0.744 OA
ENDBRANCH  66  70
ENDBRANCH  40  63
ENDBRANCH  14  15
ENDBRANCH   7   9
ENDBRANCH   6   7
ENDBRANCH   5   6
ENDBRANCH   4   5
ENDBRANCH   3   4
ENDBRANCH   2   3
ENDBRANCH   1   2
BRANCH   1  74
ATOM     74  O   UNL A   1      31.384  30.357  26.351  1.00  0.00    -0.377 OA
BRANCH  74  75
ATOM     75  C   UNL A   1      31.239  31.772  26.416  1.00  0.00     0.188 C 
BRANCH  75  76
ATOM     76  C   UNL A   1      32.312  32.566  27.202  1.00  0.00     0.188 C 
BRANCH  76  77
ATOM     77  O   UNL A   1      32.122  33.868  27.750  1.00  0.00    -0.376 OA
BRANCH  77  78
ATOM     78  C   UNL A   1      33.215  34.668  28.151  1.00  0.00     0.202 C 
BRANCH  78  79
ATOM     79  C   UNL A   1      32.863  35.786  29.136  1.00  0.00     0.261 C 
BRANCH  79  80
ATOM     80  O   UNL A   1      33.958  36.173  29.978  1.00  0.00    -0.458 OA
BRANCH  80  81
ATOM     81  C   UNL A   1      33.607  36.574  31.239  1.00  0.00     0.361 C 
ATOM     82  O   UNL A   1      32.752  37.398  31.493  1.00  0.00    -0.244 OA
BRANCH  81  83
ATOM     83  C   UNL A   1      34.341  35.843  32.269  1.00  0.00     0.198 A 
ATOM     84  N   UNL A   1      34.228  36.208  33.588  1.00  0.00    -0.122 NA
ATOM     85  C   UNL A   1      35.130  34.700  32.184  1.00  0.00     0.123 A 
ATOM     86  N   UNL A   1      34.907  35.341  34.319  1.00  0.00    -0.061 NA
ATOM     87  N   UNL A   1      35.618  34.556  33.476  1.00  0.00    -0.213 N 
BRANCH  85  88
ATOM     88  C   UNL A   1      35.388  33.742  31.055  1.00  0.00     0.262 C 
ATOM     89  C   UNL A   1      34.701  32.376  31.204  1.00  0.00     0.281 C 
ATOM     90  O   UNL A   1      36.795  33.656  30.803  1.00  0.00    -0.477 OA
ATOM     91  O   UNL A   1      35.357  31.538  32.157  1.00  0.00    -0.485 OA
ATOM     92  C   UNL A   1      37.372  32.470  31.178  1.00  0.00     0.162 A 
ATOM     93  C   UNL A   1      36.691  31.458  31.861  1.00  0.00     0.161 A 
ATOM     94  C   UNL A   1      38.735  32.335  30.923  1.00  0.00     0.050 A 
ATOM     95  C   UNL A   1      37.377  30.343  32.335  1.00  0.00     0.050 A 
ATOM     96  C   UNL A   1      39.420  31.208  31.379  1.00  0.00     0.004 A 
ATOM     97  C   UNL A   1      38.745  30.217  32.094  1.00  0.00     0.004 A 
ENDBRANCH  85  88
BRANCH  87  98
ATOM     98  C   UNL A   1      36.918  34.214  33.885  1.00  0.00     0.067 A 
ATOM     99  C   UNL A   1      38.016  34.884  33.349  1.00  0.00     0.028 A 
ATOM    100  C   UNL A   1      37.082  33.125  34.751  1.00  0.00     0.041 A 
ATOM    101  C   UNL A   1      39.296  34.511  33.755  1.00  0.00     0.003 A 
ATOM    102  C   UNL A   1      38.368  32.713  35.117  1.00  0.00     0.058 A 
ATOM    103  C   UNL A   1      39.471  33.435  34.634  1.00  0.00     0.013 A 
BRANCH 102 104
ATOM    104  C   UNL A   1      38.560  31.522  36.019  1.00  0.00     0.416 C 
ATOM    105  F   UNL A   1      37.876  31.635  37.193  1.00  0.00    -0.166 F 
ATOM    106  F   UNL A   1      38.135  30.360  35.450  1.00  0.00    -0.166 F 
ATOM    107  F   UNL A   1      39.860  31.309  36.371  1.00  0.00    -0.166 F 
ENDBRANCH 102 104
ENDBRANCH  87  98
ENDBRANCH  81  83
ENDBRANCH  80  81
ENDBRANCH  79  80
ENDBRANCH  78  79
ENDBRANCH  77  78
ENDBRANCH  76  77
ENDBRANCH  75  76
ENDBRANCH  74  75
ENDBRANCH   1  74
TORSDOF 26
ENDMDL
MODEL 2
REMARK VINA RESULT:     -10.3      5.131      8.549
REMARK SMILES O=C(OCCOCCOCCOCCOC(=O)c1nnn(-c2cccc(C(F)(F)F)c2)c1[C@@H]1COc2ccccc2O1)c1ccc(-c2c3nc(c(-c4cc(S(=O)(=O)[O-])ccc4F)c4ccc([nH]4)c(-c4cc(S(=O)(=O)[O-])ccc4F)c4nc(c(-c5cc(S(=O)(=O)[O-])ccc5F)c5ccc2[nH]5)C=C4)C=C3)cc1
REMARK SMILES IDX 8 1 7 2 6 3 5 4 4 5 3 6 2 7 1 8 43 9 44 10 105 11 45 12
REMARK SMILES IDX 104 13 46 14 47 15 48 16 98 17 49 18 103 19 97 20 99 21
REMARK SMILES IDX 50 22 102 23 96 24 95 25 51 27 83 28 63 29 82 30 64 31 67 32
REMARK SMILES IDX 81 33 100 34 65 35 66 36 80 38 101 39 68 40 52 41 53 42
REMARK SMILES IDX 61 43 54 44 60 45 62 46 59 47 55 48 56 49 57 50 58 51 84 52
REMARK SMILES IDX 85 53 93 54 86 55 92 56 94 57 91 58 87 59 88 60 89 61 90 62
REMARK SMILES IDX 69 63 70 64 78 65 71 66 77 67 79 68 76 69 72 70 73 71 74 72
REMARK SMILES IDX 75 73 9 74 10 75 11 76 12 77 13 78 14 79 15 80 16 81 17 82
REMARK SMILES IDX 18 83 19 84 32 85 20 86 21 87 33 88 34 89 42 90 35 91 41 92
REMARK SMILES IDX 36 93 40 94 37 95 39 96 38 97 22 98 23 99 31 100 24 101
REMARK SMILES IDX 26 102 25 103 27 104 28 105 29 106 30 107
REMARK H PARENT 99 26 67 37
REMARK Flexibility Score: inf
ROOT
ATOM      1  C   UNL A   1      32.497  29.941  25.598  1.00  0.00     0.188 C 
ENDROOT
BRANCH   1   2
ATOM      2  C   UNL A   1      32.623  30.342  27.076  1.00  0.00     0.188 C 
BRANCH   2   3
ATOM      3  O   UNL A   1      32.766  31.741  27.226  1.00  0.00    -0.376 OA
BRANCH   3   4
ATOM      4  C   UNL A   1      33.790  32.325  28.005  1.00  0.00     0.202 C 
BRANCH   4   5
ATOM      5  C   UNL A   1      35.264  31.917  27.877  1.00  0.00     0.261 C 
BRANCH   5   6
ATOM      6  O   UNL A   1      35.700  30.714  28.522  1.00  0.00    -0.460 OA
BRANCH   6   7
ATOM      7  C   UNL A   1      36.283  29.584  28.080  1.00  0.00     0.338 C 
ATOM      8  O   UNL A   1      35.552  28.677  27.686  1.00  0.00    -0.246 OA
BRANCH   7   9
ATOM      9  C   UNL A   1      37.737  29.313  28.218  1.00  0.00     0.060 A 
ATOM     10  C   UNL A   1      38.754  30.020  27.579  1.00  0.00     0.016 A 
ATOM     11  C   UNL A   1      38.081  28.235  29.058  1.00  0.00     0.016 A 
ATOM     12  C   UNL A   1      40.079  29.633  27.729  1.00  0.00     0.010 A 
ATOM     13  C   UNL A   1      39.403  27.834  29.199  1.00  0.00     0.010 A 
ATOM     14  C   UNL A   1      40.393  28.504  28.486  1.00  0.00    -0.014 A 
BRANCH  14  15
ATOM     15  C   UNL A   1      41.752  27.996  28.365  1.00  0.00     0.031 A 
ATOM     16  C   UNL A   1      41.963  26.703  27.664  1.00  0.00     0.074 A 
ATOM     17  C   UNL A   1      42.794  28.669  28.891  1.00  0.00     0.049 A 
ATOM     18  N   UNL A   1      42.482  25.615  28.133  1.00  0.00    -0.248 NA
ATOM     19  C   UNL A   1      41.501  26.595  26.275  1.00  0.00     0.031 C 
ATOM     20  C   UNL A   1      42.809  30.042  29.405  1.00  0.00     0.029 A 
ATOM     21  N   UNL A   1      44.096  28.281  28.988  1.00  0.00    -0.354 N 
ATOM     22  C   UNL A   1      42.584  24.733  27.060  1.00  0.00     0.074 A 
ATOM     23  C   UNL A   1      41.875  25.352  25.967  1.00  0.00     0.031 C 
ATOM     24  C   UNL A   1      44.089  30.445  29.551  1.00  0.00     0.029 A 
ATOM     25  C   UNL A   1      44.966  29.320  29.278  1.00  0.00     0.049 A 
ATOM     26  H   UNL A   1      44.391  27.350  28.864  1.00  0.00     0.167 HD
ATOM     27  C   UNL A   1      43.370  23.620  27.099  1.00  0.00     0.034 A 
ATOM     28  C   UNL A   1      46.318  29.292  29.228  1.00  0.00     0.034 A 
ATOM     29  C   UNL A   1      43.661  23.218  28.452  1.00  0.00     0.049 A 
ATOM     30  C   UNL A   1      46.745  27.884  29.389  1.00  0.00     0.074 A 
ATOM     31  C   UNL A   1      42.890  22.825  29.529  1.00  0.00     0.029 A 
ATOM     32  N   UNL A   1      44.906  23.480  28.972  1.00  0.00    -0.354 N 
ATOM     33  N   UNL A   1      46.571  27.198  30.484  1.00  0.00    -0.248 NA
ATOM     34  C   UNL A   1      47.007  27.089  28.199  1.00  0.00     0.031 C 
ATOM     35  C   UNL A   1      43.557  23.346  30.676  1.00  0.00     0.029 A 
ATOM     36  C   UNL A   1      44.710  23.997  30.231  1.00  0.00     0.049 A 
ATOM     37  H   UNL A   1      45.771  23.326  28.529  1.00  0.00     0.167 HD
ATOM     38  C   UNL A   1      46.281  25.911  30.062  1.00  0.00     0.074 A 
ATOM     39  C   UNL A   1      46.691  25.877  28.662  1.00  0.00     0.031 C 
ATOM     40  C   UNL A   1      45.490  25.079  30.803  1.00  0.00     0.034 A 
BRANCH  27  41
ATOM     41  C   UNL A   1      44.061  23.010  25.904  1.00  0.00     0.023 A 
ATOM     42  C   UNL A   1      43.825  21.653  25.599  1.00  0.00     0.031 A 
ATOM     43  C   UNL A   1      45.125  23.620  25.203  1.00  0.00     0.131 A 
ATOM     44  C   UNL A   1      44.636  20.966  24.676  1.00  0.00     0.055 A 
ATOM     45  C   UNL A   1      45.885  22.953  24.236  1.00  0.00     0.041 A 
ATOM     46  F   UNL A   1      45.546  24.860  25.484  1.00  0.00    -0.206 F 
ATOM     47  C   UNL A   1      45.655  21.612  23.981  1.00  0.00     0.022 A 
BRANCH  44  48
ATOM     48  S   UNL A   1      44.455  19.167  24.517  1.00  0.00     0.124 S 
ATOM     49  O   UNL A   1      44.705  18.962  23.095  1.00  0.00    -0.237 OA
ATOM     50  O   UNL A   1      45.483  18.680  25.430  1.00  0.00    -0.237 OA
ATOM     51  O   UNL A   1      43.077  18.927  24.945  1.00  0.00    -0.744 OA
ENDBRANCH  44  48
ENDBRANCH  27  41
BRANCH  28  52
ATOM     52  C   UNL A   1      47.174  30.388  28.718  1.00  0.00     0.023 A 
ATOM     53  C   UNL A   1      46.707  31.347  27.804  1.00  0.00     0.031 A 
ATOM     54  C   UNL A   1      48.441  30.623  29.304  1.00  0.00     0.131 A 
ATOM     55  C   UNL A   1      47.503  32.470  27.494  1.00  0.00     0.055 A 
ATOM     56  C   UNL A   1      49.232  31.723  28.979  1.00  0.00     0.041 A 
ATOM     57  F   UNL A   1      48.918  29.828  30.275  1.00  0.00    -0.206 F 
ATOM     58  C   UNL A   1      48.762  32.658  28.073  1.00  0.00     0.022 A 
BRANCH  55  59
ATOM     59  S   UNL A   1      46.851  33.771  26.403  1.00  0.00     0.124 S 
ATOM     60  O   UNL A   1      46.410  34.781  27.358  1.00  0.00    -0.237 OA
ATOM     61  O   UNL A   1      48.015  34.109  25.591  1.00  0.00    -0.237 OA
ATOM     62  O   UNL A   1      45.775  33.097  25.677  1.00  0.00    -0.744 OA
ENDBRANCH  55  59
ENDBRANCH  28  52
BRANCH  40  63
ATOM     63  C   UNL A   1      45.179  25.466  32.236  1.00  0.00     0.023 A 
ATOM     64  C   UNL A   1      45.991  25.128  33.342  1.00  0.00     0.031 A 
ATOM     65  C   UNL A   1      44.089  26.324  32.470  1.00  0.00     0.131 A 
ATOM     66  C   UNL A   1      45.691  25.630  34.623  1.00  0.00     0.055 A 
ATOM     67  C   UNL A   1      43.803  26.834  33.738  1.00  0.00     0.041 A 
ATOM     68  F   UNL A   1      43.301  26.716  31.455  1.00  0.00    -0.206 F 
ATOM     69  C   UNL A   1      44.600  26.482  34.821  1.00  0.00     0.022 A 
BRANCH  66  70
ATOM     70  S   UNL A   1      46.724  25.182  36.054  1.00  0.00     0.124 S 
ATOM     71  O   UNL A   1      47.054  26.468  36.655  1.00  0.00    -0.237 OA
ATOM     72  O   UNL A   1      45.831  24.323  36.829  1.00  0.00    -0.237 OA
ATOM     73  O   UNL A   1      47.859  24.482  35.448  1.00  0.00    -0.744 OA
ENDBRANCH  66  70
ENDBRANCH  40  63
ENDBRANCH  14  15
ENDBRANCH   7   9
ENDBRANCH   6   7
ENDBRANCH   5   6
ENDBRANCH   4   5
ENDBRANCH   3   4
ENDBRANCH   2   3
ENDBRANCH   1   2
BRANCH   1  74
ATOM     74  O   UNL A   1      33.440  28.942  25.187  1.00  0.00    -0.377 OA
BRANCH  74  75
ATOM     75  C   UNL A   1      33.379  28.614  23.802  1.00  0.00     0.188 C 
BRANCH  75  76
ATOM     76  C   UNL A   1      32.708  27.273  23.414  1.00  0.00     0.188 C 
BRANCH  76  77
ATOM     77  O   UNL A   1      32.031  26.409  24.323  1.00  0.00    -0.376 OA
BRANCH  77  78
ATOM     78  C   UNL A   1      30.709  26.672  24.746  1.00  0.00     0.202 C 
BRANCH  78  79
ATOM     79  C   UNL A   1      30.332  26.050  26.094  1.00  0.00     0.261 C 
BRANCH  79  80
ATOM     80  O   UNL A   1      31.251  25.041  26.536  1.00  0.00    -0.458 OA
BRANCH  80  81
ATOM     81  C   UNL A   1      30.756  23.765  26.535  1.00  0.00     0.361 C 
ATOM     82  O   UNL A   1      29.928  23.341  27.316  1.00  0.00    -0.244 OA
BRANCH  81  83
ATOM     83  C   UNL A   1      31.293  22.972  25.433  1.00  0.00     0.198 A 
ATOM     84  N   UNL A   1      30.834  23.167  24.154  1.00  0.00    -0.122 NA
ATOM     85  C   UNL A   1      32.326  22.040  25.403  1.00  0.00     0.123 A 
ATOM     86  N   UNL A   1      31.538  22.402  23.338  1.00  0.00    -0.061 NA
ATOM     87  N   UNL A   1      32.293  21.574  24.096  1.00  0.00    -0.213 N 
BRANCH  85  88
ATOM     88  C   UNL A   1      33.336  21.630  26.439  1.00  0.00     0.262 C 
ATOM     89  C   UNL A   1      33.743  22.745  27.412  1.00  0.00     0.281 C 
ATOM     90  O   UNL A   1      34.445  20.981  25.806  1.00  0.00    -0.477 OA
ATOM     91  O   UNL A   1      34.636  23.688  26.817  1.00  0.00    -0.485 OA
ATOM     92  C   UNL A   1      35.605  21.712  25.797  1.00  0.00     0.162 A 
ATOM     93  C   UNL A   1      35.695  23.030  26.253  1.00  0.00     0.161 A 
ATOM     94  C   UNL A   1      36.716  21.104  25.216  1.00  0.00     0.050 A 
ATOM     95  C   UNL A   1      36.870  23.757  26.080  1.00  0.00     0.050 A 
ATOM     96  C   UNL A   1      37.902  21.825  25.061  1.00  0.00     0.004 A 
ATOM     97  C   UNL A   1      37.976  23.153  25.483  1.00  0.00     0.004 A 
ENDBRANCH  85  88
BRANCH  87  98
ATOM     98  C   UNL A   1      32.426  20.252  23.637  1.00  0.00     0.067 A 
ATOM     99  C   UNL A   1      32.152  19.946  22.305  1.00  0.00     0.028 A 
ATOM    100  C   UNL A   1      32.729  19.249  24.567  1.00  0.00     0.041 A 
ATOM    101  C   UNL A   1      32.271  18.623  21.881  1.00  0.00     0.003 A 
ATOM    102  C   UNL A   1      32.794  17.913  24.155  1.00  0.00     0.058 A 
ATOM    103  C   UNL A   1      32.592  17.615  22.798  1.00  0.00     0.013 A 
BRANCH 102 104
ATOM    104  C   UNL A   1      33.086  16.821  25.151  1.00  0.00     0.416 C 
ATOM    105  F   UNL A   1      34.421  16.602  25.317  1.00  0.00    -0.166 F 
ATOM    106  F   UNL A   1      32.596  17.099  26.391  1.00  0.00    -0.166 F 
ATOM    107  F   UNL A   1      32.556  15.613  24.805  1.00  0.00    -0.166 F 
ENDBRANCH 102 104
ENDBRANCH  87  98
ENDBRANCH  81  83
ENDBRANCH  80  81
ENDBRANCH  79  80
ENDBRANCH  78  79
ENDBRANCH  77  78
ENDBRANCH  76  77
ENDBRANCH  75  76
ENDBRANCH  74  75
ENDBRANCH   1  74
TORSDOF 26
ENDMDL
MODEL 3
REMARK VINA RESULT:      -9.4      2.041      2.316
REMARK SMILES O=C(OCCOCCOCCOCCOC(=O)c1nnn(-c2cccc(C(F)(F)F)c2)c1[C@@H]1COc2ccccc2O1)c1ccc(-c2c3nc(c(-c4cc(S(=O)(=O)[O-])ccc4F)c4ccc([nH]4)c(-c4cc(S(=O)(=O)[O-])ccc4F)c4nc(c(-c5cc(S(=O)(=O)[O-])ccc5F)c5ccc2[nH]5)C=C4)C=C3)cc1
REMARK SMILES IDX 8 1 7 2 6 3 5 4 4 5 3 6 2 7 1 8 43 9 44 10 105 11 45 12
REMARK SMILES IDX 104 13 46 14 47 15 48 16 98 17 49 18 103 19 97 20 99 21
REMARK SMILES IDX 50 22 102 23 96 24 95 25 51 27 83 28 63 29 82 30 64 31 67 32
REMARK SMILES IDX 81 33 100 34 65 35 66 36 80 38 101 39 68 40 52 41 53 42
REMARK SMILES IDX 61 43 54 44 60 45 62 46 59 47 55 48 56 49 57 50 58 51 84 52
REMARK SMILES IDX 85 53 93 54 86 55 92 56 94 57 91 58 87 59 88 60 89 61 90 62
REMARK SMILES IDX 69 63 70 64 78 65 71 66 77 67 79 68 76 69 72 70 73 71 74 72
REMARK SMILES IDX 75 73 9 74 10 75 11 76 12 77 13 78 14 79 15 80 16 81 17 82
REMARK SMILES IDX 18 83 19 84 32 85 20 86 21 87 33 88 34 89 42 90 35 91 41 92
REMARK SMILES IDX 36 93 40 94 37 95 39 96 38 97 22 98 23 99 31 100 24 101
REMARK SMILES IDX 26 102 25 103 27 104 28 105 29 106 30 107
REMARK H PARENT 99 26 67 37
REMARK Flexibility Score: inf
ROOT
ATOM      1  C   UNL A   1      31.493  29.990  24.948  1.00  0.00     0.188 C 
ENDROOT
BRANCH   1   2
ATOM      2  C   UNL A   1      32.871  29.352  24.712  1.00  0.00     0.188 C 
BRANCH   2   3
ATOM      3  O   UNL A   1      33.008  28.132  25.415  1.00  0.00    -0.376 OA
BRANCH   3   4
ATOM      4  C   UNL A   1      33.700  28.032  26.642  1.00  0.00     0.202 C 
BRANCH   4   5
ATOM      5  C   UNL A   1      34.187  29.261  27.423  1.00  0.00     0.261 C 
BRANCH   5   6
ATOM      6  O   UNL A   1      35.332  29.122  28.273  1.00  0.00    -0.460 OA
BRANCH   6   7
ATOM      7  C   UNL A   1      36.447  29.855  28.453  1.00  0.00     0.338 C 
ATOM      8  O   UNL A   1      36.332  31.079  28.481  1.00  0.00    -0.246 OA
BRANCH   7   9
ATOM      9  C   UNL A   1      37.813  29.272  28.436  1.00  0.00     0.060 A 
ATOM     10  C   UNL A   1      38.347  28.434  29.413  1.00  0.00     0.016 A 
ATOM     11  C   UNL A   1      38.616  29.630  27.334  1.00  0.00     0.016 A 
ATOM     12  C   UNL A   1      39.663  28.003  29.326  1.00  0.00     0.010 A 
ATOM     13  C   UNL A   1      39.939  29.215  27.249  1.00  0.00     0.010 A 
ATOM     14  C   UNL A   1      40.473  28.446  28.280  1.00  0.00    -0.014 A 
BRANCH  14  15
ATOM     15  C   UNL A   1      41.901  28.190  28.407  1.00  0.00     0.031 A 
ATOM     16  C   UNL A   1      42.471  27.009  27.710  1.00  0.00     0.074 A 
ATOM     17  C   UNL A   1      42.686  28.991  29.153  1.00  0.00     0.049 A 
ATOM     18  N   UNL A   1      43.085  25.994  28.228  1.00  0.00    -0.248 NA
ATOM     19  C   UNL A   1      42.303  26.927  26.254  1.00  0.00     0.031 C 
ATOM     20  C   UNL A   1      42.353  30.304  29.715  1.00  0.00     0.029 A 
ATOM     21  N   UNL A   1      43.996  28.827  29.488  1.00  0.00    -0.354 N 
ATOM     22  C   UNL A   1      43.544  25.226  27.161  1.00  0.00     0.074 A 
ATOM     23  C   UNL A   1      42.949  25.793  25.976  1.00  0.00     0.031 C 
ATOM     24  C   UNL A   1      43.488  30.909  30.124  1.00  0.00     0.029 A 
ATOM     25  C   UNL A   1      44.591  29.975  29.984  1.00  0.00     0.049 A 
ATOM     26  H   UNL A   1      44.475  27.972  29.387  1.00  0.00     0.167 HD
ATOM     27  C   UNL A   1      44.499  24.265  27.309  1.00  0.00     0.034 A 
ATOM     28  C   UNL A   1      45.911  30.184  30.198  1.00  0.00     0.034 A 
ATOM     29  C   UNL A   1      44.603  23.819  28.675  1.00  0.00     0.049 A 
ATOM     30  C   UNL A   1      46.552  28.864  30.383  1.00  0.00     0.074 A 
ATOM     31  C   UNL A   1      43.731  23.220  29.564  1.00  0.00     0.029 A 
ATOM     32  N   UNL A   1      45.661  24.251  29.439  1.00  0.00    -0.354 N 
ATOM     33  N   UNL A   1      46.306  28.077  31.395  1.00  0.00    -0.248 NA
ATOM     34  C   UNL A   1      47.171  28.216  29.237  1.00  0.00     0.031 C 
ATOM     35  C   UNL A   1      44.067  23.761  30.839  1.00  0.00     0.029 A 
ATOM     36  C   UNL A   1      45.144  24.632  30.655  1.00  0.00     0.049 A 
ATOM     37  H   UNL A   1      46.606  24.282  29.167  1.00  0.00     0.167 HD
ATOM     38  C   UNL A   1      46.341  26.795  30.873  1.00  0.00     0.074 A 
ATOM     39  C   UNL A   1      47.002  26.937  29.580  1.00  0.00     0.031 C 
ATOM     40  C   UNL A   1      45.592  25.787  31.411  1.00  0.00     0.034 A 
BRANCH  27  41
ATOM     41  C   UNL A   1      45.500  23.873  26.248  1.00  0.00     0.023 A 
ATOM     42  C   UNL A   1      46.387  24.852  25.752  1.00  0.00     0.031 A 
ATOM     43  C   UNL A   1      45.459  22.659  25.526  1.00  0.00     0.131 A 
ATOM     44  C   UNL A   1      47.146  24.619  24.590  1.00  0.00     0.055 A 
ATOM     45  C   UNL A   1      46.266  22.406  24.412  1.00  0.00     0.041 A 
ATOM     46  F   UNL A   1      44.572  21.694  25.802  1.00  0.00    -0.206 F 
ATOM     47  C   UNL A   1      47.102  23.397  23.925  1.00  0.00     0.022 A 
BRANCH  44  48
ATOM     48  S   UNL A   1      48.067  25.998  23.854  1.00  0.00     0.124 S 
ATOM     49  O   UNL A   1      47.064  27.057  23.837  1.00  0.00    -0.237 OA
ATOM     50  O   UNL A   1      49.166  26.164  24.799  1.00  0.00    -0.237 OA
ATOM     51  O   UNL A   1      48.449  25.486  22.538  1.00  0.00    -0.744 OA
ENDBRANCH  44  48
ENDBRANCH  27  41
BRANCH  28  52
ATOM     52  C   UNL A   1      46.631  31.447  29.910  1.00  0.00     0.023 A 
ATOM     53  C   UNL A   1      46.491  32.135  28.694  1.00  0.00     0.031 A 
ATOM     54  C   UNL A   1      47.331  32.111  30.946  1.00  0.00     0.131 A 
ATOM     55  C   UNL A   1      47.053  33.421  28.543  1.00  0.00     0.055 A 
ATOM     56  C   UNL A   1      47.901  33.372  30.786  1.00  0.00     0.041 A 
ATOM     57  F   UNL A   1      47.414  31.586  32.179  1.00  0.00    -0.206 F 
ATOM     58  C   UNL A   1      47.760  34.037  29.580  1.00  0.00     0.022 A 
BRANCH  55  59
ATOM     59  S   UNL A   1      46.770  34.360  27.013  1.00  0.00     0.124 S 
ATOM     60  O   UNL A   1      45.486  34.999  27.276  1.00  0.00    -0.237 OA
ATOM     61  O   UNL A   1      47.934  35.238  26.966  1.00  0.00    -0.237 OA
ATOM     62  O   UNL A   1      46.743  33.326  25.979  1.00  0.00    -0.744 OA
ENDBRANCH  55  59
ENDBRANCH  28  52
BRANCH  40  63
ATOM     63  C   UNL A   1      44.956  26.007  32.770  1.00  0.00     0.023 A 
ATOM     64  C   UNL A   1      43.804  26.796  32.988  1.00  0.00     0.031 A 
ATOM     65  C   UNL A   1      45.461  25.280  33.864  1.00  0.00     0.131 A 
ATOM     66  C   UNL A   1      43.211  26.849  34.264  1.00  0.00     0.055 A 
ATOM     67  C   UNL A   1      44.862  25.321  35.124  1.00  0.00     0.041 A 
ATOM     68  F   UNL A   1      46.530  24.479  33.714  1.00  0.00    -0.206 F 
ATOM     69  C   UNL A   1      43.737  26.112  35.330  1.00  0.00     0.022 A 
BRANCH  66  70
ATOM     70  S   UNL A   1      41.738  27.879  34.554  1.00  0.00     0.124 S 
ATOM     71  O   UNL A   1      40.629  26.950  34.375  1.00  0.00    -0.237 OA
ATOM     72  O   UNL A   1      41.956  28.363  35.916  1.00  0.00    -0.237 OA
ATOM     73  O   UNL A   1      41.839  28.914  33.523  1.00  0.00    -0.744 OA
ENDBRANCH  66  70
ENDBRANCH  40  63
ENDBRANCH  14  15
ENDBRANCH   7   9
ENDBRANCH   6   7
ENDBRANCH   5   6
ENDBRANCH   4   5
ENDBRANCH   3   4
ENDBRANCH   2   3
ENDBRANCH   1   2
BRANCH   1  74
ATOM     74  O   UNL A   1      31.272  30.403  26.303  1.00  0.00    -0.377 OA
BRANCH  74  75
ATOM     75  C   UNL A   1      31.196  31.814  26.482  1.00  0.00     0.188 C 
BRANCH  75  76
ATOM     76  C   UNL A   1      32.330  32.495  27.288  1.00  0.00     0.188 C 
BRANCH  76  77
ATOM     77  O   UNL A   1      32.469  33.902  27.466  1.00  0.00    -0.376 OA
BRANCH  77  78
ATOM     78  C   UNL A   1      33.461  34.445  28.313  1.00  0.00     0.202 C 
BRANCH  78  79
ATOM     79  C   UNL A   1      32.925  35.324  29.447  1.00  0.00     0.261 C 
BRANCH  79  80
ATOM     80  O   UNL A   1      33.953  36.010  30.175  1.00  0.00    -0.458 OA
BRANCH  80  81
ATOM     81  C   UNL A   1      33.609  36.392  31.443  1.00  0.00     0.361 C 
ATOM     82  O   UNL A   1      32.720  37.175  31.716  1.00  0.00    -0.244 OA
BRANCH  81  83
ATOM     83  C   UNL A   1      34.398  35.697  32.456  1.00  0.00     0.198 A 
ATOM     84  N   UNL A   1      34.307  36.066  33.776  1.00  0.00    -0.122 NA
ATOM     85  C   UNL A   1      35.227  34.584  32.357  1.00  0.00     0.123 A 
ATOM     86  N   UNL A   1      35.038  35.230  34.493  1.00  0.00    -0.061 NA
ATOM     87  N   UNL A   1      35.755  34.468  33.636  1.00  0.00    -0.213 N 
BRANCH  85  88
ATOM     88  C   UNL A   1      35.492  33.630  31.226  1.00  0.00     0.262 C 
ATOM     89  C   UNL A   1      34.795  32.268  31.362  1.00  0.00     0.281 C 
ATOM     90  O   UNL A   1      36.901  33.537  30.988  1.00  0.00    -0.477 OA
ATOM     91  O   UNL A   1      35.437  31.421  32.318  1.00  0.00    -0.485 OA
ATOM     92  C   UNL A   1      37.467  32.346  31.364  1.00  0.00     0.162 A 
ATOM     93  C   UNL A   1      36.773  31.335  32.035  1.00  0.00     0.161 A 
ATOM     94  C   UNL A   1      38.832  32.204  31.122  1.00  0.00     0.050 A 
ATOM     95  C   UNL A   1      37.448  30.213  32.512  1.00  0.00     0.050 A 
ATOM     96  C   UNL A   1      39.506  31.071  31.581  1.00  0.00     0.004 A 
ATOM     97  C   UNL A   1      38.817  30.081  32.284  1.00  0.00     0.004 A 
ENDBRANCH  85  88
BRANCH  87  98
ATOM     98  C   UNL A   1      37.078  34.178  34.011  1.00  0.00     0.067 A 
ATOM     99  C   UNL A   1      38.133  34.911  33.468  1.00  0.00     0.028 A 
ATOM    100  C   UNL A   1      37.310  33.080  34.848  1.00  0.00     0.041 A 
ATOM    101  C   UNL A   1      39.437  34.589  33.841  1.00  0.00     0.003 A 
ATOM    102  C   UNL A   1      38.621  32.720  35.180  1.00  0.00     0.058 A 
ATOM    103  C   UNL A   1      39.679  33.504  34.692  1.00  0.00     0.013 A 
BRANCH 102 104
ATOM    104  C   UNL A   1      38.887  31.521  36.051  1.00  0.00     0.416 C 
ATOM    105  F   UNL A   1      37.798  30.712  36.181  1.00  0.00    -0.166 F 
ATOM    106  F   UNL A   1      39.883  30.730  35.563  1.00  0.00    -0.166 F 
ATOM    107  F   UNL A   1      39.259  31.843  37.322  1.00  0.00    -0.166 F 
ENDBRANCH 102 104
ENDBRANCH  87  98
ENDBRANCH  81  83
ENDBRANCH  80  81
ENDBRANCH  79  80
ENDBRANCH  78  79
ENDBRANCH  77  78
ENDBRANCH  76  77
ENDBRANCH  75  76
ENDBRANCH  74  75
ENDBRANCH   1  74
TORSDOF 26
ENDMDL
