MODEL 1
REMARK VINA RESULT:     -10.2      0.000      0.000
REMARK SMILES O=C(CCCN1C(=O)/C(=C\c2ccc(O)c(O)c2)SC1=S)OCCOCCOCCOCCOC(=O)c1ccc(-c2c3nc(c(-c4cc(S(=O)(=O)[O-])ccc4F)c4ccc([nH]4)c(-c4cc(S(=O)(=O)[O-])ccc4F)c4nc(c(-c5cc(S(=O)(=O)[O-])ccc5F)c5ccc2[nH]5)C=C4)C=C3)cc1
REMARK SMILES IDX 27 1 26 2 25 3 24 4 23 5 22 6 2 7 1 8 3 9 4 10 5 11 6 12
REMARK SMILES IDX 7 13 20 14 8 15 9 16 19 17 21 18 10 19 11 20 12 21 18 22
REMARK SMILES IDX 13 23 16 24 14 25 17 26 15 28 28 30 29 31 30 32 31 33 32 34
REMARK SMILES IDX 33 35 34 36 35 37 36 38 37 39 38 40 99 41 39 42 98 43 40 44
REMARK SMILES IDX 41 45 42 46 92 47 43 48 97 49 91 50 93 51 44 52 96 53 90 54
REMARK SMILES IDX 89 55 45 57 77 58 57 59 76 60 58 61 61 62 75 63 94 64 59 65
REMARK SMILES IDX 60 66 74 68 95 69 62 70 46 71 47 72 55 73 48 74 54 75 56 76
REMARK SMILES IDX 53 77 49 78 50 79 51 80 52 81 78 82 79 83 87 84 80 85 86 86
REMARK SMILES IDX 88 87 85 88 81 89 82 90 83 91 84 92 63 93 64 94 72 95 65 96
REMARK SMILES IDX 71 97 73 98 70 99 66 100 67 101 68 102 69 103
REMARK H PARENT 17 27 15 29 93 56 61 67
REMARK Flexibility Score: inf
ROOT
ATOM      1  C   UNL A   1      31.419  28.826  22.494  1.00  0.00     0.188 C 
ENDROOT
BRANCH   1   2
ATOM      2  C   UNL A   1      32.772  28.120  22.574  1.00  0.00     0.188 C 
BRANCH   2   3
ATOM      3  O   UNL A   1      32.928  26.907  21.821  1.00  0.00    -0.376 OA
BRANCH   3   4
ATOM      4  C   UNL A   1      31.849  25.977  21.827  1.00  0.00     0.202 C 
BRANCH   4   5
ATOM      5  C   UNL A   1      31.952  24.927  22.919  1.00  0.00     0.261 C 
BRANCH   5   6
ATOM      6  O   UNL A   1      32.971  23.946  22.689  1.00  0.00    -0.463 OA
BRANCH   6   7
ATOM      7  C   UNL A   1      34.178  23.920  23.279  1.00  0.00     0.305 C 
ATOM      8  O   UNL A   1      35.059  23.207  22.796  1.00  0.00    -0.252 OA
BRANCH   7   9
ATOM      9  C   UNL A   1      34.455  24.720  24.534  1.00  0.00     0.124 C 
BRANCH   9  10
ATOM     10  C   UNL A   1      33.878  24.246  25.863  1.00  0.00     0.034 C 
BRANCH  10  11
ATOM     11  C   UNL A   1      34.705  23.293  26.751  1.00  0.00     0.128 C 
BRANCH  11  12
ATOM     12  N   UNL A   1      35.587  22.286  26.136  1.00  0.00    -0.293 N 
ATOM     13  C   UNL A   1      35.068  21.095  25.650  1.00  0.00     0.266 C 
ATOM     14  C   UNL A   1      36.901  22.547  25.786  1.00  0.00     0.148 C 
ATOM     15  O   UNL A   1      33.882  20.796  25.686  1.00  0.00    -0.268 OA
ATOM     16  C   UNL A   1      36.131  20.269  24.996  1.00  0.00     0.081 C 
ATOM     17  S   UNL A   1      37.594  21.180  24.929  1.00  0.00    -0.054 SA
ATOM     18  S   UNL A   1      37.788  23.937  26.047  1.00  0.00    -0.052 S 
ATOM     19  C   UNL A   1      36.070  19.009  24.530  1.00  0.00     0.029 C 
BRANCH  19  20
ATOM     20  C   UNL A   1      34.923  18.099  24.612  1.00  0.00    -0.020 A 
ATOM     21  C   UNL A   1      33.610  18.537  24.400  1.00  0.00     0.012 A 
ATOM     22  C   UNL A   1      35.152  16.750  24.916  1.00  0.00     0.058 A 
ATOM     23  C   UNL A   1      32.526  17.680  24.607  1.00  0.00     0.051 A 
ATOM     24  C   UNL A   1      34.073  15.898  25.106  1.00  0.00     0.157 A 
ATOM     25  C   UNL A   1      32.769  16.366  24.982  1.00  0.00     0.157 A 
BRANCH  24  26
ATOM     26  O   UNL A   1      34.299  14.595  25.449  1.00  0.00    -0.504 OA
ATOM     27  H   UNL A   1      34.867  14.391  26.165  1.00  0.00     0.293 HD
ENDBRANCH  24  26
BRANCH  25  28
ATOM     28  O   UNL A   1      31.748  15.497  25.254  1.00  0.00    -0.504 OA
ATOM     29  H   UNL A   1      31.390  14.966  24.570  1.00  0.00     0.293 HD
ENDBRANCH  25  28
ENDBRANCH  19  20
ENDBRANCH  11  12
ENDBRANCH  10  11
ENDBRANCH   9  10
ENDBRANCH   7   9
ENDBRANCH   6   7
ENDBRANCH   5   6
ENDBRANCH   4   5
ENDBRANCH   3   4
ENDBRANCH   2   3
ENDBRANCH   1   2
BRANCH   1  30
ATOM     30  O   UNL A   1      30.804  29.172  23.721  1.00  0.00    -0.377 OA
BRANCH  30  31
ATOM     31  C   UNL A   1      31.141  28.428  24.874  1.00  0.00     0.188 C 
BRANCH  31  32
ATOM     32  C   UNL A   1      31.799  29.222  26.020  1.00  0.00     0.188 C 
BRANCH  32  33
ATOM     33  O   UNL A   1      32.765  30.245  25.801  1.00  0.00    -0.376 OA
BRANCH  33  34
ATOM     34  C   UNL A   1      33.661  30.635  26.825  1.00  0.00     0.202 C 
BRANCH  34  35
ATOM     35  C   UNL A   1      33.124  31.647  27.845  1.00  0.00     0.261 C 
BRANCH  35  36
ATOM     36  O   UNL A   1      33.278  33.020  27.460  1.00  0.00    -0.460 OA
BRANCH  36  37
ATOM     37  C   UNL A   1      33.421  33.913  28.475  1.00  0.00     0.338 C 
ATOM     38  O   UNL A   1      32.639  34.797  28.786  1.00  0.00    -0.246 OA
BRANCH  37  39
ATOM     39  C   UNL A   1      34.598  33.532  29.296  1.00  0.00     0.060 A 
ATOM     40  C   UNL A   1      35.856  34.022  28.915  1.00  0.00     0.016 A 
ATOM     41  C   UNL A   1      34.471  32.776  30.466  1.00  0.00     0.016 A 
ATOM     42  C   UNL A   1      36.985  33.757  29.695  1.00  0.00     0.010 A 
ATOM     43  C   UNL A   1      35.606  32.491  31.235  1.00  0.00     0.010 A 
ATOM     44  C   UNL A   1      36.872  32.966  30.846  1.00  0.00    -0.014 A 
BRANCH  44  45
ATOM     45  C   UNL A   1      38.089  32.468  31.540  1.00  0.00     0.031 A 
ATOM     46  C   UNL A   1      38.862  31.352  30.889  1.00  0.00     0.074 A 
ATOM     47  C   UNL A   1      38.491  32.971  32.722  1.00  0.00     0.049 A 
ATOM     48  N   UNL A   1      39.884  30.677  31.339  1.00  0.00    -0.248 NA
ATOM     49  C   UNL A   1      38.410  30.943  29.548  1.00  0.00     0.031 C 
ATOM     50  C   UNL A   1      37.859  34.084  33.428  1.00  0.00     0.029 A 
ATOM     51  N   UNL A   1      39.521  32.592  33.550  1.00  0.00    -0.354 N 
ATOM     52  C   UNL A   1      40.196  29.756  30.344  1.00  0.00     0.074 A 
ATOM     53  C   UNL A   1      39.242  29.950  29.273  1.00  0.00     0.031 C 
ATOM     54  C   UNL A   1      38.498  34.279  34.597  1.00  0.00     0.029 A 
ATOM     55  C   UNL A   1      39.555  33.278  34.745  1.00  0.00     0.049 A 
ATOM     56  H   UNL A   1      40.174  31.895  33.312  1.00  0.00     0.167 HD
ATOM     57  C   UNL A   1      41.184  28.831  30.327  1.00  0.00     0.034 A 
ATOM     58  C   UNL A   1      40.321  33.089  35.841  1.00  0.00     0.034 A 
ATOM     59  C   UNL A   1      42.120  28.635  31.404  1.00  0.00     0.049 A 
ATOM     60  C   UNL A   1      41.349  31.976  35.836  1.00  0.00     0.074 A 
ATOM     61  C   UNL A   1      43.182  27.751  31.467  1.00  0.00     0.029 A 
ATOM     62  N   UNL A   1      42.093  29.314  32.613  1.00  0.00    -0.354 N 
ATOM     63  N   UNL A   1      41.657  31.137  34.872  1.00  0.00    -0.248 NA
ATOM     64  C   UNL A   1      42.129  31.780  37.067  1.00  0.00     0.031 C 
ATOM     65  C   UNL A   1      43.747  27.838  32.744  1.00  0.00     0.029 A 
ATOM     66  C   UNL A   1      43.088  28.833  33.449  1.00  0.00     0.049 A 
ATOM     67  H   UNL A   1      41.460  30.032  32.844  1.00  0.00     0.167 HD
ATOM     68  C   UNL A   1      42.681  30.336  35.378  1.00  0.00     0.074 A 
ATOM     69  C   UNL A   1      42.954  30.805  36.719  1.00  0.00     0.031 C 
ATOM     70  C   UNL A   1      43.339  29.305  34.789  1.00  0.00     0.034 A 
BRANCH  57  71
ATOM     71  C   UNL A   1      41.264  27.919  29.132  1.00  0.00     0.023 A 
ATOM     72  C   UNL A   1      42.213  28.110  28.113  1.00  0.00     0.031 A 
ATOM     73  C   UNL A   1      40.373  26.837  29.015  1.00  0.00     0.131 A 
ATOM     74  C   UNL A   1      42.222  27.257  27.000  1.00  0.00     0.055 A 
ATOM     75  C   UNL A   1      40.429  25.953  27.936  1.00  0.00     0.041 A 
ATOM     76  F   UNL A   1      39.431  26.625  29.947  1.00  0.00    -0.206 F 
ATOM     77  C   UNL A   1      41.352  26.165  26.917  1.00  0.00     0.022 A 
BRANCH  74  78
ATOM     78  S   UNL A   1      43.322  27.648  25.612  1.00  0.00     0.124 S 
ATOM     79  O   UNL A   1      44.073  26.403  25.472  1.00  0.00    -0.237 OA
ATOM     80  O   UNL A   1      42.381  27.952  24.541  1.00  0.00    -0.237 OA
ATOM     81  O   UNL A   1      44.099  28.786  26.101  1.00  0.00    -0.744 OA
ENDBRANCH  74  78
ENDBRANCH  57  71
BRANCH  58  82
ATOM     82  C   UNL A   1      40.111  33.900  37.080  1.00  0.00     0.023 A 
ATOM     83  C   UNL A   1      39.434  33.373  38.192  1.00  0.00     0.031 A 
ATOM     84  C   UNL A   1      40.483  35.257  37.125  1.00  0.00     0.131 A 
ATOM     85  C   UNL A   1      39.091  34.209  39.267  1.00  0.00     0.055 A 
ATOM     86  C   UNL A   1      40.196  36.068  38.224  1.00  0.00     0.041 A 
ATOM     87  F   UNL A   1      41.125  35.820  36.089  1.00  0.00    -0.206 F 
ATOM     88  C   UNL A   1      39.479  35.550  39.296  1.00  0.00     0.022 A 
BRANCH  85  89
ATOM     89  S   UNL A   1      38.015  33.550  40.573  1.00  0.00     0.124 S 
ATOM     90  O   UNL A   1      38.978  32.881  41.440  1.00  0.00    -0.237 OA
ATOM     91  O   UNL A   1      37.409  34.766  41.105  1.00  0.00    -0.237 OA
ATOM     92  O   UNL A   1      37.104  32.665  39.850  1.00  0.00    -0.744 OA
ENDBRANCH  85  89
ENDBRANCH  58  82
BRANCH  70  93
ATOM     93  C   UNL A   1      44.438  28.639  35.582  1.00  0.00     0.023 A 
ATOM     94  C   UNL A   1      44.168  27.601  36.490  1.00  0.00     0.031 A 
ATOM     95  C   UNL A   1      45.775  29.045  35.419  1.00  0.00     0.131 A 
ATOM     96  C   UNL A   1      45.213  27.033  37.234  1.00  0.00     0.055 A 
ATOM     97  C   UNL A   1      46.818  28.437  36.118  1.00  0.00     0.041 A 
ATOM     98  F   UNL A   1      46.091  30.033  34.566  1.00  0.00    -0.206 F 
ATOM     99  C   UNL A   1      46.539  27.432  37.040  1.00  0.00     0.022 A 
BRANCH  96 100
ATOM    100  S   UNL A   1      44.811  25.813  38.514  1.00  0.00     0.124 S 
ATOM    101  O   UNL A   1      43.913  26.567  39.381  1.00  0.00    -0.237 OA
ATOM    102  O   UNL A   1      44.197  24.738  37.740  1.00  0.00    -0.237 OA
ATOM    103  O   UNL A   1      46.112  25.488  39.099  1.00  0.00    -0.744 OA
ENDBRANCH  96 100
ENDBRANCH  70  93
ENDBRANCH  44  45
ENDBRANCH  37  39
ENDBRANCH  36  37
ENDBRANCH  35  36
ENDBRANCH  34  35
ENDBRANCH  33  34
ENDBRANCH  32  33
ENDBRANCH  31  32
ENDBRANCH  30  31
ENDBRANCH   1  30
TORSDOF 29
ENDMDL
MODEL 2
REMARK VINA RESULT:     -10.1      2.248      7.636
REMARK SMILES O=C(CCCN1C(=O)/C(=C\c2ccc(O)c(O)c2)SC1=S)OCCOCCOCCOCCOC(=O)c1ccc(-c2c3nc(c(-c4cc(S(=O)(=O)[O-])ccc4F)c4ccc([nH]4)c(-c4cc(S(=O)(=O)[O-])ccc4F)c4nc(c(-c5cc(S(=O)(=O)[O-])ccc5F)c5ccc2[nH]5)C=C4)C=C3)cc1
REMARK SMILES IDX 27 1 26 2 25 3 24 4 23 5 22 6 2 7 1 8 3 9 4 10 5 11 6 12
REMARK SMILES IDX 7 13 20 14 8 15 9 16 19 17 21 18 10 19 11 20 12 21 18 22
REMARK SMILES IDX 13 23 16 24 14 25 17 26 15 28 28 30 29 31 30 32 31 33 32 34
REMARK SMILES IDX 33 35 34 36 35 37 36 38 37 39 38 40 99 41 39 42 98 43 40 44
REMARK SMILES IDX 41 45 42 46 92 47 43 48 97 49 91 50 93 51 44 52 96 53 90 54
REMARK SMILES IDX 89 55 45 57 77 58 57 59 76 60 58 61 61 62 75 63 94 64 59 65
REMARK SMILES IDX 60 66 74 68 95 69 62 70 46 71 47 72 55 73 48 74 54 75 56 76
REMARK SMILES IDX 53 77 49 78 50 79 51 80 52 81 78 82 79 83 87 84 80 85 86 86
REMARK SMILES IDX 88 87 85 88 81 89 82 90 83 91 84 92 63 93 64 94 72 95 65 96
REMARK SMILES IDX 71 97 73 98 70 99 66 100 67 101 68 102 69 103
REMARK H PARENT 17 27 15 29 93 56 61 67
REMARK Flexibility Score: inf
ROOT
ATOM      1  C   UNL A   1      32.912  28.853  22.411  1.00  0.00     0.188 C 
ENDROOT
BRANCH   1   2
ATOM      2  C   UNL A   1      33.807  27.842  23.127  1.00  0.00     0.188 C 
BRANCH   2   3
ATOM      3  O   UNL A   1      33.952  26.546  22.525  1.00  0.00    -0.376 OA
BRANCH   3   4
ATOM      4  C   UNL A   1      32.921  26.102  21.647  1.00  0.00     0.202 C 
BRANCH   4   5
ATOM      5  C   UNL A   1      31.827  25.309  22.340  1.00  0.00     0.261 C 
BRANCH   5   6
ATOM      6  O   UNL A   1      32.217  23.981  22.712  1.00  0.00    -0.463 OA
BRANCH   6   7
ATOM      7  C   UNL A   1      32.332  23.525  23.971  1.00  0.00     0.305 C 
ATOM      8  O   UNL A   1      31.593  22.611  24.340  1.00  0.00    -0.252 OA
BRANCH   7   9
ATOM      9  C   UNL A   1      33.323  24.135  24.940  1.00  0.00     0.124 C 
BRANCH   9  10
ATOM     10  C   UNL A   1      33.244  23.764  26.416  1.00  0.00     0.034 C 
BRANCH  10  11
ATOM     11  C   UNL A   1      34.427  23.025  27.076  1.00  0.00     0.128 C 
BRANCH  11  12
ATOM     12  N   UNL A   1      35.258  22.102  26.283  1.00  0.00    -0.293 N 
ATOM     13  C   UNL A   1      34.730  20.917  25.794  1.00  0.00     0.266 C 
ATOM     14  C   UNL A   1      36.499  22.452  25.776  1.00  0.00     0.148 C 
ATOM     15  O   UNL A   1      33.575  20.555  25.971  1.00  0.00    -0.268 OA
ATOM     16  C   UNL A   1      35.727  20.187  24.950  1.00  0.00     0.081 C 
ATOM     17  S   UNL A   1      37.126  21.175  24.746  1.00  0.00    -0.054 SA
ATOM     18  S   UNL A   1      37.352  23.868  26.004  1.00  0.00    -0.052 S 
ATOM     19  C   UNL A   1      35.657  18.955  24.416  1.00  0.00     0.029 C 
BRANCH  19  20
ATOM     20  C   UNL A   1      34.574  17.983  24.593  1.00  0.00    -0.020 A 
ATOM     21  C   UNL A   1      33.225  18.348  24.493  1.00  0.00     0.012 A 
ATOM     22  C   UNL A   1      34.902  16.650  24.872  1.00  0.00     0.058 A 
ATOM     23  C   UNL A   1      32.212  17.433  24.790  1.00  0.00     0.051 A 
ATOM     24  C   UNL A   1      33.891  15.740  25.151  1.00  0.00     0.157 A 
ATOM     25  C   UNL A   1      32.558  16.135  25.140  1.00  0.00     0.157 A 
BRANCH  24  26
ATOM     26  O   UNL A   1      34.217  14.453  25.471  1.00  0.00    -0.504 OA
ATOM     27  H   UNL A   1      33.593  13.905  25.904  1.00  0.00     0.293 HD
ENDBRANCH  24  26
BRANCH  25  28
ATOM     28  O   UNL A   1      31.613  15.211  25.495  1.00  0.00    -0.504 OA
ATOM     29  H   UNL A   1      30.928  14.988  24.896  1.00  0.00     0.293 HD
ENDBRANCH  25  28
ENDBRANCH  19  20
ENDBRANCH  11  12
ENDBRANCH  10  11
ENDBRANCH   9  10
ENDBRANCH   7   9
ENDBRANCH   6   7
ENDBRANCH   5   6
ENDBRANCH   4   5
ENDBRANCH   3   4
ENDBRANCH   2   3
ENDBRANCH   1   2
BRANCH   1  30
ATOM     30  O   UNL A   1      31.589  28.991  22.895  1.00  0.00    -0.377 OA
BRANCH  30  31
ATOM     31  C   UNL A   1      31.325  28.639  24.238  1.00  0.00     0.188 C 
BRANCH  31  32
ATOM     32  C   UNL A   1      31.010  29.809  25.191  1.00  0.00     0.188 C 
BRANCH  32  33
ATOM     33  O   UNL A   1      31.997  30.734  25.637  1.00  0.00    -0.376 OA
BRANCH  33  34
ATOM     34  C   UNL A   1      31.876  31.383  26.890  1.00  0.00     0.202 C 
BRANCH  34  35
ATOM     35  C   UNL A   1      32.065  32.905  26.885  1.00  0.00     0.261 C 
BRANCH  35  36
ATOM     36  O   UNL A   1      32.625  33.440  28.093  1.00  0.00    -0.460 OA
BRANCH  36  37
ATOM     37  C   UNL A   1      33.782  34.139  27.956  1.00  0.00     0.338 C 
ATOM     38  O   UNL A   1      33.894  35.311  27.634  1.00  0.00    -0.246 OA
BRANCH  37  39
ATOM     39  C   UNL A   1      34.911  33.311  28.450  1.00  0.00     0.060 A 
ATOM     40  C   UNL A   1      34.643  31.990  28.837  1.00  0.00     0.016 A 
ATOM     41  C   UNL A   1      36.227  33.786  28.460  1.00  0.00     0.016 A 
ATOM     42  C   UNL A   1      35.683  31.146  29.238  1.00  0.00     0.010 A 
ATOM     43  C   UNL A   1      37.265  32.947  28.883  1.00  0.00     0.010 A 
ATOM     44  C   UNL A   1      36.997  31.627  29.289  1.00  0.00    -0.014 A 
BRANCH  44  45
ATOM     45  C   UNL A   1      38.065  30.829  29.947  1.00  0.00     0.031 A 
ATOM     46  C   UNL A   1      38.392  31.141  31.384  1.00  0.00     0.074 A 
ATOM     47  C   UNL A   1      38.745  29.870  29.291  1.00  0.00     0.049 A 
ATOM     48  N   UNL A   1      39.344  30.667  32.141  1.00  0.00    -0.248 NA
ATOM     49  C   UNL A   1      37.524  32.128  32.049  1.00  0.00     0.031 C 
ATOM     50  C   UNL A   1      38.489  29.440  27.917  1.00  0.00     0.029 A 
ATOM     51  N   UNL A   1      39.808  29.096  29.691  1.00  0.00    -0.354 N 
ATOM     52  C   UNL A   1      39.200  31.302  33.370  1.00  0.00     0.074 A 
ATOM     53  C   UNL A   1      38.076  32.207  33.250  1.00  0.00     0.031 C 
ATOM     54  C   UNL A   1      39.391  28.499  27.579  1.00  0.00     0.029 A 
ATOM     55  C   UNL A   1      40.315  28.291  28.694  1.00  0.00     0.049 A 
ATOM     56  H   UNL A   1      40.174  29.115  30.604  1.00  0.00     0.167 HD
ATOM     57  C   UNL A   1      39.938  31.148  34.494  1.00  0.00     0.034 A 
ATOM     58  C   UNL A   1      41.420  27.513  28.674  1.00  0.00     0.034 A 
ATOM     59  C   UNL A   1      41.063  30.255  34.600  1.00  0.00     0.049 A 
ATOM     60  C   UNL A   1      42.289  27.440  29.912  1.00  0.00     0.074 A 
ATOM     61  C   UNL A   1      41.852  29.997  35.706  1.00  0.00     0.029 A 
ATOM     62  N   UNL A   1      41.575  29.495  33.558  1.00  0.00    -0.354 N 
ATOM     63  N   UNL A   1      42.118  28.018  31.080  1.00  0.00    -0.248 NA
ATOM     64  C   UNL A   1      43.504  26.615  29.829  1.00  0.00     0.031 C 
ATOM     65  C   UNL A   1      42.889  29.143  35.313  1.00  0.00     0.029 A 
ATOM     66  C   UNL A   1      42.700  28.806  33.982  1.00  0.00     0.049 A 
ATOM     67  H   UNL A   1      41.194  29.451  32.652  1.00  0.00     0.167 HD
ATOM     68  C   UNL A   1      43.190  27.604  31.871  1.00  0.00     0.074 A 
ATOM     69  C   UNL A   1      43.987  26.711  31.058  1.00  0.00     0.031 C 
ATOM     70  C   UNL A   1      43.491  27.929  33.154  1.00  0.00     0.034 A 
BRANCH  57  71
ATOM     71  C   UNL A   1      39.590  32.007  35.680  1.00  0.00     0.023 A 
ATOM     72  C   UNL A   1      38.696  31.575  36.674  1.00  0.00     0.031 A 
ATOM     73  C   UNL A   1      40.167  33.282  35.815  1.00  0.00     0.131 A 
ATOM     74  C   UNL A   1      38.373  32.428  37.739  1.00  0.00     0.055 A 
ATOM     75  C   UNL A   1      39.891  34.101  36.912  1.00  0.00     0.041 A 
ATOM     76  F   UNL A   1      41.007  33.753  34.881  1.00  0.00    -0.206 F 
ATOM     77  C   UNL A   1      38.984  33.678  37.877  1.00  0.00     0.022 A 
BRANCH  74  78
ATOM     78  S   UNL A   1      37.069  31.923  38.895  1.00  0.00     0.124 S 
ATOM     79  O   UNL A   1      35.946  32.746  38.450  1.00  0.00    -0.237 OA
ATOM     80  O   UNL A   1      36.955  30.493  38.636  1.00  0.00    -0.237 OA
ATOM     81  O   UNL A   1      37.615  32.279  40.204  1.00  0.00    -0.744 OA
ENDBRANCH  74  78
ENDBRANCH  57  71
BRANCH  58  82
ATOM     82  C   UNL A   1      41.838  26.796  27.429  1.00  0.00     0.023 A 
ATOM     83  C   UNL A   1      41.678  25.407  27.298  1.00  0.00     0.031 A 
ATOM     84  C   UNL A   1      42.513  27.477  26.399  1.00  0.00     0.131 A 
ATOM     85  C   UNL A   1      42.242  24.736  26.200  1.00  0.00     0.055 A 
ATOM     86  C   UNL A   1      43.017  26.814  25.279  1.00  0.00     0.041 A 
ATOM     87  F   UNL A   1      42.706  28.804  26.473  1.00  0.00    -0.206 F 
ATOM     88  C   UNL A   1      42.900  25.432  25.184  1.00  0.00     0.022 A 
BRANCH  85  89
ATOM     89  S   UNL A   1      42.219  22.920  26.184  1.00  0.00     0.124 S 
ATOM     90  O   UNL A   1      40.794  22.642  26.325  1.00  0.00    -0.237 OA
ATOM     91  O   UNL A   1      42.805  22.623  24.882  1.00  0.00    -0.237 OA
ATOM     92  O   UNL A   1      43.042  22.559  27.335  1.00  0.00    -0.744 OA
ENDBRANCH  85  89
ENDBRANCH  58  82
BRANCH  70  93
ATOM     93  C   UNL A   1      44.715  27.289  33.764  1.00  0.00     0.023 A 
ATOM     94  C   UNL A   1      45.970  27.922  33.734  1.00  0.00     0.031 A 
ATOM     95  C   UNL A   1      44.621  26.034  34.391  1.00  0.00     0.131 A 
ATOM     96  C   UNL A   1      47.090  27.278  34.281  1.00  0.00     0.055 A 
ATOM     97  C   UNL A   1      45.727  25.425  34.984  1.00  0.00     0.041 A 
ATOM     98  F   UNL A   1      43.447  25.384  34.448  1.00  0.00    -0.206 F 
ATOM     99  C   UNL A   1      46.973  26.042  34.922  1.00  0.00     0.022 A 
BRANCH  96 100
ATOM    100  S   UNL A   1      48.722  28.045  34.080  1.00  0.00     0.124 S 
ATOM    101  O   UNL A   1      48.378  29.348  33.523  1.00  0.00    -0.237 OA
ATOM    102  O   UNL A   1      49.235  28.050  35.446  1.00  0.00    -0.237 OA
ATOM    103  O   UNL A   1      49.415  27.141  33.162  1.00  0.00    -0.744 OA
ENDBRANCH  96 100
ENDBRANCH  70  93
ENDBRANCH  44  45
ENDBRANCH  37  39
ENDBRANCH  36  37
ENDBRANCH  35  36
ENDBRANCH  34  35
ENDBRANCH  33  34
ENDBRANCH  32  33
ENDBRANCH  31  32
ENDBRANCH  30  31
ENDBRANCH   1  30
TORSDOF 29
ENDMDL
MODEL 3
REMARK VINA RESULT:      -9.0      6.781     12.614
REMARK SMILES O=C(CCCN1C(=O)/C(=C\c2ccc(O)c(O)c2)SC1=S)OCCOCCOCCOCCOC(=O)c1ccc(-c2c3nc(c(-c4cc(S(=O)(=O)[O-])ccc4F)c4ccc([nH]4)c(-c4cc(S(=O)(=O)[O-])ccc4F)c4nc(c(-c5cc(S(=O)(=O)[O-])ccc5F)c5ccc2[nH]5)C=C4)C=C3)cc1
REMARK SMILES IDX 27 1 26 2 25 3 24 4 23 5 22 6 2 7 1 8 3 9 4 10 5 11 6 12
REMARK SMILES IDX 7 13 20 14 8 15 9 16 19 17 21 18 10 19 11 20 12 21 18 22
REMARK SMILES IDX 13 23 16 24 14 25 17 26 15 28 28 30 29 31 30 32 31 33 32 34
REMARK SMILES IDX 33 35 34 36 35 37 36 38 37 39 38 40 99 41 39 42 98 43 40 44
REMARK SMILES IDX 41 45 42 46 92 47 43 48 97 49 91 50 93 51 44 52 96 53 90 54
REMARK SMILES IDX 89 55 45 57 77 58 57 59 76 60 58 61 61 62 75 63 94 64 59 65
REMARK SMILES IDX 60 66 74 68 95 69 62 70 46 71 47 72 55 73 48 74 54 75 56 76
REMARK SMILES IDX 53 77 49 78 50 79 51 80 52 81 78 82 79 83 87 84 80 85 86 86
REMARK SMILES IDX 88 87 85 88 81 89 82 90 83 91 84 92 63 93 64 94 72 95 65 96
REMARK SMILES IDX 71 97 73 98 70 99 66 100 67 101 68 102 69 103
REMARK H PARENT 17 27 15 29 93 56 61 67
REMARK Flexibility Score: inf
ROOT
ATOM      1  C   UNL A   1      49.950  28.257  27.538  1.00  0.00     0.188 C 
ENDROOT
BRANCH   1   2
ATOM      2  C   UNL A   1      49.599  27.704  26.158  1.00  0.00     0.188 C 
BRANCH   2   3
ATOM      3  O   UNL A   1      48.866  26.470  26.108  1.00  0.00    -0.376 OA
BRANCH   3   4
ATOM      4  C   UNL A   1      48.436  25.901  27.341  1.00  0.00     0.202 C 
BRANCH   4   5
ATOM      5  C   UNL A   1      47.118  25.154  27.243  1.00  0.00     0.261 C 
BRANCH   5   6
ATOM      6  O   UNL A   1      47.186  23.954  26.461  1.00  0.00    -0.463 OA
BRANCH   6   7
ATOM      7  C   UNL A   1      46.621  23.776  25.255  1.00  0.00     0.305 C 
ATOM      8  O   UNL A   1      46.879  24.577  24.355  1.00  0.00    -0.252 OA
BRANCH   7   9
ATOM      9  C   UNL A   1      45.658  22.637  24.999  1.00  0.00     0.124 C 
BRANCH   9  10
ATOM     10  C   UNL A   1      44.408  22.891  24.164  1.00  0.00     0.034 C 
BRANCH  10  11
ATOM     11  C   UNL A   1      43.036  22.988  24.864  1.00  0.00     0.128 C 
BRANCH  11  12
ATOM     12  N   UNL A   1      42.945  23.481  26.249  1.00  0.00    -0.293 N 
ATOM     13  C   UNL A   1      43.013  24.838  26.522  1.00  0.00     0.266 C 
ATOM     14  C   UNL A   1      42.549  22.682  27.309  1.00  0.00     0.148 C 
ATOM     15  O   UNL A   1      43.147  25.706  25.670  1.00  0.00    -0.268 OA
ATOM     16  C   UNL A   1      42.813  25.108  27.981  1.00  0.00     0.081 C 
ATOM     17  S   UNL A   1      42.392  23.635  28.775  1.00  0.00    -0.054 SA
ATOM     18  S   UNL A   1      42.200  21.050  27.304  1.00  0.00    -0.052 S 
ATOM     19  C   UNL A   1      42.942  26.258  28.664  1.00  0.00     0.029 C 
BRANCH  19  20
ATOM     20  C   UNL A   1      43.384  27.550  28.130  1.00  0.00    -0.020 A 
ATOM     21  C   UNL A   1      42.488  28.600  27.888  1.00  0.00     0.012 A 
ATOM     22  C   UNL A   1      44.745  27.736  27.852  1.00  0.00     0.058 A 
ATOM     23  C   UNL A   1      42.913  29.774  27.261  1.00  0.00     0.051 A 
ATOM     24  C   UNL A   1      45.165  28.911  27.244  1.00  0.00     0.157 A 
ATOM     25  C   UNL A   1      44.253  29.911  26.923  1.00  0.00     0.157 A 
BRANCH  24  26
ATOM     26  O   UNL A   1      46.485  29.069  26.930  1.00  0.00    -0.504 OA
ATOM     27  H   UNL A   1      47.144  28.876  27.567  1.00  0.00     0.293 HD
ENDBRANCH  24  26
BRANCH  25  28
ATOM     28  O   UNL A   1      44.716  31.013  26.259  1.00  0.00    -0.504 OA
ATOM     29  H   UNL A   1      44.960  31.780  26.737  1.00  0.00     0.293 HD
ENDBRANCH  25  28
ENDBRANCH  19  20
ENDBRANCH  11  12
ENDBRANCH  10  11
ENDBRANCH   9  10
ENDBRANCH   7   9
ENDBRANCH   6   7
ENDBRANCH   5   6
ENDBRANCH   4   5
ENDBRANCH   3   4
ENDBRANCH   2   3
ENDBRANCH   1   2
BRANCH   1  30
ATOM     30  O   UNL A   1      51.325  28.409  27.835  1.00  0.00    -0.377 OA
BRANCH  30  31
ATOM     31  C   UNL A   1      52.113  27.246  27.984  1.00  0.00     0.188 C 
BRANCH  31  32
ATOM     32  C   UNL A   1      51.721  26.311  29.145  1.00  0.00     0.188 C 
BRANCH  32  33
ATOM     33  O   UNL A   1      51.919  26.648  30.515  1.00  0.00    -0.376 OA
BRANCH  33  34
ATOM     34  C   UNL A   1      52.121  25.643  31.493  1.00  0.00     0.202 C 
BRANCH  34  35
ATOM     35  C   UNL A   1      51.038  25.520  32.571  1.00  0.00     0.261 C 
BRANCH  35  36
ATOM     36  O   UNL A   1      49.873  24.787  32.165  1.00  0.00    -0.460 OA
BRANCH  36  37
ATOM     37  C   UNL A   1      48.761  24.966  32.925  1.00  0.00     0.338 C 
ATOM     38  O   UNL A   1      48.471  24.368  33.948  1.00  0.00    -0.246 OA
BRANCH  37  39
ATOM     39  C   UNL A   1      48.019  26.153  32.429  1.00  0.00     0.060 A 
ATOM     40  C   UNL A   1      47.513  26.119  31.122  1.00  0.00     0.016 A 
ATOM     41  C   UNL A   1      47.750  27.253  33.252  1.00  0.00     0.016 A 
ATOM     42  C   UNL A   1      46.743  27.179  30.633  1.00  0.00     0.010 A 
ATOM     43  C   UNL A   1      46.998  28.324  32.754  1.00  0.00     0.010 A 
ATOM     44  C   UNL A   1      46.504  28.301  31.437  1.00  0.00    -0.014 A 
BRANCH  44  45
ATOM     45  C   UNL A   1      45.910  29.532  30.853  1.00  0.00     0.031 A 
ATOM     46  C   UNL A   1      46.838  30.511  30.185  1.00  0.00     0.074 A 
ATOM     47  C   UNL A   1      44.590  29.791  30.928  1.00  0.00     0.049 A 
ATOM     48  N   UNL A   1      46.585  31.697  29.699  1.00  0.00    -0.248 NA
ATOM     49  C   UNL A   1      48.243  30.091  30.055  1.00  0.00     0.031 C 
ATOM     50  C   UNL A   1      43.584  28.901  31.503  1.00  0.00     0.029 A 
ATOM     51  N   UNL A   1      43.874  30.896  30.533  1.00  0.00    -0.354 N 
ATOM     52  C   UNL A   1      47.798  32.172  29.213  1.00  0.00     0.074 A 
ATOM     53  C   UNL A   1      48.790  31.152  29.479  1.00  0.00     0.031 C 
ATOM     54  C   UNL A   1      42.383  29.507  31.449  1.00  0.00     0.029 A 
ATOM     55  C   UNL A   1      42.540  30.845  30.879  1.00  0.00     0.049 A 
ATOM     56  H   UNL A   1      44.275  31.653  30.049  1.00  0.00     0.167 HD
ATOM     57  C   UNL A   1      48.062  33.352  28.605  1.00  0.00     0.034 A 
ATOM     58  C   UNL A   1      41.575  31.786  30.783  1.00  0.00     0.034 A 
ATOM     59  C   UNL A   1      47.072  34.368  28.359  1.00  0.00     0.049 A 
ATOM     60  C   UNL A   1      41.923  33.138  30.196  1.00  0.00     0.074 A 
ATOM     61  C   UNL A   1      47.230  35.582  27.715  1.00  0.00     0.029 A 
ATOM     62  N   UNL A   1      45.747  34.301  28.764  1.00  0.00    -0.354 N 
ATOM     63  N   UNL A   1      43.068  33.559  29.707  1.00  0.00    -0.248 NA
ATOM     64  C   UNL A   1      40.851  34.144  30.153  1.00  0.00     0.031 C 
ATOM     65  C   UNL A   1      46.023  36.283  27.802  1.00  0.00     0.029 A 
ATOM     66  C   UNL A   1      45.089  35.474  28.430  1.00  0.00     0.049 A 
ATOM     67  H   UNL A   1      45.335  33.534  29.223  1.00  0.00     0.167 HD
ATOM     68  C   UNL A   1      42.840  34.867  29.278  1.00  0.00     0.074 A 
ATOM     69  C   UNL A   1      41.448  35.157  29.544  1.00  0.00     0.031 C 
ATOM     70  C   UNL A   1      43.702  35.751  28.713  1.00  0.00     0.034 A 
BRANCH  57  71
ATOM     71  C   UNL A   1      49.491  33.634  28.221  1.00  0.00     0.023 A 
ATOM     72  C   UNL A   1      49.992  33.325  26.945  1.00  0.00     0.031 A 
ATOM     73  C   UNL A   1      50.363  34.225  29.152  1.00  0.00     0.131 A 
ATOM     74  C   UNL A   1      51.340  33.571  26.649  1.00  0.00     0.055 A 
ATOM     75  C   UNL A   1      51.687  34.526  28.829  1.00  0.00     0.041 A 
ATOM     76  F   UNL A   1      49.942  34.516  30.393  1.00  0.00    -0.206 F 
ATOM     77  C   UNL A   1      52.185  34.192  27.574  1.00  0.00     0.022 A 
BRANCH  74  78
ATOM     78  S   UNL A   1      52.005  32.980  25.068  1.00  0.00     0.124 S 
ATOM     79  O   UNL A   1      53.443  33.129  25.279  1.00  0.00    -0.237 OA
ATOM     80  O   UNL A   1      51.506  31.611  25.008  1.00  0.00    -0.237 OA
ATOM     81  O   UNL A   1      51.427  33.898  24.089  1.00  0.00    -0.744 OA
ENDBRANCH  74  78
ENDBRANCH  57  71
BRANCH  58  82
ATOM     82  C   UNL A   1      40.202  31.542  31.324  1.00  0.00     0.023 A 
ATOM     83  C   UNL A   1      39.868  31.879  32.646  1.00  0.00     0.031 A 
ATOM     84  C   UNL A   1      39.238  30.859  30.560  1.00  0.00     0.131 A 
ATOM     85  C   UNL A   1      38.634  31.475  33.183  1.00  0.00     0.055 A 
ATOM     86  C   UNL A   1      37.988  30.515  31.078  1.00  0.00     0.041 A 
ATOM     87  F   UNL A   1      39.503  30.501  29.293  1.00  0.00    -0.206 F 
ATOM     88  C   UNL A   1      37.687  30.807  32.405  1.00  0.00     0.022 A 
BRANCH  85  89
ATOM     89  S   UNL A   1      38.334  31.722  34.957  1.00  0.00     0.124 S 
ATOM     90  O   UNL A   1      39.381  32.677  35.304  1.00  0.00    -0.237 OA
ATOM     91  O   UNL A   1      36.969  32.234  34.963  1.00  0.00    -0.237 OA
ATOM     92  O   UNL A   1      38.500  30.383  35.519  1.00  0.00    -0.744 OA
ENDBRANCH  85  89
ENDBRANCH  58  82
BRANCH  70  93
ATOM     93  C   UNL A   1      43.153  37.101  28.319  1.00  0.00     0.023 A 
ATOM     94  C   UNL A   1      43.221  38.207  29.183  1.00  0.00     0.031 A 
ATOM     95  C   UNL A   1      42.561  37.283  27.055  1.00  0.00     0.131 A 
ATOM     96  C   UNL A   1      42.666  39.435  28.792  1.00  0.00     0.055 A 
ATOM     97  C   UNL A   1      42.065  38.522  26.649  1.00  0.00     0.041 A 
ATOM     98  F   UNL A   1      42.469  36.261  26.190  1.00  0.00    -0.206 F 
ATOM     99  C   UNL A   1      42.105  39.604  27.523  1.00  0.00     0.022 A 
BRANCH  96 100
ATOM    100  S   UNL A   1      42.622  40.795  29.992  1.00  0.00     0.124 S 
ATOM    101  O   UNL A   1      43.090  40.140  31.209  1.00  0.00    -0.237 OA
ATOM    102  O   UNL A   1      43.535  41.766  29.399  1.00  0.00    -0.237 OA
ATOM    103  O   UNL A   1      41.215  41.196  30.005  1.00  0.00    -0.744 OA
ENDBRANCH  96 100
ENDBRANCH  70  93
ENDBRANCH  44  45
ENDBRANCH  37  39
ENDBRANCH  36  37
ENDBRANCH  35  36
ENDBRANCH  34  35
ENDBRANCH  33  34
ENDBRANCH  32  33
ENDBRANCH  31  32
ENDBRANCH  30  31
ENDBRANCH   1  30
TORSDOF 29
ENDMDL
