MODEL 1
REMARK VINA RESULT:      -6.4      0.000      0.000
REMARK SMILES C[C@@H](CC(=O)OCCOCCOCCOCCOC(=O)c1ccc(-c2c3nc(c(-c4cc(S(=O)(=O)[O-])ccc4F)c4ccc([nH]4)c(-c4cc(S(=O)(=O)[O-])ccc4F)c4nc(c(-c5cc(S(=O)(=O)[O-])ccc5F)c5ccc2[nH]5)C=C4)C=C3)cc1)NC(=O)CN(C)c1ncccn1
REMARK SMILES IDX 11 1 10 2 9 3 8 4 7 5 6 6 4 7 5 8 3 9 2 10 1 11 84 12 85 13
REMARK SMILES IDX 86 15 87 16 88 17 89 18 90 19 91 20 95 21 92 22 94 23 93 24
REMARK SMILES IDX 12 25 13 26 14 27 15 28 16 29 17 30 18 31 19 32 20 33 21 34
REMARK SMILES IDX 22 35 83 36 23 37 82 38 24 39 25 40 26 41 76 42 27 43 81 44
REMARK SMILES IDX 75 45 77 46 28 47 80 48 74 49 73 50 29 52 61 53 41 54 60 55
REMARK SMILES IDX 42 56 45 57 59 58 78 59 43 60 44 61 58 63 79 64 46 65 30 66
REMARK SMILES IDX 31 67 39 68 32 69 38 70 40 71 37 72 33 73 34 74 35 75 36 76
REMARK SMILES IDX 62 77 63 78 71 79 64 80 70 81 72 82 69 83 65 84 66 85 67 86
REMARK SMILES IDX 68 87 47 88 48 89 56 90 49 91 55 92 57 93 54 94 50 95 51 96
REMARK SMILES IDX 52 97 53 98
REMARK H PARENT 84 14 77 51 45 62
REMARK Flexibility Score: inf
ROOT
ATOM      1  C   UNL A   1      37.560  30.979  32.663  1.00  0.00     0.188 C 
ENDROOT
BRANCH   1   2
ATOM      2  C   UNL A   1      36.895  29.615  32.502  1.00  0.00     0.188 C 
BRANCH   2   3
ATOM      3  O   UNL A   1      37.567  28.439  32.909  1.00  0.00    -0.376 OA
BRANCH   3   4
ATOM      4  C   UNL A   1      38.564  27.855  32.079  1.00  0.00     0.202 C 
BRANCH   4   5
ATOM      5  C   UNL A   1      39.906  28.570  31.820  1.00  0.00     0.261 C 
BRANCH   5   6
ATOM      6  O   UNL A   1      40.676  28.078  30.693  1.00  0.00    -0.463 OA
BRANCH   6   7
ATOM      7  C   UNL A   1      40.117  28.196  29.471  1.00  0.00     0.307 C 
ATOM      8  O   UNL A   1      39.514  29.202  29.096  1.00  0.00    -0.252 OA
BRANCH   7   9
ATOM      9  C   UNL A   1      40.284  27.024  28.511  1.00  0.00     0.147 C 
BRANCH   9  10
ATOM     10  C   UNL A   1      41.580  26.571  27.808  1.00  0.00     0.090 C 
ATOM     11  C   UNL A   1      42.730  26.210  28.729  1.00  0.00     0.031 C 
BRANCH  10  12
ATOM     12  N   UNL A   1      42.040  27.479  26.765  1.00  0.00    -0.352 N 
ATOM     13  C   UNL A   1      42.369  27.242  25.458  1.00  0.00     0.239 C 
ATOM     14  H   UNL A   1      42.127  28.418  27.048  1.00  0.00     0.163 HD
ATOM     15  O   UNL A   1      42.273  28.170  24.647  1.00  0.00    -0.273 OA
BRANCH  13  16
ATOM     16  C   UNL A   1      42.793  25.841  25.002  1.00  0.00     0.219 C 
BRANCH  16  17
ATOM     17  N   UNL A   1      44.236  25.606  25.023  1.00  0.00    -0.335 N 
ATOM     18  C   UNL A   1      45.174  26.703  25.001  1.00  0.00     0.147 C 
BRANCH  17  19
ATOM     19  C   UNL A   1      44.739  24.325  24.979  1.00  0.00     0.225 A 
ATOM     20  N   UNL A   1      44.131  23.368  25.701  1.00  0.00    -0.221 NA
ATOM     21  N   UNL A   1      45.840  24.081  24.256  1.00  0.00    -0.221 NA
ATOM     22  C   UNL A   1      44.684  22.137  25.701  1.00  0.00     0.117 A 
ATOM     23  C   UNL A   1      46.394  22.856  24.329  1.00  0.00     0.117 A 
ATOM     24  C   UNL A   1      45.845  21.826  25.043  1.00  0.00     0.040 A 
ENDBRANCH  17  19
ENDBRANCH  16  17
ENDBRANCH  13  16
ENDBRANCH  10  12
ENDBRANCH   9  10
ENDBRANCH   7   9
ENDBRANCH   6   7
ENDBRANCH   5   6
ENDBRANCH   4   5
ENDBRANCH   3   4
ENDBRANCH   2   3
ENDBRANCH   1   2
BRANCH   1  25
ATOM     25  O   UNL A   1      37.444  31.622  33.919  1.00  0.00    -0.377 OA
BRANCH  25  26
ATOM     26  C   UNL A   1      38.048  31.041  35.072  1.00  0.00     0.188 C 
BRANCH  26  27
ATOM     27  C   UNL A   1      39.548  31.251  35.302  1.00  0.00     0.188 C 
BRANCH  27  28
ATOM     28  O   UNL A   1      39.900  31.247  36.673  1.00  0.00    -0.376 OA
BRANCH  28  29
ATOM     29  C   UNL A   1      40.362  32.438  37.292  1.00  0.00     0.202 C 
BRANCH  29  30
ATOM     30  C   UNL A   1      39.571  33.757  37.189  1.00  0.00     0.261 C 
BRANCH  30  31
ATOM     31  O   UNL A   1      40.300  34.993  37.096  1.00  0.00    -0.460 OA
BRANCH  31  32
ATOM     32  C   UNL A   1      40.189  35.737  35.981  1.00  0.00     0.338 C 
ATOM     33  O   UNL A   1      39.652  36.830  35.877  1.00  0.00    -0.246 OA
BRANCH  32  34
ATOM     34  C   UNL A   1      41.000  35.087  34.928  1.00  0.00     0.060 A 
ATOM     35  C   UNL A   1      40.357  34.331  33.940  1.00  0.00     0.016 A 
ATOM     36  C   UNL A   1      42.393  35.205  34.928  1.00  0.00     0.016 A 
ATOM     37  C   UNL A   1      41.107  33.643  32.984  1.00  0.00     0.010 A 
ATOM     38  C   UNL A   1      43.144  34.502  33.979  1.00  0.00     0.010 A 
ATOM     39  C   UNL A   1      42.506  33.681  33.031  1.00  0.00    -0.014 A 
BRANCH  39  40
ATOM     40  C   UNL A   1      43.299  32.694  32.251  1.00  0.00     0.031 A 
ATOM     41  C   UNL A   1      43.571  31.350  32.877  1.00  0.00     0.074 A 
ATOM     42  C   UNL A   1      43.741  32.962  31.009  1.00  0.00     0.049 A 
ATOM     43  N   UNL A   1      44.289  30.352  32.433  1.00  0.00    -0.248 NA
ATOM     44  C   UNL A   1      42.951  31.108  34.189  1.00  0.00     0.031 C 
ATOM     45  C   UNL A   1      43.493  34.199  30.273  1.00  0.00     0.029 A 
ATOM     46  N   UNL A   1      44.501  32.206  30.149  1.00  0.00    -0.354 N 
ATOM     47  C   UNL A   1      44.213  29.366  33.413  1.00  0.00     0.074 A 
ATOM     48  C   UNL A   1      43.417  29.908  34.493  1.00  0.00     0.031 C 
ATOM     49  C   UNL A   1      44.097  34.120  29.073  1.00  0.00     0.029 A 
ATOM     50  C   UNL A   1      44.811  32.849  28.974  1.00  0.00     0.049 A 
ATOM     51  H   UNL A   1      44.796  31.290  30.356  1.00  0.00     0.167 HD
ATOM     52  C   UNL A   1      44.750  28.120  33.409  1.00  0.00     0.034 A 
ATOM     53  C   UNL A   1      45.604  32.465  27.950  1.00  0.00     0.034 A 
ATOM     54  C   UNL A   1      45.551  27.600  32.329  1.00  0.00     0.049 A 
ATOM     55  C   UNL A   1      46.277  31.112  28.012  1.00  0.00     0.074 A 
ATOM     56  C   UNL A   1      46.141  26.353  32.217  1.00  0.00     0.029 A 
ATOM     57  N   UNL A   1      45.886  28.300  31.176  1.00  0.00    -0.354 N 
ATOM     58  N   UNL A   1      46.204  30.190  28.946  1.00  0.00    -0.248 NA
ATOM     59  C   UNL A   1      47.132  30.743  26.875  1.00  0.00     0.031 C 
ATOM     60  C   UNL A   1      46.899  26.329  31.043  1.00  0.00     0.029 A 
ATOM     61  C   UNL A   1      46.703  27.523  30.368  1.00  0.00     0.049 A 
ATOM     62  H   UNL A   1      45.587  29.213  30.964  1.00  0.00     0.167 HD
ATOM     63  C   UNL A   1      46.968  29.119  28.486  1.00  0.00     0.074 A 
ATOM     64  C   UNL A   1      47.483  29.506  27.189  1.00  0.00     0.031 C 
ATOM     65  C   UNL A   1      47.215  27.920  29.076  1.00  0.00     0.034 A 
BRANCH  52  66
ATOM     66  C   UNL A   1      44.533  27.266  34.635  1.00  0.00     0.023 A 
ATOM     67  C   UNL A   1      43.371  26.492  34.805  1.00  0.00     0.031 A 
ATOM     68  C   UNL A   1      45.488  27.250  35.666  1.00  0.00     0.131 A 
ATOM     69  C   UNL A   1      43.163  25.797  36.007  1.00  0.00     0.055 A 
ATOM     70  C   UNL A   1      45.316  26.486  36.821  1.00  0.00     0.041 A 
ATOM     71  F   UNL A   1      46.604  27.991  35.575  1.00  0.00    -0.206 F 
ATOM     72  C   UNL A   1      44.140  25.766  37.004  1.00  0.00     0.022 A 
BRANCH  69  73
ATOM     73  S   UNL A   1      41.530  25.068  36.314  1.00  0.00     0.124 S 
ATOM     74  O   UNL A   1      41.739  23.688  35.881  1.00  0.00    -0.237 OA
ATOM     75  O   UNL A   1      41.360  25.269  37.748  1.00  0.00    -0.237 OA
ATOM     76  O   UNL A   1      40.639  25.852  35.462  1.00  0.00    -0.744 OA
ENDBRANCH  69  73
ENDBRANCH  52  66
BRANCH  53  77
ATOM     77  C   UNL A   1      45.849  33.378  26.794  1.00  0.00     0.023 A 
ATOM     78  C   UNL A   1      46.976  34.217  26.755  1.00  0.00     0.031 A 
ATOM     79  C   UNL A   1      44.920  33.479  25.743  1.00  0.00     0.131 A 
ATOM     80  C   UNL A   1      47.116  35.154  25.719  1.00  0.00     0.055 A 
ATOM     81  C   UNL A   1      45.097  34.368  24.681  1.00  0.00     0.041 A 
ATOM     82  F   UNL A   1      43.820  32.709  25.731  1.00  0.00    -0.206 F 
ATOM     83  C   UNL A   1      46.193  35.224  24.673  1.00  0.00     0.022 A 
BRANCH  80  84
ATOM     84  S   UNL A   1      48.470  36.358  25.815  1.00  0.00     0.124 S 
ATOM     85  O   UNL A   1      49.310  35.946  24.695  1.00  0.00    -0.237 OA
ATOM     86  O   UNL A   1      47.762  37.623  25.656  1.00  0.00    -0.237 OA
ATOM     87  O   UNL A   1      49.038  36.125  27.141  1.00  0.00    -0.744 OA
ENDBRANCH  80  84
ENDBRANCH  53  77
BRANCH  65  88
ATOM     88  C   UNL A   1      48.026  26.913  28.293  1.00  0.00     0.023 A 
ATOM     89  C   UNL A   1      49.416  27.037  28.128  1.00  0.00     0.031 A 
ATOM     90  C   UNL A   1      47.388  25.809  27.695  1.00  0.00     0.131 A 
ATOM     91  C   UNL A   1      50.112  26.114  27.331  1.00  0.00     0.055 A 
ATOM     92  C   UNL A   1      48.097  24.853  26.966  1.00  0.00     0.041 A 
ATOM     93  F   UNL A   1      46.061  25.639  27.814  1.00  0.00    -0.206 F 
ATOM     94  C   UNL A   1      49.465  25.010  26.768  1.00  0.00     0.022 A 
BRANCH  91  95
ATOM     95  S   UNL A   1      51.856  26.433  26.947  1.00  0.00     0.124 S 
ATOM     96  O   UNL A   1      51.879  27.887  26.835  1.00  0.00    -0.237 OA
ATOM     97  O   UNL A   1      52.538  25.872  28.109  1.00  0.00    -0.237 OA
ATOM     98  O   UNL A   1      52.070  25.710  25.695  1.00  0.00    -0.744 OA
ENDBRANCH  91  95
ENDBRANCH  65  88
ENDBRANCH  39  40
ENDBRANCH  32  34
ENDBRANCH  31  32
ENDBRANCH  30  31
ENDBRANCH  29  30
ENDBRANCH  28  29
ENDBRANCH  27  28
ENDBRANCH  26  27
ENDBRANCH  25  26
ENDBRANCH   1  25
TORSDOF 28
ENDMDL
MODEL 2
REMARK VINA RESULT:      -6.2      6.966     12.701
REMARK SMILES C[C@@H](CC(=O)OCCOCCOCCOCCOC(=O)c1ccc(-c2c3nc(c(-c4cc(S(=O)(=O)[O-])ccc4F)c4ccc([nH]4)c(-c4cc(S(=O)(=O)[O-])ccc4F)c4nc(c(-c5cc(S(=O)(=O)[O-])ccc5F)c5ccc2[nH]5)C=C4)C=C3)cc1)NC(=O)CN(C)c1ncccn1
REMARK SMILES IDX 11 1 10 2 9 3 8 4 7 5 6 6 4 7 5 8 3 9 2 10 1 11 84 12 85 13
REMARK SMILES IDX 86 15 87 16 88 17 89 18 90 19 91 20 95 21 92 22 94 23 93 24
REMARK SMILES IDX 12 25 13 26 14 27 15 28 16 29 17 30 18 31 19 32 20 33 21 34
REMARK SMILES IDX 22 35 83 36 23 37 82 38 24 39 25 40 26 41 76 42 27 43 81 44
REMARK SMILES IDX 75 45 77 46 28 47 80 48 74 49 73 50 29 52 61 53 41 54 60 55
REMARK SMILES IDX 42 56 45 57 59 58 78 59 43 60 44 61 58 63 79 64 46 65 30 66
REMARK SMILES IDX 31 67 39 68 32 69 38 70 40 71 37 72 33 73 34 74 35 75 36 76
REMARK SMILES IDX 62 77 63 78 71 79 64 80 70 81 72 82 69 83 65 84 66 85 67 86
REMARK SMILES IDX 68 87 47 88 48 89 56 90 49 91 55 92 57 93 54 94 50 95 51 96
REMARK SMILES IDX 52 97 53 98
REMARK H PARENT 84 14 77 51 45 62
REMARK Flexibility Score: inf
ROOT
ATOM      1  C   UNL A   1      34.681  32.903  30.206  1.00  0.00     0.188 C 
ENDROOT
BRANCH   1   2
ATOM      2  C   UNL A   1      34.099  33.676  29.027  1.00  0.00     0.188 C 
BRANCH   2   3
ATOM      3  O   UNL A   1      33.508  32.987  27.943  1.00  0.00    -0.376 OA
BRANCH   3   4
ATOM      4  C   UNL A   1      33.737  31.595  27.761  1.00  0.00     0.202 C 
BRANCH   4   5
ATOM      5  C   UNL A   1      32.825  30.748  26.850  1.00  0.00     0.261 C 
BRANCH   5   6
ATOM      6  O   UNL A   1      33.416  29.532  26.321  1.00  0.00    -0.463 OA
BRANCH   6   7
ATOM      7  C   UNL A   1      32.784  28.946  25.283  1.00  0.00     0.307 C 
ATOM      8  O   UNL A   1      32.928  29.301  24.113  1.00  0.00    -0.252 OA
BRANCH   7   9
ATOM      9  C   UNL A   1      31.876  27.762  25.598  1.00  0.00     0.147 C 
BRANCH   9  10
ATOM     10  C   UNL A   1      30.736  27.201  24.724  1.00  0.00     0.090 C 
ATOM     11  C   UNL A   1      30.119  25.903  25.210  1.00  0.00     0.031 C 
BRANCH  10  12
ATOM     12  N   UNL A   1      31.069  27.097  23.309  1.00  0.00    -0.352 N 
ATOM     13  C   UNL A   1      31.939  26.265  22.657  1.00  0.00     0.239 C 
ATOM     14  H   UNL A   1      30.588  27.729  22.726  1.00  0.00     0.163 HD
ATOM     15  O   UNL A   1      31.732  26.012  21.465  1.00  0.00    -0.273 OA
BRANCH  13  16
ATOM     16  C   UNL A   1      33.110  25.619  23.405  1.00  0.00     0.219 C 
BRANCH  16  17
ATOM     17  N   UNL A   1      33.027  24.164  23.523  1.00  0.00    -0.335 N 
ATOM     18  C   UNL A   1      31.797  23.459  23.252  1.00  0.00     0.147 C 
BRANCH  17  19
ATOM     19  C   UNL A   1      34.103  23.435  23.979  1.00  0.00     0.225 A 
ATOM     20  N   UNL A   1      33.955  22.112  24.167  1.00  0.00    -0.221 NA
ATOM     21  N   UNL A   1      35.248  24.071  24.262  1.00  0.00    -0.221 NA
ATOM     22  C   UNL A   1      34.998  21.432  24.684  1.00  0.00     0.117 A 
ATOM     23  C   UNL A   1      36.246  23.368  24.830  1.00  0.00     0.117 A 
ATOM     24  C   UNL A   1      36.177  22.021  25.061  1.00  0.00     0.040 A 
ENDBRANCH  17  19
ENDBRANCH  16  17
ENDBRANCH  13  16
ENDBRANCH  10  12
ENDBRANCH   9  10
ENDBRANCH   7   9
ENDBRANCH   6   7
ENDBRANCH   5   6
ENDBRANCH   4   5
ENDBRANCH   3   4
ENDBRANCH   2   3
ENDBRANCH   1   2
BRANCH   1  25
ATOM     25  O   UNL A   1      36.030  33.159  30.558  1.00  0.00    -0.377 OA
BRANCH  25  26
ATOM     26  C   UNL A   1      37.011  33.313  29.536  1.00  0.00     0.188 C 
BRANCH  26  27
ATOM     27  C   UNL A   1      37.753  32.072  29.033  1.00  0.00     0.188 C 
BRANCH  27  28
ATOM     28  O   UNL A   1      36.893  30.971  28.803  1.00  0.00    -0.376 OA
BRANCH  28  29
ATOM     29  C   UNL A   1      37.403  29.648  28.842  1.00  0.00     0.202 C 
BRANCH  29  30
ATOM     30  C   UNL A   1      37.666  28.927  30.179  1.00  0.00     0.261 C 
BRANCH  30  31
ATOM     31  O   UNL A   1      36.949  29.358  31.348  1.00  0.00    -0.460 OA
BRANCH  31  32
ATOM     32  C   UNL A   1      37.493  29.157  32.562  1.00  0.00     0.338 C 
ATOM     33  O   UNL A   1      37.443  28.134  33.230  1.00  0.00    -0.246 OA
BRANCH  32  34
ATOM     34  C   UNL A   1      38.330  30.335  32.876  1.00  0.00     0.060 A 
ATOM     35  C   UNL A   1      39.663  30.144  33.262  1.00  0.00     0.016 A 
ATOM     36  C   UNL A   1      37.796  31.626  32.811  1.00  0.00     0.016 A 
ATOM     37  C   UNL A   1      40.447  31.235  33.640  1.00  0.00     0.010 A 
ATOM     38  C   UNL A   1      38.579  32.716  33.205  1.00  0.00     0.010 A 
ATOM     39  C   UNL A   1      39.893  32.521  33.666  1.00  0.00    -0.014 A 
BRANCH  39  40
ATOM     40  C   UNL A   1      40.600  33.615  34.384  1.00  0.00     0.031 A 
ATOM     41  C   UNL A   1      41.544  34.485  33.595  1.00  0.00     0.074 A 
ATOM     42  C   UNL A   1      40.392  33.856  35.691  1.00  0.00     0.049 A 
ATOM     43  N   UNL A   1      42.325  35.453  34.001  1.00  0.00    -0.248 NA
ATOM     44  C   UNL A   1      41.620  34.218  32.150  1.00  0.00     0.031 C 
ATOM     45  C   UNL A   1      39.461  33.125  36.547  1.00  0.00     0.029 A 
ATOM     46  N   UNL A   1      40.960  34.785  36.529  1.00  0.00    -0.354 N 
ATOM     47  C   UNL A   1      42.990  35.904  32.864  1.00  0.00     0.074 A 
ATOM     48  C   UNL A   1      42.552  35.073  31.764  1.00  0.00     0.031 C 
ATOM     49  C   UNL A   1      39.527  33.629  37.792  1.00  0.00     0.029 A 
ATOM     50  C   UNL A   1      40.536  34.686  37.833  1.00  0.00     0.049 A 
ATOM     51  H   UNL A   1      41.609  35.459  36.223  1.00  0.00     0.167 HD
ATOM     52  C   UNL A   1      43.876  36.925  32.747  1.00  0.00     0.034 A 
ATOM     53  C   UNL A   1      40.938  35.353  38.936  1.00  0.00     0.034 A 
ATOM     54  C   UNL A   1      44.310  37.737  33.857  1.00  0.00     0.049 A 
ATOM     55  C   UNL A   1      42.003  36.418  38.801  1.00  0.00     0.074 A 
ATOM     56  C   UNL A   1      45.199  38.797  33.853  1.00  0.00     0.029 A 
ATOM     57  N   UNL A   1      43.896  37.573  35.174  1.00  0.00    -0.354 N 
ATOM     58  N   UNL A   1      42.630  36.834  37.722  1.00  0.00    -0.248 NA
ATOM     59  C   UNL A   1      42.408  37.113  40.031  1.00  0.00     0.031 C 
ATOM     60  C   UNL A   1      45.388  39.217  35.173  1.00  0.00     0.029 A 
ATOM     61  C   UNL A   1      44.541  38.489  35.992  1.00  0.00     0.049 A 
ATOM     62  H   UNL A   1      43.242  36.905  35.481  1.00  0.00     0.167 HD
ATOM     63  C   UNL A   1      43.468  37.866  38.142  1.00  0.00     0.074 A 
ATOM     64  C   UNL A   1      43.260  38.014  39.567  1.00  0.00     0.031 C 
ATOM     65  C   UNL A   1      44.327  38.627  37.414  1.00  0.00     0.034 A 
BRANCH  52  66
ATOM     66  C   UNL A   1      44.472  37.174  31.382  1.00  0.00     0.023 A 
ATOM     67  C   UNL A   1      43.882  38.061  30.464  1.00  0.00     0.031 A 
ATOM     68  C   UNL A   1      45.632  36.489  30.980  1.00  0.00     0.131 A 
ATOM     69  C   UNL A   1      44.409  38.181  29.169  1.00  0.00     0.055 A 
ATOM     70  C   UNL A   1      46.203  36.681  29.721  1.00  0.00     0.041 A 
ATOM     71  F   UNL A   1      46.225  35.608  31.801  1.00  0.00    -0.206 F 
ATOM     72  C   UNL A   1      45.582  37.519  28.801  1.00  0.00     0.022 A 
BRANCH  69  73
ATOM     73  S   UNL A   1      43.451  39.089  27.925  1.00  0.00     0.124 S 
ATOM     74  O   UNL A   1      43.652  38.261  26.738  1.00  0.00    -0.237 OA
ATOM     75  O   UNL A   1      42.107  39.077  28.491  1.00  0.00    -0.237 OA
ATOM     76  O   UNL A   1      44.099  40.397  27.880  1.00  0.00    -0.744 OA
ENDBRANCH  69  73
ENDBRANCH  52  66
BRANCH  53  77
ATOM     77  C   UNL A   1      40.373  35.017  40.277  1.00  0.00     0.023 A 
ATOM     78  C   UNL A   1      40.884  33.951  41.036  1.00  0.00     0.031 A 
ATOM     79  C   UNL A   1      39.263  35.712  40.789  1.00  0.00     0.131 A 
ATOM     80  C   UNL A   1      40.254  33.577  42.234  1.00  0.00     0.055 A 
ATOM     81  C   UNL A   1      38.679  35.378  42.012  1.00  0.00     0.041 A 
ATOM     82  F   UNL A   1      38.726  36.735  40.104  1.00  0.00    -0.206 F 
ATOM     83  C   UNL A   1      39.166  34.294  42.735  1.00  0.00     0.022 A 
BRANCH  80  84
ATOM     84  S   UNL A   1      40.813  32.071  43.076  1.00  0.00     0.124 S 
ATOM     85  O   UNL A   1      41.850  32.594  43.958  1.00  0.00    -0.237 OA
ATOM     86  O   UNL A   1      39.588  31.614  43.722  1.00  0.00    -0.237 OA
ATOM     87  O   UNL A   1      41.290  31.227  41.982  1.00  0.00    -0.744 OA
ENDBRANCH  80  84
ENDBRANCH  53  77
BRANCH  65  88
ATOM     88  C   UNL A   1      45.056  39.737  38.138  1.00  0.00     0.023 A 
ATOM     89  C   UNL A   1      46.259  39.516  38.829  1.00  0.00     0.031 A 
ATOM     90  C   UNL A   1      44.527  41.042  38.138  1.00  0.00     0.131 A 
ATOM     91  C   UNL A   1      46.859  40.565  39.544  1.00  0.00     0.055 A 
ATOM     92  C   UNL A   1      45.166  42.098  38.789  1.00  0.00     0.041 A 
ATOM     93  F   UNL A   1      43.377  41.314  37.499  1.00  0.00    -0.206 F 
ATOM     94  C   UNL A   1      46.332  41.859  39.510  1.00  0.00     0.022 A 
BRANCH  91  95
ATOM     95  S   UNL A   1      48.277  40.194  40.613  1.00  0.00     0.124 S 
ATOM     96  O   UNL A   1      48.650  41.521  41.092  1.00  0.00    -0.237 OA
ATOM     97  O   UNL A   1      47.693  39.299  41.606  1.00  0.00    -0.237 OA
ATOM     98  O   UNL A   1      49.237  39.569  39.705  1.00  0.00    -0.744 OA
ENDBRANCH  91  95
ENDBRANCH  65  88
ENDBRANCH  39  40
ENDBRANCH  32  34
ENDBRANCH  31  32
ENDBRANCH  30  31
ENDBRANCH  29  30
ENDBRANCH  28  29
ENDBRANCH  27  28
ENDBRANCH  26  27
ENDBRANCH  25  26
ENDBRANCH   1  25
TORSDOF 28
ENDMDL
MODEL 3
REMARK VINA RESULT:      -6.1      4.671      8.958
REMARK SMILES C[C@@H](CC(=O)OCCOCCOCCOCCOC(=O)c1ccc(-c2c3nc(c(-c4cc(S(=O)(=O)[O-])ccc4F)c4ccc([nH]4)c(-c4cc(S(=O)(=O)[O-])ccc4F)c4nc(c(-c5cc(S(=O)(=O)[O-])ccc5F)c5ccc2[nH]5)C=C4)C=C3)cc1)NC(=O)CN(C)c1ncccn1
REMARK SMILES IDX 11 1 10 2 9 3 8 4 7 5 6 6 4 7 5 8 3 9 2 10 1 11 84 12 85 13
REMARK SMILES IDX 86 15 87 16 88 17 89 18 90 19 91 20 95 21 92 22 94 23 93 24
REMARK SMILES IDX 12 25 13 26 14 27 15 28 16 29 17 30 18 31 19 32 20 33 21 34
REMARK SMILES IDX 22 35 83 36 23 37 82 38 24 39 25 40 26 41 76 42 27 43 81 44
REMARK SMILES IDX 75 45 77 46 28 47 80 48 74 49 73 50 29 52 61 53 41 54 60 55
REMARK SMILES IDX 42 56 45 57 59 58 78 59 43 60 44 61 58 63 79 64 46 65 30 66
REMARK SMILES IDX 31 67 39 68 32 69 38 70 40 71 37 72 33 73 34 74 35 75 36 76
REMARK SMILES IDX 62 77 63 78 71 79 64 80 70 81 72 82 69 83 65 84 66 85 67 86
REMARK SMILES IDX 68 87 47 88 48 89 56 90 49 91 55 92 57 93 54 94 50 95 51 96
REMARK SMILES IDX 52 97 53 98
REMARK H PARENT 84 14 77 51 45 62
REMARK Flexibility Score: inf
ROOT
ATOM      1  C   UNL A   1      43.242  38.516  43.476  1.00  0.00     0.188 C 
ENDROOT
BRANCH   1   2
ATOM      2  C   UNL A   1      43.054  39.032  42.053  1.00  0.00     0.188 C 
BRANCH   2   3
ATOM      3  O   UNL A   1      43.549  38.293  40.953  1.00  0.00    -0.376 OA
BRANCH   3   4
ATOM      4  C   UNL A   1      42.653  37.642  40.059  1.00  0.00     0.202 C 
BRANCH   4   5
ATOM      5  C   UNL A   1      42.955  37.558  38.549  1.00  0.00     0.261 C 
BRANCH   5   6
ATOM      6  O   UNL A   1      42.263  36.507  37.826  1.00  0.00    -0.463 OA
BRANCH   6   7
ATOM      7  C   UNL A   1      42.447  36.459  36.491  1.00  0.00     0.307 C 
ATOM      8  O   UNL A   1      43.080  37.308  35.862  1.00  0.00    -0.252 OA
BRANCH   7   9
ATOM      9  C   UNL A   1      41.861  35.264  35.748  1.00  0.00     0.147 C 
BRANCH   9  10
ATOM     10  C   UNL A   1      42.152  33.771  36.005  1.00  0.00     0.090 C 
ATOM     11  C   UNL A   1      42.231  33.363  37.465  1.00  0.00     0.031 C 
BRANCH  10  12
ATOM     12  N   UNL A   1      43.306  33.256  35.279  1.00  0.00    -0.352 N 
ATOM     13  C   UNL A   1      43.886  33.678  34.113  1.00  0.00     0.239 C 
ATOM     14  H   UNL A   1      43.740  32.478  35.697  1.00  0.00     0.163 HD
ATOM     15  O   UNL A   1      45.083  33.431  33.926  1.00  0.00    -0.273 OA
BRANCH  13  16
ATOM     16  C   UNL A   1      43.082  34.488  33.090  1.00  0.00     0.219 C 
BRANCH  16  17
ATOM     17  N   UNL A   1      42.196  33.689  32.244  1.00  0.00    -0.335 N 
ATOM     18  C   UNL A   1      40.809  33.491  32.588  1.00  0.00     0.147 C 
BRANCH  17  19
ATOM     19  C   UNL A   1      42.687  33.035  31.136  1.00  0.00     0.225 A 
ATOM     20  N   UNL A   1      43.022  31.738  31.247  1.00  0.00    -0.221 NA
ATOM     21  N   UNL A   1      42.858  33.720  29.997  1.00  0.00    -0.221 NA
ATOM     22  C   UNL A   1      43.570  31.138  30.170  1.00  0.00     0.117 A 
ATOM     23  C   UNL A   1      43.461  33.102  28.964  1.00  0.00     0.117 A 
ATOM     24  C   UNL A   1      43.838  31.787  28.993  1.00  0.00     0.040 A 
ENDBRANCH  17  19
ENDBRANCH  16  17
ENDBRANCH  13  16
ENDBRANCH  10  12
ENDBRANCH   9  10
ENDBRANCH   7   9
ENDBRANCH   6   7
ENDBRANCH   5   6
ENDBRANCH   4   5
ENDBRANCH   3   4
ENDBRANCH   2   3
ENDBRANCH   1   2
BRANCH   1  25
ATOM     25  O   UNL A   1      43.330  37.114  43.660  1.00  0.00    -0.377 OA
BRANCH  25  26
ATOM     26  C   UNL A   1      42.177  36.378  44.060  1.00  0.00     0.188 C 
BRANCH  26  27
ATOM     27  C   UNL A   1      41.119  36.035  43.006  1.00  0.00     0.188 C 
BRANCH  27  28
ATOM     28  O   UNL A   1      41.525  34.993  42.138  1.00  0.00    -0.376 OA
BRANCH  28  29
ATOM     29  C   UNL A   1      40.594  34.413  41.238  1.00  0.00     0.202 C 
BRANCH  29  30
ATOM     30  C   UNL A   1      39.384  35.208  40.710  1.00  0.00     0.261 C 
BRANCH  30  31
ATOM     31  O   UNL A   1      38.722  34.747  39.520  1.00  0.00    -0.460 OA
BRANCH  31  32
ATOM     32  C   UNL A   1      38.040  33.587  39.556  1.00  0.00     0.338 C 
ATOM     33  O   UNL A   1      37.369  33.158  40.483  1.00  0.00    -0.246 OA
BRANCH  32  34
ATOM     34  C   UNL A   1      38.088  32.999  38.199  1.00  0.00     0.060 A 
ATOM     35  C   UNL A   1      37.706  31.664  38.020  1.00  0.00     0.016 A 
ATOM     36  C   UNL A   1      38.530  33.756  37.111  1.00  0.00     0.016 A 
ATOM     37  C   UNL A   1      37.820  31.064  36.764  1.00  0.00     0.010 A 
ATOM     38  C   UNL A   1      38.659  33.149  35.856  1.00  0.00     0.010 A 
ATOM     39  C   UNL A   1      38.348  31.788  35.687  1.00  0.00    -0.014 A 
BRANCH  39  40
ATOM     40  C   UNL A   1      38.789  31.071  34.461  1.00  0.00     0.031 A 
ATOM     41  C   UNL A   1      40.099  30.327  34.509  1.00  0.00     0.074 A 
ATOM     42  C   UNL A   1      38.041  31.051  33.343  1.00  0.00     0.049 A 
ATOM     43  N   UNL A   1      40.731  29.687  33.560  1.00  0.00    -0.248 NA
ATOM     44  C   UNL A   1      40.790  30.313  35.808  1.00  0.00     0.031 C 
ATOM     45  C   UNL A   1      36.732  31.680  33.192  1.00  0.00     0.029 A 
ATOM     46  N   UNL A   1      38.283  30.479  32.118  1.00  0.00    -0.354 N 
ATOM     47  C   UNL A   1      41.897  29.200  34.144  1.00  0.00     0.074 A 
ATOM     48  C   UNL A   1      41.903  29.659  35.516  1.00  0.00     0.031 C 
ATOM     49  C   UNL A   1      36.288  31.467  31.940  1.00  0.00     0.029 A 
ATOM     50  C   UNL A   1      37.301  30.726  31.188  1.00  0.00     0.049 A 
ATOM     51  H   UNL A   1      39.086  29.943  31.924  1.00  0.00     0.167 HD
ATOM     52  C   UNL A   1      42.868  28.432  33.590  1.00  0.00     0.034 A 
ATOM     53  C   UNL A   1      37.239  30.413  29.876  1.00  0.00     0.034 A 
ATOM     54  C   UNL A   1      42.852  27.992  32.217  1.00  0.00     0.049 A 
ATOM     55  C   UNL A   1      38.383  29.644  29.252  1.00  0.00     0.074 A 
ATOM     56  C   UNL A   1      43.780  27.209  31.552  1.00  0.00     0.029 A 
ATOM     57  N   UNL A   1      41.864  28.305  31.291  1.00  0.00    -0.354 N 
ATOM     58  N   UNL A   1      39.484  29.194  29.812  1.00  0.00    -0.248 NA
ATOM     59  C   UNL A   1      38.270  29.332  27.820  1.00  0.00     0.031 C 
ATOM     60  C   UNL A   1      43.399  27.120  30.210  1.00  0.00     0.029 A 
ATOM     61  C   UNL A   1      42.180  27.761  30.055  1.00  0.00     0.049 A 
ATOM     62  H   UNL A   1      41.057  28.834  31.485  1.00  0.00     0.167 HD
ATOM     63  C   UNL A   1      40.169  28.509  28.809  1.00  0.00     0.074 A 
ATOM     64  C   UNL A   1      39.353  28.600  27.616  1.00  0.00     0.031 C 
ATOM     65  C   UNL A   1      41.360  27.859  28.870  1.00  0.00     0.034 A 
BRANCH  52  66
ATOM     66  C   UNL A   1      44.051  28.074  34.458  1.00  0.00     0.023 A 
ATOM     67  C   UNL A   1      43.953  27.129  35.495  1.00  0.00     0.031 A 
ATOM     68  C   UNL A   1      45.289  28.712  34.267  1.00  0.00     0.131 A 
ATOM     69  C   UNL A   1      45.047  26.906  36.345  1.00  0.00     0.055 A 
ATOM     70  C   UNL A   1      46.400  28.420  35.059  1.00  0.00     0.041 A 
ATOM     71  F   UNL A   1      45.437  29.644  33.312  1.00  0.00    -0.206 F 
ATOM     72  C   UNL A   1      46.279  27.524  36.116  1.00  0.00     0.022 A 
BRANCH  69  73
ATOM     73  S   UNL A   1      44.791  25.922  37.847  1.00  0.00     0.124 S 
ATOM     74  O   UNL A   1      45.841  26.441  38.721  1.00  0.00    -0.237 OA
ATOM     75  O   UNL A   1      43.424  26.264  38.219  1.00  0.00    -0.237 OA
ATOM     76  O   UNL A   1      44.991  24.547  37.394  1.00  0.00    -0.744 OA
ENDBRANCH  69  73
ENDBRANCH  52  66
BRANCH  53  77
ATOM     77  C   UNL A   1      36.083  30.857  29.041  1.00  0.00     0.023 A 
ATOM     78  C   UNL A   1      35.222  29.926  28.436  1.00  0.00     0.031 A 
ATOM     79  C   UNL A   1      35.866  32.220  28.774  1.00  0.00     0.131 A 
ATOM     80  C   UNL A   1      34.222  30.366  27.555  1.00  0.00     0.055 A 
ATOM     81  C   UNL A   1      34.828  32.657  27.948  1.00  0.00     0.041 A 
ATOM     82  F   UNL A   1      36.662  33.155  29.317  1.00  0.00    -0.206 F 
ATOM     83  C   UNL A   1      34.008  31.726  27.320  1.00  0.00     0.022 A 
BRANCH  80  84
ATOM     84  S   UNL A   1      33.269  29.127  26.635  1.00  0.00     0.124 S 
ATOM     85  O   UNL A   1      32.889  29.874  25.441  1.00  0.00    -0.237 OA
ATOM     86  O   UNL A   1      34.253  28.068  26.445  1.00  0.00    -0.237 OA
ATOM     87  O   UNL A   1      32.171  28.800  27.543  1.00  0.00    -0.744 OA
ENDBRANCH  80  84
ENDBRANCH  53  77
BRANCH  65  88
ATOM     88  C   UNL A   1      41.821  27.133  27.625  1.00  0.00     0.023 A 
ATOM     89  C   UNL A   1      41.749  25.735  27.505  1.00  0.00     0.031 A 
ATOM     90  C   UNL A   1      42.348  27.861  26.541  1.00  0.00     0.131 A 
ATOM     91  C   UNL A   1      42.255  25.104  26.358  1.00  0.00     0.055 A 
ATOM     92  C   UNL A   1      42.782  27.234  25.373  1.00  0.00     0.041 A 
ATOM     93  F   UNL A   1      42.446  29.199  26.600  1.00  0.00    -0.206 F 
ATOM     94  C   UNL A   1      42.751  25.846  25.282  1.00  0.00     0.022 A 
BRANCH  91  95
ATOM     95  S   UNL A   1      42.362  23.293  26.333  1.00  0.00     0.124 S 
ATOM     96  O   UNL A   1      41.010  22.906  26.721  1.00  0.00    -0.237 OA
ATOM     97  O   UNL A   1      42.729  23.022  24.946  1.00  0.00    -0.237 OA
ATOM     98  O   UNL A   1      43.400  22.996  27.318  1.00  0.00    -0.744 OA
ENDBRANCH  91  95
ENDBRANCH  65  88
ENDBRANCH  39  40
ENDBRANCH  32  34
ENDBRANCH  31  32
ENDBRANCH  30  31
ENDBRANCH  29  30
ENDBRANCH  28  29
ENDBRANCH  27  28
ENDBRANCH  26  27
ENDBRANCH  25  26
ENDBRANCH   1  25
TORSDOF 28
ENDMDL
