MODEL 1
REMARK VINA RESULT:      -9.8      0.000      0.000
REMARK SMILES O=C(OCCOCCOCCOCCOC(=O)[C@@H]1C[NH2+]CCN1C(=O)N[C@@H]1CCOC1)c1ccc(-c2c3nc(c(-c4cc(S(=O)(=O)[O-])ccc4F)c4ccc([nH]4)c(-c4cc(S(=O)(=O)[O-])ccc4F)c4nc(c(-c5cc(S(=O)(=O)[O-])ccc5F)c5ccc2[nH]5)C=C4)C=C3)cc1
REMARK SMILES IDX 8 1 7 2 6 3 5 4 4 5 3 6 2 7 1 8 32 9 33 10 94 11 34 12 93 13
REMARK SMILES IDX 35 14 36 15 37 16 87 17 38 18 92 19 86 20 88 21 39 22 91 23
REMARK SMILES IDX 85 24 84 25 40 27 72 28 52 29 71 30 53 31 56 32 70 33 89 34
REMARK SMILES IDX 54 35 55 36 69 38 90 39 57 40 41 41 42 42 50 43 43 44 49 45
REMARK SMILES IDX 51 46 48 47 44 48 45 49 46 50 47 51 73 52 74 53 82 54 75 55
REMARK SMILES IDX 81 56 83 57 80 58 76 59 77 60 78 61 79 62 58 63 59 64 67 65
REMARK SMILES IDX 60 66 66 67 68 68 65 69 61 70 62 71 63 72 64 73 9 74 10 75
REMARK SMILES IDX 11 76 12 77 13 78 14 79 15 80 16 81 17 82 18 83 19 84 23 85
REMARK SMILES IDX 20 86 22 87 21 88 24 91 25 92 26 93 27 95 28 96 31 97 29 98
REMARK SMILES IDX 30 99
REMARK H PARENT 88 26 56 37 20 89 20 90 26 94
REMARK Flexibility Score: inf
ROOT
ATOM      1  C   UNL A   1      31.920  28.067  24.964  1.00  0.00     0.188 C 
ENDROOT
BRANCH   1   2
ATOM      2  C   UNL A   1      32.700  29.262  24.454  1.00  0.00     0.188 C 
BRANCH   2   3
ATOM      3  O   UNL A   1      32.911  30.146  25.539  1.00  0.00    -0.376 OA
BRANCH   3   4
ATOM      4  C   UNL A   1      31.796  30.403  26.380  1.00  0.00     0.202 C 
BRANCH   4   5
ATOM      5  C   UNL A   1      31.826  31.821  26.939  1.00  0.00     0.261 C 
BRANCH   5   6
ATOM      6  O   UNL A   1      33.158  32.331  26.779  1.00  0.00    -0.460 OA
BRANCH   6   7
ATOM      7  C   UNL A   1      33.688  32.993  27.836  1.00  0.00     0.338 C 
ATOM      8  O   UNL A   1      33.242  33.975  28.414  1.00  0.00    -0.246 OA
BRANCH   7   9
ATOM      9  C   UNL A   1      34.981  32.344  28.088  1.00  0.00     0.060 A 
ATOM     10  C   UNL A   1      34.981  30.956  28.260  1.00  0.00     0.016 A 
ATOM     11  C   UNL A   1      36.130  33.088  28.330  1.00  0.00     0.016 A 
ATOM     12  C   UNL A   1      36.052  30.318  28.830  1.00  0.00     0.010 A 
ATOM     13  C   UNL A   1      37.250  32.430  28.843  1.00  0.00     0.010 A 
ATOM     14  C   UNL A   1      37.188  31.054  29.140  1.00  0.00    -0.014 A 
BRANCH  14  15
ATOM     15  C   UNL A   1      38.224  30.379  29.934  1.00  0.00     0.031 A 
ATOM     16  C   UNL A   1      38.319  30.720  31.387  1.00  0.00     0.074 A 
ATOM     17  C   UNL A   1      38.955  29.397  29.376  1.00  0.00     0.049 A 
ATOM     18  N   UNL A   1      39.273  30.459  32.232  1.00  0.00    -0.248 NA
ATOM     19  C   UNL A   1      37.184  31.464  31.965  1.00  0.00     0.031 C 
ATOM     20  C   UNL A   1      38.776  28.875  28.017  1.00  0.00     0.029 A 
ATOM     21  N   UNL A   1      39.986  28.655  29.882  1.00  0.00    -0.354 N 
ATOM     22  C   UNL A   1      38.899  31.081  33.419  1.00  0.00     0.074 A 
ATOM     23  C   UNL A   1      37.612  31.698  33.196  1.00  0.00     0.031 C 
ATOM     24  C   UNL A   1      39.670  27.899  27.799  1.00  0.00     0.029 A 
ATOM     25  C   UNL A   1      40.559  27.823  28.948  1.00  0.00     0.049 A 
ATOM     26  H   UNL A   1      40.287  28.710  30.818  1.00  0.00     0.167 HD
ATOM     27  C   UNL A   1      39.611  31.146  34.567  1.00  0.00     0.034 A 
ATOM     28  C   UNL A   1      41.731  27.164  28.993  1.00  0.00     0.034 A 
ATOM     29  C   UNL A   1      40.880  30.482  34.718  1.00  0.00     0.049 A 
ATOM     30  C   UNL A   1      42.558  27.336  30.243  1.00  0.00     0.074 A 
ATOM     31  C   UNL A   1      41.739  30.482  35.798  1.00  0.00     0.029 A 
ATOM     32  N   UNL A   1      41.469  29.692  33.733  1.00  0.00    -0.354 N 
ATOM     33  N   UNL A   1      42.264  28.003  31.339  1.00  0.00    -0.248 NA
ATOM     34  C   UNL A   1      43.880  26.704  30.256  1.00  0.00     0.031 C 
ATOM     35  C   UNL A   1      42.877  29.749  35.441  1.00  0.00     0.029 A 
ATOM     36  C   UNL A   1      42.698  29.233  34.164  1.00  0.00     0.049 A 
ATOM     37  H   UNL A   1      41.067  29.491  32.857  1.00  0.00     0.167 HD
ATOM     38  C   UNL A   1      43.366  27.867  32.173  1.00  0.00     0.074 A 
ATOM     39  C   UNL A   1      44.314  27.026  31.466  1.00  0.00     0.031 C 
ATOM     40  C   UNL A   1      43.596  28.394  33.404  1.00  0.00     0.034 A 
BRANCH  27  41
ATOM     41  C   UNL A   1      39.096  32.055  35.652  1.00  0.00     0.023 A 
ATOM     42  C   UNL A   1      39.512  33.390  35.786  1.00  0.00     0.031 A 
ATOM     43  C   UNL A   1      38.216  31.538  36.622  1.00  0.00     0.131 A 
ATOM     44  C   UNL A   1      39.096  34.142  36.897  1.00  0.00     0.055 A 
ATOM     45  C   UNL A   1      37.752  32.311  37.686  1.00  0.00     0.041 A 
ATOM     46  F   UNL A   1      37.816  30.257  36.565  1.00  0.00    -0.206 F 
ATOM     47  C   UNL A   1      38.202  33.618  37.836  1.00  0.00     0.022 A 
BRANCH  44  48
ATOM     48  S   UNL A   1      39.834  35.777  37.174  1.00  0.00     0.124 S 
ATOM     49  O   UNL A   1      39.004  36.296  38.257  1.00  0.00    -0.237 OA
ATOM     50  O   UNL A   1      41.211  35.447  37.526  1.00  0.00    -0.237 OA
ATOM     51  O   UNL A   1      39.665  36.452  35.889  1.00  0.00    -0.744 OA
ENDBRANCH  44  48
ENDBRANCH  27  41
BRANCH  28  52
ATOM     52  C   UNL A   1      42.249  26.427  27.801  1.00  0.00     0.023 A 
ATOM     53  C   UNL A   1      42.040  25.048  27.652  1.00  0.00     0.031 A 
ATOM     54  C   UNL A   1      43.018  27.080  26.816  1.00  0.00     0.131 A 
ATOM     55  C   UNL A   1      42.634  24.361  26.579  1.00  0.00     0.055 A 
ATOM     56  C   UNL A   1      43.547  26.405  25.715  1.00  0.00     0.041 A 
ATOM     57  F   UNL A   1      43.267  28.396  26.906  1.00  0.00    -0.206 F 
ATOM     58  C   UNL A   1      43.372  25.032  25.602  1.00  0.00     0.022 A 
BRANCH  55  59
ATOM     59  S   UNL A   1      42.528  22.550  26.547  1.00  0.00     0.124 S 
ATOM     60  O   UNL A   1      43.887  22.168  26.915  1.00  0.00    -0.237 OA
ATOM     61  O   UNL A   1      41.496  22.294  27.545  1.00  0.00    -0.237 OA
ATOM     62  O   UNL A   1      42.149  22.258  25.167  1.00  0.00    -0.744 OA
ENDBRANCH  55  59
ENDBRANCH  28  52
BRANCH  40  63
ATOM     63  C   UNL A   1      44.908  28.041  34.043  1.00  0.00     0.023 A 
ATOM     64  C   UNL A   1      45.045  26.884  34.826  1.00  0.00     0.031 A 
ATOM     65  C   UNL A   1      46.032  28.861  33.848  1.00  0.00     0.131 A 
ATOM     66  C   UNL A   1      46.278  26.598  35.424  1.00  0.00     0.055 A 
ATOM     67  C   UNL A   1      47.270  28.538  34.397  1.00  0.00     0.041 A 
ATOM     68  F   UNL A   1      45.943  29.976  33.105  1.00  0.00    -0.206 F 
ATOM     69  C   UNL A   1      47.396  27.406  35.197  1.00  0.00     0.022 A 
BRANCH  66  70
ATOM     70  S   UNL A   1      46.383  25.187  36.555  1.00  0.00     0.124 S 
ATOM     71  O   UNL A   1      46.844  25.819  37.786  1.00  0.00    -0.237 OA
ATOM     72  O   UNL A   1      45.010  24.690  36.568  1.00  0.00    -0.237 OA
ATOM     73  O   UNL A   1      47.354  24.305  35.909  1.00  0.00    -0.744 OA
ENDBRANCH  66  70
ENDBRANCH  40  63
ENDBRANCH  14  15
ENDBRANCH   7   9
ENDBRANCH   6   7
ENDBRANCH   5   6
ENDBRANCH   4   5
ENDBRANCH   3   4
ENDBRANCH   2   3
ENDBRANCH   1   2
BRANCH   1  74
ATOM     74  O   UNL A   1      32.572  26.828  24.711  1.00  0.00    -0.377 OA
BRANCH  74  75
ATOM     75  C   UNL A   1      32.959  26.004  25.817  1.00  0.00     0.188 C 
BRANCH  75  76
ATOM     76  C   UNL A   1      32.090  24.813  26.244  1.00  0.00     0.188 C 
BRANCH  76  77
ATOM     77  O   UNL A   1      30.842  24.668  25.578  1.00  0.00    -0.376 OA
BRANCH  77  78
ATOM     78  C   UNL A   1      30.671  23.439  24.875  1.00  0.00     0.202 C 
BRANCH  78  79
ATOM     79  C   UNL A   1      31.371  23.376  23.503  1.00  0.00     0.261 C 
BRANCH  79  80
ATOM     80  O   UNL A   1      32.552  22.543  23.542  1.00  0.00    -0.462 OA
BRANCH  80  81
ATOM     81  C   UNL A   1      33.740  23.003  23.087  1.00  0.00     0.334 C 
ATOM     82  O   UNL A   1      33.890  23.506  21.977  1.00  0.00    -0.250 OA
BRANCH  81  83
ATOM     83  C   UNL A   1      34.864  22.951  24.165  1.00  0.00     0.252 C 
ATOM     84  C   UNL A   1      36.253  22.570  23.560  1.00  0.00     0.298 C 
ATOM     85  N   UNL A   1      34.814  22.655  25.662  1.00  0.00    -0.300 N 
ATOM     86  N   UNL A   1      37.399  23.225  24.245  1.00  0.00    -0.343 N 
ATOM     87  C   UNL A   1      35.956  23.361  26.303  1.00  0.00     0.183 C 
ATOM     88  C   UNL A   1      37.314  22.921  25.689  1.00  0.00     0.282 C 
ATOM     89  H   UNL A   1      37.354  24.235  24.103  1.00  0.00     0.346 HD
ATOM     90  H   UNL A   1      38.279  22.878  23.865  1.00  0.00     0.346 HD
BRANCH  85  91
ATOM     91  C   UNL A   1      34.533  21.491  26.339  1.00  0.00     0.318 C 
ATOM     92  O   UNL A   1      34.389  21.502  27.573  1.00  0.00    -0.249 OA
ATOM     93  N   UNL A   1      34.228  20.296  25.824  1.00  0.00    -0.333 N 
ATOM     94  H   UNL A   1      34.046  19.695  26.583  1.00  0.00     0.165 HD
BRANCH  93  95
ATOM     95  C   UNL A   1      34.048  19.500  24.595  1.00  0.00     0.112 C 
ATOM     96  C   UNL A   1      32.647  19.136  24.297  1.00  0.00     0.056 C 
ATOM     97  C   UNL A   1      34.676  18.109  24.568  1.00  0.00     0.185 C 
ATOM     98  C   UNL A   1      32.440  17.896  25.127  1.00  0.00     0.162 C 
ATOM     99  O   UNL A   1      33.683  17.184  25.054  1.00  0.00    -0.379 OA
ENDBRANCH  93  95
ENDBRANCH  85  91
ENDBRANCH  81  83
ENDBRANCH  80  81
ENDBRANCH  79  80
ENDBRANCH  78  79
ENDBRANCH  77  78
ENDBRANCH  76  77
ENDBRANCH  75  76
ENDBRANCH  74  75
ENDBRANCH   1  74
TORSDOF 25
ENDMDL
MODEL 2
REMARK VINA RESULT:      -9.3      1.707      2.279
REMARK SMILES O=C(OCCOCCOCCOCCOC(=O)[C@@H]1C[NH2+]CCN1C(=O)N[C@@H]1CCOC1)c1ccc(-c2c3nc(c(-c4cc(S(=O)(=O)[O-])ccc4F)c4ccc([nH]4)c(-c4cc(S(=O)(=O)[O-])ccc4F)c4nc(c(-c5cc(S(=O)(=O)[O-])ccc5F)c5ccc2[nH]5)C=C4)C=C3)cc1
REMARK SMILES IDX 8 1 7 2 6 3 5 4 4 5 3 6 2 7 1 8 32 9 33 10 94 11 34 12 93 13
REMARK SMILES IDX 35 14 36 15 37 16 87 17 38 18 92 19 86 20 88 21 39 22 91 23
REMARK SMILES IDX 85 24 84 25 40 27 72 28 52 29 71 30 53 31 56 32 70 33 89 34
REMARK SMILES IDX 54 35 55 36 69 38 90 39 57 40 41 41 42 42 50 43 43 44 49 45
REMARK SMILES IDX 51 46 48 47 44 48 45 49 46 50 47 51 73 52 74 53 82 54 75 55
REMARK SMILES IDX 81 56 83 57 80 58 76 59 77 60 78 61 79 62 58 63 59 64 67 65
REMARK SMILES IDX 60 66 66 67 68 68 65 69 61 70 62 71 63 72 64 73 9 74 10 75
REMARK SMILES IDX 11 76 12 77 13 78 14 79 15 80 16 81 17 82 18 83 19 84 23 85
REMARK SMILES IDX 20 86 22 87 21 88 24 91 25 92 26 93 27 95 28 96 31 97 29 98
REMARK SMILES IDX 30 99
REMARK H PARENT 88 26 56 37 20 89 20 90 26 94
REMARK Flexibility Score: inf
ROOT
ATOM      1  C   UNL A   1      31.212  29.456  24.215  1.00  0.00     0.188 C 
ENDROOT
BRANCH   1   2
ATOM      2  C   UNL A   1      30.576  30.754  24.672  1.00  0.00     0.188 C 
BRANCH   2   3
ATOM      3  O   UNL A   1      31.166  31.121  25.904  1.00  0.00    -0.376 OA
BRANCH   3   4
ATOM      4  C   UNL A   1      30.818  32.396  26.424  1.00  0.00     0.202 C 
BRANCH   4   5
ATOM      5  C   UNL A   1      32.033  33.311  26.535  1.00  0.00     0.261 C 
BRANCH   5   6
ATOM      6  O   UNL A   1      32.897  32.778  27.551  1.00  0.00    -0.460 OA
BRANCH   6   7
ATOM      7  C   UNL A   1      33.792  33.633  28.100  1.00  0.00     0.338 C 
ATOM      8  O   UNL A   1      33.654  34.826  28.334  1.00  0.00    -0.246 OA
BRANCH   7   9
ATOM      9  C   UNL A   1      35.021  32.847  28.269  1.00  0.00     0.060 A 
ATOM     10  C   UNL A   1      34.880  31.482  28.533  1.00  0.00     0.016 A 
ATOM     11  C   UNL A   1      36.266  33.459  28.351  1.00  0.00     0.016 A 
ATOM     12  C   UNL A   1      35.923  30.750  29.038  1.00  0.00     0.010 A 
ATOM     13  C   UNL A   1      37.350  32.700  28.797  1.00  0.00     0.010 A 
ATOM     14  C   UNL A   1      37.162  31.360  29.189  1.00  0.00    -0.014 A 
BRANCH  14  15
ATOM     15  C   UNL A   1      38.189  30.609  29.923  1.00  0.00     0.031 A 
ATOM     16  C   UNL A   1      38.296  30.834  31.397  1.00  0.00     0.074 A 
ATOM     17  C   UNL A   1      38.903  29.662  29.287  1.00  0.00     0.049 A 
ATOM     18  N   UNL A   1      39.248  30.493  32.215  1.00  0.00    -0.248 NA
ATOM     19  C   UNL A   1      37.175  31.549  32.037  1.00  0.00     0.031 C 
ATOM     20  C   UNL A   1      38.711  29.250  27.891  1.00  0.00     0.029 A 
ATOM     21  N   UNL A   1      39.924  28.867  29.728  1.00  0.00    -0.354 N 
ATOM     22  C   UNL A   1      38.889  31.026  33.448  1.00  0.00     0.074 A 
ATOM     23  C   UNL A   1      37.611  31.679  33.281  1.00  0.00     0.031 C 
ATOM     24  C   UNL A   1      39.588  28.280  27.594  1.00  0.00     0.029 A 
ATOM     25  C   UNL A   1      40.480  28.102  28.729  1.00  0.00     0.049 A 
ATOM     26  H   UNL A   1      40.229  28.844  30.664  1.00  0.00     0.167 HD
ATOM     27  C   UNL A   1      39.606  30.990  34.595  1.00  0.00     0.034 A 
ATOM     28  C   UNL A   1      41.642  27.422  28.717  1.00  0.00     0.034 A 
ATOM     29  C   UNL A   1      40.864  30.298  34.688  1.00  0.00     0.049 A 
ATOM     30  C   UNL A   1      42.476  27.484  29.973  1.00  0.00     0.074 A 
ATOM     31  C   UNL A   1      41.727  30.200  35.761  1.00  0.00     0.029 A 
ATOM     32  N   UNL A   1      41.437  29.577  33.642  1.00  0.00    -0.354 N 
ATOM     33  N   UNL A   1      42.196  28.068  31.119  1.00  0.00    -0.248 NA
ATOM     34  C   UNL A   1      43.788  26.832  29.930  1.00  0.00     0.031 C 
ATOM     35  C   UNL A   1      42.851  29.479  35.342  1.00  0.00     0.029 A 
ATOM     36  C   UNL A   1      42.660  29.067  34.029  1.00  0.00     0.049 A 
ATOM     37  H   UNL A   1      41.029  29.451  32.754  1.00  0.00     0.167 HD
ATOM     38  C   UNL A   1      43.299  27.850  31.935  1.00  0.00     0.074 A 
ATOM     39  C   UNL A   1      44.231  27.052  31.160  1.00  0.00     0.031 C 
ATOM     40  C   UNL A   1      43.541  28.276  33.202  1.00  0.00     0.034 A 
BRANCH  27  41
ATOM     41  C   UNL A   1      39.109  31.820  35.749  1.00  0.00     0.023 A 
ATOM     42  C   UNL A   1      38.447  31.265  36.857  1.00  0.00     0.031 A 
ATOM     43  C   UNL A   1      39.242  33.221  35.696  1.00  0.00     0.131 A 
ATOM     44  C   UNL A   1      37.892  32.109  37.833  1.00  0.00     0.055 A 
ATOM     45  C   UNL A   1      38.748  34.050  36.703  1.00  0.00     0.041 A 
ATOM     46  F   UNL A   1      39.832  33.810  34.643  1.00  0.00    -0.206 F 
ATOM     47  C   UNL A   1      38.057  33.496  37.775  1.00  0.00     0.022 A 
BRANCH  44  48
ATOM     48  S   UNL A   1      36.840  31.382  39.121  1.00  0.00     0.124 S 
ATOM     49  O   UNL A   1      36.637  30.030  38.608  1.00  0.00    -0.237 OA
ATOM     50  O   UNL A   1      37.673  31.495  40.313  1.00  0.00    -0.237 OA
ATOM     51  O   UNL A   1      35.649  32.231  39.112  1.00  0.00    -0.744 OA
ENDBRANCH  44  48
ENDBRANCH  27  41
BRANCH  28  52
ATOM     52  C   UNL A   1      42.144  26.772  27.469  1.00  0.00     0.023 A 
ATOM     53  C   UNL A   1      42.041  25.387  27.280  1.00  0.00     0.031 A 
ATOM     54  C   UNL A   1      42.794  27.522  26.467  1.00  0.00     0.131 A 
ATOM     55  C   UNL A   1      42.621  24.789  26.148  1.00  0.00     0.055 A 
ATOM     56  C   UNL A   1      43.307  26.932  25.311  1.00  0.00     0.041 A 
ATOM     57  F   UNL A   1      42.938  28.851  26.592  1.00  0.00    -0.206 F 
ATOM     58  C   UNL A   1      43.239  25.553  25.155  1.00  0.00     0.022 A 
BRANCH  55  59
ATOM     59  S   UNL A   1      42.665  22.978  26.052  1.00  0.00     0.124 S 
ATOM     60  O   UNL A   1      41.306  22.628  26.448  1.00  0.00    -0.237 OA
ATOM     61  O   UNL A   1      43.000  22.762  24.649  1.00  0.00    -0.237 OA
ATOM     62  O   UNL A   1      43.708  22.614  27.007  1.00  0.00    -0.744 OA
ENDBRANCH  55  59
ENDBRANCH  28  52
BRANCH  40  63
ATOM     63  C   UNL A   1      44.851  27.854  33.806  1.00  0.00     0.023 A 
ATOM     64  C   UNL A   1      44.967  26.646  34.511  1.00  0.00     0.031 A 
ATOM     65  C   UNL A   1      45.990  28.659  33.653  1.00  0.00     0.131 A 
ATOM     66  C   UNL A   1      46.197  26.295  35.079  1.00  0.00     0.055 A 
ATOM     67  C   UNL A   1      47.226  28.275  34.169  1.00  0.00     0.041 A 
ATOM     68  F   UNL A   1      45.921  29.822  32.985  1.00  0.00    -0.206 F 
ATOM     69  C   UNL A   1      47.332  27.091  34.895  1.00  0.00     0.022 A 
BRANCH  66  70
ATOM     70  S   UNL A   1      46.279  24.812  36.116  1.00  0.00     0.124 S 
ATOM     71  O   UNL A   1      44.880  24.401  36.166  1.00  0.00    -0.237 OA
ATOM     72  O   UNL A   1      47.172  23.944  35.354  1.00  0.00    -0.237 OA
ATOM     73  O   UNL A   1      46.827  25.308  37.377  1.00  0.00    -0.744 OA
ENDBRANCH  66  70
ENDBRANCH  40  63
ENDBRANCH  14  15
ENDBRANCH   7   9
ENDBRANCH   6   7
ENDBRANCH   5   6
ENDBRANCH   4   5
ENDBRANCH   3   4
ENDBRANCH   2   3
ENDBRANCH   1   2
BRANCH   1  74
ATOM     74  O   UNL A   1      32.355  29.096  24.981  1.00  0.00    -0.377 OA
BRANCH  74  75
ATOM     75  C   UNL A   1      33.283  28.144  24.448  1.00  0.00     0.188 C 
BRANCH  75  76
ATOM     76  C   UNL A   1      32.956  26.643  24.464  1.00  0.00     0.188 C 
BRANCH  76  77
ATOM     77  O   UNL A   1      31.623  26.282  24.125  1.00  0.00    -0.376 OA
BRANCH  77  78
ATOM     78  C   UNL A   1      30.740  26.120  25.234  1.00  0.00     0.202 C 
BRANCH  78  79
ATOM     79  C   UNL A   1      31.406  25.591  26.519  1.00  0.00     0.261 C 
BRANCH  79  80
ATOM     80  O   UNL A   1      31.164  24.177  26.704  1.00  0.00    -0.462 OA
BRANCH  80  81
ATOM     81  C   UNL A   1      32.194  23.310  26.843  1.00  0.00     0.334 C 
ATOM     82  O   UNL A   1      32.410  22.676  27.872  1.00  0.00    -0.250 OA
BRANCH  81  83
ATOM     83  C   UNL A   1      32.992  23.100  25.521  1.00  0.00     0.252 C 
ATOM     84  C   UNL A   1      32.055  22.890  24.288  1.00  0.00     0.298 C 
ATOM     85  N   UNL A   1      34.382  22.527  25.261  1.00  0.00    -0.300 N 
ATOM     86  N   UNL A   1      32.605  23.447  23.023  1.00  0.00    -0.343 N 
ATOM     87  C   UNL A   1      34.901  23.142  24.010  1.00  0.00     0.183 C 
ATOM     88  C   UNL A   1      33.951  22.875  22.809  1.00  0.00     0.282 C 
ATOM     89  H   UNL A   1      32.670  24.463  23.094  1.00  0.00     0.346 HD
ATOM     90  H   UNL A   1      31.995  23.210  22.241  1.00  0.00     0.346 HD
BRANCH  85  91
ATOM     91  C   UNL A   1      34.867  21.247  25.400  1.00  0.00     0.318 C 
ATOM     92  O   UNL A   1      36.060  21.057  25.690  1.00  0.00    -0.249 OA
ATOM     93  N   UNL A   1      34.176  20.104  25.412  1.00  0.00    -0.333 N 
ATOM     94  H   UNL A   1      34.823  19.379  25.568  1.00  0.00     0.165 HD
BRANCH  93  95
ATOM     95  C   UNL A   1      32.847  19.474  25.292  1.00  0.00     0.112 C 
ATOM     96  C   UNL A   1      32.760  18.108  25.850  1.00  0.00     0.056 C 
ATOM     97  C   UNL A   1      32.333  19.198  23.881  1.00  0.00     0.185 C 
ATOM     98  C   UNL A   1      33.266  17.252  24.718  1.00  0.00     0.162 C 
ATOM     99  O   UNL A   1      32.757  17.867  23.526  1.00  0.00    -0.379 OA
ENDBRANCH  93  95
ENDBRANCH  85  91
ENDBRANCH  81  83
ENDBRANCH  80  81
ENDBRANCH  79  80
ENDBRANCH  78  79
ENDBRANCH  77  78
ENDBRANCH  76  77
ENDBRANCH  75  76
ENDBRANCH  74  75
ENDBRANCH   1  74
TORSDOF 25
ENDMDL
MODEL 3
REMARK VINA RESULT:      -9.3      2.966      4.615
REMARK SMILES O=C(OCCOCCOCCOCCOC(=O)[C@@H]1C[NH2+]CCN1C(=O)N[C@@H]1CCOC1)c1ccc(-c2c3nc(c(-c4cc(S(=O)(=O)[O-])ccc4F)c4ccc([nH]4)c(-c4cc(S(=O)(=O)[O-])ccc4F)c4nc(c(-c5cc(S(=O)(=O)[O-])ccc5F)c5ccc2[nH]5)C=C4)C=C3)cc1
REMARK SMILES IDX 8 1 7 2 6 3 5 4 4 5 3 6 2 7 1 8 32 9 33 10 94 11 34 12 93 13
REMARK SMILES IDX 35 14 36 15 37 16 87 17 38 18 92 19 86 20 88 21 39 22 91 23
REMARK SMILES IDX 85 24 84 25 40 27 72 28 52 29 71 30 53 31 56 32 70 33 89 34
REMARK SMILES IDX 54 35 55 36 69 38 90 39 57 40 41 41 42 42 50 43 43 44 49 45
REMARK SMILES IDX 51 46 48 47 44 48 45 49 46 50 47 51 73 52 74 53 82 54 75 55
REMARK SMILES IDX 81 56 83 57 80 58 76 59 77 60 78 61 79 62 58 63 59 64 67 65
REMARK SMILES IDX 60 66 66 67 68 68 65 69 61 70 62 71 63 72 64 73 9 74 10 75
REMARK SMILES IDX 11 76 12 77 13 78 14 79 15 80 16 81 17 82 18 83 19 84 23 85
REMARK SMILES IDX 20 86 22 87 21 88 24 91 25 92 26 93 27 95 28 96 31 97 29 98
REMARK SMILES IDX 30 99
REMARK H PARENT 88 26 56 37 20 89 20 90 26 94
REMARK Flexibility Score: inf
ROOT
ATOM      1  C   UNL A   1      34.098  30.369  27.092  1.00  0.00     0.188 C 
ENDROOT
BRANCH   1   2
ATOM      2  C   UNL A   1      35.161  30.559  28.156  1.00  0.00     0.188 C 
BRANCH   2   3
ATOM      3  O   UNL A   1      34.924  31.798  28.796  1.00  0.00    -0.376 OA
BRANCH   3   4
ATOM      4  C   UNL A   1      34.194  32.769  28.061  1.00  0.00     0.202 C 
BRANCH   4   5
ATOM      5  C   UNL A   1      34.294  34.152  28.697  1.00  0.00     0.261 C 
BRANCH   5   6
ATOM      6  O   UNL A   1      33.103  34.370  29.469  1.00  0.00    -0.460 OA
BRANCH   6   7
ATOM      7  C   UNL A   1      33.165  35.321  30.432  1.00  0.00     0.338 C 
ATOM      8  O   UNL A   1      32.701  36.452  30.409  1.00  0.00    -0.246 OA
BRANCH   7   9
ATOM      9  C   UNL A   1      34.005  34.743  31.488  1.00  0.00     0.060 A 
ATOM     10  C   UNL A   1      35.253  35.333  31.713  1.00  0.00     0.016 A 
ATOM     11  C   UNL A   1      33.663  33.550  32.114  1.00  0.00     0.016 A 
ATOM     12  C   UNL A   1      36.227  34.673  32.416  1.00  0.00     0.010 A 
ATOM     13  C   UNL A   1      34.629  32.908  32.892  1.00  0.00     0.010 A 
ATOM     14  C   UNL A   1      35.926  33.448  32.996  1.00  0.00    -0.014 A 
BRANCH  14  15
ATOM     15  C   UNL A   1      37.048  32.682  33.557  1.00  0.00     0.031 A 
ATOM     16  C   UNL A   1      37.477  32.999  34.954  1.00  0.00     0.074 A 
ATOM     17  C   UNL A   1      37.561  31.649  32.864  1.00  0.00     0.049 A 
ATOM     18  N   UNL A   1      38.564  32.653  35.580  1.00  0.00    -0.248 NA
ATOM     19  C   UNL A   1      36.555  33.828  35.754  1.00  0.00     0.031 C 
ATOM     20  C   UNL A   1      37.055  31.157  31.578  1.00  0.00     0.029 A 
ATOM     21  N   UNL A   1      38.611  30.820  33.145  1.00  0.00    -0.354 N 
ATOM     22  C   UNL A   1      38.502  33.291  36.814  1.00  0.00     0.074 A 
ATOM     23  C   UNL A   1      37.253  34.014  36.865  1.00  0.00     0.031 C 
ATOM     24  C   UNL A   1      37.799  30.113  31.183  1.00  0.00     0.029 A 
ATOM     25  C   UNL A   1      38.903  29.954  32.117  1.00  0.00     0.049 A 
ATOM     26  H   UNL A   1      39.107  30.841  33.996  1.00  0.00     0.167 HD
ATOM     27  C   UNL A   1      39.445  33.286  37.785  1.00  0.00     0.034 A 
ATOM     28  C   UNL A   1      40.000  29.200  31.917  1.00  0.00     0.034 A 
ATOM     29  C   UNL A   1      40.657  32.519  37.668  1.00  0.00     0.049 A 
ATOM     30  C   UNL A   1      41.084  29.291  32.962  1.00  0.00     0.074 A 
ATOM     31  C   UNL A   1      41.723  32.438  38.541  1.00  0.00     0.029 A 
ATOM     32  N   UNL A   1      40.957  31.693  36.587  1.00  0.00    -0.354 N 
ATOM     33  N   UNL A   1      41.085  29.969  34.090  1.00  0.00    -0.248 NA
ATOM     34  C   UNL A   1      42.322  28.553  32.699  1.00  0.00     0.031 C 
ATOM     35  C   UNL A   1      42.695  31.617  37.956  1.00  0.00     0.029 A 
ATOM     36  C   UNL A   1      42.208  31.130  36.750  1.00  0.00     0.049 A 
ATOM     37  H   UNL A   1      40.364  31.534  35.817  1.00  0.00     0.167 HD
ATOM     38  C   UNL A   1      42.324  29.734  34.673  1.00  0.00     0.074 A 
ATOM     39  C   UNL A   1      43.027  28.826  33.787  1.00  0.00     0.031 C 
ATOM     40  C   UNL A   1      42.852  30.229  35.823  1.00  0.00     0.034 A 
BRANCH  27  41
ATOM     41  C   UNL A   1      39.248  34.223  38.947  1.00  0.00     0.023 A 
ATOM     42  C   UNL A   1      38.624  33.832  40.143  1.00  0.00     0.031 A 
ATOM     43  C   UNL A   1      39.636  35.570  38.815  1.00  0.00     0.131 A 
ATOM     44  C   UNL A   1      38.352  34.790  41.134  1.00  0.00     0.055 A 
ATOM     45  C   UNL A   1      39.424  36.503  39.831  1.00  0.00     0.041 A 
ATOM     46  F   UNL A   1      40.201  36.009  37.680  1.00  0.00    -0.206 F 
ATOM     47  C   UNL A   1      38.767  36.118  40.995  1.00  0.00     0.022 A 
BRANCH  44  48
ATOM     48  S   UNL A   1      37.335  34.310  42.559  1.00  0.00     0.124 S 
ATOM     49  O   UNL A   1      36.009  34.214  41.955  1.00  0.00    -0.237 OA
ATOM     50  O   UNL A   1      37.943  33.050  42.972  1.00  0.00    -0.237 OA
ATOM     51  O   UNL A   1      37.509  35.421  43.494  1.00  0.00    -0.744 OA
ENDBRANCH  44  48
ENDBRANCH  27  41
BRANCH  28  52
ATOM     52  C   UNL A   1      40.190  28.435  30.649  1.00  0.00     0.023 A 
ATOM     53  C   UNL A   1      41.138  28.833  29.695  1.00  0.00     0.031 A 
ATOM     54  C   UNL A   1      39.381  27.323  30.338  1.00  0.00     0.131 A 
ATOM     55  C   UNL A   1      41.218  28.162  28.463  1.00  0.00     0.055 A 
ATOM     56  C   UNL A   1      39.512  26.616  29.141  1.00  0.00     0.041 A 
ATOM     57  F   UNL A   1      38.444  26.897  31.201  1.00  0.00    -0.206 F 
ATOM     58  C   UNL A   1      40.424  27.048  28.186  1.00  0.00     0.022 A 
BRANCH  55  59
ATOM     59  S   UNL A   1      42.296  28.845  27.174  1.00  0.00     0.124 S 
ATOM     60  O   UNL A   1      42.661  30.136  27.746  1.00  0.00    -0.237 OA
ATOM     61  O   UNL A   1      43.358  27.847  27.113  1.00  0.00    -0.237 OA
ATOM     62  O   UNL A   1      41.426  28.904  26.002  1.00  0.00    -0.744 OA
ENDBRANCH  55  59
ENDBRANCH  28  52
BRANCH  40  63
ATOM     63  C   UNL A   1      44.237  29.763  36.172  1.00  0.00     0.023 A 
ATOM     64  C   UNL A   1      44.439  28.642  36.993  1.00  0.00     0.031 A 
ATOM     65  C   UNL A   1      45.357  30.436  35.660  1.00  0.00     0.131 A 
ATOM     66  C   UNL A   1      45.744  28.251  37.315  1.00  0.00     0.055 A 
ATOM     67  C   UNL A   1      46.653  30.004  35.936  1.00  0.00     0.041 A 
ATOM     68  F   UNL A   1      45.207  31.512  34.871  1.00  0.00    -0.206 F 
ATOM     69  C   UNL A   1      46.851  28.911  36.775  1.00  0.00     0.022 A 
BRANCH  66  70
ATOM     70  S   UNL A   1      45.972  26.900  38.501  1.00  0.00     0.124 S 
ATOM     71  O   UNL A   1      45.774  25.724  37.661  1.00  0.00    -0.237 OA
ATOM     72  O   UNL A   1      47.335  27.124  38.975  1.00  0.00    -0.237 OA
ATOM     73  O   UNL A   1      44.925  27.138  39.494  1.00  0.00    -0.744 OA
ENDBRANCH  66  70
ENDBRANCH  40  63
ENDBRANCH  14  15
ENDBRANCH   7   9
ENDBRANCH   6   7
ENDBRANCH   5   6
ENDBRANCH   4   5
ENDBRANCH   3   4
ENDBRANCH   2   3
ENDBRANCH   1   2
BRANCH   1  74
ATOM     74  O   UNL A   1      34.006  29.026  26.632  1.00  0.00    -0.377 OA
BRANCH  74  75
ATOM     75  C   UNL A   1      32.963  28.671  25.717  1.00  0.00     0.188 C 
BRANCH  75  76
ATOM     76  C   UNL A   1      31.555  28.336  26.231  1.00  0.00     0.188 C 
BRANCH  76  77
ATOM     77  O   UNL A   1      31.447  27.212  27.095  1.00  0.00    -0.376 OA
BRANCH  77  78
ATOM     78  C   UNL A   1      31.578  25.944  26.456  1.00  0.00     0.202 C 
BRANCH  78  79
ATOM     79  C   UNL A   1      30.291  25.417  25.791  1.00  0.00     0.261 C 
BRANCH  79  80
ATOM     80  O   UNL A   1      30.371  23.999  25.521  1.00  0.00    -0.462 OA
BRANCH  80  81
ATOM     81  C   UNL A   1      30.989  23.162  26.386  1.00  0.00     0.334 C 
ATOM     82  O   UNL A   1      30.637  23.016  27.554  1.00  0.00    -0.250 OA
BRANCH  81  83
ATOM     83  C   UNL A   1      32.102  22.306  25.711  1.00  0.00     0.252 C 
ATOM     84  C   UNL A   1      33.538  22.769  26.118  1.00  0.00     0.298 C 
ATOM     85  N   UNL A   1      32.124  21.534  24.395  1.00  0.00    -0.300 N 
ATOM     86  N   UNL A   1      34.521  21.655  26.198  1.00  0.00    -0.343 N 
ATOM     87  C   UNL A   1      33.091  20.413  24.540  1.00  0.00     0.183 C 
ATOM     88  C   UNL A   1      34.509  20.930  24.911  1.00  0.00     0.282 C 
ATOM     89  H   UNL A   1      34.260  21.020  26.953  1.00  0.00     0.346 HD
ATOM     90  H   UNL A   1      35.453  22.024  26.385  1.00  0.00     0.346 HD
BRANCH  85  91
ATOM     91  C   UNL A   1      32.101  21.977  23.093  1.00  0.00     0.318 C 
ATOM     92  O   UNL A   1      31.834  21.192  22.168  1.00  0.00    -0.249 OA
ATOM     93  N   UNL A   1      32.186  23.236  22.653  1.00  0.00    -0.333 N 
ATOM     94  H   UNL A   1      32.097  23.204  21.673  1.00  0.00     0.165 HD
BRANCH  93  95
ATOM     95  C   UNL A   1      32.357  24.655  23.021  1.00  0.00     0.112 C 
ATOM     96  C   UNL A   1      31.611  25.607  22.171  1.00  0.00     0.056 C 
ATOM     97  C   UNL A   1      33.757  25.246  22.885  1.00  0.00     0.185 C 
ATOM     98  C   UNL A   1      32.536  25.802  20.999  1.00  0.00     0.162 C 
ATOM     99  O   UNL A   1      33.857  25.803  21.559  1.00  0.00    -0.379 OA
ENDBRANCH  93  95
ENDBRANCH  85  91
ENDBRANCH  81  83
ENDBRANCH  80  81
ENDBRANCH  79  80
ENDBRANCH  78  79
ENDBRANCH  77  78
ENDBRANCH  76  77
ENDBRANCH  75  76
ENDBRANCH  74  75
ENDBRANCH   1  74
TORSDOF 25
ENDMDL
