MODEL 1
REMARK VINA RESULT:      -8.7      0.000      0.000
REMARK SMILES CC(C)Cc1ccc([C@@H](C)C(=O)OCCOCCOCCOCCOC(=O)c2ccc(-c3c4nc(c(-c5cc(S(=O)(=O)[O-])ccc5F)c5ccc([nH]5)c(-c5cc(S(=O)(=O)[O-])ccc5F)c5nc(c(-c6cc(S(=O)(=O)[O-])ccc6F)c6ccc3[nH]6)C=C5)C=C4)cc2)cc1
REMARK SMILES IDX 19 1 18 2 17 3 16 4 15 5 14 6 13 7 11 8 12 9 9 10 10 11 8 12
REMARK SMILES IDX 5 13 6 14 92 15 7 16 91 17 4 18 2 19 1 20 3 21 20 22 21 23
REMARK SMILES IDX 22 24 23 25 24 26 25 27 26 28 27 29 28 30 29 31 90 32 30 33
REMARK SMILES IDX 89 34 31 35 32 36 33 37 83 38 34 39 88 40 82 41 84 42 35 43
REMARK SMILES IDX 87 44 81 45 80 46 36 48 68 49 48 50 67 51 49 52 52 53 66 54
REMARK SMILES IDX 85 55 50 56 51 57 65 59 86 60 53 61 37 62 38 63 46 64 39 65
REMARK SMILES IDX 45 66 47 67 44 68 40 69 41 70 42 71 43 72 69 73 70 74 78 75
REMARK SMILES IDX 71 76 77 77 79 78 76 79 72 80 73 81 74 82 75 83 54 84 55 85
REMARK SMILES IDX 63 86 56 87 62 88 64 89 61 90 57 91 58 92 59 93 60 94
REMARK H PARENT 84 47 52 58
REMARK Flexibility Score: inf
ROOT
ATOM      1  O   UNL A   1      35.053  24.387  23.964  1.00  0.00    -0.377 OA
ENDROOT
BRANCH   1   2
ATOM      2  C   UNL A   1      33.931  25.138  24.373  1.00  0.00     0.188 C 
BRANCH   2   3
ATOM      3  C   UNL A   1      33.754  25.303  25.892  1.00  0.00     0.188 C 
BRANCH   3   4
ATOM      4  O   UNL A   1      32.563  25.840  26.453  1.00  0.00    -0.376 OA
BRANCH   4   5
ATOM      5  C   UNL A   1      32.206  27.194  26.228  1.00  0.00     0.202 C 
BRANCH   5   6
ATOM      6  C   UNL A   1      32.455  28.252  27.320  1.00  0.00     0.261 C 
BRANCH   6   7
ATOM      7  O   UNL A   1      33.729  28.931  27.298  1.00  0.00    -0.463 OA
BRANCH   7   8
ATOM      8  C   UNL A   1      33.694  30.266  27.085  1.00  0.00     0.313 C 
ATOM      9  O   UNL A   1      32.719  30.854  26.618  1.00  0.00    -0.252 OA
BRANCH   8  10
ATOM     10  C   UNL A   1      34.974  31.033  27.423  1.00  0.00     0.126 C 
ATOM     11  C   UNL A   1      36.070  30.017  27.726  1.00  0.00     0.025 C 
BRANCH  10  12
ATOM     12  C   UNL A   1      34.967  32.158  28.457  1.00  0.00    -0.034 A 
ATOM     13  C   UNL A   1      34.988  34.178  30.478  1.00  0.00    -0.048 A 
ATOM     14  C   UNL A   1      35.481  34.425  29.189  1.00  0.00     0.004 A 
ATOM     15  C   UNL A   1      34.445  32.915  30.736  1.00  0.00     0.004 A 
ATOM     16  C   UNL A   1      35.487  33.430  28.198  1.00  0.00     0.005 A 
ATOM     17  C   UNL A   1      34.419  31.929  29.737  1.00  0.00     0.005 A 
BRANCH  13  18
ATOM     18  C   UNL A   1      34.992  35.252  31.550  1.00  0.00     0.038 C 
BRANCH  18  19
ATOM     19  C   UNL A   1      33.612  35.682  32.100  1.00  0.00    -0.013 C 
ATOM     20  C   UNL A   1      33.723  36.759  33.180  1.00  0.00     0.008 C 
ATOM     21  C   UNL A   1      32.727  36.217  30.966  1.00  0.00     0.008 C 
ENDBRANCH  18  19
ENDBRANCH  13  18
ENDBRANCH  10  12
ENDBRANCH   8  10
ENDBRANCH   7   8
ENDBRANCH   6   7
ENDBRANCH   5   6
ENDBRANCH   4   5
ENDBRANCH   3   4
ENDBRANCH   2   3
ENDBRANCH   1   2
BRANCH   1  22
ATOM     22  C   UNL A   1      34.775  23.182  23.268  1.00  0.00     0.188 C 
BRANCH  22  23
ATOM     23  C   UNL A   1      33.926  22.146  24.028  1.00  0.00     0.188 C 
BRANCH  23  24
ATOM     24  O   UNL A   1      34.654  20.986  24.418  1.00  0.00    -0.376 OA
BRANCH  24  25
ATOM     25  C   UNL A   1      35.552  21.079  25.516  1.00  0.00     0.202 C 
BRANCH  25  26
ATOM     26  C   UNL A   1      37.061  21.146  25.221  1.00  0.00     0.261 C 
BRANCH  26  27
ATOM     27  O   UNL A   1      37.816  22.165  25.895  1.00  0.00    -0.460 OA
BRANCH  27  28
ATOM     28  C   UNL A   1      39.070  21.874  26.294  1.00  0.00     0.338 C 
ATOM     29  O   UNL A   1      39.674  20.830  26.104  1.00  0.00    -0.246 OA
BRANCH  28  30
ATOM     30  C   UNL A   1      39.669  23.118  26.821  1.00  0.00     0.060 A 
ATOM     31  C   UNL A   1      39.130  24.356  26.453  1.00  0.00     0.016 A 
ATOM     32  C   UNL A   1      40.766  23.057  27.678  1.00  0.00     0.016 A 
ATOM     33  C   UNL A   1      39.728  25.537  26.896  1.00  0.00     0.010 A 
ATOM     34  C   UNL A   1      41.353  24.238  28.141  1.00  0.00     0.010 A 
ATOM     35  C   UNL A   1      40.880  25.484  27.692  1.00  0.00    -0.014 A 
BRANCH  35  36
ATOM     36  C   UNL A   1      41.763  26.679  27.771  1.00  0.00     0.031 A 
ATOM     37  C   UNL A   1      41.282  27.841  28.607  1.00  0.00     0.074 A 
ATOM     38  C   UNL A   1      42.974  26.721  27.189  1.00  0.00     0.049 A 
ATOM     39  N   UNL A   1      41.833  29.006  28.822  1.00  0.00    -0.248 NA
ATOM     40  C   UNL A   1      39.983  27.662  29.278  1.00  0.00     0.031 C 
ATOM     41  C   UNL A   1      43.577  25.648  26.401  1.00  0.00     0.029 A 
ATOM     42  N   UNL A   1      43.924  27.714  27.185  1.00  0.00    -0.354 N 
ATOM     43  C   UNL A   1      40.944  29.698  29.639  1.00  0.00     0.074 A 
ATOM     44  C   UNL A   1      39.784  28.854  29.811  1.00  0.00     0.031 C 
ATOM     45  C   UNL A   1      44.803  26.035  26.004  1.00  0.00     0.029 A 
ATOM     46  C   UNL A   1      45.059  27.396  26.476  1.00  0.00     0.049 A 
ATOM     47  H   UNL A   1      43.804  28.575  27.648  1.00  0.00     0.167 HD
ATOM     48  C   UNL A   1      41.088  30.913  30.223  1.00  0.00     0.034 A 
ATOM     49  C   UNL A   1      46.168  28.125  26.231  1.00  0.00     0.034 A 
ATOM     50  C   UNL A   1      42.252  31.743  30.049  1.00  0.00     0.049 A 
ATOM     51  C   UNL A   1      46.271  29.518  26.814  1.00  0.00     0.074 A 
ATOM     52  C   UNL A   1      42.508  32.992  30.583  1.00  0.00     0.029 A 
ATOM     53  N   UNL A   1      43.357  31.406  29.277  1.00  0.00    -0.354 N 
ATOM     54  N   UNL A   1      45.419  30.167  27.576  1.00  0.00    -0.248 NA
ATOM     55  C   UNL A   1      47.497  30.271  26.513  1.00  0.00     0.031 C 
ATOM     56  C   UNL A   1      43.730  33.444  30.074  1.00  0.00     0.029 A 
ATOM     57  C   UNL A   1      44.286  32.435  29.301  1.00  0.00     0.049 A 
ATOM     58  H   UNL A   1      43.466  30.560  28.786  1.00  0.00     0.167 HD
ATOM     59  C   UNL A   1      46.031  31.381  27.886  1.00  0.00     0.074 A 
ATOM     60  C   UNL A   1      47.324  31.368  27.233  1.00  0.00     0.031 C 
ATOM     61  C   UNL A   1      45.574  32.408  28.649  1.00  0.00     0.034 A 
BRANCH  48  62
ATOM     62  C   UNL A   1      39.933  31.417  31.058  1.00  0.00     0.023 A 
ATOM     63  C   UNL A   1      39.958  31.364  32.464  1.00  0.00     0.031 A 
ATOM     64  C   UNL A   1      38.762  31.889  30.440  1.00  0.00     0.131 A 
ATOM     65  C   UNL A   1      38.804  31.680  33.197  1.00  0.00     0.055 A 
ATOM     66  C   UNL A   1      37.652  32.299  31.182  1.00  0.00     0.041 A 
ATOM     67  F   UNL A   1      38.665  31.935  29.102  1.00  0.00    -0.206 F 
ATOM     68  C   UNL A   1      37.661  32.176  32.568  1.00  0.00     0.022 A 
BRANCH  65  69
ATOM     69  S   UNL A   1      38.756  31.250  34.959  1.00  0.00     0.124 S 
ATOM     70  O   UNL A   1      38.630  29.794  34.902  1.00  0.00    -0.237 OA
ATOM     71  O   UNL A   1      40.032  31.761  35.444  1.00  0.00    -0.237 OA
ATOM     72  O   UNL A   1      37.572  31.951  35.451  1.00  0.00    -0.744 OA
ENDBRANCH  65  69
ENDBRANCH  48  62
BRANCH  49  73
ATOM     73  C   UNL A   1      47.274  27.575  25.391  1.00  0.00     0.023 A 
ATOM     74  C   UNL A   1      47.454  27.996  24.062  1.00  0.00     0.031 A 
ATOM     75  C   UNL A   1      48.122  26.566  25.878  1.00  0.00     0.131 A 
ATOM     76  C   UNL A   1      48.419  27.375  23.253  1.00  0.00     0.055 A 
ATOM     77  C   UNL A   1      49.122  25.993  25.089  1.00  0.00     0.041 A 
ATOM     78  F   UNL A   1      47.991  26.119  27.138  1.00  0.00    -0.206 F 
ATOM     79  C   UNL A   1      49.264  26.387  23.762  1.00  0.00     0.022 A 
BRANCH  76  80
ATOM     80  S   UNL A   1      48.485  27.805  21.492  1.00  0.00     0.124 S 
ATOM     81  O   UNL A   1      47.072  27.967  21.174  1.00  0.00    -0.237 OA
ATOM     82  O   UNL A   1      49.284  29.026  21.509  1.00  0.00    -0.237 OA
ATOM     83  O   UNL A   1      49.135  26.646  20.883  1.00  0.00    -0.744 OA
ENDBRANCH  76  80
ENDBRANCH  49  73
BRANCH  61  84
ATOM     84  C   UNL A   1      46.512  33.570  28.888  1.00  0.00     0.023 A 
ATOM     85  C   UNL A   1      47.434  33.584  29.948  1.00  0.00     0.031 A 
ATOM     86  C   UNL A   1      46.468  34.691  28.037  1.00  0.00     0.131 A 
ATOM     87  C   UNL A   1      48.223  34.723  30.173  1.00  0.00     0.055 A 
ATOM     88  C   UNL A   1      47.310  35.788  28.220  1.00  0.00     0.041 A 
ATOM     89  F   UNL A   1      45.606  34.737  27.009  1.00  0.00    -0.206 F 
ATOM     90  C   UNL A   1      48.182  35.817  29.304  1.00  0.00     0.022 A 
BRANCH  87  91
ATOM     91  S   UNL A   1      49.215  34.809  31.689  1.00  0.00     0.124 S 
ATOM     92  O   UNL A   1      48.878  36.134  32.198  1.00  0.00    -0.237 OA
ATOM     93  O   UNL A   1      48.702  33.681  32.460  1.00  0.00    -0.237 OA
ATOM     94  O   UNL A   1      50.588  34.658  31.210  1.00  0.00    -0.744 OA
ENDBRANCH  87  91
ENDBRANCH  61  84
ENDBRANCH  35  36
ENDBRANCH  28  30
ENDBRANCH  27  28
ENDBRANCH  26  27
ENDBRANCH  25  26
ENDBRANCH  24  25
ENDBRANCH  23  24
ENDBRANCH  22  23
ENDBRANCH   1  22
TORSDOF 26
ENDMDL
MODEL 2
REMARK VINA RESULT:      -8.4      6.120      9.835
REMARK SMILES CC(C)Cc1ccc([C@@H](C)C(=O)OCCOCCOCCOCCOC(=O)c2ccc(-c3c4nc(c(-c5cc(S(=O)(=O)[O-])ccc5F)c5ccc([nH]5)c(-c5cc(S(=O)(=O)[O-])ccc5F)c5nc(c(-c6cc(S(=O)(=O)[O-])ccc6F)c6ccc3[nH]6)C=C5)C=C4)cc2)cc1
REMARK SMILES IDX 19 1 18 2 17 3 16 4 15 5 14 6 13 7 11 8 12 9 9 10 10 11 8 12
REMARK SMILES IDX 5 13 6 14 92 15 7 16 91 17 4 18 2 19 1 20 3 21 20 22 21 23
REMARK SMILES IDX 22 24 23 25 24 26 25 27 26 28 27 29 28 30 29 31 90 32 30 33
REMARK SMILES IDX 89 34 31 35 32 36 33 37 83 38 34 39 88 40 82 41 84 42 35 43
REMARK SMILES IDX 87 44 81 45 80 46 36 48 68 49 48 50 67 51 49 52 52 53 66 54
REMARK SMILES IDX 85 55 50 56 51 57 65 59 86 60 53 61 37 62 38 63 46 64 39 65
REMARK SMILES IDX 45 66 47 67 44 68 40 69 41 70 42 71 43 72 69 73 70 74 78 75
REMARK SMILES IDX 71 76 77 77 79 78 76 79 72 80 73 81 74 82 75 83 54 84 55 85
REMARK SMILES IDX 63 86 56 87 62 88 64 89 61 90 57 91 58 92 59 93 60 94
REMARK H PARENT 84 47 52 58
REMARK Flexibility Score: inf
ROOT
ATOM      1  O   UNL A   1      32.720  32.662  27.237  1.00  0.00    -0.377 OA
ENDROOT
BRANCH   1   2
ATOM      2  C   UNL A   1      33.002  31.287  27.376  1.00  0.00     0.188 C 
BRANCH   2   3
ATOM      3  C   UNL A   1      32.307  30.357  26.367  1.00  0.00     0.188 C 
BRANCH   3   4
ATOM      4  O   UNL A   1      32.159  28.963  26.612  1.00  0.00    -0.376 OA
BRANCH   4   5
ATOM      5  C   UNL A   1      33.292  28.110  26.633  1.00  0.00     0.202 C 
BRANCH   5   6
ATOM      6  C   UNL A   1      33.759  27.410  25.343  1.00  0.00     0.261 C 
BRANCH   6   7
ATOM      7  O   UNL A   1      32.835  26.489  24.724  1.00  0.00    -0.463 OA
BRANCH   7   8
ATOM      8  C   UNL A   1      32.932  25.195  25.105  1.00  0.00     0.313 C 
ATOM      9  O   UNL A   1      32.523  24.773  26.187  1.00  0.00    -0.252 OA
BRANCH   8  10
ATOM     10  C   UNL A   1      33.629  24.256  24.119  1.00  0.00     0.126 C 
ATOM     11  C   UNL A   1      33.235  24.675  22.706  1.00  0.00     0.025 C 
BRANCH  10  12
ATOM     12  C   UNL A   1      33.549  22.740  24.286  1.00  0.00    -0.034 A 
ATOM     13  C   UNL A   1      33.444  19.917  24.718  1.00  0.00    -0.048 A 
ATOM     14  C   UNL A   1      32.433  20.590  24.017  1.00  0.00     0.004 A 
ATOM     15  C   UNL A   1      34.533  20.668  25.170  1.00  0.00     0.004 A 
ATOM     16  C   UNL A   1      32.473  21.979  23.816  1.00  0.00     0.005 A 
ATOM     17  C   UNL A   1      34.593  22.052  24.941  1.00  0.00     0.005 A 
BRANCH  13  18
ATOM     18  C   UNL A   1      33.392  18.416  24.941  1.00  0.00     0.038 C 
BRANCH  18  19
ATOM     19  C   UNL A   1      34.440  17.570  24.182  1.00  0.00    -0.013 C 
ATOM     20  C   UNL A   1      34.904  16.356  24.986  1.00  0.00     0.008 C 
ATOM     21  C   UNL A   1      33.866  17.081  22.845  1.00  0.00     0.008 C 
ENDBRANCH  18  19
ENDBRANCH  13  18
ENDBRANCH  10  12
ENDBRANCH   8  10
ENDBRANCH   7   8
ENDBRANCH   6   7
ENDBRANCH   5   6
ENDBRANCH   4   5
ENDBRANCH   3   4
ENDBRANCH   2   3
ENDBRANCH   1   2
BRANCH   1  22
ATOM     22  C   UNL A   1      33.430  33.533  28.105  1.00  0.00     0.188 C 
BRANCH  22  23
ATOM     23  C   UNL A   1      34.930  33.234  28.280  1.00  0.00     0.188 C 
BRANCH  23  24
ATOM     24  O   UNL A   1      35.359  33.236  29.638  1.00  0.00    -0.376 OA
BRANCH  24  25
ATOM     25  C   UNL A   1      34.920  32.191  30.495  1.00  0.00     0.202 C 
BRANCH  25  26
ATOM     26  C   UNL A   1      35.661  31.980  31.828  1.00  0.00     0.261 C 
BRANCH  26  27
ATOM     27  O   UNL A   1      36.944  31.338  31.770  1.00  0.00    -0.460 OA
BRANCH  27  28
ATOM     28  C   UNL A   1      36.983  30.003  31.587  1.00  0.00     0.338 C 
ATOM     29  O   UNL A   1      36.165  29.322  30.990  1.00  0.00    -0.246 OA
BRANCH  28  30
ATOM     30  C   UNL A   1      38.303  29.529  32.054  1.00  0.00     0.060 A 
ATOM     31  C   UNL A   1      39.323  30.455  32.300  1.00  0.00     0.016 A 
ATOM     32  C   UNL A   1      38.528  28.167  32.247  1.00  0.00     0.016 A 
ATOM     33  C   UNL A   1      40.591  30.011  32.681  1.00  0.00     0.010 A 
ATOM     34  C   UNL A   1      39.790  27.723  32.651  1.00  0.00     0.010 A 
ATOM     35  C   UNL A   1      40.848  28.639  32.797  1.00  0.00    -0.014 A 
BRANCH  35  36
ATOM     36  C   UNL A   1      42.254  28.156  32.739  1.00  0.00     0.031 A 
ATOM     37  C   UNL A   1      42.956  27.908  34.053  1.00  0.00     0.074 A 
ATOM     38  C   UNL A   1      42.874  27.878  31.579  1.00  0.00     0.049 A 
ATOM     39  N   UNL A   1      44.181  27.518  34.291  1.00  0.00    -0.248 NA
ATOM     40  C   UNL A   1      42.162  28.156  35.268  1.00  0.00     0.031 C 
ATOM     41  C   UNL A   1      42.291  28.022  30.247  1.00  0.00     0.029 A 
ATOM     42  N   UNL A   1      44.140  27.399  31.340  1.00  0.00    -0.354 N 
ATOM     43  C   UNL A   1      44.304  27.488  35.676  1.00  0.00     0.074 A 
ATOM     44  C   UNL A   1      43.058  27.976  36.222  1.00  0.00     0.031 C 
ATOM     45  C   UNL A   1      43.192  27.623  29.330  1.00  0.00     0.029 A 
ATOM     46  C   UNL A   1      44.429  27.232  30.006  1.00  0.00     0.049 A 
ATOM     47  H   UNL A   1      44.782  27.194  32.058  1.00  0.00     0.167 HD
ATOM     48  C   UNL A   1      45.344  27.061  36.433  1.00  0.00     0.034 A 
ATOM     49  C   UNL A   1      45.565  26.819  29.404  1.00  0.00     0.034 A 
ATOM     50  C   UNL A   1      46.579  26.569  35.878  1.00  0.00     0.049 A 
ATOM     51  C   UNL A   1      46.751  26.437  30.264  1.00  0.00     0.074 A 
ATOM     52  C   UNL A   1      47.704  26.117  36.543  1.00  0.00     0.029 A 
ATOM     53  N   UNL A   1      46.852  26.468  34.519  1.00  0.00    -0.354 N 
ATOM     54  N   UNL A   1      46.860  26.423  31.573  1.00  0.00    -0.248 NA
ATOM     55  C   UNL A   1      47.963  26.000  29.559  1.00  0.00     0.031 C 
ATOM     56  C   UNL A   1      48.683  25.816  35.590  1.00  0.00     0.029 A 
ATOM     57  C   UNL A   1      48.136  25.984  34.327  1.00  0.00     0.049 A 
ATOM     58  H   UNL A   1      46.224  26.703  33.798  1.00  0.00     0.167 HD
ATOM     59  C   UNL A   1      48.134  25.926  31.845  1.00  0.00     0.074 A 
ATOM     60  C   UNL A   1      48.750  25.648  30.564  1.00  0.00     0.031 C 
ATOM     61  C   UNL A   1      48.737  25.707  33.043  1.00  0.00     0.034 A 
BRANCH  48  62
ATOM     62  C   UNL A   1      45.191  27.160  37.933  1.00  0.00     0.023 A 
ATOM     63  C   UNL A   1      45.626  28.291  38.649  1.00  0.00     0.031 A 
ATOM     64  C   UNL A   1      44.671  26.080  38.669  1.00  0.00     0.131 A 
ATOM     65  C   UNL A   1      45.625  28.276  40.052  1.00  0.00     0.055 A 
ATOM     66  C   UNL A   1      44.578  26.114  40.061  1.00  0.00     0.041 A 
ATOM     67  F   UNL A   1      44.267  24.962  38.047  1.00  0.00    -0.206 F 
ATOM     68  C   UNL A   1      45.077  27.208  40.763  1.00  0.00     0.022 A 
BRANCH  65  69
ATOM     69  S   UNL A   1      46.526  29.585  40.929  1.00  0.00     0.124 S 
ATOM     70  O   UNL A   1      47.589  29.899  39.976  1.00  0.00    -0.237 OA
ATOM     71  O   UNL A   1      45.504  30.608  41.106  1.00  0.00    -0.237 OA
ATOM     72  O   UNL A   1      46.974  28.928  42.156  1.00  0.00    -0.744 OA
ENDBRANCH  65  69
ENDBRANCH  48  62
BRANCH  49  73
ATOM     73  C   UNL A   1      45.659  26.750  27.915  1.00  0.00     0.023 A 
ATOM     74  C   UNL A   1      45.516  25.529  27.235  1.00  0.00     0.031 A 
ATOM     75  C   UNL A   1      45.968  27.891  27.154  1.00  0.00     0.131 A 
ATOM     76  C   UNL A   1      45.734  25.468  25.849  1.00  0.00     0.055 A 
ATOM     77  C   UNL A   1      46.124  27.837  25.768  1.00  0.00     0.041 A 
ATOM     78  F   UNL A   1      46.124  29.084  27.752  1.00  0.00    -0.206 F 
ATOM     79  C   UNL A   1      46.022  26.616  25.108  1.00  0.00     0.022 A 
BRANCH  76  80
ATOM     80  S   UNL A   1      45.738  23.844  25.039  1.00  0.00     0.124 S 
ATOM     81  O   UNL A   1      46.228  22.982  26.109  1.00  0.00    -0.237 OA
ATOM     82  O   UNL A   1      44.334  23.683  24.678  1.00  0.00    -0.237 OA
ATOM     83  O   UNL A   1      46.653  24.026  23.914  1.00  0.00    -0.744 OA
ENDBRANCH  76  80
ENDBRANCH  49  73
BRANCH  61  84
ATOM     84  C   UNL A   1      50.105  25.062  33.027  1.00  0.00     0.023 A 
ATOM     85  C   UNL A   1      50.276  23.668  32.996  1.00  0.00     0.031 A 
ATOM     86  C   UNL A   1      51.259  25.867  33.055  1.00  0.00     0.131 A 
ATOM     87  C   UNL A   1      51.567  23.121  33.065  1.00  0.00     0.055 A 
ATOM     88  C   UNL A   1      52.542  25.319  33.047  1.00  0.00     0.041 A 
ATOM     89  F   UNL A   1      51.159  27.206  33.089  1.00  0.00    -0.206 F 
ATOM     90  C   UNL A   1      52.701  23.937  33.070  1.00  0.00     0.022 A 
BRANCH  87  91
ATOM     91  S   UNL A   1      51.742  21.328  33.277  1.00  0.00     0.124 S 
ATOM     92  O   UNL A   1      50.364  20.870  33.136  1.00  0.00    -0.237 OA
ATOM     93  O   UNL A   1      52.646  20.972  32.188  1.00  0.00    -0.237 OA
ATOM     94  O   UNL A   1      52.306  21.195  34.619  1.00  0.00    -0.744 OA
ENDBRANCH  87  91
ENDBRANCH  61  84
ENDBRANCH  35  36
ENDBRANCH  28  30
ENDBRANCH  27  28
ENDBRANCH  26  27
ENDBRANCH  25  26
ENDBRANCH  24  25
ENDBRANCH  23  24
ENDBRANCH  22  23
ENDBRANCH   1  22
TORSDOF 26
ENDMDL
MODEL 3
REMARK VINA RESULT:      -8.4      2.652      9.836
REMARK SMILES CC(C)Cc1ccc([C@@H](C)C(=O)OCCOCCOCCOCCOC(=O)c2ccc(-c3c4nc(c(-c5cc(S(=O)(=O)[O-])ccc5F)c5ccc([nH]5)c(-c5cc(S(=O)(=O)[O-])ccc5F)c5nc(c(-c6cc(S(=O)(=O)[O-])ccc6F)c6ccc3[nH]6)C=C5)C=C4)cc2)cc1
REMARK SMILES IDX 19 1 18 2 17 3 16 4 15 5 14 6 13 7 11 8 12 9 9 10 10 11 8 12
REMARK SMILES IDX 5 13 6 14 92 15 7 16 91 17 4 18 2 19 1 20 3 21 20 22 21 23
REMARK SMILES IDX 22 24 23 25 24 26 25 27 26 28 27 29 28 30 29 31 90 32 30 33
REMARK SMILES IDX 89 34 31 35 32 36 33 37 83 38 34 39 88 40 82 41 84 42 35 43
REMARK SMILES IDX 87 44 81 45 80 46 36 48 68 49 48 50 67 51 49 52 52 53 66 54
REMARK SMILES IDX 85 55 50 56 51 57 65 59 86 60 53 61 37 62 38 63 46 64 39 65
REMARK SMILES IDX 45 66 47 67 44 68 40 69 41 70 42 71 43 72 69 73 70 74 78 75
REMARK SMILES IDX 71 76 77 77 79 78 76 79 72 80 73 81 74 82 75 83 54 84 55 85
REMARK SMILES IDX 63 86 56 87 62 88 64 89 61 90 57 91 58 92 59 93 60 94
REMARK H PARENT 84 47 52 58
REMARK Flexibility Score: inf
ROOT
ATOM      1  O   UNL A   1      32.128  33.183  27.250  1.00  0.00    -0.377 OA
ENDROOT
BRANCH   1   2
ATOM      2  C   UNL A   1      32.524  31.835  27.378  1.00  0.00     0.188 C 
BRANCH   2   3
ATOM      3  C   UNL A   1      31.778  30.831  26.482  1.00  0.00     0.188 C 
BRANCH   3   4
ATOM      4  O   UNL A   1      32.410  29.659  25.984  1.00  0.00    -0.376 OA
BRANCH   4   5
ATOM      5  C   UNL A   1      32.501  29.425  24.588  1.00  0.00     0.202 C 
BRANCH   5   6
ATOM      6  C   UNL A   1      31.514  28.465  23.897  1.00  0.00     0.261 C 
BRANCH   6   7
ATOM      7  O   UNL A   1      31.075  27.318  24.657  1.00  0.00    -0.463 OA
BRANCH   7   8
ATOM      8  C   UNL A   1      31.768  26.172  24.467  1.00  0.00     0.313 C 
ATOM      9  O   UNL A   1      32.915  26.138  24.021  1.00  0.00    -0.252 OA
BRANCH   8  10
ATOM     10  C   UNL A   1      31.027  24.876  24.803  1.00  0.00     0.126 C 
ATOM     11  C   UNL A   1      30.294  25.078  26.125  1.00  0.00     0.025 C 
BRANCH  10  12
ATOM     12  C   UNL A   1      31.745  23.529  24.773  1.00  0.00    -0.034 A 
ATOM     13  C   UNL A   1      33.200  21.069  24.737  1.00  0.00    -0.048 A 
ATOM     14  C   UNL A   1      31.948  21.172  25.361  1.00  0.00     0.004 A 
ATOM     15  C   UNL A   1      33.702  22.205  24.094  1.00  0.00     0.004 A 
ATOM     16  C   UNL A   1      31.238  22.383  25.394  1.00  0.00     0.005 A 
ATOM     17  C   UNL A   1      32.979  23.408  24.097  1.00  0.00     0.005 A 
BRANCH  13  18
ATOM     18  C   UNL A   1      33.969  19.761  24.711  1.00  0.00     0.038 C 
BRANCH  18  19
ATOM     19  C   UNL A   1      33.300  18.583  23.966  1.00  0.00    -0.013 C 
ATOM     20  C   UNL A   1      32.744  17.527  24.921  1.00  0.00     0.008 C 
ATOM     21  C   UNL A   1      32.155  19.091  23.080  1.00  0.00     0.008 C 
ENDBRANCH  18  19
ENDBRANCH  13  18
ENDBRANCH  10  12
ENDBRANCH   8  10
ENDBRANCH   7   8
ENDBRANCH   6   7
ENDBRANCH   5   6
ENDBRANCH   4   5
ENDBRANCH   3   4
ENDBRANCH   2   3
ENDBRANCH   1   2
BRANCH   1  22
ATOM     22  C   UNL A   1      32.893  34.128  27.983  1.00  0.00     0.188 C 
BRANCH  22  23
ATOM     23  C   UNL A   1      34.339  33.713  28.314  1.00  0.00     0.188 C 
BRANCH  23  24
ATOM     24  O   UNL A   1      34.901  34.428  29.409  1.00  0.00    -0.376 OA
BRANCH  24  25
ATOM     25  C   UNL A   1      34.459  34.124  30.725  1.00  0.00     0.202 C 
BRANCH  25  26
ATOM     26  C   UNL A   1      35.359  34.524  31.908  1.00  0.00     0.261 C 
BRANCH  26  27
ATOM     27  O   UNL A   1      36.467  33.662  32.209  1.00  0.00    -0.460 OA
BRANCH  27  28
ATOM     28  C   UNL A   1      36.216  32.363  32.469  1.00  0.00     0.338 C 
ATOM     29  O   UNL A   1      35.263  31.911  33.083  1.00  0.00    -0.246 OA
BRANCH  28  30
ATOM     30  C   UNL A   1      37.187  31.560  31.697  1.00  0.00     0.060 A 
ATOM     31  C   UNL A   1      38.056  30.693  32.369  1.00  0.00     0.016 A 
ATOM     32  C   UNL A   1      37.238  31.669  30.309  1.00  0.00     0.016 A 
ATOM     33  C   UNL A   1      39.019  29.978  31.654  1.00  0.00     0.010 A 
ATOM     34  C   UNL A   1      38.185  30.936  29.589  1.00  0.00     0.010 A 
ATOM     35  C   UNL A   1      39.129  30.144  30.267  1.00  0.00    -0.014 A 
BRANCH  35  36
ATOM     36  C   UNL A   1      40.401  29.771  29.590  1.00  0.00     0.031 A 
ATOM     37  C   UNL A   1      40.465  28.409  28.940  1.00  0.00     0.074 A 
ATOM     38  C   UNL A   1      41.439  30.619  29.487  1.00  0.00     0.049 A 
ATOM     39  N   UNL A   1      41.452  27.823  28.314  1.00  0.00    -0.248 NA
ATOM     40  C   UNL A   1      39.245  27.590  29.030  1.00  0.00     0.031 C 
ATOM     41  C   UNL A   1      41.483  31.978  30.022  1.00  0.00     0.029 A 
ATOM     42  N   UNL A   1      42.660  30.459  28.877  1.00  0.00    -0.354 N 
ATOM     43  C   UNL A   1      40.974  26.568  27.950  1.00  0.00     0.074 A 
ATOM     44  C   UNL A   1      39.642  26.449  28.497  1.00  0.00     0.031 C 
ATOM     45  C   UNL A   1      42.666  32.534  29.702  1.00  0.00     0.029 A 
ATOM     46  C   UNL A   1      43.479  31.560  28.973  1.00  0.00     0.049 A 
ATOM     47  H   UNL A   1      42.925  29.631  28.414  1.00  0.00     0.167 HD
ATOM     48  C   UNL A   1      41.572  25.610  27.201  1.00  0.00     0.034 A 
ATOM     49  C   UNL A   1      44.739  31.751  28.531  1.00  0.00     0.034 A 
ATOM     50  C   UNL A   1      42.899  25.743  26.656  1.00  0.00     0.049 A 
ATOM     51  C   UNL A   1      45.428  30.633  27.777  1.00  0.00     0.074 A 
ATOM     52  C   UNL A   1      43.611  24.839  25.889  1.00  0.00     0.029 A 
ATOM     53  N   UNL A   1      43.716  26.854  26.824  1.00  0.00    -0.354 N 
ATOM     54  N   UNL A   1      44.970  29.446  27.449  1.00  0.00    -0.248 NA
ATOM     55  C   UNL A   1      46.801  30.891  27.322  1.00  0.00     0.031 C 
ATOM     56  C   UNL A   1      44.885  25.369  25.659  1.00  0.00     0.029 A 
ATOM     57  C   UNL A   1      44.934  26.647  26.195  1.00  0.00     0.049 A 
ATOM     58  H   UNL A   1      43.467  27.670  27.314  1.00  0.00     0.167 HD
ATOM     59  C   UNL A   1      45.981  28.839  26.704  1.00  0.00     0.074 A 
ATOM     60  C   UNL A   1      47.068  29.795  26.629  1.00  0.00     0.031 C 
ATOM     61  C   UNL A   1      46.008  27.611  26.125  1.00  0.00     0.034 A 
BRANCH  48  62
ATOM     62  C   UNL A   1      40.803  24.328  26.980  1.00  0.00     0.023 A 
ATOM     63  C   UNL A   1      39.617  24.297  26.223  1.00  0.00     0.031 A 
ATOM     64  C   UNL A   1      41.218  23.134  27.595  1.00  0.00     0.131 A 
ATOM     65  C   UNL A   1      38.841  23.130  26.183  1.00  0.00     0.055 A 
ATOM     66  C   UNL A   1      40.493  21.948  27.465  1.00  0.00     0.041 A 
ATOM     67  F   UNL A   1      42.324  23.105  28.354  1.00  0.00    -0.206 F 
ATOM     68  C   UNL A   1      39.285  21.946  26.774  1.00  0.00     0.022 A 
BRANCH  65  69
ATOM     69  S   UNL A   1      37.157  23.235  25.516  1.00  0.00     0.124 S 
ATOM     70  O   UNL A   1      37.414  23.296  24.078  1.00  0.00    -0.237 OA
ATOM     71  O   UNL A   1      36.546  22.005  26.003  1.00  0.00    -0.237 OA
ATOM     72  O   UNL A   1      36.633  24.468  26.100  1.00  0.00    -0.744 OA
ENDBRANCH  65  69
ENDBRANCH  48  62
BRANCH  49  73
ATOM     73  C   UNL A   1      45.452  33.038  28.787  1.00  0.00     0.023 A 
ATOM     74  C   UNL A   1      45.516  34.041  27.806  1.00  0.00     0.031 A 
ATOM     75  C   UNL A   1      46.146  33.256  29.991  1.00  0.00     0.131 A 
ATOM     76  C   UNL A   1      46.297  35.188  28.022  1.00  0.00     0.055 A 
ATOM     77  C   UNL A   1      46.872  34.425  30.227  1.00  0.00     0.041 A 
ATOM     78  F   UNL A   1      46.126  32.328  30.963  1.00  0.00    -0.206 F 
ATOM     79  C   UNL A   1      46.963  35.394  29.232  1.00  0.00     0.022 A 
BRANCH  76  80
ATOM     80  S   UNL A   1      46.516  36.363  26.657  1.00  0.00     0.124 S 
ATOM     81  O   UNL A   1      47.905  36.769  26.837  1.00  0.00    -0.237 OA
ATOM     82  O   UNL A   1      46.236  35.530  25.493  1.00  0.00    -0.237 OA
ATOM     83  O   UNL A   1      45.520  37.396  26.936  1.00  0.00    -0.744 OA
ENDBRANCH  76  80
ENDBRANCH  49  73
BRANCH  61  84
ATOM     84  C   UNL A   1      47.218  27.261  25.289  1.00  0.00     0.023 A 
ATOM     85  C   UNL A   1      47.362  27.692  23.959  1.00  0.00     0.031 A 
ATOM     86  C   UNL A   1      48.243  26.467  25.838  1.00  0.00     0.131 A 
ATOM     87  C   UNL A   1      48.466  27.269  23.202  1.00  0.00     0.055 A 
ATOM     88  C   UNL A   1      49.376  26.113  25.104  1.00  0.00     0.041 A 
ATOM     89  F   UNL A   1      48.161  26.021  27.102  1.00  0.00    -0.206 F 
ATOM     90  C   UNL A   1      49.484  26.500  23.772  1.00  0.00     0.022 A 
BRANCH  87  91
ATOM     91  S   UNL A   1      48.494  27.633  21.426  1.00  0.00     0.124 S 
ATOM     92  O   UNL A   1      47.327  28.495  21.274  1.00  0.00    -0.237 OA
ATOM     93  O   UNL A   1      49.791  28.282  21.261  1.00  0.00    -0.237 OA
ATOM     94  O   UNL A   1      48.377  26.315  20.804  1.00  0.00    -0.744 OA
ENDBRANCH  87  91
ENDBRANCH  61  84
ENDBRANCH  35  36
ENDBRANCH  28  30
ENDBRANCH  27  28
ENDBRANCH  26  27
ENDBRANCH  25  26
ENDBRANCH  24  25
ENDBRANCH  23  24
ENDBRANCH  22  23
ENDBRANCH   1  22
TORSDOF 26
ENDMDL
