MODEL 1
REMARK VINA RESULT:      -8.2      0.000      0.000
REMARK SMILES Cc1c(C[NH2+]Cc2cccc(F)c2)c(C(=O)OCCOCCOCCOCCOC(=O)c2ccc(-c3c4nc(c(-c5cc(S(=O)(=O)[O-])ccc5F)c5ccc([nH]5)c(-c5cc(S(=O)(=O)[O-])ccc5F)c5nc(c(-c6cc(S(=O)(=O)[O-])ccc6F)c6ccc3[nH]6)C=C5)C=C4)cc2)c(C)n1Cc1c(F)cccc1Cl
REMARK SMILES IDX 22 1 21 2 20 3 19 4 18 5 17 6 15 7 16 8 14 9 1 10 2 11 3 12
REMARK SMILES IDX 97 13 95 14 96 15 4 16 5 17 6 20 7 21 8 22 13 23 9 24 11 25
REMARK SMILES IDX 10 26 12 27 98 28 99 29 100 30 105 31 101 32 102 33 104 34
REMARK SMILES IDX 106 35 103 36 23 37 24 38 25 39 26 40 27 41 28 42 29 43
REMARK SMILES IDX 30 44 31 45 32 46 33 47 94 48 34 49 93 50 35 51 36 52 37 53
REMARK SMILES IDX 87 54 38 55 92 56 86 57 88 58 39 59 91 60 85 61 84 62 40 64
REMARK SMILES IDX 72 65 52 66 71 67 53 68 56 69 70 70 89 71 54 72 55 73 69 75
REMARK SMILES IDX 90 76 57 77 41 78 42 79 50 80 43 81 49 82 51 83 48 84 44 85
REMARK SMILES IDX 45 86 46 87 47 88 73 89 74 90 82 91 75 92 81 93 83 94 80 95
REMARK SMILES IDX 76 96 77 97 78 98 79 99 58 100 59 101 67 102 60 103 66 104
REMARK SMILES IDX 68 105 65 106 61 107 62 108 63 109 64 110
REMARK H PARENT 5 18 5 19 88 63 56 74
REMARK Flexibility Score: inf
ROOT
ATOM      1  C   UNL A   1      39.906  28.490  27.851  1.00  0.00     0.188 C 
ENDROOT
BRANCH   1   2
ATOM      2  C   UNL A   1      38.678  28.519  28.796  1.00  0.00     0.188 C 
BRANCH   2   3
ATOM      3  O   UNL A   1      37.432  28.661  28.140  1.00  0.00    -0.376 OA
BRANCH   3   4
ATOM      4  C   UNL A   1      36.546  29.717  28.472  1.00  0.00     0.202 C 
BRANCH   4   5
ATOM      5  C   UNL A   1      35.129  29.789  27.886  1.00  0.00     0.261 C 
BRANCH   5   6
ATOM      6  O   UNL A   1      34.816  28.802  26.912  1.00  0.00    -0.460 OA
BRANCH   6   7
ATOM      7  C   UNL A   1      33.554  28.313  26.826  1.00  0.00     0.340 C 
ATOM      8  O   UNL A   1      32.815  28.146  27.798  1.00  0.00    -0.246 OA
BRANCH   7   9
ATOM      9  C   UNL A   1      33.201  28.056  25.424  1.00  0.00     0.089 A 
ATOM     10  C   UNL A   1      33.285  26.460  22.059  1.00  0.00     0.065 C 
ATOM     11  C   UNL A   1      33.003  27.200  23.325  1.00  0.00     0.025 A 
ATOM     12  C   UNL A   1      33.593  26.974  24.574  1.00  0.00     0.042 A 
ATOM     13  N   UNL A   1      32.084  28.239  23.457  1.00  0.00    -0.343 N 
ATOM     14  C   UNL A   1      32.273  28.812  24.708  1.00  0.00     0.030 A 
ATOM     15  C   UNL A   1      31.535  30.002  25.224  1.00  0.00     0.065 C 
BRANCH  12  16
ATOM     16  C   UNL A   1      34.433  25.785  24.971  1.00  0.00     0.300 C 
BRANCH  16  17
ATOM     17  N   UNL A   1      33.612  24.591  24.983  1.00  0.00    -0.339 N 
ATOM     18  H   UNL A   1      32.636  24.874  24.895  1.00  0.00     0.346 HD
ATOM     19  H   UNL A   1      33.809  24.109  25.860  1.00  0.00     0.346 HD
BRANCH  17  20
ATOM     20  C   UNL A   1      33.910  23.646  23.915  1.00  0.00     0.297 C 
BRANCH  20  21
ATOM     21  C   UNL A   1      34.681  22.401  24.309  1.00  0.00     0.009 A 
ATOM     22  C   UNL A   1      36.078  22.362  24.460  1.00  0.00     0.010 A 
ATOM     23  C   UNL A   1      33.963  21.213  24.526  1.00  0.00     0.048 A 
ATOM     24  C   UNL A   1      36.743  21.169  24.753  1.00  0.00     0.004 A 
ATOM     25  C   UNL A   1      34.633  20.032  24.841  1.00  0.00     0.123 A 
ATOM     26  C   UNL A   1      36.018  19.998  24.940  1.00  0.00     0.039 A 
ATOM     27  F   UNL A   1      33.931  18.911  25.047  1.00  0.00    -0.207 F 
ENDBRANCH  20  21
ENDBRANCH  17  20
ENDBRANCH  16  17
ENDBRANCH  12  16
BRANCH  13  28
ATOM     28  C   UNL A   1      31.177  28.764  22.406  1.00  0.00     0.162 C 
BRANCH  28  29
ATOM     29  C   UNL A   1      29.696  28.723  22.734  1.00  0.00     0.026 A 
ATOM     30  C   UNL A   1      28.868  29.807  22.401  1.00  0.00     0.129 A 
ATOM     31  C   UNL A   1      29.041  27.612  23.291  1.00  0.00     0.048 A 
ATOM     32  F   UNL A   1      29.328  30.788  21.620  1.00  0.00    -0.207 F 
ATOM     33  C   UNL A   1      27.518  29.874  22.741  1.00  0.00     0.040 A 
ATOM     34  C   UNL A   1      27.666  27.646  23.590  1.00  0.00     0.021 A 
ATOM     35  Cl  UNL A   1      29.835  26.098  23.545  1.00  0.00    -0.084 Cl
ATOM     36  C   UNL A   1      26.911  28.791  23.353  1.00  0.00     0.005 A 
ENDBRANCH  28  29
ENDBRANCH  13  28
ENDBRANCH   7   9
ENDBRANCH   6   7
ENDBRANCH   5   6
ENDBRANCH   4   5
ENDBRANCH   3   4
ENDBRANCH   2   3
ENDBRANCH   1   2
BRANCH   1  37
ATOM     37  O   UNL A   1      41.236  28.706  28.317  1.00  0.00    -0.377 OA
BRANCH  37  38
ATOM     38  C   UNL A   1      41.483  29.766  29.223  1.00  0.00     0.188 C 
BRANCH  38  39
ATOM     39  C   UNL A   1      42.370  29.370  30.411  1.00  0.00     0.188 C 
BRANCH  39  40
ATOM     40  O   UNL A   1      43.574  28.679  30.134  1.00  0.00    -0.376 OA
BRANCH  40  41
ATOM     41  C   UNL A   1      44.554  29.316  29.319  1.00  0.00     0.202 C 
BRANCH  41  42
ATOM     42  C   UNL A   1      44.695  29.113  27.760  1.00  0.00     0.261 C 
BRANCH  42  43
ATOM     43  O   UNL A   1      44.605  30.139  26.681  1.00  0.00    -0.460 OA
BRANCH  43  44
ATOM     44  C   UNL A   1      45.777  30.825  26.363  1.00  0.00     0.338 C 
ATOM     45  O   UNL A   1      46.449  30.471  25.398  1.00  0.00    -0.246 OA
BRANCH  44  46
ATOM     46  C   UNL A   1      46.221  32.108  27.198  1.00  0.00     0.060 A 
ATOM     47  C   UNL A   1      46.380  33.323  26.548  1.00  0.00     0.016 A 
ATOM     48  C   UNL A   1      46.783  32.174  28.503  1.00  0.00     0.016 A 
ATOM     49  C   UNL A   1      46.965  34.520  27.198  1.00  0.00     0.010 A 
ATOM     50  C   UNL A   1      47.464  33.413  29.143  1.00  0.00     0.010 A 
ATOM     51  C   UNL A   1      47.592  34.676  28.521  1.00  0.00    -0.014 A 
BRANCH  51  52
ATOM     52  C   UNL A   1      48.526  36.159  28.870  1.00  0.00     0.031 A 
ATOM     53  C   UNL A   1      47.644  36.716  29.933  1.00  0.00     0.074 A 
ATOM     54  C   UNL A   1      49.548  37.152  28.527  1.00  0.00     0.049 A 
ATOM     55  N   UNL A   1      46.409  36.925  29.576  1.00  0.00    -0.248 NA
ATOM     56  C   UNL A   1      47.834  36.637  31.380  1.00  0.00     0.031 C 
ATOM     57  C   UNL A   1      50.369  37.281  27.292  1.00  0.00     0.029 A 
ATOM     58  N   UNL A   1      50.090  38.397  29.199  1.00  0.00    -0.354 N 
ATOM     59  C   UNL A   1      45.710  37.317  30.677  1.00  0.00     0.074 A 
ATOM     60  C   UNL A   1      46.587  36.938  31.787  1.00  0.00     0.031 C 
ATOM     61  C   UNL A   1      51.324  38.280  27.335  1.00  0.00     0.029 A 
ATOM     62  C   UNL A   1      51.305  39.071  28.583  1.00  0.00     0.049 A 
ATOM     63  H   UNL A   1      49.668  38.759  30.011  1.00  0.00     0.167 HD
ATOM     64  C   UNL A   1      44.999  38.460  30.463  1.00  0.00     0.034 A 
ATOM     65  C   UNL A   1      52.103  40.227  28.955  1.00  0.00     0.034 A 
ATOM     66  C   UNL A   1      45.773  39.611  30.844  1.00  0.00     0.049 A 
ATOM     67  C   UNL A   1      51.109  41.200  29.389  1.00  0.00     0.074 A 
ATOM     68  C   UNL A   1      46.636  39.838  31.899  1.00  0.00     0.029 A 
ATOM     69  N   UNL A   1      46.126  40.489  29.842  1.00  0.00    -0.354 N 
ATOM     70  N   UNL A   1      50.344  41.841  28.563  1.00  0.00    -0.248 NA
ATOM     71  C   UNL A   1      51.006  41.575  30.791  1.00  0.00     0.031 C 
ATOM     72  C   UNL A   1      47.776  40.384  31.284  1.00  0.00     0.029 A 
ATOM     73  C   UNL A   1      47.407  40.932  30.061  1.00  0.00     0.049 A 
ATOM     74  H   UNL A   1      45.551  40.756  29.089  1.00  0.00     0.167 HD
ATOM     75  C   UNL A   1      49.305  42.175  29.375  1.00  0.00     0.074 A 
ATOM     76  C   UNL A   1      49.866  42.261  30.717  1.00  0.00     0.031 C 
ATOM     77  C   UNL A   1      48.106  41.648  29.021  1.00  0.00     0.034 A 
BRANCH  64  78
ATOM     78  C   UNL A   1      44.156  38.413  29.199  1.00  0.00     0.023 A 
ATOM     79  C   UNL A   1      44.051  39.568  28.421  1.00  0.00     0.031 A 
ATOM     80  C   UNL A   1      43.399  37.284  28.791  1.00  0.00     0.131 A 
ATOM     81  C   UNL A   1      43.160  39.596  27.334  1.00  0.00     0.055 A 
ATOM     82  C   UNL A   1      42.457  37.345  27.768  1.00  0.00     0.041 A 
ATOM     83  F   UNL A   1      43.578  36.082  29.362  1.00  0.00    -0.206 F 
ATOM     84  C   UNL A   1      42.328  38.513  27.032  1.00  0.00     0.022 A 
BRANCH  81  85
ATOM     85  S   UNL A   1      43.157  41.056  26.265  1.00  0.00     0.124 S 
ATOM     86  O   UNL A   1      41.730  41.323  26.111  1.00  0.00    -0.237 OA
ATOM     87  O   UNL A   1      43.895  42.029  27.067  1.00  0.00    -0.237 OA
ATOM     88  O   UNL A   1      43.843  40.606  25.057  1.00  0.00    -0.744 OA
ENDBRANCH  81  85
ENDBRANCH  64  78
BRANCH  65  89
ATOM     89  C   UNL A   1      53.503  41.155  28.883  1.00  0.00     0.023 A 
ATOM     90  C   UNL A   1      53.780  42.212  27.861  1.00  0.00     0.031 A 
ATOM     91  C   UNL A   1      54.299  41.328  30.025  1.00  0.00     0.131 A 
ATOM     92  C   UNL A   1      54.716  43.308  28.047  1.00  0.00     0.055 A 
ATOM     93  C   UNL A   1      55.220  42.414  30.198  1.00  0.00     0.041 A 
ATOM     94  F   UNL A   1      54.149  40.508  31.073  1.00  0.00    -0.206 F 
ATOM     95  C   UNL A   1      55.416  43.408  29.237  1.00  0.00     0.022 A 
BRANCH  92  96
ATOM     96  S   UNL A   1      54.934  44.763  26.876  1.00  0.00     0.124 S 
ATOM     97  O   UNL A   1      56.376  44.982  26.887  1.00  0.00    -0.237 OA
ATOM     98  O   UNL A   1      54.357  44.285  25.625  1.00  0.00    -0.237 OA
ATOM     99  O   UNL A   1      54.163  45.836  27.513  1.00  0.00    -0.744 OA
ENDBRANCH  92  96
ENDBRANCH  65  89
BRANCH  77 100
ATOM    100  C   UNL A   1      47.702  41.726  27.558  1.00  0.00     0.023 A 
ATOM    101  C   UNL A   1      47.371  42.898  26.827  1.00  0.00     0.031 A 
ATOM    102  C   UNL A   1      47.565  40.505  26.881  1.00  0.00     0.131 A 
ATOM    103  C   UNL A   1      46.914  42.811  25.493  1.00  0.00     0.055 A 
ATOM    104  C   UNL A   1      47.143  40.421  25.555  1.00  0.00     0.041 A 
ATOM    105  F   UNL A   1      47.843  39.353  27.513  1.00  0.00    -0.206 F 
ATOM    106  C   UNL A   1      46.805  41.573  24.857  1.00  0.00     0.022 A 
BRANCH 103 107
ATOM    107  S   UNL A   1      46.423  44.313  24.573  1.00  0.00     0.124 S 
ATOM    108  O   UNL A   1      47.574  45.194  24.734  1.00  0.00    -0.237 OA
ATOM    109  O   UNL A   1      46.195  43.805  23.223  1.00  0.00    -0.237 OA
ATOM    110  O   UNL A   1      45.214  44.763  25.267  1.00  0.00    -0.744 OA
ENDBRANCH 103 107
ENDBRANCH  77 100
ENDBRANCH  51  52
ENDBRANCH  44  46
ENDBRANCH  43  44
ENDBRANCH  42  43
ENDBRANCH  41  42
ENDBRANCH  40  41
ENDBRANCH  39  40
ENDBRANCH  38  39
ENDBRANCH  37  38
ENDBRANCH   1  37
TORSDOF 29
ENDMDL
MODEL 2
REMARK VINA RESULT:      -7.6     12.070     17.966
REMARK SMILES Cc1c(C[NH2+]Cc2cccc(F)c2)c(C(=O)OCCOCCOCCOCCOC(=O)c2ccc(-c3c4nc(c(-c5cc(S(=O)(=O)[O-])ccc5F)c5ccc([nH]5)c(-c5cc(S(=O)(=O)[O-])ccc5F)c5nc(c(-c6cc(S(=O)(=O)[O-])ccc6F)c6ccc3[nH]6)C=C5)C=C4)cc2)c(C)n1Cc1c(F)cccc1Cl
REMARK SMILES IDX 22 1 21 2 20 3 19 4 18 5 17 6 15 7 16 8 14 9 1 10 2 11 3 12
REMARK SMILES IDX 97 13 95 14 96 15 4 16 5 17 6 20 7 21 8 22 13 23 9 24 11 25
REMARK SMILES IDX 10 26 12 27 98 28 99 29 100 30 105 31 101 32 102 33 104 34
REMARK SMILES IDX 106 35 103 36 23 37 24 38 25 39 26 40 27 41 28 42 29 43
REMARK SMILES IDX 30 44 31 45 32 46 33 47 94 48 34 49 93 50 35 51 36 52 37 53
REMARK SMILES IDX 87 54 38 55 92 56 86 57 88 58 39 59 91 60 85 61 84 62 40 64
REMARK SMILES IDX 72 65 52 66 71 67 53 68 56 69 70 70 89 71 54 72 55 73 69 75
REMARK SMILES IDX 90 76 57 77 41 78 42 79 50 80 43 81 49 82 51 83 48 84 44 85
REMARK SMILES IDX 45 86 46 87 47 88 73 89 74 90 82 91 75 92 81 93 83 94 80 95
REMARK SMILES IDX 76 96 77 97 78 98 79 99 58 100 59 101 67 102 60 103 66 104
REMARK SMILES IDX 68 105 65 106 61 107 62 108 63 109 64 110
REMARK H PARENT 5 18 5 19 88 63 56 74
REMARK Flexibility Score: inf
ROOT
ATOM      1  C   UNL A   1      48.482  18.144  44.252  1.00  0.00     0.188 C 
ENDROOT
BRANCH   1   2
ATOM      2  C   UNL A   1      47.654  18.808  45.381  1.00  0.00     0.188 C 
BRANCH   2   3
ATOM      3  O   UNL A   1      47.053  20.040  45.026  1.00  0.00    -0.376 OA
BRANCH   3   4
ATOM      4  C   UNL A   1      45.804  20.430  45.572  1.00  0.00     0.202 C 
BRANCH   4   5
ATOM      5  C   UNL A   1      44.523  19.631  45.294  1.00  0.00     0.261 C 
BRANCH   5   6
ATOM      6  O   UNL A   1      44.575  18.758  44.173  1.00  0.00    -0.460 OA
BRANCH   6   7
ATOM      7  C   UNL A   1      44.176  19.198  42.954  1.00  0.00     0.340 C 
ATOM      8  O   UNL A   1      43.387  20.130  42.786  1.00  0.00    -0.246 OA
BRANCH   7   9
ATOM      9  C   UNL A   1      44.842  18.434  41.892  1.00  0.00     0.089 A 
ATOM     10  C   UNL A   1      45.832  15.497  39.825  1.00  0.00     0.065 C 
ATOM     11  C   UNL A   1      45.531  16.825  40.438  1.00  0.00     0.025 A 
ATOM     12  C   UNL A   1      44.631  17.081  41.479  1.00  0.00     0.042 A 
ATOM     13  N   UNL A   1      46.105  18.035  40.049  1.00  0.00    -0.343 N 
ATOM     14  C   UNL A   1      45.750  18.991  40.992  1.00  0.00     0.030 A 
ATOM     15  C   UNL A   1      46.213  20.410  40.985  1.00  0.00     0.065 C 
BRANCH  12  16
ATOM     16  C   UNL A   1      43.593  16.132  42.024  1.00  0.00     0.300 C 
BRANCH  16  17
ATOM     17  N   UNL A   1      44.003  15.662  43.333  1.00  0.00    -0.339 N 
ATOM     18  H   UNL A   1      44.385  16.452  43.850  1.00  0.00     0.346 HD
ATOM     19  H   UNL A   1      44.686  14.920  43.177  1.00  0.00     0.346 HD
BRANCH  17  20
ATOM     20  C   UNL A   1      42.929  15.077  44.124  1.00  0.00     0.297 C 
BRANCH  20  21
ATOM     21  C   UNL A   1      42.557  13.642  43.803  1.00  0.00     0.009 A 
ATOM     22  C   UNL A   1      41.395  13.274  43.102  1.00  0.00     0.010 A 
ATOM     23  C   UNL A   1      43.412  12.617  44.239  1.00  0.00     0.048 A 
ATOM     24  C   UNL A   1      41.065  11.932  42.898  1.00  0.00     0.004 A 
ATOM     25  C   UNL A   1      43.087  11.282  44.011  1.00  0.00     0.123 A 
ATOM     26  C   UNL A   1      41.912  10.931  43.358  1.00  0.00     0.039 A 
ATOM     27  F   UNL A   1      43.918  10.319  44.432  1.00  0.00    -0.207 F 
ENDBRANCH  20  21
ENDBRANCH  17  20
ENDBRANCH  16  17
ENDBRANCH  12  16
BRANCH  13  28
ATOM     28  C   UNL A   1      47.059  18.249  38.933  1.00  0.00     0.162 C 
BRANCH  28  29
ATOM     29  C   UNL A   1      46.500  18.965  37.717  1.00  0.00     0.026 A 
ATOM     30  C   UNL A   1      45.379  18.449  37.047  1.00  0.00     0.129 A 
ATOM     31  C   UNL A   1      46.977  20.195  37.236  1.00  0.00     0.048 A 
ATOM     32  F   UNL A   1      44.678  17.447  37.584  1.00  0.00    -0.207 F 
ATOM     33  C   UNL A   1      44.859  19.006  35.880  1.00  0.00     0.040 A 
ATOM     34  C   UNL A   1      46.425  20.798  36.090  1.00  0.00     0.021 A 
ATOM     35  Cl  UNL A   1      48.185  21.111  38.067  1.00  0.00    -0.084 Cl
ATOM     36  C   UNL A   1      45.393  20.184  35.386  1.00  0.00     0.005 A 
ENDBRANCH  28  29
ENDBRANCH  13  28
ENDBRANCH   7   9
ENDBRANCH   6   7
ENDBRANCH   5   6
ENDBRANCH   4   5
ENDBRANCH   3   4
ENDBRANCH   2   3
ENDBRANCH   1   2
BRANCH   1  37
ATOM     37  O   UNL A   1      48.430  18.593  42.899  1.00  0.00    -0.377 OA
BRANCH  37  38
ATOM     38  C   UNL A   1      49.642  18.811  42.200  1.00  0.00     0.188 C 
BRANCH  38  39
ATOM     39  C   UNL A   1      50.145  20.259  42.271  1.00  0.00     0.188 C 
BRANCH  39  40
ATOM     40  O   UNL A   1      50.437  20.915  41.051  1.00  0.00    -0.376 OA
BRANCH  40  41
ATOM     41  C   UNL A   1      50.148  22.307  40.940  1.00  0.00     0.202 C 
BRANCH  41  42
ATOM     42  C   UNL A   1      50.708  23.252  39.807  1.00  0.00     0.261 C 
BRANCH  42  43
ATOM     43  O   UNL A   1      50.009  23.749  38.587  1.00  0.00    -0.460 OA
BRANCH  43  44
ATOM     44  C   UNL A   1      48.879  24.543  38.787  1.00  0.00     0.338 C 
ATOM     45  O   UNL A   1      48.642  24.998  39.902  1.00  0.00    -0.246 OA
BRANCH  44  46
ATOM     46  C   UNL A   1      47.925  24.922  37.567  1.00  0.00     0.060 A 
ATOM     47  C   UNL A   1      47.636  26.256  37.318  1.00  0.00     0.016 A 
ATOM     48  C   UNL A   1      47.050  24.084  36.823  1.00  0.00     0.016 A 
ATOM     49  C   UNL A   1      46.620  26.694  36.332  1.00  0.00     0.010 A 
ATOM     50  C   UNL A   1      45.937  24.559  35.851  1.00  0.00     0.010 A 
ATOM     51  C   UNL A   1      45.658  25.910  35.541  1.00  0.00    -0.014 A 
BRANCH  51  52
ATOM     52  C   UNL A   1      44.321  26.756  34.711  1.00  0.00     0.031 A 
ATOM     53  C   UNL A   1      44.768  26.528  33.308  1.00  0.00     0.074 A 
ATOM     54  C   UNL A   1      43.183  27.680  34.705  1.00  0.00     0.049 A 
ATOM     55  N   UNL A   1      45.956  26.981  33.025  1.00  0.00    -0.248 NA
ATOM     56  C   UNL A   1      44.285  25.514  32.373  1.00  0.00     0.031 C 
ATOM     57  C   UNL A   1      42.655  28.543  35.798  1.00  0.00     0.029 A 
ATOM     58  N   UNL A   1      42.203  28.156  33.652  1.00  0.00    -0.354 N 
ATOM     59  C   UNL A   1      46.265  26.594  31.757  1.00  0.00     0.074 A 
ATOM     60  C   UNL A   1      45.289  25.539  31.477  1.00  0.00     0.031 C 
ATOM     61  C   UNL A   1      41.492  29.222  35.487  1.00  0.00     0.029 A 
ATOM     62  C   UNL A   1      41.027  29.007  34.101  1.00  0.00     0.049 A 
ATOM     63  H   UNL A   1      42.325  27.921  32.704  1.00  0.00     0.167 HD
ATOM     64  C   UNL A   1      46.689  27.634  30.983  1.00  0.00     0.034 A 
ATOM     65  C   UNL A   1      39.897  29.599  33.405  1.00  0.00     0.034 A 
ATOM     66  C   UNL A   1      45.581  28.216  30.276  1.00  0.00     0.049 A 
ATOM     67  C   UNL A   1      40.484  30.101  32.170  1.00  0.00     0.074 A 
ATOM     68  C   UNL A   1      44.474  27.656  29.666  1.00  0.00     0.029 A 
ATOM     69  N   UNL A   1      45.250  29.517  30.591  1.00  0.00    -0.354 N 
ATOM     70  N   UNL A   1      41.226  31.163  32.124  1.00  0.00    -0.248 NA
ATOM     71  C   UNL A   1      40.171  29.475  30.895  1.00  0.00     0.031 C 
ATOM     72  C   UNL A   1      43.401  28.413  30.166  1.00  0.00     0.029 A 
ATOM     73  C   UNL A   1      43.883  29.644  30.597  1.00  0.00     0.049 A 
ATOM     74  H   UNL A   1      45.891  30.239  30.781  1.00  0.00     0.167 HD
ATOM     75  C   UNL A   1      41.935  30.938  30.985  1.00  0.00     0.074 A 
ATOM     76  C   UNL A   1      41.084  30.098  30.151  1.00  0.00     0.031 C 
ATOM     77  C   UNL A   1      43.276  30.830  31.154  1.00  0.00     0.034 A 
BRANCH  64  78
ATOM     78  C   UNL A   1      47.778  28.465  31.642  1.00  0.00     0.023 A 
ATOM     79  C   UNL A   1      47.564  28.943  32.936  1.00  0.00     0.031 A 
ATOM     80  C   UNL A   1      48.979  28.856  30.994  1.00  0.00     0.131 A 
ATOM     81  C   UNL A   1      48.486  29.837  33.509  1.00  0.00     0.055 A 
ATOM     82  C   UNL A   1      49.843  29.807  31.532  1.00  0.00     0.041 A 
ATOM     83  F   UNL A   1      49.357  28.301  29.832  1.00  0.00    -0.206 F 
ATOM     84  C   UNL A   1      49.595  30.310  32.800  1.00  0.00     0.022 A 
BRANCH  81  85
ATOM     85  S   UNL A   1      48.252  30.321  35.237  1.00  0.00     0.124 S 
ATOM     86  O   UNL A   1      48.715  31.705  35.236  1.00  0.00    -0.237 OA
ATOM     87  O   UNL A   1      46.813  30.139  35.417  1.00  0.00    -0.237 OA
ATOM     88  O   UNL A   1      49.089  29.382  35.979  1.00  0.00    -0.744 OA
ENDBRANCH  81  85
ENDBRANCH  64  78
BRANCH  65  89
ATOM     89  C   UNL A   1      38.359  30.277  33.370  1.00  0.00     0.023 A 
ATOM     90  C   UNL A   1      38.019  31.655  33.843  1.00  0.00     0.031 A 
ATOM     91  C   UNL A   1      37.387  29.785  32.487  1.00  0.00     0.131 A 
ATOM     92  C   UNL A   1      36.857  32.409  33.404  1.00  0.00     0.055 A 
ATOM     93  C   UNL A   1      36.243  30.540  32.061  1.00  0.00     0.041 A 
ATOM     94  F   UNL A   1      37.550  28.586  31.914  1.00  0.00    -0.206 F 
ATOM     95  C   UNL A   1      35.986  31.843  32.490  1.00  0.00     0.022 A 
BRANCH  92  96
ATOM     96  S   UNL A   1      36.512  34.212  33.814  1.00  0.00     0.124 S 
ATOM     97  O   UNL A   1      35.667  34.126  34.999  1.00  0.00    -0.237 OA
ATOM     98  O   UNL A   1      37.841  34.781  34.001  1.00  0.00    -0.237 OA
ATOM     99  O   UNL A   1      35.817  34.709  32.621  1.00  0.00    -0.744 OA
ENDBRANCH  92  96
ENDBRANCH  65  89
BRANCH  77 100
ATOM    100  C   UNL A   1      43.965  31.863  32.029  1.00  0.00     0.023 A 
ATOM    101  C   UNL A   1      44.002  31.890  33.449  1.00  0.00     0.031 A 
ATOM    102  C   UNL A   1      44.560  32.948  31.366  1.00  0.00     0.131 A 
ATOM    103  C   UNL A   1      44.596  32.972  34.135  1.00  0.00     0.055 A 
ATOM    104  C   UNL A   1      45.174  34.001  32.043  1.00  0.00     0.041 A 
ATOM    105  F   UNL A   1      44.549  33.001  30.024  1.00  0.00    -0.206 F 
ATOM    106  C   UNL A   1      45.186  34.024  33.432  1.00  0.00     0.022 A 
BRANCH 103 107
ATOM    107  S   UNL A   1      44.584  33.041  35.962  1.00  0.00     0.124 S 
ATOM    108  O   UNL A   1      44.052  31.737  36.341  1.00  0.00    -0.237 OA
ATOM    109  O   UNL A   1      45.989  33.274  36.287  1.00  0.00    -0.237 OA
ATOM    110  O   UNL A   1      43.696  34.167  36.259  1.00  0.00    -0.744 OA
ENDBRANCH 103 107
ENDBRANCH  77 100
ENDBRANCH  51  52
ENDBRANCH  44  46
ENDBRANCH  43  44
ENDBRANCH  42  43
ENDBRANCH  41  42
ENDBRANCH  40  41
ENDBRANCH  39  40
ENDBRANCH  38  39
ENDBRANCH  37  38
ENDBRANCH   1  37
TORSDOF 29
ENDMDL
MODEL 3
REMARK VINA RESULT:      -7.4      6.475      9.607
REMARK SMILES Cc1c(C[NH2+]Cc2cccc(F)c2)c(C(=O)OCCOCCOCCOCCOC(=O)c2ccc(-c3c4nc(c(-c5cc(S(=O)(=O)[O-])ccc5F)c5ccc([nH]5)c(-c5cc(S(=O)(=O)[O-])ccc5F)c5nc(c(-c6cc(S(=O)(=O)[O-])ccc6F)c6ccc3[nH]6)C=C5)C=C4)cc2)c(C)n1Cc1c(F)cccc1Cl
REMARK SMILES IDX 22 1 21 2 20 3 19 4 18 5 17 6 15 7 16 8 14 9 1 10 2 11 3 12
REMARK SMILES IDX 97 13 95 14 96 15 4 16 5 17 6 20 7 21 8 22 13 23 9 24 11 25
REMARK SMILES IDX 10 26 12 27 98 28 99 29 100 30 105 31 101 32 102 33 104 34
REMARK SMILES IDX 106 35 103 36 23 37 24 38 25 39 26 40 27 41 28 42 29 43
REMARK SMILES IDX 30 44 31 45 32 46 33 47 94 48 34 49 93 50 35 51 36 52 37 53
REMARK SMILES IDX 87 54 38 55 92 56 86 57 88 58 39 59 91 60 85 61 84 62 40 64
REMARK SMILES IDX 72 65 52 66 71 67 53 68 56 69 70 70 89 71 54 72 55 73 69 75
REMARK SMILES IDX 90 76 57 77 41 78 42 79 50 80 43 81 49 82 51 83 48 84 44 85
REMARK SMILES IDX 45 86 46 87 47 88 73 89 74 90 82 91 75 92 81 93 83 94 80 95
REMARK SMILES IDX 76 96 77 97 78 98 79 99 58 100 59 101 67 102 60 103 66 104
REMARK SMILES IDX 68 105 65 106 61 107 62 108 63 109 64 110
REMARK H PARENT 5 18 5 19 88 63 56 74
REMARK Flexibility Score: inf
ROOT
ATOM      1  C   UNL A   1      45.201  26.444  34.586  1.00  0.00     0.188 C 
ENDROOT
BRANCH   1   2
ATOM      2  C   UNL A   1      43.683  26.139  34.662  1.00  0.00     0.188 C 
BRANCH   2   3
ATOM      3  O   UNL A   1      42.856  27.095  34.025  1.00  0.00    -0.376 OA
BRANCH   3   4
ATOM      4  C   UNL A   1      41.631  27.508  34.607  1.00  0.00     0.202 C 
BRANCH   4   5
ATOM      5  C   UNL A   1      40.736  28.557  33.933  1.00  0.00     0.261 C 
BRANCH   5   6
ATOM      6  O   UNL A   1      40.692  28.506  32.512  1.00  0.00    -0.460 OA
BRANCH   6   7
ATOM      7  C   UNL A   1      41.660  29.116  31.784  1.00  0.00     0.340 C 
ATOM      8  O   UNL A   1      42.449  29.943  32.246  1.00  0.00    -0.246 OA
BRANCH   7   9
ATOM      9  C   UNL A   1      41.646  28.622  30.401  1.00  0.00     0.089 A 
ATOM     10  C   UNL A   1      40.396  28.008  26.946  1.00  0.00     0.065 C 
ATOM     11  C   UNL A   1      41.147  28.184  28.225  1.00  0.00     0.025 A 
ATOM     12  C   UNL A   1      40.738  28.927  29.339  1.00  0.00     0.042 A 
ATOM     13  N   UNL A   1      42.397  27.633  28.502  1.00  0.00    -0.343 N 
ATOM     14  C   UNL A   1      42.653  27.828  29.853  1.00  0.00     0.030 A 
ATOM     15  C   UNL A   1      43.860  27.329  30.575  1.00  0.00     0.065 C 
BRANCH  12  16
ATOM     16  C   UNL A   1      39.594  29.909  29.395  1.00  0.00     0.300 C 
BRANCH  16  17
ATOM     17  N   UNL A   1      38.499  29.338  30.154  1.00  0.00    -0.339 N 
ATOM     18  H   UNL A   1      38.844  28.510  30.637  1.00  0.00     0.346 HD
ATOM     19  H   UNL A   1      37.758  29.129  29.485  1.00  0.00     0.346 HD
BRANCH  17  20
ATOM     20  C   UNL A   1      37.923  30.237  31.144  1.00  0.00     0.297 C 
BRANCH  20  21
ATOM     21  C   UNL A   1      36.736  31.068  30.695  1.00  0.00     0.009 A 
ATOM     22  C   UNL A   1      36.404  31.290  29.347  1.00  0.00     0.010 A 
ATOM     23  C   UNL A   1      35.926  31.661  31.677  1.00  0.00     0.048 A 
ATOM     24  C   UNL A   1      35.343  32.125  28.989  1.00  0.00     0.004 A 
ATOM     25  C   UNL A   1      34.854  32.472  31.312  1.00  0.00     0.123 A 
ATOM     26  C   UNL A   1      34.567  32.722  29.976  1.00  0.00     0.039 A 
ATOM     27  F   UNL A   1      34.091  33.026  32.263  1.00  0.00    -0.207 F 
ENDBRANCH  20  21
ENDBRANCH  17  20
ENDBRANCH  16  17
ENDBRANCH  12  16
BRANCH  13  28
ATOM     28  C   UNL A   1      43.240  26.832  27.580  1.00  0.00     0.162 C 
BRANCH  28  29
ATOM     29  C   UNL A   1      43.468  25.387  27.984  1.00  0.00     0.026 A 
ATOM     30  C   UNL A   1      42.379  24.514  28.130  1.00  0.00     0.129 A 
ATOM     31  C   UNL A   1      44.735  24.804  28.151  1.00  0.00     0.048 A 
ATOM     32  F   UNL A   1      41.162  24.885  27.725  1.00  0.00    -0.207 F 
ATOM     33  C   UNL A   1      42.504  23.198  28.575  1.00  0.00     0.040 A 
ATOM     34  C   UNL A   1      44.878  23.461  28.547  1.00  0.00     0.021 A 
ATOM     35  Cl  UNL A   1      46.200  25.643  27.777  1.00  0.00    -0.084 Cl
ATOM     36  C   UNL A   1      43.762  22.668  28.799  1.00  0.00     0.005 A 
ENDBRANCH  28  29
ENDBRANCH  13  28
ENDBRANCH   7   9
ENDBRANCH   6   7
ENDBRANCH   5   6
ENDBRANCH   4   5
ENDBRANCH   3   4
ENDBRANCH   2   3
ENDBRANCH   1   2
BRANCH   1  37
ATOM     37  O   UNL A   1      46.181  25.615  35.205  1.00  0.00    -0.377 OA
BRANCH  37  38
ATOM     38  C   UNL A   1      45.780  24.376  35.761  1.00  0.00     0.188 C 
BRANCH  38  39
ATOM     39  C   UNL A   1      45.718  24.377  37.295  1.00  0.00     0.188 C 
BRANCH  39  40
ATOM     40  O   UNL A   1      44.839  25.295  37.918  1.00  0.00    -0.376 OA
BRANCH  40  41
ATOM     41  C   UNL A   1      45.390  26.459  38.529  1.00  0.00     0.202 C 
BRANCH  41  42
ATOM     42  C   UNL A   1      45.389  27.898  37.882  1.00  0.00     0.261 C 
BRANCH  42  43
ATOM     43  O   UNL A   1      44.970  29.190  38.498  1.00  0.00    -0.460 OA
BRANCH  43  44
ATOM     44  C   UNL A   1      44.414  30.144  37.646  1.00  0.00     0.338 C 
ATOM     45  O   UNL A   1      43.382  30.725  37.971  1.00  0.00    -0.246 OA
BRANCH  44  46
ATOM     46  C   UNL A   1      45.139  30.540  36.283  1.00  0.00     0.060 A 
ATOM     47  C   UNL A   1      46.180  31.456  36.306  1.00  0.00     0.016 A 
ATOM     48  C   UNL A   1      44.706  30.325  34.946  1.00  0.00     0.016 A 
ATOM     49  C   UNL A   1      46.788  32.024  35.079  1.00  0.00     0.010 A 
ATOM     50  C   UNL A   1      45.301  30.986  33.674  1.00  0.00     0.010 A 
ATOM     51  C   UNL A   1      46.396  31.882  33.667  1.00  0.00    -0.014 A 
BRANCH  51  52
ATOM     52  C   UNL A   1      47.110  32.981  32.452  1.00  0.00     0.031 A 
ATOM     53  C   UNL A   1      46.390  34.224  32.845  1.00  0.00     0.074 A 
ATOM     54  C   UNL A   1      47.846  33.228  31.209  1.00  0.00     0.049 A 
ATOM     55  N   UNL A   1      45.090  34.147  32.809  1.00  0.00    -0.248 NA
ATOM     56  C   UNL A   1      46.893  35.322  33.668  1.00  0.00     0.031 C 
ATOM     57  C   UNL A   1      48.353  32.260  30.198  1.00  0.00     0.029 A 
ATOM     58  N   UNL A   1      48.294  34.470  30.466  1.00  0.00    -0.354 N 
ATOM     59  C   UNL A   1      44.583  35.309  33.304  1.00  0.00     0.074 A 
ATOM     60  C   UNL A   1      45.726  35.912  33.991  1.00  0.00     0.031 C 
ATOM     61  C   UNL A   1      49.106  32.823  29.185  1.00  0.00     0.029 A 
ATOM     62  C   UNL A   1      49.214  34.295  29.269  1.00  0.00     0.049 A 
ATOM     63  H   UNL A   1      47.997  35.364  30.749  1.00  0.00     0.167 HD
ATOM     64  C   UNL A   1      43.654  35.867  32.476  1.00  0.00     0.034 A 
ATOM     65  C   UNL A   1      49.859  35.226  28.359  1.00  0.00     0.034 A 
ATOM     66  C   UNL A   1      44.279  36.804  31.582  1.00  0.00     0.049 A 
ATOM     67  C   UNL A   1      48.826  36.221  28.103  1.00  0.00     0.074 A 
ATOM     68  C   UNL A   1      45.293  37.726  31.766  1.00  0.00     0.029 A 
ATOM     69  N   UNL A   1      44.253  36.501  30.237  1.00  0.00    -0.354 N 
ATOM     70  N   UNL A   1      47.803  35.993  27.340  1.00  0.00    -0.248 NA
ATOM     71  C   UNL A   1      48.957  37.573  28.622  1.00  0.00     0.031 C 
ATOM     72  C   UNL A   1      46.164  37.480  30.691  1.00  0.00     0.029 A 
ATOM     73  C   UNL A   1      45.454  36.852  29.673  1.00  0.00     0.049 A 
ATOM     74  H   UNL A   1      43.494  36.097  29.759  1.00  0.00     0.167 HD
ATOM     75  C   UNL A   1      46.917  36.913  27.809  1.00  0.00     0.074 A 
ATOM     76  C   UNL A   1      47.726  38.000  28.346  1.00  0.00     0.031 C 
ATOM     77  C   UNL A   1      45.781  36.398  28.343  1.00  0.00     0.034 A 
BRANCH  64  78
ATOM     78  C   UNL A   1      42.585  34.885  32.028  1.00  0.00     0.023 A 
ATOM     79  C   UNL A   1      41.328  34.941  32.634  1.00  0.00     0.031 A 
ATOM     80  C   UNL A   1      42.802  33.854  31.077  1.00  0.00     0.131 A 
ATOM     81  C   UNL A   1      40.372  33.951  32.348  1.00  0.00     0.055 A 
ATOM     82  C   UNL A   1      41.884  32.829  30.863  1.00  0.00     0.041 A 
ATOM     83  F   UNL A   1      43.904  33.833  30.311  1.00  0.00    -0.206 F 
ATOM     84  C   UNL A   1      40.657  32.870  31.507  1.00  0.00     0.022 A 
BRANCH  81  85
ATOM     85  S   UNL A   1      38.710  34.136  33.041  1.00  0.00     0.124 S 
ATOM     86  O   UNL A   1      38.903  35.194  34.028  1.00  0.00    -0.237 OA
ATOM     87  O   UNL A   1      37.925  34.508  31.866  1.00  0.00    -0.237 OA
ATOM     88  O   UNL A   1      38.412  32.816  33.589  1.00  0.00    -0.744 OA
ENDBRANCH  81  85
ENDBRANCH  64  78
BRANCH  65  89
ATOM     89  C   UNL A   1      51.029  35.625  27.219  1.00  0.00     0.023 A 
ATOM     90  C   UNL A   1      52.342  36.272  27.529  1.00  0.00     0.031 A 
ATOM     91  C   UNL A   1      51.060  34.975  25.977  1.00  0.00     0.131 A 
ATOM     92  C   UNL A   1      53.516  36.193  26.677  1.00  0.00     0.055 A 
ATOM     93  C   UNL A   1      52.226  34.904  25.144  1.00  0.00     0.041 A 
ATOM     94  F   UNL A   1      49.990  34.289  25.555  1.00  0.00    -0.206 F 
ATOM     95  C   UNL A   1      53.449  35.483  25.491  1.00  0.00     0.022 A 
BRANCH  92  96
ATOM     96  S   UNL A   1      55.233  36.813  27.130  1.00  0.00     0.124 S 
ATOM     97  O   UNL A   1      55.115  37.101  28.555  1.00  0.00    -0.237 OA
ATOM     98  O   UNL A   1      56.106  35.705  26.760  1.00  0.00    -0.237 OA
ATOM     99  O   UNL A   1      55.400  38.005  26.292  1.00  0.00    -0.744 OA
ENDBRANCH  92  96
ENDBRANCH  65  89
BRANCH  77 100
ATOM    100  C   UNL A   1      45.069  35.302  27.569  1.00  0.00     0.023 A 
ATOM    101  C   UNL A   1      45.371  33.914  27.584  1.00  0.00     0.031 A 
ATOM    102  C   UNL A   1      44.059  35.714  26.687  1.00  0.00     0.131 A 
ATOM    103  C   UNL A   1      44.688  33.017  26.732  1.00  0.00     0.055 A 
ATOM    104  C   UNL A   1      43.363  34.825  25.868  1.00  0.00     0.041 A 
ATOM    105  F   UNL A   1      43.730  37.013  26.604  1.00  0.00    -0.206 F 
ATOM    106  C   UNL A   1      43.681  33.473  25.879  1.00  0.00     0.022 A 
BRANCH 103 107
ATOM    107  S   UNL A   1      45.122  31.242  26.702  1.00  0.00     0.124 S 
ATOM    108  O   UNL A   1      43.851  30.593  26.401  1.00  0.00    -0.237 OA
ATOM    109  O   UNL A   1      46.135  31.174  25.652  1.00  0.00    -0.237 OA
ATOM    110  O   UNL A   1      45.628  30.987  28.052  1.00  0.00    -0.744 OA
ENDBRANCH 103 107
ENDBRANCH  77 100
ENDBRANCH  51  52
ENDBRANCH  44  46
ENDBRANCH  43  44
ENDBRANCH  42  43
ENDBRANCH  41  42
ENDBRANCH  40  41
ENDBRANCH  39  40
ENDBRANCH  38  39
ENDBRANCH  37  38
ENDBRANCH   1  37
TORSDOF 29
ENDMDL
