MODEL 1
REMARK VINA RESULT:      -8.6      0.000      0.000
REMARK SMILES C[C@H](C(=O)OCCOCCOCCOCCOC(=O)c1ccc(-c2c3nc(c(-c4cc(S(=O)(=O)[O-])ccc4F)c4ccc([nH]4)c(-c4cc(S(=O)(=O)[O-])ccc4F)c4nc(c(-c5cc(S(=O)(=O)[O-])ccc5F)c5ccc2[nH]5)C=C4)C=C3)cc1)c1ccc2c(c1)OCCO2
REMARK SMILES IDX 12 1 11 2 10 3 9 4 8 5 7 6 6 7 5 8 3 9 4 10 2 11 1 12 83 13
REMARK SMILES IDX 84 14 88 15 85 16 87 17 86 18 89 19 92 20 90 21 91 22 13 23
REMARK SMILES IDX 14 24 15 25 16 26 17 27 18 28 19 29 20 30 21 31 82 32 22 33
REMARK SMILES IDX 81 34 23 35 24 36 25 37 75 38 26 39 80 40 74 41 76 42 27 43
REMARK SMILES IDX 79 44 73 45 72 46 28 48 60 49 40 50 59 51 41 52 44 53 58 54
REMARK SMILES IDX 77 55 42 56 43 57 57 59 78 60 45 61 29 62 30 63 38 64 31 65
REMARK SMILES IDX 37 66 39 67 36 68 32 69 33 70 34 71 35 72 61 73 62 74 70 75
REMARK SMILES IDX 63 76 69 77 71 78 68 79 64 80 65 81 66 82 67 83 46 84 47 85
REMARK SMILES IDX 55 86 48 87 54 88 56 89 53 90 49 91 50 92 51 93 52 94
REMARK H PARENT 76 47 44 58
REMARK Flexibility Score: inf
ROOT
ATOM      1  C   UNL A   1      34.263  35.395  28.275  1.00  0.00     0.188 C 
ENDROOT
BRANCH   1   2
ATOM      2  O   UNL A   1      34.781  34.342  27.477  1.00  0.00    -0.377 OA
BRANCH   2   3
ATOM      3  C   UNL A   1      34.758  33.041  28.021  1.00  0.00     0.188 C 
BRANCH   3   4
ATOM      4  C   UNL A   1      36.093  32.282  27.953  1.00  0.00     0.188 C 
BRANCH   4   5
ATOM      5  O   UNL A   1      36.161  30.908  28.310  1.00  0.00    -0.376 OA
BRANCH   5   6
ATOM      6  C   UNL A   1      35.750  29.914  27.378  1.00  0.00     0.202 C 
BRANCH   6   7
ATOM      7  C   UNL A   1      34.547  28.997  27.679  1.00  0.00     0.261 C 
BRANCH   7   8
ATOM      8  O   UNL A   1      33.256  29.497  27.276  1.00  0.00    -0.463 OA
BRANCH   8   9
ATOM      9  C   UNL A   1      32.276  28.602  26.994  1.00  0.00     0.313 C 
ATOM     10  O   UNL A   1      31.242  28.497  27.650  1.00  0.00    -0.252 OA
BRANCH   9  11
ATOM     11  C   UNL A   1      32.503  27.781  25.700  1.00  0.00     0.126 C 
ATOM     12  C   UNL A   1      32.506  26.296  26.106  1.00  0.00     0.025 C 
BRANCH  11  13
ATOM     13  C   UNL A   1      31.628  28.166  24.500  1.00  0.00    -0.030 A 
ATOM     14  C   UNL A   1      31.181  27.263  23.510  1.00  0.00     0.009 A 
ATOM     15  C   UNL A   1      31.135  29.479  24.456  1.00  0.00     0.055 A 
ATOM     16  C   UNL A   1      30.098  27.583  22.684  1.00  0.00     0.051 A 
ATOM     17  C   UNL A   1      30.033  29.785  23.669  1.00  0.00     0.161 A 
ATOM     18  C   UNL A   1      29.473  28.812  22.842  1.00  0.00     0.161 A 
ATOM     19  O   UNL A   1      29.473  31.017  23.867  1.00  0.00    -0.486 OA
ATOM     20  O   UNL A   1      28.236  28.991  22.276  1.00  0.00    -0.486 OA
ATOM     21  C   UNL A   1      28.087  31.080  23.501  1.00  0.00     0.271 C 
ATOM     22  C   UNL A   1      27.458  29.718  23.241  1.00  0.00     0.271 C 
ENDBRANCH  11  13
ENDBRANCH   9  11
ENDBRANCH   8   9
ENDBRANCH   7   8
ENDBRANCH   6   7
ENDBRANCH   5   6
ENDBRANCH   4   5
ENDBRANCH   3   4
ENDBRANCH   2   3
ENDBRANCH   1   2
BRANCH   1  23
ATOM     23  C   UNL A   1      32.908  35.187  28.968  1.00  0.00     0.188 C 
BRANCH  23  24
ATOM     24  O   UNL A   1      32.428  36.342  29.650  1.00  0.00    -0.376 OA
BRANCH  24  25
ATOM     25  C   UNL A   1      33.235  36.899  30.680  1.00  0.00     0.202 C 
BRANCH  25  26
ATOM     26  C   UNL A   1      33.233  36.213  32.059  1.00  0.00     0.261 C 
BRANCH  26  27
ATOM     27  O   UNL A   1      34.378  35.420  32.411  1.00  0.00    -0.460 OA
BRANCH  27  28
ATOM     28  C   UNL A   1      34.190  34.126  32.741  1.00  0.00     0.338 C 
ATOM     29  O   UNL A   1      33.136  33.604  33.068  1.00  0.00    -0.246 OA
BRANCH  28  30
ATOM     30  C   UNL A   1      35.442  33.391  32.447  1.00  0.00     0.060 A 
ATOM     31  C   UNL A   1      35.625  32.113  32.991  1.00  0.00     0.016 A 
ATOM     32  C   UNL A   1      36.432  33.960  31.643  1.00  0.00     0.016 A 
ATOM     33  C   UNL A   1      36.816  31.416  32.764  1.00  0.00     0.010 A 
ATOM     34  C   UNL A   1      37.633  33.270  31.435  1.00  0.00     0.010 A 
ATOM     35  C   UNL A   1      37.845  32.007  32.021  1.00  0.00    -0.014 A 
BRANCH  35  36
ATOM     36  C   UNL A   1      39.207  31.407  32.024  1.00  0.00     0.031 A 
ATOM     37  C   UNL A   1      40.183  31.866  33.078  1.00  0.00     0.074 A 
ATOM     38  C   UNL A   1      39.571  30.463  31.138  1.00  0.00     0.049 A 
ATOM     39  N   UNL A   1      41.439  31.546  33.248  1.00  0.00    -0.248 NA
ATOM     40  C   UNL A   1      39.666  32.821  34.070  1.00  0.00     0.031 C 
ATOM     41  C   UNL A   1      38.706  29.890  30.108  1.00  0.00     0.029 A 
ATOM     42  N   UNL A   1      40.775  29.824  30.957  1.00  0.00    -0.354 N 
ATOM     43  C   UNL A   1      41.865  32.266  34.360  1.00  0.00     0.074 A 
ATOM     44  C   UNL A   1      40.743  33.068  34.796  1.00  0.00     0.031 C 
ATOM     45  C   UNL A   1      39.411  28.990  29.398  1.00  0.00     0.029 A 
ATOM     46  C   UNL A   1      40.788  28.953  29.892  1.00  0.00     0.049 A 
ATOM     47  H   UNL A   1      41.555  29.975  31.538  1.00  0.00     0.167 HD
ATOM     48  C   UNL A   1      43.077  32.253  34.967  1.00  0.00     0.034 A 
ATOM     49  C   UNL A   1      41.800  28.234  29.360  1.00  0.00     0.034 A 
ATOM     50  C   UNL A   1      44.192  31.457  34.517  1.00  0.00     0.049 A 
ATOM     51  C   UNL A   1      43.173  28.315  29.991  1.00  0.00     0.074 A 
ATOM     52  C   UNL A   1      45.459  31.360  35.068  1.00  0.00     0.029 A 
ATOM     53  N   UNL A   1      44.183  30.630  33.401  1.00  0.00    -0.354 N 
ATOM     54  N   UNL A   1      43.562  28.996  31.045  1.00  0.00    -0.248 NA
ATOM     55  C   UNL A   1      44.242  27.525  29.363  1.00  0.00     0.031 C 
ATOM     56  C   UNL A   1      46.238  30.549  34.237  1.00  0.00     0.029 A 
ATOM     57  C   UNL A   1      45.432  30.057  33.223  1.00  0.00     0.049 A 
ATOM     58  H   UNL A   1      43.403  30.476  32.819  1.00  0.00     0.167 HD
ATOM     59  C   UNL A   1      44.910  28.682  31.226  1.00  0.00     0.074 A 
ATOM     60  C   UNL A   1      45.259  27.743  30.182  1.00  0.00     0.031 C 
ATOM     61  C   UNL A   1      45.776  29.124  32.175  1.00  0.00     0.034 A 
BRANCH  48  62
ATOM     62  C   UNL A   1      43.273  33.172  36.149  1.00  0.00     0.023 A 
ATOM     63  C   UNL A   1      43.034  32.748  37.468  1.00  0.00     0.031 A 
ATOM     64  C   UNL A   1      43.686  34.503  35.951  1.00  0.00     0.131 A 
ATOM     65  C   UNL A   1      43.140  33.663  38.527  1.00  0.00     0.055 A 
ATOM     66  C   UNL A   1      43.873  35.382  37.017  1.00  0.00     0.041 A 
ATOM     67  F   UNL A   1      43.903  34.972  34.712  1.00  0.00    -0.206 F 
ATOM     68  C   UNL A   1      43.587  34.969  38.314  1.00  0.00     0.022 A 
BRANCH  65  69
ATOM     69  S   UNL A   1      42.543  33.164  40.166  1.00  0.00     0.124 S 
ATOM     70  O   UNL A   1      43.796  33.016  40.903  1.00  0.00    -0.237 OA
ATOM     71  O   UNL A   1      41.705  34.293  40.553  1.00  0.00    -0.237 OA
ATOM     72  O   UNL A   1      41.830  31.916  39.906  1.00  0.00    -0.744 OA
ENDBRANCH  65  69
ENDBRANCH  48  62
BRANCH  49  73
ATOM     73  C   UNL A   1      41.583  27.404  28.136  1.00  0.00     0.023 A 
ATOM     74  C   UNL A   1      41.293  26.034  28.226  1.00  0.00     0.031 A 
ATOM     75  C   UNL A   1      41.743  27.957  26.852  1.00  0.00     0.131 A 
ATOM     76  C   UNL A   1      41.226  25.252  27.061  1.00  0.00     0.055 A 
ATOM     77  C   UNL A   1      41.613  27.189  25.693  1.00  0.00     0.041 A 
ATOM     78  F   UNL A   1      42.030  29.260  26.704  1.00  0.00    -0.206 F 
ATOM     79  C   UNL A   1      41.367  25.824  25.794  1.00  0.00     0.022 A 
BRANCH  76  80
ATOM     80  S   UNL A   1      41.057  23.453  27.228  1.00  0.00     0.124 S 
ATOM     81  O   UNL A   1      41.815  22.978  26.077  1.00  0.00    -0.237 OA
ATOM     82  O   UNL A   1      41.659  23.215  28.536  1.00  0.00    -0.237 OA
ATOM     83  O   UNL A   1      39.614  23.238  27.160  1.00  0.00    -0.744 OA
ENDBRANCH  76  80
ENDBRANCH  49  73
BRANCH  61  84
ATOM     84  C   UNL A   1      47.176  28.550  32.162  1.00  0.00     0.023 A 
ATOM     85  C   UNL A   1      47.505  27.367  32.846  1.00  0.00     0.031 A 
ATOM     86  C   UNL A   1      48.198  29.205  31.450  1.00  0.00     0.131 A 
ATOM     87  C   UNL A   1      48.832  26.908  32.850  1.00  0.00     0.055 A 
ATOM     88  C   UNL A   1      49.500  28.705  31.399  1.00  0.00     0.041 A 
ATOM     89  F   UNL A   1      47.947  30.343  30.781  1.00  0.00    -0.206 F 
ATOM     90  C   UNL A   1      49.827  27.557  32.115  1.00  0.00     0.022 A 
BRANCH  87  91
ATOM     91  S   UNL A   1      49.266  25.506  33.918  1.00  0.00     0.124 S 
ATOM     92  O   UNL A   1      50.504  25.034  33.307  1.00  0.00    -0.237 OA
ATOM     93  O   UNL A   1      49.403  26.140  35.225  1.00  0.00    -0.237 OA
ATOM     94  O   UNL A   1      48.123  24.605  33.784  1.00  0.00    -0.744 OA
ENDBRANCH  87  91
ENDBRANCH  61  84
ENDBRANCH  35  36
ENDBRANCH  28  30
ENDBRANCH  27  28
ENDBRANCH  26  27
ENDBRANCH  25  26
ENDBRANCH  24  25
ENDBRANCH  23  24
ENDBRANCH   1  23
TORSDOF 24
ENDMDL
MODEL 2
REMARK VINA RESULT:      -8.3      2.259      2.556
REMARK SMILES C[C@H](C(=O)OCCOCCOCCOCCOC(=O)c1ccc(-c2c3nc(c(-c4cc(S(=O)(=O)[O-])ccc4F)c4ccc([nH]4)c(-c4cc(S(=O)(=O)[O-])ccc4F)c4nc(c(-c5cc(S(=O)(=O)[O-])ccc5F)c5ccc2[nH]5)C=C4)C=C3)cc1)c1ccc2c(c1)OCCO2
REMARK SMILES IDX 12 1 11 2 10 3 9 4 8 5 7 6 6 7 5 8 3 9 4 10 2 11 1 12 83 13
REMARK SMILES IDX 84 14 88 15 85 16 87 17 86 18 89 19 92 20 90 21 91 22 13 23
REMARK SMILES IDX 14 24 15 25 16 26 17 27 18 28 19 29 20 30 21 31 82 32 22 33
REMARK SMILES IDX 81 34 23 35 24 36 25 37 75 38 26 39 80 40 74 41 76 42 27 43
REMARK SMILES IDX 79 44 73 45 72 46 28 48 60 49 40 50 59 51 41 52 44 53 58 54
REMARK SMILES IDX 77 55 42 56 43 57 57 59 78 60 45 61 29 62 30 63 38 64 31 65
REMARK SMILES IDX 37 66 39 67 36 68 32 69 33 70 34 71 35 72 61 73 62 74 70 75
REMARK SMILES IDX 63 76 69 77 71 78 68 79 64 80 65 81 66 82 67 83 46 84 47 85
REMARK SMILES IDX 55 86 48 87 54 88 56 89 53 90 49 91 50 92 51 93 52 94
REMARK H PARENT 76 47 44 58
REMARK Flexibility Score: inf
ROOT
ATOM      1  C   UNL A   1      34.350  35.235  28.248  1.00  0.00     0.188 C 
ENDROOT
BRANCH   1   2
ATOM      2  O   UNL A   1      35.006  34.204  27.527  1.00  0.00    -0.377 OA
BRANCH   2   3
ATOM      3  C   UNL A   1      34.995  32.909  28.087  1.00  0.00     0.188 C 
BRANCH   3   4
ATOM      4  C   UNL A   1      36.285  32.099  27.884  1.00  0.00     0.188 C 
BRANCH   4   5
ATOM      5  O   UNL A   1      36.327  30.716  28.208  1.00  0.00    -0.376 OA
BRANCH   5   6
ATOM      6  C   UNL A   1      35.552  29.789  27.455  1.00  0.00     0.202 C 
BRANCH   6   7
ATOM      7  C   UNL A   1      34.243  29.206  28.026  1.00  0.00     0.261 C 
BRANCH   7   8
ATOM      8  O   UNL A   1      33.036  29.561  27.323  1.00  0.00    -0.463 OA
BRANCH   8   9
ATOM      9  C   UNL A   1      32.251  28.564  26.842  1.00  0.00     0.313 C 
ATOM     10  O   UNL A   1      31.224  28.179  27.396  1.00  0.00    -0.252 OA
BRANCH   9  11
ATOM     11  C   UNL A   1      32.687  28.005  25.464  1.00  0.00     0.126 C 
ATOM     12  C   UNL A   1      33.024  26.516  25.670  1.00  0.00     0.025 C 
BRANCH  11  13
ATOM     13  C   UNL A   1      31.772  28.347  24.282  1.00  0.00    -0.030 A 
ATOM     14  C   UNL A   1      31.439  27.454  23.240  1.00  0.00     0.009 A 
ATOM     15  C   UNL A   1      31.123  29.591  24.308  1.00  0.00     0.055 A 
ATOM     16  C   UNL A   1      30.326  27.686  22.424  1.00  0.00     0.051 A 
ATOM     17  C   UNL A   1      29.992  29.805  23.531  1.00  0.00     0.161 A 
ATOM     18  C   UNL A   1      29.556  28.820  22.647  1.00  0.00     0.161 A 
ATOM     19  O   UNL A   1      29.286  30.946  23.794  1.00  0.00    -0.486 OA
ATOM     20  O   UNL A   1      28.306  28.878  22.084  1.00  0.00    -0.486 OA
ATOM     21  C   UNL A   1      27.903  30.861  23.422  1.00  0.00     0.271 C 
ATOM     22  C   UNL A   1      27.445  29.449  23.082  1.00  0.00     0.271 C 
ENDBRANCH  11  13
ENDBRANCH   9  11
ENDBRANCH   8   9
ENDBRANCH   7   8
ENDBRANCH   6   7
ENDBRANCH   5   6
ENDBRANCH   4   5
ENDBRANCH   3   4
ENDBRANCH   2   3
ENDBRANCH   1   2
BRANCH   1  23
ATOM     23  C   UNL A   1      32.956  34.948  28.827  1.00  0.00     0.188 C 
BRANCH  23  24
ATOM     24  O   UNL A   1      32.394  36.045  29.541  1.00  0.00    -0.376 OA
BRANCH  24  25
ATOM     25  C   UNL A   1      33.095  36.543  30.674  1.00  0.00     0.202 C 
BRANCH  25  26
ATOM     26  C   UNL A   1      33.039  35.729  31.980  1.00  0.00     0.261 C 
BRANCH  26  27
ATOM     27  O   UNL A   1      34.279  35.240  32.516  1.00  0.00    -0.460 OA
BRANCH  27  28
ATOM     28  C   UNL A   1      34.379  33.930  32.820  1.00  0.00     0.338 C 
ATOM     29  O   UNL A   1      33.484  33.209  33.233  1.00  0.00    -0.246 OA
BRANCH  28  30
ATOM     30  C   UNL A   1      35.711  33.457  32.381  1.00  0.00     0.060 A 
ATOM     31  C   UNL A   1      36.378  32.491  33.146  1.00  0.00     0.016 A 
ATOM     32  C   UNL A   1      36.302  33.964  31.221  1.00  0.00     0.016 A 
ATOM     33  C   UNL A   1      37.655  32.060  32.776  1.00  0.00     0.010 A 
ATOM     34  C   UNL A   1      37.590  33.546  30.864  1.00  0.00     0.010 A 
ATOM     35  C   UNL A   1      38.288  32.616  31.656  1.00  0.00    -0.014 A 
BRANCH  35  36
ATOM     36  C   UNL A   1      39.740  32.384  31.430  1.00  0.00     0.031 A 
ATOM     37  C   UNL A   1      40.722  33.275  32.148  1.00  0.00     0.074 A 
ATOM     38  C   UNL A   1      40.188  31.400  30.629  1.00  0.00     0.049 A 
ATOM     39  N   UNL A   1      42.027  33.317  32.065  1.00  0.00    -0.248 NA
ATOM     40  C   UNL A   1      40.147  34.254  33.084  1.00  0.00     0.031 C 
ATOM     41  C   UNL A   1      39.348  30.434  29.924  1.00  0.00     0.029 A 
ATOM     42  N   UNL A   1      41.469  31.056  30.268  1.00  0.00    -0.354 N 
ATOM     43  C   UNL A   1      42.427  34.331  32.930  1.00  0.00     0.074 A 
ATOM     44  C   UNL A   1      41.224  34.902  33.494  1.00  0.00     0.031 C 
ATOM     45  C   UNL A   1      40.136  29.611  29.208  1.00  0.00     0.029 A 
ATOM     46  C   UNL A   1      41.533  30.017  29.367  1.00  0.00     0.049 A 
ATOM     47  H   UNL A   1      42.267  31.509  30.623  1.00  0.00     0.167 HD
ATOM     48  C   UNL A   1      43.683  34.741  33.233  1.00  0.00     0.034 A 
ATOM     49  C   UNL A   1      42.591  29.478  28.725  1.00  0.00     0.034 A 
ATOM     50  C   UNL A   1      44.876  34.171  32.656  1.00  0.00     0.049 A 
ATOM     51  C   UNL A   1      43.976  30.022  28.999  1.00  0.00     0.074 A 
ATOM     52  C   UNL A   1      46.197  34.505  32.904  1.00  0.00     0.029 A 
ATOM     53  N   UNL A   1      44.896  33.159  31.705  1.00  0.00    -0.354 N 
ATOM     54  N   UNL A   1      44.343  30.978  29.823  1.00  0.00    -0.248 NA
ATOM     55  C   UNL A   1      45.091  29.410  28.261  1.00  0.00     0.031 C 
ATOM     56  C   UNL A   1      47.007  33.760  32.042  1.00  0.00     0.029 A 
ATOM     57  C   UNL A   1      46.202  32.889  31.326  1.00  0.00     0.049 A 
ATOM     58  H   UNL A   1      44.099  32.702  31.351  1.00  0.00     0.167 HD
ATOM     59  C   UNL A   1      45.733  31.051  29.728  1.00  0.00     0.074 A 
ATOM     60  C   UNL A   1      46.137  30.035  28.779  1.00  0.00     0.031 C 
ATOM     61  C   UNL A   1      46.597  31.877  30.374  1.00  0.00     0.034 A 
BRANCH  48  62
ATOM     62  C   UNL A   1      43.824  35.901  34.190  1.00  0.00     0.023 A 
ATOM     63  C   UNL A   1      43.934  35.710  35.579  1.00  0.00     0.031 A 
ATOM     64  C   UNL A   1      43.826  37.222  33.706  1.00  0.00     0.131 A 
ATOM     65  C   UNL A   1      43.970  36.820  36.437  1.00  0.00     0.055 A 
ATOM     66  C   UNL A   1      43.950  38.319  34.560  1.00  0.00     0.041 A 
ATOM     67  F   UNL A   1      43.697  37.468  32.393  1.00  0.00    -0.206 F 
ATOM     68  C   UNL A   1      44.008  38.122  35.935  1.00  0.00     0.022 A 
BRANCH  65  69
ATOM     69  S   UNL A   1      43.815  36.539  38.222  1.00  0.00     0.124 S 
ATOM     70  O   UNL A   1      45.166  36.845  38.687  1.00  0.00    -0.237 OA
ATOM     71  O   UNL A   1      42.779  37.493  38.603  1.00  0.00    -0.237 OA
ATOM     72  O   UNL A   1      43.435  35.132  38.317  1.00  0.00    -0.744 OA
ENDBRANCH  65  69
ENDBRANCH  48  62
BRANCH  49  73
ATOM     73  C   UNL A   1      42.398  28.389  27.719  1.00  0.00     0.023 A 
ATOM     74  C   UNL A   1      42.407  27.037  28.097  1.00  0.00     0.031 A 
ATOM     75  C   UNL A   1      42.280  28.686  26.349  1.00  0.00     0.131 A 
ATOM     76  C   UNL A   1      42.356  26.033  27.116  1.00  0.00     0.055 A 
ATOM     77  C   UNL A   1      42.165  27.685  25.381  1.00  0.00     0.041 A 
ATOM     78  F   UNL A   1      42.274  29.961  25.927  1.00  0.00    -0.206 F 
ATOM     79  C   UNL A   1      42.218  26.348  25.762  1.00  0.00     0.022 A 
BRANCH  76  80
ATOM     80  S   UNL A   1      42.581  24.307  27.625  1.00  0.00     0.124 S 
ATOM     81  O   UNL A   1      42.554  23.615  26.341  1.00  0.00    -0.237 OA
ATOM     82  O   UNL A   1      43.874  24.358  28.300  1.00  0.00    -0.237 OA
ATOM     83  O   UNL A   1      41.436  24.056  28.496  1.00  0.00    -0.744 OA
ENDBRANCH  76  80
ENDBRANCH  49  73
BRANCH  61  84
ATOM     84  C   UNL A   1      48.075  31.677  30.119  1.00  0.00     0.023 A 
ATOM     85  C   UNL A   1      48.853  30.793  30.886  1.00  0.00     0.031 A 
ATOM     86  C   UNL A   1      48.713  32.389  29.086  1.00  0.00     0.131 A 
ATOM     87  C   UNL A   1      50.232  30.687  30.647  1.00  0.00     0.055 A 
ATOM     88  C   UNL A   1      50.070  32.226  28.806  1.00  0.00     0.041 A 
ATOM     89  F   UNL A   1      48.024  33.252  28.322  1.00  0.00    -0.206 F 
ATOM     90  C   UNL A   1      50.842  31.381  29.598  1.00  0.00     0.022 A 
BRANCH  87  91
ATOM     91  S   UNL A   1      51.244  29.708  31.791  1.00  0.00     0.124 S 
ATOM     92  O   UNL A   1      51.137  30.479  33.024  1.00  0.00    -0.237 OA
ATOM     93  O   UNL A   1      50.561  28.418  31.785  1.00  0.00    -0.237 OA
ATOM     94  O   UNL A   1      52.567  29.710  31.169  1.00  0.00    -0.744 OA
ENDBRANCH  87  91
ENDBRANCH  61  84
ENDBRANCH  35  36
ENDBRANCH  28  30
ENDBRANCH  27  28
ENDBRANCH  26  27
ENDBRANCH  25  26
ENDBRANCH  24  25
ENDBRANCH  23  24
ENDBRANCH   1  23
TORSDOF 24
ENDMDL
MODEL 3
REMARK VINA RESULT:      -8.0      3.578      4.302
REMARK SMILES C[C@H](C(=O)OCCOCCOCCOCCOC(=O)c1ccc(-c2c3nc(c(-c4cc(S(=O)(=O)[O-])ccc4F)c4ccc([nH]4)c(-c4cc(S(=O)(=O)[O-])ccc4F)c4nc(c(-c5cc(S(=O)(=O)[O-])ccc5F)c5ccc2[nH]5)C=C4)C=C3)cc1)c1ccc2c(c1)OCCO2
REMARK SMILES IDX 12 1 11 2 10 3 9 4 8 5 7 6 6 7 5 8 3 9 4 10 2 11 1 12 83 13
REMARK SMILES IDX 84 14 88 15 85 16 87 17 86 18 89 19 92 20 90 21 91 22 13 23
REMARK SMILES IDX 14 24 15 25 16 26 17 27 18 28 19 29 20 30 21 31 82 32 22 33
REMARK SMILES IDX 81 34 23 35 24 36 25 37 75 38 26 39 80 40 74 41 76 42 27 43
REMARK SMILES IDX 79 44 73 45 72 46 28 48 60 49 40 50 59 51 41 52 44 53 58 54
REMARK SMILES IDX 77 55 42 56 43 57 57 59 78 60 45 61 29 62 30 63 38 64 31 65
REMARK SMILES IDX 37 66 39 67 36 68 32 69 33 70 34 71 35 72 61 73 62 74 70 75
REMARK SMILES IDX 63 76 69 77 71 78 68 79 64 80 65 81 66 82 67 83 46 84 47 85
REMARK SMILES IDX 55 86 48 87 54 88 56 89 53 90 49 91 50 92 51 93 52 94
REMARK H PARENT 76 47 44 58
REMARK Flexibility Score: inf
ROOT
ATOM      1  C   UNL A   1      34.476  34.941  28.284  1.00  0.00     0.188 C 
ENDROOT
BRANCH   1   2
ATOM      2  O   UNL A   1      35.163  33.950  27.537  1.00  0.00    -0.377 OA
BRANCH   2   3
ATOM      3  C   UNL A   1      35.054  32.612  27.972  1.00  0.00     0.188 C 
BRANCH   3   4
ATOM      4  C   UNL A   1      36.387  31.859  28.109  1.00  0.00     0.188 C 
BRANCH   4   5
ATOM      5  O   UNL A   1      36.414  30.438  28.132  1.00  0.00    -0.376 OA
BRANCH   5   6
ATOM      6  C   UNL A   1      35.637  29.702  27.193  1.00  0.00     0.202 C 
BRANCH   6   7
ATOM      7  C   UNL A   1      34.095  29.745  27.236  1.00  0.00     0.261 C 
BRANCH   7   8
ATOM      8  O   UNL A   1      33.433  29.880  25.963  1.00  0.00    -0.463 OA
BRANCH   8   9
ATOM      9  C   UNL A   1      33.004  28.756  25.336  1.00  0.00     0.313 C 
ATOM     10  O   UNL A   1      33.760  27.912  24.858  1.00  0.00    -0.252 OA
BRANCH   9  11
ATOM     11  C   UNL A   1      31.469  28.549  25.357  1.00  0.00     0.126 C 
ATOM     12  C   UNL A   1      30.861  29.596  24.406  1.00  0.00     0.025 C 
BRANCH  11  13
ATOM     13  C   UNL A   1      30.986  27.103  25.190  1.00  0.00    -0.030 A 
ATOM     14  C   UNL A   1      30.594  26.524  23.963  1.00  0.00     0.009 A 
ATOM     15  C   UNL A   1      31.059  26.264  26.313  1.00  0.00     0.055 A 
ATOM     16  C   UNL A   1      30.538  25.134  23.810  1.00  0.00     0.051 A 
ATOM     17  C   UNL A   1      31.048  24.885  26.156  1.00  0.00     0.161 A 
ATOM     18  C   UNL A   1      30.862  24.327  24.892  1.00  0.00     0.161 A 
ATOM     19  O   UNL A   1      31.365  24.148  27.264  1.00  0.00    -0.486 OA
ATOM     20  O   UNL A   1      31.125  23.000  24.659  1.00  0.00    -0.486 OA
ATOM     21  C   UNL A   1      31.890  22.849  26.956  1.00  0.00     0.271 C 
ATOM     22  C   UNL A   1      32.249  22.665  25.488  1.00  0.00     0.271 C 
ENDBRANCH  11  13
ENDBRANCH   9  11
ENDBRANCH   8   9
ENDBRANCH   7   8
ENDBRANCH   6   7
ENDBRANCH   5   6
ENDBRANCH   4   5
ENDBRANCH   3   4
ENDBRANCH   2   3
ENDBRANCH   1   2
BRANCH   1  23
ATOM     23  C   UNL A   1      33.191  34.537  29.023  1.00  0.00     0.188 C 
BRANCH  23  24
ATOM     24  O   UNL A   1      32.651  35.569  29.842  1.00  0.00    -0.376 OA
BRANCH  24  25
ATOM     25  C   UNL A   1      33.461  36.096  30.886  1.00  0.00     0.202 C 
BRANCH  25  26
ATOM     26  C   UNL A   1      33.361  35.451  32.281  1.00  0.00     0.261 C 
BRANCH  26  27
ATOM     27  O   UNL A   1      34.513  34.749  32.775  1.00  0.00    -0.460 OA
BRANCH  27  28
ATOM     28  C   UNL A   1      34.736  33.491  32.343  1.00  0.00     0.338 C 
ATOM     29  O   UNL A   1      33.891  32.676  32.005  1.00  0.00    -0.246 OA
BRANCH  28  30
ATOM     30  C   UNL A   1      36.195  33.322  32.154  1.00  0.00     0.060 A 
ATOM     31  C   UNL A   1      36.825  33.980  31.090  1.00  0.00     0.016 A 
ATOM     32  C   UNL A   1      36.939  32.515  33.019  1.00  0.00     0.016 A 
ATOM     33  C   UNL A   1      38.193  33.802  30.864  1.00  0.00     0.010 A 
ATOM     34  C   UNL A   1      38.304  32.321  32.778  1.00  0.00     0.010 A 
ATOM     35  C   UNL A   1      38.934  32.938  31.680  1.00  0.00    -0.014 A 
BRANCH  35  36
ATOM     36  C   UNL A   1      40.302  32.518  31.273  1.00  0.00     0.031 A 
ATOM     37  C   UNL A   1      41.462  33.397  31.669  1.00  0.00     0.074 A 
ATOM     38  C   UNL A   1      40.525  31.380  30.591  1.00  0.00     0.049 A 
ATOM     39  N   UNL A   1      42.732  33.283  31.378  1.00  0.00    -0.248 NA
ATOM     40  C   UNL A   1      41.137  34.564  32.503  1.00  0.00     0.031 C 
ATOM     41  C   UNL A   1      39.500  30.414  30.199  1.00  0.00     0.029 A 
ATOM     42  N   UNL A   1      41.693  30.847  30.099  1.00  0.00    -0.354 N 
ATOM     43  C   UNL A   1      43.356  34.369  31.987  1.00  0.00     0.074 A 
ATOM     44  C   UNL A   1      42.318  35.147  32.626  1.00  0.00     0.031 C 
ATOM     45  C   UNL A   1      40.084  29.410  29.519  1.00  0.00     0.029 A 
ATOM     46  C   UNL A   1      41.516  29.682  29.389  1.00  0.00     0.049 A 
ATOM     47  H   UNL A   1      42.574  31.261  30.244  1.00  0.00     0.167 HD
ATOM     48  C   UNL A   1      44.675  34.682  32.018  1.00  0.00     0.034 A 
ATOM     49  C   UNL A   1      42.402  28.938  28.690  1.00  0.00     0.034 A 
ATOM     50  C   UNL A   1      45.701  33.904  31.368  1.00  0.00     0.049 A 
ATOM     51  C   UNL A   1      43.853  29.365  28.650  1.00  0.00     0.074 A 
ATOM     52  C   UNL A   1      47.067  34.127  31.347  1.00  0.00     0.029 A 
ATOM     53  N   UNL A   1      45.476  32.762  30.610  1.00  0.00    -0.354 N 
ATOM     54  N   UNL A   1      44.432  30.391  29.233  1.00  0.00    -0.248 NA
ATOM     55  C   UNL A   1      44.771  28.530  27.862  1.00  0.00     0.031 C 
ATOM     56  C   UNL A   1      47.654  33.175  30.508  1.00  0.00     0.029 A 
ATOM     57  C   UNL A   1      46.671  32.296  30.084  1.00  0.00     0.049 A 
ATOM     58  H   UNL A   1      44.595  32.345  30.466  1.00  0.00     0.167 HD
ATOM     59  C   UNL A   1      45.787  30.297  28.913  1.00  0.00     0.074 A 
ATOM     60  C   UNL A   1      45.938  29.110  28.099  1.00  0.00     0.031 C 
ATOM     61  C   UNL A   1      46.813  31.113  29.268  1.00  0.00     0.034 A 
BRANCH  48  62
ATOM     62  C   UNL A   1      45.071  35.953  32.731  1.00  0.00     0.023 A 
ATOM     63  C   UNL A   1      45.098  37.196  32.075  1.00  0.00     0.031 A 
ATOM     64  C   UNL A   1      45.451  35.915  34.086  1.00  0.00     0.131 A 
ATOM     65  C   UNL A   1      45.561  38.334  32.753  1.00  0.00     0.055 A 
ATOM     66  C   UNL A   1      45.828  37.067  34.777  1.00  0.00     0.041 A 
ATOM     67  F   UNL A   1      45.471  34.753  34.756  1.00  0.00    -0.206 F 
ATOM     68  C   UNL A   1      45.898  38.284  34.107  1.00  0.00     0.022 A 
BRANCH  65  69
ATOM     69  S   UNL A   1      45.859  39.848  31.799  1.00  0.00     0.124 S 
ATOM     70  O   UNL A   1      45.841  39.342  30.429  1.00  0.00    -0.237 OA
ATOM     71  O   UNL A   1      44.732  40.690  32.183  1.00  0.00    -0.237 OA
ATOM     72  O   UNL A   1      47.166  40.300  32.272  1.00  0.00    -0.744 OA
ENDBRANCH  65  69
ENDBRANCH  48  62
BRANCH  49  73
ATOM     73  C   UNL A   1      41.951  27.736  27.926  1.00  0.00     0.023 A 
ATOM     74  C   UNL A   1      42.193  26.437  28.400  1.00  0.00     0.031 A 
ATOM     75  C   UNL A   1      41.340  27.870  26.665  1.00  0.00     0.131 A 
ATOM     76  C   UNL A   1      41.877  25.327  27.601  1.00  0.00     0.055 A 
ATOM     77  C   UNL A   1      40.970  26.761  25.901  1.00  0.00     0.041 A 
ATOM     78  F   UNL A   1      41.092  29.087  26.156  1.00  0.00    -0.206 F 
ATOM     79  C   UNL A   1      41.252  25.480  26.361  1.00  0.00     0.022 A 
BRANCH  76  80
ATOM     80  S   UNL A   1      42.394  23.679  28.156  1.00  0.00     0.124 S 
ATOM     81  O   UNL A   1      43.322  23.289  27.101  1.00  0.00    -0.237 OA
ATOM     82  O   UNL A   1      42.987  23.972  29.457  1.00  0.00    -0.237 OA
ATOM     83  O   UNL A   1      41.143  22.926  28.200  1.00  0.00    -0.744 OA
ENDBRANCH  76  80
ENDBRANCH  49  73
BRANCH  61  84
ATOM     84  C   UNL A   1      48.204  30.717  28.824  1.00  0.00     0.023 A 
ATOM     85  C   UNL A   1      49.034  29.897  29.608  1.00  0.00     0.031 A 
ATOM     86  C   UNL A   1      48.705  31.173  27.590  1.00  0.00     0.131 A 
ATOM     87  C   UNL A   1      50.339  29.607  29.178  1.00  0.00     0.055 A 
ATOM     88  C   UNL A   1      49.977  30.822  27.134  1.00  0.00     0.041 A 
ATOM     89  F   UNL A   1      47.962  31.963  26.798  1.00  0.00    -0.206 F 
ATOM     90  C   UNL A   1      50.808  30.046  27.937  1.00  0.00     0.022 A 
BRANCH  87  91
ATOM     91  S   UNL A   1      51.456  28.732  30.309  1.00  0.00     0.124 S 
ATOM     92  O   UNL A   1      50.602  27.660  30.808  1.00  0.00    -0.237 OA
ATOM     93  O   UNL A   1      52.540  28.323  29.421  1.00  0.00    -0.237 OA
ATOM     94  O   UNL A   1      51.814  29.751  31.294  1.00  0.00    -0.744 OA
ENDBRANCH  87  91
ENDBRANCH  61  84
ENDBRANCH  35  36
ENDBRANCH  28  30
ENDBRANCH  27  28
ENDBRANCH  26  27
ENDBRANCH  25  26
ENDBRANCH  24  25
ENDBRANCH  23  24
ENDBRANCH   1  23
TORSDOF 24
ENDMDL
