MODEL 1
REMARK VINA RESULT:      -7.8      0.000      0.000
REMARK SMILES N#C[C@H]1CN(C(=O)c2csc(/C=C/C(=O)OCCOCCOCCOCCOC(=O)c3ccc(-c4c5nc(c(-c6cc(S(=O)(=O)[O-])ccc6F)c6ccc([nH]6)c(-c6cc(S(=O)(=O)[O-])ccc6F)c6nc(c(-c7cc(S(=O)(=O)[O-])ccc7F)c7ccc4[nH]7)C=C6)C=C5)cc3)c2)CCO1
REMARK SMILES IDX 21 1 20 2 19 3 18 4 17 5 16 6 14 7 15 8 13 9 12 10 11 11
REMARK SMILES IDX 8 12 9 13 94 14 10 15 6 16 7 17 5 18 3 19 4 20 97 21 96 22
REMARK SMILES IDX 95 23 2 24 1 25 22 26 23 27 24 28 25 29 26 30 27 31 28 32
REMARK SMILES IDX 29 33 30 34 31 35 32 36 93 37 33 38 92 39 34 40 35 41 36 42
REMARK SMILES IDX 86 43 37 44 91 45 85 46 87 47 38 48 90 49 84 50 83 51 39 53
REMARK SMILES IDX 71 54 51 55 70 56 52 57 55 58 69 59 88 60 53 61 54 62 68 64
REMARK SMILES IDX 89 65 56 66 40 67 41 68 49 69 42 70 48 71 50 72 47 73 43 74
REMARK SMILES IDX 44 75 45 76 46 77 72 78 73 79 81 80 74 81 80 82 82 83 79 84
REMARK SMILES IDX 75 85 76 86 77 87 78 88 57 89 58 90 66 91 59 92 65 93 67 94
REMARK SMILES IDX 64 95 60 96 61 97 62 98 63 99
REMARK H PARENT 87 52 55 63
REMARK Flexibility Score: inf
ROOT
ATOM      1  C   UNL A   1      42.440  33.544  31.325  1.00  0.00     0.188 C 
ENDROOT
BRANCH   1   2
ATOM      2  C   UNL A   1      43.886  33.441  31.856  1.00  0.00     0.188 C 
BRANCH   2   3
ATOM      3  O   UNL A   1      44.784  34.454  31.460  1.00  0.00    -0.376 OA
BRANCH   3   4
ATOM      4  C   UNL A   1      44.718  35.116  30.212  1.00  0.00     0.202 C 
BRANCH   4   5
ATOM      5  C   UNL A   1      44.144  36.520  29.957  1.00  0.00     0.261 C 
BRANCH   5   6
ATOM      6  O   UNL A   1      42.784  36.620  29.545  1.00  0.00    -0.460 OA
BRANCH   6   7
ATOM      7  C   UNL A   1      42.532  36.295  28.261  1.00  0.00     0.330 C 
ATOM      8  O   UNL A   1      42.032  35.256  27.859  1.00  0.00    -0.247 OA
BRANCH   7   9
ATOM      9  C   UNL A   1      42.768  37.446  27.366  1.00  0.00     0.095 C 
ATOM     10  C   UNL A   1      42.408  38.712  27.631  1.00  0.00     0.026 C 
BRANCH  10  11
ATOM     11  C   UNL A   1      42.678  39.791  26.733  1.00  0.00     0.028 A 
ATOM     12  C   UNL A   1      43.866  41.311  25.360  1.00  0.00     0.051 A 
ATOM     13  C   UNL A   1      42.556  41.604  25.037  1.00  0.00     0.079 A 
ATOM     14  C   UNL A   1      43.920  40.271  26.349  1.00  0.00     0.033 A 
ATOM     15  S   UNL A   1      41.438  40.717  25.969  1.00  0.00    -0.144 S 
BRANCH  12  16
ATOM     16  C   UNL A   1      45.035  41.885  24.702  1.00  0.00     0.254 C 
ATOM     17  O   UNL A   1      45.866  41.144  24.182  1.00  0.00    -0.269 OA
BRANCH  16  18
ATOM     18  N   UNL A   1      45.189  43.267  24.705  1.00  0.00    -0.333 N 
ATOM     19  C   UNL A   1      46.435  44.884  26.116  1.00  0.00     0.240 C 
ATOM     20  C   UNL A   1      45.092  44.161  25.869  1.00  0.00     0.167 C 
ATOM     21  O   UNL A   1      46.874  45.550  24.909  1.00  0.00    -0.360 OA
ATOM     22  C   UNL A   1      47.040  44.614  23.830  1.00  0.00     0.183 C 
ATOM     23  C   UNL A   1      45.712  43.925  23.505  1.00  0.00     0.148 C 
BRANCH  19  24
ATOM     24  C   UNL A   1      46.265  45.865  27.207  1.00  0.00     0.096 C 
ATOM     25  N   UNL A   1      46.139  46.667  28.033  1.00  0.00    -0.195 NA
ENDBRANCH  19  24
ENDBRANCH  16  18
ENDBRANCH  12  16
ENDBRANCH  10  11
ENDBRANCH   7   9
ENDBRANCH   6   7
ENDBRANCH   5   6
ENDBRANCH   4   5
ENDBRANCH   3   4
ENDBRANCH   2   3
ENDBRANCH   1   2
BRANCH   1  26
ATOM     26  O   UNL A   1      41.385  33.214  32.206  1.00  0.00    -0.377 OA
BRANCH  26  27
ATOM     27  C   UNL A   1      41.392  33.688  33.551  1.00  0.00     0.188 C 
BRANCH  27  28
ATOM     28  C   UNL A   1      40.723  35.015  33.986  1.00  0.00     0.188 C 
BRANCH  28  29
ATOM     29  O   UNL A   1      40.942  35.377  35.335  1.00  0.00    -0.376 OA
BRANCH  29  30
ATOM     30  C   UNL A   1      39.890  35.943  36.088  1.00  0.00     0.202 C 
BRANCH  30  31
ATOM     31  C   UNL A   1      39.864  35.754  37.612  1.00  0.00     0.261 C 
BRANCH  31  32
ATOM     32  O   UNL A   1      38.680  35.180  38.178  1.00  0.00    -0.460 OA
BRANCH  32  33
ATOM     33  C   UNL A   1      38.817  33.984  38.798  1.00  0.00     0.338 C 
ATOM     34  O   UNL A   1      38.591  33.742  39.968  1.00  0.00    -0.246 OA
BRANCH  33  35
ATOM     35  C   UNL A   1      39.105  32.973  37.756  1.00  0.00     0.060 A 
ATOM     36  C   UNL A   1      40.437  32.625  37.490  1.00  0.00     0.016 A 
ATOM     37  C   UNL A   1      38.063  32.365  37.055  1.00  0.00     0.016 A 
ATOM     38  C   UNL A   1      40.730  31.690  36.494  1.00  0.00     0.010 A 
ATOM     39  C   UNL A   1      38.358  31.446  36.045  1.00  0.00     0.010 A 
ATOM     40  C   UNL A   1      39.694  31.131  35.736  1.00  0.00    -0.014 A 
BRANCH  40  41
ATOM     41  C   UNL A   1      40.007  30.382  34.491  1.00  0.00     0.031 A 
ATOM     42  C   UNL A   1      41.215  29.485  34.488  1.00  0.00     0.074 A 
ATOM     43  C   UNL A   1      39.235  30.479  33.396  1.00  0.00     0.049 A 
ATOM     44  N   UNL A   1      41.745  28.803  33.506  1.00  0.00    -0.248 NA
ATOM     45  C   UNL A   1      41.927  29.354  35.768  1.00  0.00     0.031 C 
ATOM     46  C   UNL A   1      38.009  31.269  33.296  1.00  0.00     0.029 A 
ATOM     47  N   UNL A   1      39.377  29.916  32.151  1.00  0.00    -0.354 N 
ATOM     48  C   UNL A   1      42.861  28.171  34.045  1.00  0.00     0.074 A 
ATOM     49  C   UNL A   1      42.953  28.591  35.428  1.00  0.00     0.031 C 
ATOM     50  C   UNL A   1      37.515  31.147  32.050  1.00  0.00     0.029 A 
ATOM     51  C   UNL A   1      38.416  30.316  31.252  1.00  0.00     0.049 A 
ATOM     52  H   UNL A   1      40.097  29.286  31.924  1.00  0.00     0.167 HD
ATOM     53  C   UNL A   1      43.724  27.315  33.444  1.00  0.00     0.034 A 
ATOM     54  C   UNL A   1      38.298  30.070  29.931  1.00  0.00     0.034 A 
ATOM     55  C   UNL A   1      43.623  26.924  32.060  1.00  0.00     0.049 A 
ATOM     56  C   UNL A   1      39.330  29.199  29.251  1.00  0.00     0.074 A 
ATOM     57  C   UNL A   1      44.434  26.054  31.351  1.00  0.00     0.029 A 
ATOM     58  N   UNL A   1      42.668  27.391  31.166  1.00  0.00    -0.354 N 
ATOM     59  N   UNL A   1      40.382  28.606  29.768  1.00  0.00    -0.248 NA
ATOM     60  C   UNL A   1      39.155  28.962  27.812  1.00  0.00     0.031 C 
ATOM     61  C   UNL A   1      44.030  26.073  30.011  1.00  0.00     0.029 A 
ATOM     62  C   UNL A   1      42.897  26.865  29.904  1.00  0.00     0.049 A 
ATOM     63  H   UNL A   1      41.935  28.007  31.395  1.00  0.00     0.167 HD
ATOM     64  C   UNL A   1      40.971  27.895  28.723  1.00  0.00     0.074 A 
ATOM     65  C   UNL A   1      40.151  28.128  27.552  1.00  0.00     0.031 C 
ATOM     66  C   UNL A   1      42.081  27.111  28.736  1.00  0.00     0.034 A 
BRANCH  53  67
ATOM     67  C   UNL A   1      44.881  26.804  34.270  1.00  0.00     0.023 A 
ATOM     68  C   UNL A   1      44.783  25.636  35.046  1.00  0.00     0.031 A 
ATOM     69  C   UNL A   1      46.089  27.525  34.320  1.00  0.00     0.131 A 
ATOM     70  C   UNL A   1      45.832  25.276  35.906  1.00  0.00     0.055 A 
ATOM     71  C   UNL A   1      47.166  27.106  35.102  1.00  0.00     0.041 A 
ATOM     72  F   UNL A   1      46.236  28.664  33.624  1.00  0.00    -0.206 F 
ATOM     73  C   UNL A   1      47.035  25.986  35.916  1.00  0.00     0.022 A 
BRANCH  70  74
ATOM     74  S   UNL A   1      45.530  23.983  37.142  1.00  0.00     0.124 S 
ATOM     75  O   UNL A   1      45.012  22.898  36.311  1.00  0.00    -0.237 OA
ATOM     76  O   UNL A   1      46.856  23.776  37.711  1.00  0.00    -0.237 OA
ATOM     77  O   UNL A   1      44.551  24.591  38.040  1.00  0.00    -0.744 OA
ENDBRANCH  70  74
ENDBRANCH  53  67
BRANCH  54  78
ATOM     78  C   UNL A   1      37.188  30.688  29.147  1.00  0.00     0.023 A 
ATOM     79  C   UNL A   1      36.135  29.912  28.637  1.00  0.00     0.031 A 
ATOM     80  C   UNL A   1      37.188  32.065  28.862  1.00  0.00     0.131 A 
ATOM     81  C   UNL A   1      35.148  30.512  27.838  1.00  0.00     0.055 A 
ATOM     82  C   UNL A   1      36.171  32.667  28.119  1.00  0.00     0.041 A 
ATOM     83  F   UNL A   1      38.177  32.853  29.315  1.00  0.00    -0.206 F 
ATOM     84  C   UNL A   1      35.149  31.886  27.592  1.00  0.00     0.022 A 
BRANCH  81  85
ATOM     85  S   UNL A   1      33.907  29.451  27.046  1.00  0.00     0.124 S 
ATOM     86  O   UNL A   1      34.737  28.623  26.179  1.00  0.00    -0.237 OA
ATOM     87  O   UNL A   1      33.305  28.780  28.193  1.00  0.00    -0.237 OA
ATOM     88  O   UNL A   1      33.038  30.403  26.356  1.00  0.00    -0.744 OA
ENDBRANCH  81  85
ENDBRANCH  54  78
BRANCH  66  89
ATOM     89  C   UNL A   1      42.445  26.396  27.454  1.00  0.00     0.023 A 
ATOM     90  C   UNL A   1      42.178  25.030  27.255  1.00  0.00     0.031 A 
ATOM     91  C   UNL A   1      43.067  27.102  26.407  1.00  0.00     0.131 A 
ATOM     92  C   UNL A   1      42.585  24.403  26.068  1.00  0.00     0.055 A 
ATOM     93  C   UNL A   1      43.401  26.491  25.199  1.00  0.00     0.041 A 
ATOM     94  F   UNL A   1      43.356  28.407  26.540  1.00  0.00    -0.206 F 
ATOM     95  C   UNL A   1      43.173  25.129  25.029  1.00  0.00     0.022 A 
BRANCH  92  96
ATOM     96  S   UNL A   1      42.444  22.598  25.941  1.00  0.00     0.124 S 
ATOM     97  O   UNL A   1      43.217  22.154  27.097  1.00  0.00    -0.237 OA
ATOM     98  O   UNL A   1      41.002  22.391  26.020  1.00  0.00    -0.237 OA
ATOM     99  O   UNL A   1      43.044  22.298  24.642  1.00  0.00    -0.744 OA
ENDBRANCH  92  96
ENDBRANCH  66  89
ENDBRANCH  40  41
ENDBRANCH  33  35
ENDBRANCH  32  33
ENDBRANCH  31  32
ENDBRANCH  30  31
ENDBRANCH  29  30
ENDBRANCH  28  29
ENDBRANCH  27  28
ENDBRANCH  26  27
ENDBRANCH   1  26
TORSDOF 27
ENDMDL
MODEL 2
REMARK VINA RESULT:      -7.6      5.377      9.425
REMARK SMILES N#C[C@H]1CN(C(=O)c2csc(/C=C/C(=O)OCCOCCOCCOCCOC(=O)c3ccc(-c4c5nc(c(-c6cc(S(=O)(=O)[O-])ccc6F)c6ccc([nH]6)c(-c6cc(S(=O)(=O)[O-])ccc6F)c6nc(c(-c7cc(S(=O)(=O)[O-])ccc7F)c7ccc4[nH]7)C=C6)C=C5)cc3)c2)CCO1
REMARK SMILES IDX 21 1 20 2 19 3 18 4 17 5 16 6 14 7 15 8 13 9 12 10 11 11
REMARK SMILES IDX 8 12 9 13 94 14 10 15 6 16 7 17 5 18 3 19 4 20 97 21 96 22
REMARK SMILES IDX 95 23 2 24 1 25 22 26 23 27 24 28 25 29 26 30 27 31 28 32
REMARK SMILES IDX 29 33 30 34 31 35 32 36 93 37 33 38 92 39 34 40 35 41 36 42
REMARK SMILES IDX 86 43 37 44 91 45 85 46 87 47 38 48 90 49 84 50 83 51 39 53
REMARK SMILES IDX 71 54 51 55 70 56 52 57 55 58 69 59 88 60 53 61 54 62 68 64
REMARK SMILES IDX 89 65 56 66 40 67 41 68 49 69 42 70 48 71 50 72 47 73 43 74
REMARK SMILES IDX 44 75 45 76 46 77 72 78 73 79 81 80 74 81 80 82 82 83 79 84
REMARK SMILES IDX 75 85 76 86 77 87 78 88 57 89 58 90 66 91 59 92 65 93 67 94
REMARK SMILES IDX 64 95 60 96 61 97 62 98 63 99
REMARK H PARENT 87 52 55 63
REMARK Flexibility Score: inf
ROOT
ATOM      1  C   UNL A   1      44.971  42.787  30.740  1.00  0.00     0.188 C 
ENDROOT
BRANCH   1   2
ATOM      2  C   UNL A   1      46.176  42.325  29.892  1.00  0.00     0.188 C 
BRANCH   2   3
ATOM      3  O   UNL A   1      46.788  43.295  29.071  1.00  0.00    -0.376 OA
BRANCH   3   4
ATOM      4  C   UNL A   1      46.089  44.371  28.477  1.00  0.00     0.202 C 
BRANCH   4   5
ATOM      5  C   UNL A   1      45.598  44.444  27.021  1.00  0.00     0.261 C 
BRANCH   5   6
ATOM      6  O   UNL A   1      45.674  43.259  26.232  1.00  0.00    -0.460 OA
BRANCH   6   7
ATOM      7  C   UNL A   1      44.540  42.534  26.149  1.00  0.00     0.330 C 
ATOM      8  O   UNL A   1      43.897  42.083  27.083  1.00  0.00    -0.247 OA
BRANCH   7   9
ATOM      9  C   UNL A   1      44.038  42.491  24.761  1.00  0.00     0.095 C 
ATOM     10  C   UNL A   1      43.755  43.569  24.012  1.00  0.00     0.026 C 
BRANCH  10  11
ATOM     11  C   UNL A   1      43.286  43.468  22.666  1.00  0.00     0.028 A 
ATOM     12  C   UNL A   1      43.139  43.776  20.323  1.00  0.00     0.051 A 
ATOM     13  C   UNL A   1      42.193  42.794  20.537  1.00  0.00     0.079 A 
ATOM     14  C   UNL A   1      43.753  44.164  21.562  1.00  0.00     0.033 A 
ATOM     15  S   UNL A   1      41.994  42.427  22.190  1.00  0.00    -0.144 S 
BRANCH  12  16
ATOM     16  C   UNL A   1      43.549  44.266  19.010  1.00  0.00     0.254 C 
ATOM     17  O   UNL A   1      44.455  43.698  18.405  1.00  0.00    -0.269 OA
BRANCH  16  18
ATOM     18  N   UNL A   1      42.913  45.387  18.490  1.00  0.00    -0.333 N 
ATOM     19  C   UNL A   1      43.536  47.151  16.859  1.00  0.00     0.240 C 
ATOM     20  C   UNL A   1      43.484  46.735  18.346  1.00  0.00     0.167 C 
ATOM     21  O   UNL A   1      42.231  47.007  16.253  1.00  0.00    -0.360 OA
ATOM     22  C   UNL A   1      41.764  45.650  16.341  1.00  0.00     0.183 C 
ATOM     23  C   UNL A   1      41.629  45.220  17.804  1.00  0.00     0.148 C 
BRANCH  19  24
ATOM     24  C   UNL A   1      43.992  48.553  16.763  1.00  0.00     0.096 C 
ATOM     25  N   UNL A   1      44.330  49.654  16.647  1.00  0.00    -0.195 NA
ENDBRANCH  19  24
ENDBRANCH  16  18
ENDBRANCH  12  16
ENDBRANCH  10  11
ENDBRANCH   7   9
ENDBRANCH   6   7
ENDBRANCH   5   6
ENDBRANCH   4   5
ENDBRANCH   3   4
ENDBRANCH   2   3
ENDBRANCH   1   2
BRANCH   1  26
ATOM     26  O   UNL A   1      45.050  42.637  32.143  1.00  0.00    -0.377 OA
BRANCH  26  27
ATOM     27  C   UNL A   1      45.524  43.708  32.957  1.00  0.00     0.188 C 
BRANCH  27  28
ATOM     28  C   UNL A   1      44.639  44.439  33.998  1.00  0.00     0.188 C 
BRANCH  28  29
ATOM     29  O   UNL A   1      45.258  45.536  34.638  1.00  0.00    -0.376 OA
BRANCH  29  30
ATOM     30  C   UNL A   1      46.617  45.453  35.013  1.00  0.00     0.202 C 
BRANCH  30  31
ATOM     31  C   UNL A   1      46.997  44.774  36.337  1.00  0.00     0.261 C 
BRANCH  31  32
ATOM     32  O   UNL A   1      47.547  43.454  36.259  1.00  0.00    -0.460 OA
BRANCH  32  33
ATOM     33  C   UNL A   1      47.298  42.626  37.301  1.00  0.00     0.338 C 
ATOM     34  O   UNL A   1      47.554  42.834  38.471  1.00  0.00    -0.246 OA
BRANCH  33  35
ATOM     35  C   UNL A   1      46.483  41.501  36.790  1.00  0.00     0.060 A 
ATOM     36  C   UNL A   1      47.080  40.243  36.623  1.00  0.00     0.016 A 
ATOM     37  C   UNL A   1      45.132  41.687  36.492  1.00  0.00     0.016 A 
ATOM     38  C   UNL A   1      46.333  39.176  36.120  1.00  0.00     0.010 A 
ATOM     39  C   UNL A   1      44.391  40.623  35.969  1.00  0.00     0.010 A 
ATOM     40  C   UNL A   1      44.997  39.372  35.748  1.00  0.00    -0.014 A 
BRANCH  40  41
ATOM     41  C   UNL A   1      44.292  38.343  34.941  1.00  0.00     0.031 A 
ATOM     42  C   UNL A   1      43.480  37.306  35.667  1.00  0.00     0.074 A 
ATOM     43  C   UNL A   1      44.356  38.334  33.598  1.00  0.00     0.049 A 
ATOM     44  N   UNL A   1      42.853  36.259  35.198  1.00  0.00    -0.248 NA
ATOM     45  C   UNL A   1      43.376  37.470  37.125  1.00  0.00     0.031 C 
ATOM     46  C   UNL A   1      45.062  39.319  32.781  1.00  0.00     0.029 A 
ATOM     47  N   UNL A   1      43.826  37.455  32.686  1.00  0.00    -0.354 N 
ATOM     48  C   UNL A   1      42.289  35.631  36.303  1.00  0.00     0.074 A 
ATOM     49  C   UNL A   1      42.690  36.392  37.468  1.00  0.00     0.031 C 
ATOM     50  C   UNL A   1      44.929  38.982  31.485  1.00  0.00     0.029 A 
ATOM     51  C   UNL A   1      44.175  37.733  31.386  1.00  0.00     0.049 A 
ATOM     52  H   UNL A   1      43.250  36.698  32.939  1.00  0.00     0.167 HD
ATOM     53  C   UNL A   1      41.504  34.526  36.342  1.00  0.00     0.034 A 
ATOM     54  C   UNL A   1      43.943  37.040  30.251  1.00  0.00     0.034 A 
ATOM     55  C   UNL A   1      41.131  33.772  35.170  1.00  0.00     0.049 A 
ATOM     56  C   UNL A   1      43.157  35.751  30.325  1.00  0.00     0.074 A 
ATOM     57  C   UNL A   1      40.330  32.646  35.091  1.00  0.00     0.029 A 
ATOM     58  N   UNL A   1      41.547  34.053  33.874  1.00  0.00    -0.354 N 
ATOM     59  N   UNL A   1      42.628  35.164  31.374  1.00  0.00    -0.248 NA
ATOM     60  C   UNL A   1      42.933  35.037  29.062  1.00  0.00     0.031 C 
ATOM     61  C   UNL A   1      40.345  32.191  33.768  1.00  0.00     0.029 A 
ATOM     62  C   UNL A   1      41.060  33.096  32.998  1.00  0.00     0.049 A 
ATOM     63  H   UNL A   1      42.107  34.820  33.616  1.00  0.00     0.167 HD
ATOM     64  C   UNL A   1      41.976  34.030  30.889  1.00  0.00     0.074 A 
ATOM     65  C   UNL A   1      42.173  34.024  29.454  1.00  0.00     0.031 C 
ATOM     66  C   UNL A   1      41.269  33.089  31.568  1.00  0.00     0.034 A 
BRANCH  53  67
ATOM     67  C   UNL A   1      41.059  34.039  37.701  1.00  0.00     0.023 A 
ATOM     68  C   UNL A   1      41.970  33.535  38.646  1.00  0.00     0.031 A 
ATOM     69  C   UNL A   1      39.693  34.032  38.039  1.00  0.00     0.131 A 
ATOM     70  C   UNL A   1      41.499  32.964  39.838  1.00  0.00     0.055 A 
ATOM     71  C   UNL A   1      39.240  33.553  39.270  1.00  0.00     0.041 A 
ATOM     72  F   UNL A   1      38.770  34.473  37.169  1.00  0.00    -0.206 F 
ATOM     73  C   UNL A   1      40.143  32.997  40.170  1.00  0.00     0.022 A 
BRANCH  70  74
ATOM     74  S   UNL A   1      42.660  32.013  40.856  1.00  0.00     0.124 S 
ATOM     75  O   UNL A   1      41.752  31.316  41.765  1.00  0.00    -0.237 OA
ATOM     76  O   UNL A   1      43.337  31.182  39.868  1.00  0.00    -0.237 OA
ATOM     77  O   UNL A   1      43.488  33.041  41.483  1.00  0.00    -0.744 OA
ENDBRANCH  70  74
ENDBRANCH  53  67
BRANCH  54  78
ATOM     78  C   UNL A   1      44.498  37.520  28.950  1.00  0.00     0.023 A 
ATOM     79  C   UNL A   1      45.777  37.137  28.516  1.00  0.00     0.031 A 
ATOM     80  C   UNL A   1      43.766  38.406  28.139  1.00  0.00     0.131 A 
ATOM     81  C   UNL A   1      46.299  37.667  27.326  1.00  0.00     0.055 A 
ATOM     82  C   UNL A   1      44.266  38.882  26.926  1.00  0.00     0.041 A 
ATOM     83  F   UNL A   1      42.542  38.815  28.511  1.00  0.00    -0.206 F 
ATOM     84  C   UNL A   1      45.545  38.521  26.519  1.00  0.00     0.022 A 
BRANCH  81  85
ATOM     85  S   UNL A   1      48.021  37.295  26.889  1.00  0.00     0.124 S 
ATOM     86  O   UNL A   1      48.381  38.462  26.093  1.00  0.00    -0.237 OA
ATOM     87  O   UNL A   1      48.651  37.191  28.201  1.00  0.00    -0.237 OA
ATOM     88  O   UNL A   1      47.919  36.039  26.148  1.00  0.00    -0.744 OA
ENDBRANCH  81  85
ENDBRANCH  54  78
BRANCH  66  89
ATOM     89  C   UNL A   1      40.603  31.999  30.759  1.00  0.00     0.023 A 
ATOM     90  C   UNL A   1      41.282  30.830  30.372  1.00  0.00     0.031 A 
ATOM     91  C   UNL A   1      39.256  32.134  30.372  1.00  0.00     0.131 A 
ATOM     92  C   UNL A   1      40.633  29.876  29.574  1.00  0.00     0.055 A 
ATOM     93  C   UNL A   1      38.593  31.146  29.644  1.00  0.00     0.041 A 
ATOM     94  F   UNL A   1      38.557  33.232  30.703  1.00  0.00    -0.206 F 
ATOM     95  C   UNL A   1      39.286  30.014  29.228  1.00  0.00     0.022 A 
BRANCH  92  96
ATOM     96  S   UNL A   1      41.604  28.502  28.894  1.00  0.00     0.124 S 
ATOM     97  O   UNL A   1      41.242  27.406  29.787  1.00  0.00    -0.237 OA
ATOM     98  O   UNL A   1      41.097  28.407  27.529  1.00  0.00    -0.237 OA
ATOM     99  O   UNL A   1      42.985  28.967  29.012  1.00  0.00    -0.744 OA
ENDBRANCH  92  96
ENDBRANCH  66  89
ENDBRANCH  40  41
ENDBRANCH  33  35
ENDBRANCH  32  33
ENDBRANCH  31  32
ENDBRANCH  30  31
ENDBRANCH  29  30
ENDBRANCH  28  29
ENDBRANCH  27  28
ENDBRANCH  26  27
ENDBRANCH   1  26
TORSDOF 27
ENDMDL
MODEL 3
REMARK VINA RESULT:      -7.6      6.259     13.342
REMARK SMILES N#C[C@H]1CN(C(=O)c2csc(/C=C/C(=O)OCCOCCOCCOCCOC(=O)c3ccc(-c4c5nc(c(-c6cc(S(=O)(=O)[O-])ccc6F)c6ccc([nH]6)c(-c6cc(S(=O)(=O)[O-])ccc6F)c6nc(c(-c7cc(S(=O)(=O)[O-])ccc7F)c7ccc4[nH]7)C=C6)C=C5)cc3)c2)CCO1
REMARK SMILES IDX 21 1 20 2 19 3 18 4 17 5 16 6 14 7 15 8 13 9 12 10 11 11
REMARK SMILES IDX 8 12 9 13 94 14 10 15 6 16 7 17 5 18 3 19 4 20 97 21 96 22
REMARK SMILES IDX 95 23 2 24 1 25 22 26 23 27 24 28 25 29 26 30 27 31 28 32
REMARK SMILES IDX 29 33 30 34 31 35 32 36 93 37 33 38 92 39 34 40 35 41 36 42
REMARK SMILES IDX 86 43 37 44 91 45 85 46 87 47 38 48 90 49 84 50 83 51 39 53
REMARK SMILES IDX 71 54 51 55 70 56 52 57 55 58 69 59 88 60 53 61 54 62 68 64
REMARK SMILES IDX 89 65 56 66 40 67 41 68 49 69 42 70 48 71 50 72 47 73 43 74
REMARK SMILES IDX 44 75 45 76 46 77 72 78 73 79 81 80 74 81 80 82 82 83 79 84
REMARK SMILES IDX 75 85 76 86 77 87 78 88 57 89 58 90 66 91 59 92 65 93 67 94
REMARK SMILES IDX 64 95 60 96 61 97 62 98 63 99
REMARK H PARENT 87 52 55 63
REMARK Flexibility Score: inf
ROOT
ATOM      1  C   UNL A   1      45.423  24.477  28.875  1.00  0.00     0.188 C 
ENDROOT
BRANCH   1   2
ATOM      2  C   UNL A   1      44.292  23.689  29.569  1.00  0.00     0.188 C 
BRANCH   2   3
ATOM      3  O   UNL A   1      43.620  22.722  28.794  1.00  0.00    -0.376 OA
BRANCH   3   4
ATOM      4  C   UNL A   1      42.212  22.595  28.748  1.00  0.00     0.202 C 
BRANCH   4   5
ATOM      5  C   UNL A   1      41.259  23.368  27.820  1.00  0.00     0.261 C 
BRANCH   5   6
ATOM      6  O   UNL A   1      40.742  24.612  28.282  1.00  0.00    -0.460 OA
BRANCH   6   7
ATOM      7  C   UNL A   1      39.778  25.168  27.520  1.00  0.00     0.330 C 
ATOM      8  O   UNL A   1      39.801  26.281  27.019  1.00  0.00    -0.247 OA
BRANCH   7   9
ATOM      9  C   UNL A   1      38.727  24.185  27.191  1.00  0.00     0.095 C 
ATOM     10  C   UNL A   1      38.244  23.958  25.959  1.00  0.00     0.026 C 
BRANCH  10  11
ATOM     11  C   UNL A   1      37.236  22.980  25.696  1.00  0.00     0.028 A 
ATOM     12  C   UNL A   1      35.104  21.988  25.420  1.00  0.00     0.051 A 
ATOM     13  C   UNL A   1      35.939  20.993  24.954  1.00  0.00     0.079 A 
ATOM     14  C   UNL A   1      35.867  23.124  25.856  1.00  0.00     0.033 A 
ATOM     15  S   UNL A   1      37.588  21.388  25.128  1.00  0.00    -0.144 S 
BRANCH  12  16
ATOM     16  C   UNL A   1      33.646  21.946  25.364  1.00  0.00     0.254 C 
ATOM     17  O   UNL A   1      33.030  21.180  26.101  1.00  0.00    -0.269 OA
BRANCH  16  18
ATOM     18  N   UNL A   1      32.991  22.764  24.450  1.00  0.00    -0.333 N 
ATOM     19  C   UNL A   1      32.020  25.046  24.529  1.00  0.00     0.240 C 
ATOM     20  C   UNL A   1      31.758  23.532  24.681  1.00  0.00     0.167 C 
ATOM     21  O   UNL A   1      32.642  25.321  23.252  1.00  0.00    -0.360 OA
ATOM     22  C   UNL A   1      33.888  24.616  23.118  1.00  0.00     0.183 C 
ATOM     23  C   UNL A   1      33.664  23.104  23.193  1.00  0.00     0.148 C 
BRANCH  19  24
ATOM     24  C   UNL A   1      30.739  25.775  24.639  1.00  0.00     0.096 C 
ATOM     25  N   UNL A   1      29.715  26.309  24.714  1.00  0.00    -0.195 NA
ENDBRANCH  19  24
ENDBRANCH  16  18
ENDBRANCH  12  16
ENDBRANCH  10  11
ENDBRANCH   7   9
ENDBRANCH   6   7
ENDBRANCH   5   6
ENDBRANCH   4   5
ENDBRANCH   3   4
ENDBRANCH   2   3
ENDBRANCH   1   2
BRANCH   1  26
ATOM     26  O   UNL A   1      46.140  25.425  29.641  1.00  0.00    -0.377 OA
BRANCH  26  27
ATOM     27  C   UNL A   1      47.558  25.525  29.522  1.00  0.00     0.188 C 
BRANCH  27  28
ATOM     28  C   UNL A   1      48.265  26.111  28.274  1.00  0.00     0.188 C 
BRANCH  28  29
ATOM     29  O   UNL A   1      48.317  27.523  28.229  1.00  0.00    -0.376 OA
BRANCH  29  30
ATOM     30  C   UNL A   1      47.117  28.268  28.226  1.00  0.00     0.202 C 
BRANCH  30  31
ATOM     31  C   UNL A   1      46.390  28.527  26.899  1.00  0.00     0.261 C 
BRANCH  31  32
ATOM     32  O   UNL A   1      45.485  29.636  26.856  1.00  0.00    -0.460 OA
BRANCH  32  33
ATOM     33  C   UNL A   1      44.174  29.350  26.672  1.00  0.00     0.338 C 
ATOM     34  O   UNL A   1      43.703  28.623  25.819  1.00  0.00    -0.246 OA
BRANCH  33  35
ATOM     35  C   UNL A   1      43.428  29.924  27.814  1.00  0.00     0.060 A 
ATOM     36  C   UNL A   1      43.663  31.255  28.186  1.00  0.00     0.016 A 
ATOM     37  C   UNL A   1      42.492  29.153  28.505  1.00  0.00     0.016 A 
ATOM     38  C   UNL A   1      42.987  31.808  29.275  1.00  0.00     0.010 A 
ATOM     39  C   UNL A   1      41.832  29.700  29.608  1.00  0.00     0.010 A 
ATOM     40  C   UNL A   1      42.102  31.018  30.020  1.00  0.00    -0.014 A 
BRANCH  40  41
ATOM     41  C   UNL A   1      41.616  31.492  31.342  1.00  0.00     0.031 A 
ATOM     42  C   UNL A   1      42.521  31.325  32.532  1.00  0.00     0.074 A 
ATOM     43  C   UNL A   1      40.411  32.070  31.485  1.00  0.00     0.049 A 
ATOM     44  N   UNL A   1      42.293  31.573  33.795  1.00  0.00    -0.248 NA
ATOM     45  C   UNL A   1      43.863  30.792  32.254  1.00  0.00     0.031 C 
ATOM     46  C   UNL A   1      39.470  32.339  30.399  1.00  0.00     0.029 A 
ATOM     47  N   UNL A   1      39.768  32.525  32.610  1.00  0.00    -0.354 N 
ATOM     48  C   UNL A   1      43.457  31.214  34.466  1.00  0.00     0.074 A 
ATOM     49  C   UNL A   1      44.369  30.689  33.471  1.00  0.00     0.031 C 
ATOM     50  C   UNL A   1      38.363  32.904  30.914  1.00  0.00     0.029 A 
ATOM     51  C   UNL A   1      38.496  32.988  32.368  1.00  0.00     0.049 A 
ATOM     52  H   UNL A   1      40.178  32.520  33.504  1.00  0.00     0.167 HD
ATOM     53  C   UNL A   1      43.741  31.320  35.788  1.00  0.00     0.034 A 
ATOM     54  C   UNL A   1      37.537  33.398  33.225  1.00  0.00     0.034 A 
ATOM     55  C   UNL A   1      42.810  31.830  36.764  1.00  0.00     0.049 A 
ATOM     56  C   UNL A   1      37.832  33.408  34.708  1.00  0.00     0.074 A 
ATOM     57  C   UNL A   1      42.995  31.993  38.126  1.00  0.00     0.029 A 
ATOM     58  N   UNL A   1      41.511  32.240  36.490  1.00  0.00    -0.354 N 
ATOM     59  N   UNL A   1      38.935  33.067  35.334  1.00  0.00    -0.248 NA
ATOM     60  C   UNL A   1      36.755  33.863  35.596  1.00  0.00     0.031 C 
ATOM     61  C   UNL A   1      41.782  32.406  38.687  1.00  0.00     0.029 A 
ATOM     62  C   UNL A   1      40.870  32.611  37.663  1.00  0.00     0.049 A 
ATOM     63  H   UNL A   1      41.104  32.264  35.594  1.00  0.00     0.167 HD
ATOM     64  C   UNL A   1      38.695  33.303  36.687  1.00  0.00     0.074 A 
ATOM     65  C   UNL A   1      37.346  33.823  36.781  1.00  0.00     0.031 C 
ATOM     66  C   UNL A   1      39.520  33.118  37.751  1.00  0.00     0.034 A 
BRANCH  53  67
ATOM     67  C   UNL A   1      45.086  30.812  36.251  1.00  0.00     0.023 A 
ATOM     68  C   UNL A   1      45.259  29.507  36.745  1.00  0.00     0.031 A 
ATOM     69  C   UNL A   1      46.206  31.664  36.244  1.00  0.00     0.131 A 
ATOM     70  C   UNL A   1      46.492  29.124  37.295  1.00  0.00     0.055 A 
ATOM     71  C   UNL A   1      47.456  31.243  36.700  1.00  0.00     0.041 A 
ATOM     72  F   UNL A   1      46.100  32.930  35.811  1.00  0.00    -0.206 F 
ATOM     73  C   UNL A   1      47.600  29.972  37.248  1.00  0.00     0.022 A 
BRANCH  70  74
ATOM     74  S   UNL A   1      46.572  27.576  38.237  1.00  0.00     0.124 S 
ATOM     75  O   UNL A   1      45.302  27.604  38.958  1.00  0.00    -0.237 OA
ATOM     76  O   UNL A   1      46.688  26.573  37.185  1.00  0.00    -0.237 OA
ATOM     77  O   UNL A   1      47.758  27.746  39.074  1.00  0.00    -0.744 OA
ENDBRANCH  70  74
ENDBRANCH  53  67
BRANCH  54  78
ATOM     78  C   UNL A   1      36.190  33.791  32.714  1.00  0.00     0.023 A 
ATOM     79  C   UNL A   1      35.697  35.094  32.884  1.00  0.00     0.031 A 
ATOM     80  C   UNL A   1      35.358  32.850  32.082  1.00  0.00     0.131 A 
ATOM     81  C   UNL A   1      34.396  35.409  32.462  1.00  0.00     0.055 A 
ATOM     82  C   UNL A   1      34.089  33.186  31.607  1.00  0.00     0.041 A 
ATOM     83  F   UNL A   1      35.774  31.586  31.902  1.00  0.00    -0.206 F 
ATOM     84  C   UNL A   1      33.596  34.470  31.807  1.00  0.00     0.022 A 
BRANCH  81  85
ATOM     85  S   UNL A   1      33.725  37.048  32.860  1.00  0.00     0.124 S 
ATOM     86  O   UNL A   1      32.312  36.872  32.544  1.00  0.00    -0.237 OA
ATOM     87  O   UNL A   1      34.056  37.175  34.275  1.00  0.00    -0.237 OA
ATOM     88  O   UNL A   1      34.460  37.943  31.967  1.00  0.00    -0.744 OA
ENDBRANCH  81  85
ENDBRANCH  54  78
BRANCH  66  89
ATOM     89  C   UNL A   1      39.007  33.538  39.111  1.00  0.00     0.023 A 
ATOM     90  C   UNL A   1      39.439  34.716  39.745  1.00  0.00     0.031 A 
ATOM     91  C   UNL A   1      38.061  32.740  39.782  1.00  0.00     0.131 A 
ATOM     92  C   UNL A   1      38.974  35.030  41.031  1.00  0.00     0.055 A 
ATOM     93  C   UNL A   1      37.544  33.097  41.027  1.00  0.00     0.041 A 
ATOM     94  F   UNL A   1      37.616  31.598  39.233  1.00  0.00    -0.206 F 
ATOM     95  C   UNL A   1      38.011  34.241  41.666  1.00  0.00     0.022 A 
BRANCH  92  96
ATOM     96  S   UNL A   1      39.729  36.422  41.916  1.00  0.00     0.124 S 
ATOM     97  O   UNL A   1      38.928  37.548  41.446  1.00  0.00    -0.237 OA
ATOM     98  O   UNL A   1      39.541  36.044  43.312  1.00  0.00    -0.237 OA
ATOM     99  O   UNL A   1      41.116  36.411  41.452  1.00  0.00    -0.744 OA
ENDBRANCH  92  96
ENDBRANCH  66  89
ENDBRANCH  40  41
ENDBRANCH  33  35
ENDBRANCH  32  33
ENDBRANCH  31  32
ENDBRANCH  30  31
ENDBRANCH  29  30
ENDBRANCH  28  29
ENDBRANCH  27  28
ENDBRANCH  26  27
ENDBRANCH   1  26
TORSDOF 27
ENDMDL
