MODEL 1
REMARK VINA RESULT:      -9.1      0.000      0.000
REMARK SMILES O=C(OCCOCCOCCOCCOC(=O)c1ccnc(Sc2ccc3nnnn3n2)c1)c1ccc(-c2c3nc(c(-c4cc(S(=O)(=O)[O-])ccc4F)c4ccc([nH]4)c(-c4cc(S(=O)(=O)[O-])ccc4F)c4nc(c(-c5cc(S(=O)(=O)[O-])ccc5F)c5ccc2[nH]5)C=C4)C=C3)cc1
REMARK SMILES IDX 8 1 7 2 6 3 5 4 4 5 3 6 2 7 1 8 34 9 35 10 96 11 36 12 95 13
REMARK SMILES IDX 37 14 38 15 39 16 89 17 40 18 94 19 88 20 90 21 41 22 93 23
REMARK SMILES IDX 87 24 86 25 42 27 74 28 54 29 73 30 55 31 58 32 72 33 91 34
REMARK SMILES IDX 56 35 57 36 71 38 92 39 59 40 43 41 44 42 52 43 45 44 51 45
REMARK SMILES IDX 53 46 50 47 46 48 47 49 48 50 49 51 75 52 76 53 84 54 77 55
REMARK SMILES IDX 83 56 85 57 82 58 78 59 79 60 80 61 81 62 60 63 61 64 69 65
REMARK SMILES IDX 62 66 68 67 70 68 67 69 63 70 64 71 65 72 66 73 9 74 10 75
REMARK SMILES IDX 11 76 12 77 13 78 14 79 15 80 16 81 17 82 18 83 19 84 33 85
REMARK SMILES IDX 20 86 22 87 21 88 23 89 24 90 25 91 32 92 26 93 31 94 27 95
REMARK SMILES IDX 30 96 28 97 29 98
REMARK H PARENT 90 26 58 37
REMARK Flexibility Score: inf
ROOT
ATOM      1  C   UNL A   1      40.098  22.144  26.918  1.00  0.00     0.188 C 
ENDROOT
BRANCH   1   2
ATOM      2  C   UNL A   1      41.532  22.237  26.406  1.00  0.00     0.188 C 
BRANCH   2   3
ATOM      3  O   UNL A   1      41.811  23.429  25.668  1.00  0.00    -0.376 OA
BRANCH   3   4
ATOM      4  C   UNL A   1      42.152  24.594  26.413  1.00  0.00     0.202 C 
BRANCH   4   5
ATOM      5  C   UNL A   1      42.603  25.749  25.528  1.00  0.00     0.261 C 
BRANCH   5   6
ATOM      6  O   UNL A   1      41.520  26.678  25.386  1.00  0.00    -0.460 OA
BRANCH   6   7
ATOM      7  C   UNL A   1      41.669  27.963  25.801  1.00  0.00     0.338 C 
ATOM      8  O   UNL A   1      41.979  28.862  25.028  1.00  0.00    -0.246 OA
BRANCH   7   9
ATOM      9  C   UNL A   1      41.279  28.270  27.186  1.00  0.00     0.060 A 
ATOM     10  C   UNL A   1      42.167  28.683  28.194  1.00  0.00     0.016 A 
ATOM     11  C   UNL A   1      39.923  28.166  27.437  1.00  0.00     0.016 A 
ATOM     12  C   UNL A   1      41.695  29.006  29.462  1.00  0.00     0.010 A 
ATOM     13  C   UNL A   1      39.463  28.475  28.701  1.00  0.00     0.010 A 
ATOM     14  C   UNL A   1      40.327  28.957  29.701  1.00  0.00    -0.014 A 
BRANCH  14  15
ATOM     15  C   UNL A   1      39.776  29.595  30.918  1.00  0.00     0.031 A 
ATOM     16  C   UNL A   1      40.398  29.045  32.163  1.00  0.00     0.074 A 
ATOM     17  C   UNL A   1      39.229  30.829  30.890  1.00  0.00     0.049 A 
ATOM     18  N   UNL A   1      41.614  29.399  32.458  1.00  0.00    -0.248 NA
ATOM     19  C   UNL A   1      39.967  27.831  32.855  1.00  0.00     0.031 C 
ATOM     20  C   UNL A   1      39.448  31.773  29.784  1.00  0.00     0.029 A 
ATOM     21  N   UNL A   1      38.640  31.590  31.878  1.00  0.00    -0.354 N 
ATOM     22  C   UNL A   1      42.180  28.372  33.178  1.00  0.00     0.074 A 
ATOM     23  C   UNL A   1      41.091  27.478  33.511  1.00  0.00     0.031 C 
ATOM     24  C   UNL A   1      39.231  33.022  30.239  1.00  0.00     0.029 A 
ATOM     25  C   UNL A   1      38.735  32.961  31.611  1.00  0.00     0.049 A 
ATOM     26  H   UNL A   1      38.205  31.213  32.677  1.00  0.00     0.167 HD
ATOM     27  C   UNL A   1      43.529  28.277  33.339  1.00  0.00     0.034 A 
ATOM     28  C   UNL A   1      39.023  33.891  32.566  1.00  0.00     0.034 A 
ATOM     29  C   UNL A   1      44.315  29.208  32.565  1.00  0.00     0.049 A 
ATOM     30  C   UNL A   1      40.479  33.562  32.853  1.00  0.00     0.074 A 
ATOM     31  C   UNL A   1      45.087  29.181  31.421  1.00  0.00     0.029 A 
ATOM     32  N   UNL A   1      44.288  30.536  32.920  1.00  0.00    -0.354 N 
ATOM     33  N   UNL A   1      41.513  33.820  32.094  1.00  0.00    -0.248 NA
ATOM     34  C   UNL A   1      40.749  32.613  33.933  1.00  0.00     0.031 C 
ATOM     35  C   UNL A   1      45.084  30.525  30.917  1.00  0.00     0.029 A 
ATOM     36  C   UNL A   1      44.290  31.292  31.769  1.00  0.00     0.049 A 
ATOM     37  H   UNL A   1      44.271  30.888  33.840  1.00  0.00     0.167 HD
ATOM     38  C   UNL A   1      42.478  32.862  32.431  1.00  0.00     0.074 A 
ATOM     39  C   UNL A   1      41.968  32.206  33.615  1.00  0.00     0.031 C 
ATOM     40  C   UNL A   1      43.544  32.536  31.636  1.00  0.00     0.034 A 
BRANCH  27  41
ATOM     41  C   UNL A   1      44.145  27.492  34.428  1.00  0.00     0.023 A 
ATOM     42  C   UNL A   1      44.268  27.890  35.765  1.00  0.00     0.031 A 
ATOM     43  C   UNL A   1      44.501  26.176  34.072  1.00  0.00     0.131 A 
ATOM     44  C   UNL A   1      44.736  26.951  36.704  1.00  0.00     0.055 A 
ATOM     45  C   UNL A   1      44.949  25.252  35.005  1.00  0.00     0.041 A 
ATOM     46  F   UNL A   1      44.370  25.765  32.798  1.00  0.00    -0.206 F 
ATOM     47  C   UNL A   1      45.064  25.638  36.332  1.00  0.00     0.022 A 
BRANCH  44  48
ATOM     48  S   UNL A   1      44.910  27.357  38.466  1.00  0.00     0.124 S 
ATOM     49  O   UNL A   1      43.903  26.497  39.085  1.00  0.00    -0.237 OA
ATOM     50  O   UNL A   1      46.298  26.980  38.726  1.00  0.00    -0.237 OA
ATOM     51  O   UNL A   1      44.630  28.788  38.525  1.00  0.00    -0.744 OA
ENDBRANCH  44  48
ENDBRANCH  27  41
BRANCH  28  52
ATOM     52  C   UNL A   1      38.006  34.021  33.670  1.00  0.00     0.023 A 
ATOM     53  C   UNL A   1      38.299  33.813  35.027  1.00  0.00     0.031 A 
ATOM     54  C   UNL A   1      36.664  34.325  33.354  1.00  0.00     0.131 A 
ATOM     55  C   UNL A   1      37.259  33.675  35.961  1.00  0.00     0.055 A 
ATOM     56  C   UNL A   1      35.636  34.256  34.299  1.00  0.00     0.041 A 
ATOM     57  F   UNL A   1      36.318  34.674  32.104  1.00  0.00    -0.206 F 
ATOM     58  C   UNL A   1      35.928  33.887  35.604  1.00  0.00     0.022 A 
BRANCH  55  59
ATOM     59  S   UNL A   1      37.616  33.119  37.651  1.00  0.00     0.124 S 
ATOM     60  O   UNL A   1      38.553  32.020  37.431  1.00  0.00    -0.237 OA
ATOM     61  O   UNL A   1      38.188  34.329  38.233  1.00  0.00    -0.237 OA
ATOM     62  O   UNL A   1      36.307  32.729  38.161  1.00  0.00    -0.744 OA
ENDBRANCH  55  59
ENDBRANCH  28  52
BRANCH  40  63
ATOM     63  C   UNL A   1      43.789  33.451  30.467  1.00  0.00     0.023 A 
ATOM     64  C   UNL A   1      44.423  34.704  30.599  1.00  0.00     0.031 A 
ATOM     65  C   UNL A   1      43.323  33.080  29.193  1.00  0.00     0.131 A 
ATOM     66  C   UNL A   1      44.539  35.551  29.484  1.00  0.00     0.055 A 
ATOM     67  C   UNL A   1      43.489  33.901  28.079  1.00  0.00     0.041 A 
ATOM     68  F   UNL A   1      42.665  31.921  29.018  1.00  0.00    -0.206 F 
ATOM     69  C   UNL A   1      44.091  35.146  28.222  1.00  0.00     0.022 A 
BRANCH  66  70
ATOM     70  S   UNL A   1      45.238  37.223  29.630  1.00  0.00     0.124 S 
ATOM     71  O   UNL A   1      44.084  38.022  30.039  1.00  0.00    -0.237 OA
ATOM     72  O   UNL A   1      46.255  37.036  30.663  1.00  0.00    -0.237 OA
ATOM     73  O   UNL A   1      45.750  37.521  28.296  1.00  0.00    -0.744 OA
ENDBRANCH  66  70
ENDBRANCH  40  63
ENDBRANCH  14  15
ENDBRANCH   7   9
ENDBRANCH   6   7
ENDBRANCH   5   6
ENDBRANCH   4   5
ENDBRANCH   3   4
ENDBRANCH   2   3
ENDBRANCH   1   2
BRANCH   1  74
ATOM     74  O   UNL A   1      39.063  22.637  26.082  1.00  0.00    -0.377 OA
BRANCH  74  75
ATOM     75  C   UNL A   1      38.233  21.692  25.441  1.00  0.00     0.188 C 
BRANCH  75  76
ATOM     76  C   UNL A   1      36.708  21.899  25.590  1.00  0.00     0.188 C 
BRANCH  76  77
ATOM     77  O   UNL A   1      35.791  21.405  24.627  1.00  0.00    -0.376 OA
BRANCH  77  78
ATOM     78  C   UNL A   1      35.009  20.256  24.903  1.00  0.00     0.202 C 
BRANCH  78  79
ATOM     79  C   UNL A   1      33.622  20.430  25.551  1.00  0.00     0.261 C 
BRANCH  79  80
ATOM     80  O   UNL A   1      33.139  21.783  25.658  1.00  0.00    -0.460 OA
BRANCH  80  81
ATOM     81  C   UNL A   1      31.861  22.034  25.260  1.00  0.00     0.338 C 
ATOM     82  O   UNL A   1      30.838  21.629  25.754  1.00  0.00    -0.246 OA
BRANCH  81  83
ATOM     83  C   UNL A   1      31.911  23.055  24.179  1.00  0.00     0.064 A 
ATOM     84  C   UNL A   1      32.843  22.923  23.154  1.00  0.00     0.036 A 
ATOM     85  C   UNL A   1      31.097  24.200  24.268  1.00  0.00     0.051 A 
ATOM     86  C   UNL A   1      32.937  23.962  22.257  1.00  0.00     0.113 A 
ATOM     87  C   UNL A   1      31.297  25.216  23.346  1.00  0.00     0.103 A 
ATOM     88  N   UNL A   1      32.204  25.093  22.344  1.00  0.00    -0.249 NA
BRANCH  87  89
ATOM     89  S   UNL A   1      30.348  26.705  23.239  1.00  0.00    -0.048 SA
BRANCH  89  90
ATOM     90  C   UNL A   1      31.170  27.966  24.125  1.00  0.00     0.125 A 
ATOM     91  C   UNL A   1      30.586  29.337  24.037  1.00  0.00     0.042 A 
ATOM     92  N   UNL A   1      32.130  27.594  24.910  1.00  0.00    -0.140 NA
ATOM     93  C   UNL A   1      31.064  30.259  24.890  1.00  0.00     0.056 A 
ATOM     94  N   UNL A   1      32.552  28.598  25.721  1.00  0.00    -0.109 N 
ATOM     95  C   UNL A   1      32.089  29.894  25.785  1.00  0.00     0.200 A 
ATOM     96  N   UNL A   1      33.486  28.415  26.661  1.00  0.00    -0.022 NA
ATOM     97  N   UNL A   1      32.742  30.521  26.736  1.00  0.00    -0.107 NA
ATOM     98  N   UNL A   1      33.601  29.587  27.275  1.00  0.00    -0.022 NA
ENDBRANCH  89  90
ENDBRANCH  87  89
ENDBRANCH  81  83
ENDBRANCH  80  81
ENDBRANCH  79  80
ENDBRANCH  78  79
ENDBRANCH  77  78
ENDBRANCH  76  77
ENDBRANCH  75  76
ENDBRANCH  74  75
ENDBRANCH   1  74
TORSDOF 25
ENDMDL
MODEL 2
REMARK VINA RESULT:      -8.9      4.606     10.013
REMARK SMILES O=C(OCCOCCOCCOCCOC(=O)c1ccnc(Sc2ccc3nnnn3n2)c1)c1ccc(-c2c3nc(c(-c4cc(S(=O)(=O)[O-])ccc4F)c4ccc([nH]4)c(-c4cc(S(=O)(=O)[O-])ccc4F)c4nc(c(-c5cc(S(=O)(=O)[O-])ccc5F)c5ccc2[nH]5)C=C4)C=C3)cc1
REMARK SMILES IDX 8 1 7 2 6 3 5 4 4 5 3 6 2 7 1 8 34 9 35 10 96 11 36 12 95 13
REMARK SMILES IDX 37 14 38 15 39 16 89 17 40 18 94 19 88 20 90 21 41 22 93 23
REMARK SMILES IDX 87 24 86 25 42 27 74 28 54 29 73 30 55 31 58 32 72 33 91 34
REMARK SMILES IDX 56 35 57 36 71 38 92 39 59 40 43 41 44 42 52 43 45 44 51 45
REMARK SMILES IDX 53 46 50 47 46 48 47 49 48 50 49 51 75 52 76 53 84 54 77 55
REMARK SMILES IDX 83 56 85 57 82 58 78 59 79 60 80 61 81 62 60 63 61 64 69 65
REMARK SMILES IDX 62 66 68 67 70 68 67 69 63 70 64 71 65 72 66 73 9 74 10 75
REMARK SMILES IDX 11 76 12 77 13 78 14 79 15 80 16 81 17 82 18 83 19 84 33 85
REMARK SMILES IDX 20 86 22 87 21 88 23 89 24 90 25 91 32 92 26 93 31 94 27 95
REMARK SMILES IDX 30 96 28 97 29 98
REMARK H PARENT 90 26 58 37
REMARK Flexibility Score: inf
ROOT
ATOM      1  C   UNL A   1      36.502  33.711  32.855  1.00  0.00     0.188 C 
ENDROOT
BRANCH   1   2
ATOM      2  C   UNL A   1      37.903  33.747  33.458  1.00  0.00     0.188 C 
BRANCH   2   3
ATOM      3  O   UNL A   1      38.141  32.738  34.441  1.00  0.00    -0.376 OA
BRANCH   3   4
ATOM      4  C   UNL A   1      39.334  31.971  34.315  1.00  0.00     0.202 C 
BRANCH   4   5
ATOM      5  C   UNL A   1      39.068  30.473  34.233  1.00  0.00     0.261 C 
BRANCH   5   6
ATOM      6  O   UNL A   1      39.887  29.909  33.201  1.00  0.00    -0.460 OA
BRANCH   6   7
ATOM      7  C   UNL A   1      40.018  28.560  33.099  1.00  0.00     0.338 C 
ATOM      8  O   UNL A   1      39.064  27.834  32.846  1.00  0.00    -0.246 OA
BRANCH   7   9
ATOM      9  C   UNL A   1      41.383  28.015  33.137  1.00  0.00     0.060 A 
ATOM     10  C   UNL A   1      41.954  27.366  34.245  1.00  0.00     0.016 A 
ATOM     11  C   UNL A   1      42.087  28.145  31.953  1.00  0.00     0.016 A 
ATOM     12  C   UNL A   1      43.237  26.831  34.167  1.00  0.00     0.010 A 
ATOM     13  C   UNL A   1      43.363  27.624  31.887  1.00  0.00     0.010 A 
ATOM     14  C   UNL A   1      43.924  26.911  32.962  1.00  0.00    -0.014 A 
BRANCH  14  15
ATOM     15  C   UNL A   1      45.133  26.082  32.757  1.00  0.00     0.031 A 
ATOM     16  C   UNL A   1      44.934  25.070  31.672  1.00  0.00     0.074 A 
ATOM     17  C   UNL A   1      46.365  26.521  33.092  1.00  0.00     0.049 A 
ATOM     18  N   UNL A   1      44.933  25.476  30.437  1.00  0.00    -0.248 NA
ATOM     19  C   UNL A   1      44.316  23.757  31.848  1.00  0.00     0.031 C 
ATOM     20  C   UNL A   1      46.664  27.940  33.336  1.00  0.00     0.029 A 
ATOM     21  N   UNL A   1      47.602  25.918  33.018  1.00  0.00    -0.354 N 
ATOM     22  C   UNL A   1      44.142  24.609  29.717  1.00  0.00     0.074 A 
ATOM     23  C   UNL A   1      43.883  23.490  30.599  1.00  0.00     0.031 C 
ATOM     24  C   UNL A   1      47.983  28.137  33.147  1.00  0.00     0.029 A 
ATOM     25  C   UNL A   1      48.637  26.854  32.902  1.00  0.00     0.049 A 
ATOM     26  H   UNL A   1      47.741  24.944  33.043  1.00  0.00     0.167 HD
ATOM     27  C   UNL A   1      43.659  24.943  28.489  1.00  0.00     0.034 A 
ATOM     28  C   UNL A   1      49.704  26.691  32.070  1.00  0.00     0.034 A 
ATOM     29  C   UNL A   1      43.882  26.310  28.082  1.00  0.00     0.049 A 
ATOM     30  C   UNL A   1      49.035  26.847  30.715  1.00  0.00     0.074 A 
ATOM     31  C   UNL A   1      43.148  27.475  27.987  1.00  0.00     0.029 A 
ATOM     32  N   UNL A   1      45.165  26.695  27.769  1.00  0.00    -0.354 N 
ATOM     33  N   UNL A   1      48.603  27.956  30.169  1.00  0.00    -0.248 NA
ATOM     34  C   UNL A   1      48.552  25.630  30.063  1.00  0.00     0.031 C 
ATOM     35  C   UNL A   1      44.101  28.545  28.077  1.00  0.00     0.029 A 
ATOM     36  C   UNL A   1      45.361  27.972  28.246  1.00  0.00     0.049 A 
ATOM     37  H   UNL A   1      45.830  26.151  27.286  1.00  0.00     0.167 HD
ATOM     38  C   UNL A   1      47.584  27.572  29.287  1.00  0.00     0.074 A 
ATOM     39  C   UNL A   1      47.660  26.128  29.220  1.00  0.00     0.031 C 
ATOM     40  C   UNL A   1      46.628  28.424  28.802  1.00  0.00     0.034 A 
BRANCH  27  41
ATOM     41  C   UNL A   1      43.201  23.931  27.515  1.00  0.00     0.023 A 
ATOM     42  C   UNL A   1      44.015  23.194  26.646  1.00  0.00     0.031 A 
ATOM     43  C   UNL A   1      41.831  23.612  27.602  1.00  0.00     0.131 A 
ATOM     44  C   UNL A   1      43.429  22.154  25.898  1.00  0.00     0.055 A 
ATOM     45  C   UNL A   1      41.264  22.579  26.872  1.00  0.00     0.041 A 
ATOM     46  F   UNL A   1      41.036  24.292  28.448  1.00  0.00    -0.206 F 
ATOM     47  C   UNL A   1      42.067  21.839  26.017  1.00  0.00     0.022 A 
BRANCH  44  48
ATOM     48  S   UNL A   1      44.400  21.124  24.759  1.00  0.00     0.124 S 
ATOM     49  O   UNL A   1      43.595  19.906  24.681  1.00  0.00    -0.237 OA
ATOM     50  O   UNL A   1      44.411  21.942  23.549  1.00  0.00    -0.237 OA
ATOM     51  O   UNL A   1      45.687  20.979  25.429  1.00  0.00    -0.744 OA
ENDBRANCH  44  48
ENDBRANCH  27  41
BRANCH  28  52
ATOM     52  C   UNL A   1      50.595  25.517  32.383  1.00  0.00     0.023 A 
ATOM     53  C   UNL A   1      50.119  24.271  32.821  1.00  0.00     0.031 A 
ATOM     54  C   UNL A   1      51.998  25.656  32.283  1.00  0.00     0.131 A 
ATOM     55  C   UNL A   1      51.006  23.324  33.357  1.00  0.00     0.055 A 
ATOM     56  C   UNL A   1      52.883  24.683  32.753  1.00  0.00     0.041 A 
ATOM     57  F   UNL A   1      52.538  26.761  31.743  1.00  0.00    -0.206 F 
ATOM     58  C   UNL A   1      52.386  23.525  33.335  1.00  0.00     0.022 A 
BRANCH  55  59
ATOM     59  S   UNL A   1      50.369  21.842  34.188  1.00  0.00     0.124 S 
ATOM     60  O   UNL A   1      49.102  22.311  34.744  1.00  0.00    -0.237 OA
ATOM     61  O   UNL A   1      50.261  20.913  33.068  1.00  0.00    -0.237 OA
ATOM     62  O   UNL A   1      51.404  21.534  35.168  1.00  0.00    -0.744 OA
ENDBRANCH  55  59
ENDBRANCH  28  52
BRANCH  40  63
ATOM     63  C   UNL A   1      46.871  29.887  29.059  1.00  0.00     0.023 A 
ATOM     64  C   UNL A   1      47.726  30.671  28.257  1.00  0.00     0.031 A 
ATOM     65  C   UNL A   1      46.269  30.499  30.174  1.00  0.00     0.131 A 
ATOM     66  C   UNL A   1      47.981  32.008  28.604  1.00  0.00     0.055 A 
ATOM     67  C   UNL A   1      46.484  31.842  30.483  1.00  0.00     0.041 A 
ATOM     68  F   UNL A   1      45.487  29.788  31.003  1.00  0.00    -0.206 F 
ATOM     69  C   UNL A   1      47.349  32.601  29.703  1.00  0.00     0.022 A 
BRANCH  66  70
ATOM     70  S   UNL A   1      49.168  33.021  27.673  1.00  0.00     0.124 S 
ATOM     71  O   UNL A   1      48.633  34.373  27.826  1.00  0.00    -0.237 OA
ATOM     72  O   UNL A   1      50.414  32.767  28.395  1.00  0.00    -0.237 OA
ATOM     73  O   UNL A   1      49.115  32.490  26.315  1.00  0.00    -0.744 OA
ENDBRANCH  66  70
ENDBRANCH  40  63
ENDBRANCH  14  15
ENDBRANCH   7   9
ENDBRANCH   6   7
ENDBRANCH   5   6
ENDBRANCH   4   5
ENDBRANCH   3   4
ENDBRANCH   2   3
ENDBRANCH   1   2
BRANCH   1  74
ATOM     74  O   UNL A   1      36.376  33.316  31.498  1.00  0.00    -0.377 OA
BRANCH  74  75
ATOM     75  C   UNL A   1      36.710  31.984  31.170  1.00  0.00     0.188 C 
BRANCH  75  76
ATOM     76  C   UNL A   1      36.154  31.442  29.833  1.00  0.00     0.188 C 
BRANCH  76  77
ATOM     77  O   UNL A   1      34.981  31.980  29.241  1.00  0.00    -0.376 OA
BRANCH  77  78
ATOM     78  C   UNL A   1      34.689  31.734  27.877  1.00  0.00     0.202 C 
BRANCH  78  79
ATOM     79  C   UNL A   1      33.301  31.188  27.493  1.00  0.00     0.261 C 
BRANCH  79  80
ATOM     80  O   UNL A   1      33.274  30.227  26.419  1.00  0.00    -0.460 OA
BRANCH  80  81
ATOM     81  C   UNL A   1      32.703  29.015  26.667  1.00  0.00     0.338 C 
ATOM     82  O   UNL A   1      32.759  28.364  27.681  1.00  0.00    -0.246 OA
BRANCH  81  83
ATOM     83  C   UNL A   1      31.830  28.676  25.512  1.00  0.00     0.064 A 
ATOM     84  C   UNL A   1      31.307  29.697  24.724  1.00  0.00     0.036 A 
ATOM     85  C   UNL A   1      31.448  27.337  25.301  1.00  0.00     0.051 A 
ATOM     86  C   UNL A   1      30.399  29.337  23.754  1.00  0.00     0.113 A 
ATOM     87  C   UNL A   1      30.492  27.077  24.331  1.00  0.00     0.103 A 
ATOM     88  N   UNL A   1      29.979  28.069  23.560  1.00  0.00    -0.249 NA
BRANCH  87  89
ATOM     89  S   UNL A   1      29.917  25.471  23.862  1.00  0.00    -0.048 SA
BRANCH  89  90
ATOM     90  C   UNL A   1      30.967  24.266  24.563  1.00  0.00     0.125 A 
ATOM     91  C   UNL A   1      30.654  23.833  25.958  1.00  0.00     0.042 A 
ATOM     92  N   UNL A   1      31.843  23.727  23.776  1.00  0.00    -0.140 NA
ATOM     93  C   UNL A   1      31.303  22.750  26.421  1.00  0.00     0.056 A 
ATOM     94  N   UNL A   1      32.451  22.652  24.339  1.00  0.00    -0.109 N 
ATOM     95  C   UNL A   1      32.244  22.112  25.589  1.00  0.00     0.200 A 
ATOM     96  N   UNL A   1      33.338  21.902  23.675  1.00  0.00    -0.022 NA
ATOM     97  N   UNL A   1      33.008  21.052  25.715  1.00  0.00    -0.107 NA
ATOM     98  N   UNL A   1      33.676  20.931  24.516  1.00  0.00    -0.022 NA
ENDBRANCH  89  90
ENDBRANCH  87  89
ENDBRANCH  81  83
ENDBRANCH  80  81
ENDBRANCH  79  80
ENDBRANCH  78  79
ENDBRANCH  77  78
ENDBRANCH  76  77
ENDBRANCH  75  76
ENDBRANCH  74  75
ENDBRANCH   1  74
TORSDOF 25
ENDMDL
MODEL 3
REMARK VINA RESULT:      -8.7      3.656      6.680
REMARK SMILES O=C(OCCOCCOCCOCCOC(=O)c1ccnc(Sc2ccc3nnnn3n2)c1)c1ccc(-c2c3nc(c(-c4cc(S(=O)(=O)[O-])ccc4F)c4ccc([nH]4)c(-c4cc(S(=O)(=O)[O-])ccc4F)c4nc(c(-c5cc(S(=O)(=O)[O-])ccc5F)c5ccc2[nH]5)C=C4)C=C3)cc1
REMARK SMILES IDX 8 1 7 2 6 3 5 4 4 5 3 6 2 7 1 8 34 9 35 10 96 11 36 12 95 13
REMARK SMILES IDX 37 14 38 15 39 16 89 17 40 18 94 19 88 20 90 21 41 22 93 23
REMARK SMILES IDX 87 24 86 25 42 27 74 28 54 29 73 30 55 31 58 32 72 33 91 34
REMARK SMILES IDX 56 35 57 36 71 38 92 39 59 40 43 41 44 42 52 43 45 44 51 45
REMARK SMILES IDX 53 46 50 47 46 48 47 49 48 50 49 51 75 52 76 53 84 54 77 55
REMARK SMILES IDX 83 56 85 57 82 58 78 59 79 60 80 61 81 62 60 63 61 64 69 65
REMARK SMILES IDX 62 66 68 67 70 68 67 69 63 70 64 71 65 72 66 73 9 74 10 75
REMARK SMILES IDX 11 76 12 77 13 78 14 79 15 80 16 81 17 82 18 83 19 84 33 85
REMARK SMILES IDX 20 86 22 87 21 88 23 89 24 90 25 91 32 92 26 93 31 94 27 95
REMARK SMILES IDX 30 96 28 97 29 98
REMARK H PARENT 90 26 58 37
REMARK Flexibility Score: inf
ROOT
ATOM      1  C   UNL A   1      36.714  21.973  24.991  1.00  0.00     0.188 C 
ENDROOT
BRANCH   1   2
ATOM      2  C   UNL A   1      37.867  22.325  25.925  1.00  0.00     0.188 C 
BRANCH   2   3
ATOM      3  O   UNL A   1      38.977  21.429  25.844  1.00  0.00    -0.376 OA
BRANCH   3   4
ATOM      4  C   UNL A   1      40.262  21.948  26.173  1.00  0.00     0.202 C 
BRANCH   4   5
ATOM      5  C   UNL A   1      40.442  22.175  27.668  1.00  0.00     0.261 C 
BRANCH   5   6
ATOM      6  O   UNL A   1      40.991  23.482  27.879  1.00  0.00    -0.460 OA
BRANCH   6   7
ATOM      7  C   UNL A   1      40.164  24.556  27.988  1.00  0.00     0.338 C 
ATOM      8  O   UNL A   1      38.946  24.435  28.023  1.00  0.00    -0.246 OA
BRANCH   7   9
ATOM      9  C   UNL A   1      40.793  25.862  28.235  1.00  0.00     0.060 A 
ATOM     10  C   UNL A   1      40.090  27.059  28.456  1.00  0.00     0.016 A 
ATOM     11  C   UNL A   1      42.175  25.835  28.284  1.00  0.00     0.016 A 
ATOM     12  C   UNL A   1      40.772  28.238  28.738  1.00  0.00     0.010 A 
ATOM     13  C   UNL A   1      42.846  27.011  28.552  1.00  0.00     0.010 A 
ATOM     14  C   UNL A   1      42.157  28.202  28.843  1.00  0.00    -0.014 A 
BRANCH  14  15
ATOM     15  C   UNL A   1      42.871  29.347  29.452  1.00  0.00     0.031 A 
ATOM     16  C   UNL A   1      42.912  29.246  30.944  1.00  0.00     0.074 A 
ATOM     17  C   UNL A   1      43.796  30.055  28.769  1.00  0.00     0.049 A 
ATOM     18  N   UNL A   1      43.716  28.382  31.487  1.00  0.00    -0.248 NA
ATOM     19  C   UNL A   1      41.852  29.694  31.848  1.00  0.00     0.031 C 
ATOM     20  C   UNL A   1      44.431  29.557  27.539  1.00  0.00     0.029 A 
ATOM     21  N   UNL A   1      44.548  31.156  29.121  1.00  0.00    -0.354 N 
ATOM     22  C   UNL A   1      43.168  28.005  32.692  1.00  0.00     0.074 A 
ATOM     23  C   UNL A   1      42.083  28.931  32.936  1.00  0.00     0.031 C 
ATOM     24  C   UNL A   1      45.608  30.193  27.379  1.00  0.00     0.029 A 
ATOM     25  C   UNL A   1      45.749  31.222  28.406  1.00  0.00     0.049 A 
ATOM     26  H   UNL A   1      44.272  31.816  29.797  1.00  0.00     0.167 HD
ATOM     27  C   UNL A   1      43.576  26.877  33.335  1.00  0.00     0.034 A 
ATOM     28  C   UNL A   1      46.939  31.574  28.971  1.00  0.00     0.034 A 
ATOM     29  C   UNL A   1      44.478  26.028  32.593  1.00  0.00     0.049 A 
ATOM     30  C   UNL A   1      47.206  30.363  29.850  1.00  0.00     0.074 A 
ATOM     31  C   UNL A   1      44.409  24.841  31.892  1.00  0.00     0.029 A 
ATOM     32  N   UNL A   1      45.764  26.468  32.384  1.00  0.00    -0.354 N 
ATOM     33  N   UNL A   1      47.585  29.172  29.462  1.00  0.00    -0.248 NA
ATOM     34  C   UNL A   1      46.723  30.419  31.229  1.00  0.00     0.031 C 
ATOM     35  C   UNL A   1      45.491  24.883  30.948  1.00  0.00     0.029 A 
ATOM     36  C   UNL A   1      46.143  26.105  31.111  1.00  0.00     0.049 A 
ATOM     37  H   UNL A   1      46.319  26.959  33.033  1.00  0.00     0.167 HD
ATOM     38  C   UNL A   1      47.131  28.289  30.451  1.00  0.00     0.074 A 
ATOM     39  C   UNL A   1      46.679  29.132  31.537  1.00  0.00     0.031 C 
ATOM     40  C   UNL A   1      46.983  26.941  30.265  1.00  0.00     0.034 A 
BRANCH  27  41
ATOM     41  C   UNL A   1      43.360  26.667  34.781  1.00  0.00     0.023 A 
ATOM     42  C   UNL A   1      44.278  26.944  35.802  1.00  0.00     0.031 A 
ATOM     43  C   UNL A   1      42.050  26.281  35.128  1.00  0.00     0.131 A 
ATOM     44  C   UNL A   1      43.848  26.836  37.139  1.00  0.00     0.055 A 
ATOM     45  C   UNL A   1      41.630  26.189  36.446  1.00  0.00     0.041 A 
ATOM     46  F   UNL A   1      41.146  26.032  34.163  1.00  0.00    -0.206 F 
ATOM     47  C   UNL A   1      42.531  26.472  37.461  1.00  0.00     0.022 A 
BRANCH  44  48
ATOM     48  S   UNL A   1      44.952  27.196  38.537  1.00  0.00     0.124 S 
ATOM     49  O   UNL A   1      44.888  28.654  38.615  1.00  0.00    -0.237 OA
ATOM     50  O   UNL A   1      44.294  26.483  39.629  1.00  0.00    -0.237 OA
ATOM     51  O   UNL A   1      46.237  26.648  38.118  1.00  0.00    -0.744 OA
ENDBRANCH  44  48
ENDBRANCH  27  41
BRANCH  28  52
ATOM     52  C   UNL A   1      47.008  32.978  29.514  1.00  0.00     0.023 A 
ATOM     53  C   UNL A   1      45.890  33.816  29.650  1.00  0.00     0.031 A 
ATOM     54  C   UNL A   1      48.257  33.529  29.874  1.00  0.00     0.131 A 
ATOM     55  C   UNL A   1      46.063  35.189  29.893  1.00  0.00     0.055 A 
ATOM     56  C   UNL A   1      48.419  34.882  30.185  1.00  0.00     0.041 A 
ATOM     57  F   UNL A   1      49.359  32.761  29.908  1.00  0.00    -0.206 F 
ATOM     58  C   UNL A   1      47.321  35.729  30.153  1.00  0.00     0.022 A 
BRANCH  55  59
ATOM     59  S   UNL A   1      44.649  36.321  29.780  1.00  0.00     0.124 S 
ATOM     60  O   UNL A   1      45.271  37.558  29.312  1.00  0.00    -0.237 OA
ATOM     61  O   UNL A   1      43.808  35.630  28.808  1.00  0.00    -0.237 OA
ATOM     62  O   UNL A   1      44.138  36.359  31.145  1.00  0.00    -0.744 OA
ENDBRANCH  55  59
ENDBRANCH  28  52
BRANCH  40  63
ATOM     63  C   UNL A   1      47.585  26.388  29.001  1.00  0.00     0.023 A 
ATOM     64  C   UNL A   1      46.978  26.541  27.737  1.00  0.00     0.031 A 
ATOM     65  C   UNL A   1      48.773  25.639  29.075  1.00  0.00     0.131 A 
ATOM     66  C   UNL A   1      47.544  25.924  26.610  1.00  0.00     0.055 A 
ATOM     67  C   UNL A   1      49.359  25.072  27.944  1.00  0.00     0.041 A 
ATOM     68  F   UNL A   1      49.367  25.416  30.260  1.00  0.00    -0.206 F 
ATOM     69  C   UNL A   1      48.741  25.206  26.705  1.00  0.00     0.022 A 
BRANCH  66  70
ATOM     70  S   UNL A   1      46.734  25.990  24.984  1.00  0.00     0.124 S 
ATOM     71  O   UNL A   1      46.861  27.399  24.615  1.00  0.00    -0.237 OA
ATOM     72  O   UNL A   1      47.557  25.071  24.199  1.00  0.00    -0.237 OA
ATOM     73  O   UNL A   1      45.368  25.543  25.239  1.00  0.00    -0.744 OA
ENDBRANCH  66  70
ENDBRANCH  40  63
ENDBRANCH  14  15
ENDBRANCH   7   9
ENDBRANCH   6   7
ENDBRANCH   5   6
ENDBRANCH   4   5
ENDBRANCH   3   4
ENDBRANCH   2   3
ENDBRANCH   1   2
BRANCH   1  74
ATOM     74  O   UNL A   1      35.620  21.251  25.532  1.00  0.00    -0.377 OA
BRANCH  74  75
ATOM     75  C   UNL A   1      34.570  20.899  24.656  1.00  0.00     0.188 C 
BRANCH  75  76
ATOM     76  C   UNL A   1      33.413  20.072  25.264  1.00  0.00     0.188 C 
BRANCH  76  77
ATOM     77  O   UNL A   1      32.131  20.636  25.489  1.00  0.00    -0.376 OA
BRANCH  77  78
ATOM     78  C   UNL A   1      31.931  22.033  25.363  1.00  0.00     0.202 C 
BRANCH  78  79
ATOM     79  C   UNL A   1      30.929  22.735  26.300  1.00  0.00     0.261 C 
BRANCH  79  80
ATOM     80  O   UNL A   1      31.436  23.868  27.032  1.00  0.00    -0.460 OA
BRANCH  80  81
ATOM     81  C   UNL A   1      32.578  24.456  26.580  1.00  0.00     0.338 C 
ATOM     82  O   UNL A   1      33.682  23.975  26.513  1.00  0.00    -0.246 OA
BRANCH  81  83
ATOM     83  C   UNL A   1      32.215  25.780  26.007  1.00  0.00     0.064 A 
ATOM     84  C   UNL A   1      32.130  26.890  26.843  1.00  0.00     0.036 A 
ATOM     85  C   UNL A   1      31.849  25.871  24.650  1.00  0.00     0.051 A 
ATOM     86  C   UNL A   1      31.661  28.057  26.286  1.00  0.00     0.113 A 
ATOM     87  C   UNL A   1      31.342  27.077  24.191  1.00  0.00     0.103 A 
ATOM     88  N   UNL A   1      31.257  28.162  25.002  1.00  0.00    -0.249 NA
BRANCH  87  89
ATOM     89  S   UNL A   1      30.881  27.427  22.520  1.00  0.00    -0.048 SA
BRANCH  89  90
ATOM     90  C   UNL A   1      29.622  28.636  22.520  1.00  0.00     0.125 A 
ATOM     91  C   UNL A   1      28.304  28.232  23.095  1.00  0.00     0.042 A 
ATOM     92  N   UNL A   1      29.964  29.833  22.164  1.00  0.00    -0.140 NA
ATOM     93  C   UNL A   1      27.409  29.211  23.313  1.00  0.00     0.056 A 
ATOM     94  N   UNL A   1      28.989  30.745  22.413  1.00  0.00    -0.109 N 
ATOM     95  C   UNL A   1      27.748  30.534  22.970  1.00  0.00     0.200 A 
ATOM     96  N   UNL A   1      29.158  32.053  22.189  1.00  0.00    -0.022 NA
ATOM     97  N   UNL A   1      27.137  31.692  23.071  1.00  0.00    -0.107 NA
ATOM     98  N   UNL A   1      28.028  32.626  22.589  1.00  0.00    -0.022 NA
ENDBRANCH  89  90
ENDBRANCH  87  89
ENDBRANCH  81  83
ENDBRANCH  80  81
ENDBRANCH  79  80
ENDBRANCH  78  79
ENDBRANCH  77  78
ENDBRANCH  76  77
ENDBRANCH  75  76
ENDBRANCH  74  75
ENDBRANCH   1  74
TORSDOF 25
ENDMDL
