MODEL 1
REMARK VINA RESULT:      -8.2      0.000      0.000
REMARK SMILES CC(C)(C)[C@H](CCC(=O)OCCOCCOCCOCCOC(=O)c1ccc(-c2c3nc(c(-c4cc(S(=O)(=O)[O-])ccc4F)c4ccc([nH]4)c(-c4cc(S(=O)(=O)[O-])ccc4F)c4nc(c(-c5cc(S(=O)(=O)[O-])ccc5F)c5ccc2[nH]5)C=C4)C=C3)cc1)CC[NH+]1CCOCC1
REMARK SMILES IDX 15 1 14 2 13 3 12 4 11 5 10 6 8 7 9 8 7 9 6 10 5 11 2 12
REMARK SMILES IDX 1 13 3 14 4 15 88 16 89 17 90 18 91 19 95 20 92 22 94 23
REMARK SMILES IDX 93 24 16 25 17 26 18 27 19 28 20 29 21 30 22 31 23 32 24 33
REMARK SMILES IDX 25 34 26 35 87 36 27 37 86 38 28 39 29 40 30 41 80 42 31 43
REMARK SMILES IDX 85 44 79 45 81 46 32 47 84 48 78 49 77 50 33 52 65 53 45 54
REMARK SMILES IDX 64 55 46 56 49 57 63 58 82 59 47 60 48 61 62 63 83 64 50 65
REMARK SMILES IDX 34 66 35 67 43 68 36 69 42 70 44 71 41 72 37 73 38 74 39 75
REMARK SMILES IDX 40 76 66 77 67 78 75 79 68 80 74 81 76 82 73 83 69 84 70 85
REMARK SMILES IDX 71 86 72 87 51 88 52 89 60 90 53 91 59 92 61 93 58 94 54 95
REMARK SMILES IDX 55 96 56 97 57 98
REMARK H PARENT 90 21 81 51 49 62
REMARK Flexibility Score: inf
ROOT
ATOM      1  C   UNL A   1      33.536  34.602  29.435  1.00  0.00     0.188 C 
ENDROOT
BRANCH   1   2
ATOM      2  C   UNL A   1      33.561  33.983  28.029  1.00  0.00     0.188 C 
BRANCH   2   3
ATOM      3  O   UNL A   1      33.683  32.565  27.945  1.00  0.00    -0.376 OA
BRANCH   3   4
ATOM      4  C   UNL A   1      34.992  32.024  27.731  1.00  0.00     0.202 C 
BRANCH   4   5
ATOM      5  C   UNL A   1      35.130  30.497  27.599  1.00  0.00     0.261 C 
BRANCH   5   6
ATOM      6  O   UNL A   1      33.894  29.745  27.614  1.00  0.00    -0.463 OA
BRANCH   6   7
ATOM      7  C   UNL A   1      33.516  29.193  26.434  1.00  0.00     0.305 C 
ATOM      8  O   UNL A   1      34.293  28.848  25.548  1.00  0.00    -0.252 OA
BRANCH   7   9
ATOM      9  C   UNL A   1      32.027  28.909  26.332  1.00  0.00     0.123 C 
BRANCH   9  10
ATOM     10  C   UNL A   1      31.438  27.524  25.961  1.00  0.00     0.016 C 
BRANCH  10  11
ATOM     11  C   UNL A   1      30.788  27.278  24.575  1.00  0.00     0.000 C 
BRANCH  11  12
ATOM     12  C   UNL A   1      29.828  26.007  24.482  1.00  0.00    -0.035 C 
ATOM     13  C   UNL A   1      30.375  24.916  23.541  1.00  0.00     0.011 C 
ATOM     14  C   UNL A   1      28.396  26.304  24.003  1.00  0.00     0.011 C 
ATOM     15  C   UNL A   1      29.695  25.416  25.908  1.00  0.00     0.011 C 
ENDBRANCH  11  12
BRANCH  11  16
ATOM     16  C   UNL A   1      30.051  28.574  24.029  1.00  0.00     0.065 C 
BRANCH  16  17
ATOM     17  C   UNL A   1      30.523  29.485  22.859  1.00  0.00     0.262 C 
BRANCH  17  18
ATOM     18  N   UNL A   1      29.954  30.773  22.457  1.00  0.00    -0.331 N 
ATOM     19  C   UNL A   1      29.220  31.555  23.464  1.00  0.00     0.291 C 
ATOM     20  C   UNL A   1      29.154  30.705  21.239  1.00  0.00     0.291 C 
ATOM     21  H   UNL A   1      30.819  31.290  22.293  1.00  0.00     0.348 HD
ATOM     22  C   UNL A   1      27.770  31.096  23.693  1.00  0.00     0.221 C 
ATOM     23  C   UNL A   1      27.808  30.100  21.547  1.00  0.00     0.221 C 
ATOM     24  O   UNL A   1      27.056  30.899  22.461  1.00  0.00    -0.370 OA
ENDBRANCH  17  18
ENDBRANCH  16  17
ENDBRANCH  11  16
ENDBRANCH  10  11
ENDBRANCH   9  10
ENDBRANCH   7   9
ENDBRANCH   6   7
ENDBRANCH   5   6
ENDBRANCH   4   5
ENDBRANCH   3   4
ENDBRANCH   2   3
ENDBRANCH   1   2
BRANCH   1  25
ATOM     25  O   UNL A   1      32.696  35.733  29.471  1.00  0.00    -0.377 OA
BRANCH  25  26
ATOM     26  C   UNL A   1      32.950  36.834  30.334  1.00  0.00     0.188 C 
BRANCH  26  27
ATOM     27  C   UNL A   1      32.901  36.624  31.838  1.00  0.00     0.188 C 
BRANCH  27  28
ATOM     28  O   UNL A   1      34.141  36.698  32.548  1.00  0.00    -0.376 OA
BRANCH  28  29
ATOM     29  C   UNL A   1      34.333  35.912  33.722  1.00  0.00     0.202 C 
BRANCH  29  30
ATOM     30  C   UNL A   1      35.450  34.871  33.668  1.00  0.00     0.261 C 
BRANCH  30  31
ATOM     31  O   UNL A   1      35.581  34.323  32.347  1.00  0.00    -0.460 OA
BRANCH  31  32
ATOM     32  C   UNL A   1      35.321  33.005  32.249  1.00  0.00     0.338 C 
ATOM     33  O   UNL A   1      34.233  32.459  32.397  1.00  0.00    -0.246 OA
BRANCH  32  34
ATOM     34  C   UNL A   1      36.521  32.279  31.811  1.00  0.00     0.060 A 
ATOM     35  C   UNL A   1      37.455  31.917  32.786  1.00  0.00     0.016 A 
ATOM     36  C   UNL A   1      36.788  32.077  30.453  1.00  0.00     0.016 A 
ATOM     37  C   UNL A   1      38.708  31.452  32.401  1.00  0.00     0.010 A 
ATOM     38  C   UNL A   1      38.043  31.601  30.068  1.00  0.00     0.010 A 
ATOM     39  C   UNL A   1      39.030  31.360  31.041  1.00  0.00    -0.014 A 
BRANCH  39  40
ATOM     40  C   UNL A   1      40.459  31.270  30.653  1.00  0.00     0.031 A 
ATOM     41  C   UNL A   1      41.235  32.552  30.492  1.00  0.00     0.074 A 
ATOM     42  C   UNL A   1      41.070  30.080  30.522  1.00  0.00     0.049 A 
ATOM     43  N   UNL A   1      42.494  32.734  30.188  1.00  0.00    -0.248 NA
ATOM     44  C   UNL A   1      40.484  33.801  30.700  1.00  0.00     0.031 C 
ATOM     45  C   UNL A   1      40.431  28.779  30.714  1.00  0.00     0.029 A 
ATOM     46  N   UNL A   1      42.370  29.776  30.210  1.00  0.00    -0.354 N 
ATOM     47  C   UNL A   1      42.682  34.113  30.160  1.00  0.00     0.074 A 
ATOM     48  C   UNL A   1      41.397  34.718  30.430  1.00  0.00     0.031 C 
ATOM     49  C   UNL A   1      41.348  27.813  30.524  1.00  0.00     0.029 A 
ATOM     50  C   UNL A   1      42.625  28.427  30.163  1.00  0.00     0.049 A 
ATOM     51  H   UNL A   1      43.056  30.461  30.037  1.00  0.00     0.167 HD
ATOM     52  C   UNL A   1      43.825  34.810  29.941  1.00  0.00     0.034 A 
ATOM     53  C   UNL A   1      43.759  27.767  29.852  1.00  0.00     0.034 A 
ATOM     54  C   UNL A   1      45.096  34.186  29.668  1.00  0.00     0.049 A 
ATOM     55  C   UNL A   1      45.000  28.566  29.523  1.00  0.00     0.074 A 
ATOM     56  C   UNL A   1      46.322  34.788  29.450  1.00  0.00     0.029 A 
ATOM     57  N   UNL A   1      45.302  32.816  29.561  1.00  0.00    -0.354 N 
ATOM     58  N   UNL A   1      45.170  29.869  29.514  1.00  0.00    -0.248 NA
ATOM     59  C   UNL A   1      46.204  27.800  29.179  1.00  0.00     0.031 C 
ATOM     60  C   UNL A   1      47.247  33.790  29.121  1.00  0.00     0.029 A 
ATOM     61  C   UNL A   1      46.624  32.557  29.235  1.00  0.00     0.049 A 
ATOM     62  H   UNL A   1      44.609  32.129  29.695  1.00  0.00     0.167 HD
ATOM     63  C   UNL A   1      46.514  30.075  29.206  1.00  0.00     0.074 A 
ATOM     64  C   UNL A   1      47.106  28.762  29.050  1.00  0.00     0.031 C 
ATOM     65  C   UNL A   1      47.200  31.241  29.073  1.00  0.00     0.034 A 
BRANCH  52  66
ATOM     66  C   UNL A   1      43.727  36.319  29.922  1.00  0.00     0.023 A 
ATOM     67  C   UNL A   1      43.314  37.029  28.779  1.00  0.00     0.031 A 
ATOM     68  C   UNL A   1      44.098  37.063  31.057  1.00  0.00     0.131 A 
ATOM     69  C   UNL A   1      43.359  38.432  28.773  1.00  0.00     0.055 A 
ATOM     70  C   UNL A   1      44.053  38.458  31.073  1.00  0.00     0.041 A 
ATOM     71  F   UNL A   1      44.528  36.446  32.168  1.00  0.00    -0.206 F 
ATOM     72  C   UNL A   1      43.699  39.152  29.920  1.00  0.00     0.022 A 
BRANCH  69  73
ATOM     73  S   UNL A   1      43.128  39.302  27.197  1.00  0.00     0.124 S 
ATOM     74  O   UNL A   1      42.072  38.507  26.574  1.00  0.00    -0.237 OA
ATOM     75  O   UNL A   1      42.751  40.642  27.628  1.00  0.00    -0.237 OA
ATOM     76  O   UNL A   1      44.436  39.198  26.552  1.00  0.00    -0.744 OA
ENDBRANCH  69  73
ENDBRANCH  52  66
BRANCH  53  77
ATOM     77  C   UNL A   1      43.784  26.276  29.814  1.00  0.00     0.023 A 
ATOM     78  C   UNL A   1      43.287  25.569  28.708  1.00  0.00     0.031 A 
ATOM     79  C   UNL A   1      44.251  25.532  30.913  1.00  0.00     0.131 A 
ATOM     80  C   UNL A   1      43.217  24.168  28.746  1.00  0.00     0.055 A 
ATOM     81  C   UNL A   1      44.234  24.137  30.922  1.00  0.00     0.041 A 
ATOM     82  F   UNL A   1      44.734  26.156  31.999  1.00  0.00    -0.206 F 
ATOM     83  C   UNL A   1      43.701  23.446  29.838  1.00  0.00     0.022 A 
BRANCH  80  84
ATOM     84  S   UNL A   1      42.390  23.302  27.382  1.00  0.00     0.124 S 
ATOM     85  O   UNL A   1      41.158  22.853  28.021  1.00  0.00    -0.237 OA
ATOM     86  O   UNL A   1      42.250  24.364  26.391  1.00  0.00    -0.237 OA
ATOM     87  O   UNL A   1      43.334  22.244  27.030  1.00  0.00    -0.744 OA
ENDBRANCH  80  84
ENDBRANCH  53  77
BRANCH  65  88
ATOM     88  C   UNL A   1      48.685  31.140  28.801  1.00  0.00     0.023 A 
ATOM     89  C   UNL A   1      49.618  30.920  29.828  1.00  0.00     0.031 A 
ATOM     90  C   UNL A   1      49.173  31.293  27.490  1.00  0.00     0.131 A 
ATOM     91  C   UNL A   1      50.992  30.935  29.541  1.00  0.00     0.055 A 
ATOM     92  C   UNL A   1      50.535  31.227  27.198  1.00  0.00     0.041 A 
ATOM     93  F   UNL A   1      48.330  31.508  26.466  1.00  0.00    -0.206 F 
ATOM     94  C   UNL A   1      51.455  31.066  28.229  1.00  0.00     0.022 A 
BRANCH  91  95
ATOM     95  S   UNL A   1      52.170  30.911  30.920  1.00  0.00     0.124 S 
ATOM     96  O   UNL A   1      53.318  31.612  30.349  1.00  0.00    -0.237 OA
ATOM     97  O   UNL A   1      51.443  31.624  31.964  1.00  0.00    -0.237 OA
ATOM     98  O   UNL A   1      52.376  29.486  31.171  1.00  0.00    -0.744 OA
ENDBRANCH  91  95
ENDBRANCH  65  88
ENDBRANCH  39  40
ENDBRANCH  32  34
ENDBRANCH  31  32
ENDBRANCH  30  31
ENDBRANCH  29  30
ENDBRANCH  28  29
ENDBRANCH  27  28
ENDBRANCH  26  27
ENDBRANCH  25  26
ENDBRANCH   1  25
TORSDOF 29
ENDMDL
MODEL 2
REMARK VINA RESULT:      -8.1      3.217      8.340
REMARK SMILES CC(C)(C)[C@H](CCC(=O)OCCOCCOCCOCCOC(=O)c1ccc(-c2c3nc(c(-c4cc(S(=O)(=O)[O-])ccc4F)c4ccc([nH]4)c(-c4cc(S(=O)(=O)[O-])ccc4F)c4nc(c(-c5cc(S(=O)(=O)[O-])ccc5F)c5ccc2[nH]5)C=C4)C=C3)cc1)CC[NH+]1CCOCC1
REMARK SMILES IDX 15 1 14 2 13 3 12 4 11 5 10 6 8 7 9 8 7 9 6 10 5 11 2 12
REMARK SMILES IDX 1 13 3 14 4 15 88 16 89 17 90 18 91 19 95 20 92 22 94 23
REMARK SMILES IDX 93 24 16 25 17 26 18 27 19 28 20 29 21 30 22 31 23 32 24 33
REMARK SMILES IDX 25 34 26 35 87 36 27 37 86 38 28 39 29 40 30 41 80 42 31 43
REMARK SMILES IDX 85 44 79 45 81 46 32 47 84 48 78 49 77 50 33 52 65 53 45 54
REMARK SMILES IDX 64 55 46 56 49 57 63 58 82 59 47 60 48 61 62 63 83 64 50 65
REMARK SMILES IDX 34 66 35 67 43 68 36 69 42 70 44 71 41 72 37 73 38 74 39 75
REMARK SMILES IDX 40 76 66 77 67 78 75 79 68 80 74 81 76 82 73 83 69 84 70 85
REMARK SMILES IDX 71 86 72 87 51 88 52 89 60 90 53 91 59 92 61 93 58 94 54 95
REMARK SMILES IDX 55 96 56 97 57 98
REMARK H PARENT 90 21 81 51 49 62
REMARK Flexibility Score: inf
ROOT
ATOM      1  C   UNL A   1      34.021  34.464  29.932  1.00  0.00     0.188 C 
ENDROOT
BRANCH   1   2
ATOM      2  C   UNL A   1      33.340  34.367  28.558  1.00  0.00     0.188 C 
BRANCH   2   3
ATOM      3  O   UNL A   1      33.546  33.169  27.814  1.00  0.00    -0.376 OA
BRANCH   3   4
ATOM      4  C   UNL A   1      34.044  32.027  28.521  1.00  0.00     0.202 C 
BRANCH   4   5
ATOM      5  C   UNL A   1      34.812  30.960  27.721  1.00  0.00     0.261 C 
BRANCH   5   6
ATOM      6  O   UNL A   1      34.061  30.279  26.689  1.00  0.00    -0.463 OA
BRANCH   6   7
ATOM      7  C   UNL A   1      32.886  29.721  27.074  1.00  0.00     0.305 C 
ATOM      8  O   UNL A   1      31.827  30.334  27.179  1.00  0.00    -0.252 OA
BRANCH   7   9
ATOM      9  C   UNL A   1      32.946  28.214  27.255  1.00  0.00     0.123 C 
BRANCH   9  10
ATOM     10  C   UNL A   1      32.544  27.199  26.154  1.00  0.00     0.016 C 
BRANCH  10  11
ATOM     11  C   UNL A   1      31.093  27.143  25.612  1.00  0.00     0.000 C 
BRANCH  11  12
ATOM     12  C   UNL A   1      30.890  27.703  24.131  1.00  0.00    -0.035 C 
ATOM     13  C   UNL A   1      30.734  29.235  24.090  1.00  0.00     0.011 C 
ATOM     14  C   UNL A   1      29.677  27.130  23.377  1.00  0.00     0.011 C 
ATOM     15  C   UNL A   1      32.140  27.306  23.307  1.00  0.00     0.011 C 
ENDBRANCH  11  12
BRANCH  11  16
ATOM     16  C   UNL A   1      30.465  25.690  25.748  1.00  0.00     0.065 C 
BRANCH  16  17
ATOM     17  C   UNL A   1      31.086  24.361  25.231  1.00  0.00     0.262 C 
BRANCH  17  18
ATOM     18  N   UNL A   1      31.519  23.216  26.034  1.00  0.00    -0.331 N 
ATOM     19  C   UNL A   1      32.584  23.425  27.028  1.00  0.00     0.291 C 
ATOM     20  C   UNL A   1      31.841  22.034  25.243  1.00  0.00     0.291 C 
ATOM     21  H   UNL A   1      30.669  23.066  26.578  1.00  0.00     0.348 HD
ATOM     22  C   UNL A   1      34.007  23.431  26.444  1.00  0.00     0.221 C 
ATOM     23  C   UNL A   1      33.190  22.208  24.592  1.00  0.00     0.221 C 
ATOM     24  O   UNL A   1      34.239  22.328  25.553  1.00  0.00    -0.370 OA
ENDBRANCH  17  18
ENDBRANCH  16  17
ENDBRANCH  11  16
ENDBRANCH  10  11
ENDBRANCH   9  10
ENDBRANCH   7   9
ENDBRANCH   6   7
ENDBRANCH   5   6
ENDBRANCH   4   5
ENDBRANCH   3   4
ENDBRANCH   2   3
ENDBRANCH   1   2
BRANCH   1  25
ATOM     25  O   UNL A   1      33.134  34.980  30.897  1.00  0.00    -0.377 OA
BRANCH  25  26
ATOM     26  C   UNL A   1      33.471  35.041  32.277  1.00  0.00     0.188 C 
BRANCH  26  27
ATOM     27  C   UNL A   1      34.012  33.797  32.963  1.00  0.00     0.188 C 
BRANCH  27  28
ATOM     28  O   UNL A   1      35.215  33.943  33.724  1.00  0.00    -0.376 OA
BRANCH  28  29
ATOM     29  C   UNL A   1      36.332  33.099  33.452  1.00  0.00     0.202 C 
BRANCH  29  30
ATOM     30  C   UNL A   1      36.819  33.062  32.005  1.00  0.00     0.261 C 
BRANCH  30  31
ATOM     31  O   UNL A   1      36.494  31.809  31.382  1.00  0.00    -0.460 OA
BRANCH  31  32
ATOM     32  C   UNL A   1      37.208  30.753  31.821  1.00  0.00     0.338 C 
ATOM     33  O   UNL A   1      36.801  29.835  32.524  1.00  0.00    -0.246 OA
BRANCH  32  34
ATOM     34  C   UNL A   1      38.556  30.771  31.238  1.00  0.00     0.060 A 
ATOM     35  C   UNL A   1      39.642  30.890  32.111  1.00  0.00     0.016 A 
ATOM     36  C   UNL A   1      38.744  30.808  29.852  1.00  0.00     0.016 A 
ATOM     37  C   UNL A   1      40.909  31.156  31.604  1.00  0.00     0.010 A 
ATOM     38  C   UNL A   1      40.019  31.066  29.343  1.00  0.00     0.010 A 
ATOM     39  C   UNL A   1      41.088  31.315  30.223  1.00  0.00    -0.014 A 
BRANCH  39  40
ATOM     40  C   UNL A   1      42.315  31.992  29.738  1.00  0.00     0.031 A 
ATOM     41  C   UNL A   1      43.465  31.133  29.277  1.00  0.00     0.074 A 
ATOM     42  C   UNL A   1      42.378  33.331  29.638  1.00  0.00     0.049 A 
ATOM     43  N   UNL A   1      44.626  31.484  28.787  1.00  0.00    -0.248 NA
ATOM     44  C   UNL A   1      43.279  29.677  29.386  1.00  0.00     0.031 C 
ATOM     45  C   UNL A   1      41.304  34.254  29.998  1.00  0.00     0.029 A 
ATOM     46  N   UNL A   1      43.387  34.143  29.189  1.00  0.00    -0.354 N 
ATOM     47  C   UNL A   1      45.309  30.297  28.541  1.00  0.00     0.074 A 
ATOM     48  C   UNL A   1      44.450  29.219  28.979  1.00  0.00     0.031 C 
ATOM     49  C   UNL A   1      41.709  35.511  29.745  1.00  0.00     0.029 A 
ATOM     50  C   UNL A   1      43.081  35.482  29.242  1.00  0.00     0.049 A 
ATOM     51  H   UNL A   1      44.249  33.800  28.859  1.00  0.00     0.167 HD
ATOM     52  C   UNL A   1      46.534  30.122  27.987  1.00  0.00     0.034 A 
ATOM     53  C   UNL A   1      43.832  36.558  28.928  1.00  0.00     0.034 A 
ATOM     54  C   UNL A   1      47.377  31.211  27.560  1.00  0.00     0.049 A 
ATOM     55  C   UNL A   1      45.230  36.340  28.396  1.00  0.00     0.074 A 
ATOM     56  C   UNL A   1      48.627  31.154  26.970  1.00  0.00     0.029 A 
ATOM     57  N   UNL A   1      47.062  32.558  27.692  1.00  0.00    -0.354 N 
ATOM     58  N   UNL A   1      45.860  35.212  28.153  1.00  0.00    -0.248 NA
ATOM     59  C   UNL A   1      46.010  37.544  28.083  1.00  0.00     0.031 C 
ATOM     60  C   UNL A   1      49.105  32.462  26.830  1.00  0.00     0.029 A 
ATOM     61  C   UNL A   1      48.112  33.340  27.237  1.00  0.00     0.049 A 
ATOM     62  H   UNL A   1      46.216  32.907  28.057  1.00  0.00     0.167 HD
ATOM     63  C   UNL A   1      47.095  35.574  27.616  1.00  0.00     0.074 A 
ATOM     64  C   UNL A   1      47.111  37.022  27.561  1.00  0.00     0.031 C 
ATOM     65  C   UNL A   1      48.118  34.785  27.196  1.00  0.00     0.034 A 
BRANCH  52  66
ATOM     66  C   UNL A   1      47.054  28.705  27.880  1.00  0.00     0.023 A 
ATOM     67  C   UNL A   1      46.770  27.884  26.773  1.00  0.00     0.031 A 
ATOM     68  C   UNL A   1      47.811  28.152  28.928  1.00  0.00     0.131 A 
ATOM     69  C   UNL A   1      47.171  26.539  26.777  1.00  0.00     0.055 A 
ATOM     70  C   UNL A   1      48.283  26.838  28.885  1.00  0.00     0.041 A 
ATOM     71  F   UNL A   1      48.091  28.873  30.024  1.00  0.00    -0.206 F 
ATOM     72  C   UNL A   1      47.949  26.018  27.813  1.00  0.00     0.022 A 
BRANCH  69  73
ATOM     73  S   UNL A   1      46.520  25.434  25.493  1.00  0.00     0.124 S 
ATOM     74  O   UNL A   1      46.350  24.187  26.236  1.00  0.00    -0.237 OA
ATOM     75  O   UNL A   1      45.294  26.109  25.087  1.00  0.00    -0.237 OA
ATOM     76  O   UNL A   1      47.582  25.411  24.489  1.00  0.00    -0.744 OA
ENDBRANCH  69  73
ENDBRANCH  52  66
BRANCH  53  77
ATOM     77  C   UNL A   1      43.299  37.938  29.120  1.00  0.00     0.023 A 
ATOM     78  C   UNL A   1      43.533  38.647  30.309  1.00  0.00     0.031 A 
ATOM     79  C   UNL A   1      42.493  38.545  28.141  1.00  0.00     0.131 A 
ATOM     80  C   UNL A   1      42.926  39.896  30.510  1.00  0.00     0.055 A 
ATOM     81  C   UNL A   1      41.939  39.813  28.321  1.00  0.00     0.041 A 
ATOM     82  F   UNL A   1      42.234  37.911  26.986  1.00  0.00    -0.206 F 
ATOM     83  C   UNL A   1      42.143  40.491  29.518  1.00  0.00     0.022 A 
BRANCH  80  84
ATOM     84  S   UNL A   1      43.092  40.692  32.132  1.00  0.00     0.124 S 
ATOM     85  O   UNL A   1      43.116  39.539  33.026  1.00  0.00    -0.237 OA
ATOM     86  O   UNL A   1      44.350  41.417  31.985  1.00  0.00    -0.237 OA
ATOM     87  O   UNL A   1      41.899  41.529  32.223  1.00  0.00    -0.744 OA
ENDBRANCH  80  84
ENDBRANCH  53  77
BRANCH  65  88
ATOM     88  C   UNL A   1      49.317  35.477  26.586  1.00  0.00     0.023 A 
ATOM     89  C   UNL A   1      50.329  36.051  27.374  1.00  0.00     0.031 A 
ATOM     90  C   UNL A   1      49.434  35.583  25.187  1.00  0.00     0.131 A 
ATOM     91  C   UNL A   1      51.370  36.769  26.765  1.00  0.00     0.055 A 
ATOM     92  C   UNL A   1      50.512  36.229  24.584  1.00  0.00     0.041 A 
ATOM     93  F   UNL A   1      48.496  35.057  24.381  1.00  0.00    -0.206 F 
ATOM     94  C   UNL A   1      51.478  36.843  25.374  1.00  0.00     0.022 A 
BRANCH  91  95
ATOM     95  S   UNL A   1      52.507  37.714  27.815  1.00  0.00     0.124 S 
ATOM     96  O   UNL A   1      51.943  37.497  29.144  1.00  0.00    -0.237 OA
ATOM     97  O   UNL A   1      53.787  37.063  27.552  1.00  0.00    -0.237 OA
ATOM     98  O   UNL A   1      52.390  39.079  27.306  1.00  0.00    -0.744 OA
ENDBRANCH  91  95
ENDBRANCH  65  88
ENDBRANCH  39  40
ENDBRANCH  32  34
ENDBRANCH  31  32
ENDBRANCH  30  31
ENDBRANCH  29  30
ENDBRANCH  28  29
ENDBRANCH  27  28
ENDBRANCH  26  27
ENDBRANCH  25  26
ENDBRANCH   1  25
TORSDOF 29
ENDMDL
MODEL 3
REMARK VINA RESULT:      -7.7      5.394     10.662
REMARK SMILES CC(C)(C)[C@H](CCC(=O)OCCOCCOCCOCCOC(=O)c1ccc(-c2c3nc(c(-c4cc(S(=O)(=O)[O-])ccc4F)c4ccc([nH]4)c(-c4cc(S(=O)(=O)[O-])ccc4F)c4nc(c(-c5cc(S(=O)(=O)[O-])ccc5F)c5ccc2[nH]5)C=C4)C=C3)cc1)CC[NH+]1CCOCC1
REMARK SMILES IDX 15 1 14 2 13 3 12 4 11 5 10 6 8 7 9 8 7 9 6 10 5 11 2 12
REMARK SMILES IDX 1 13 3 14 4 15 88 16 89 17 90 18 91 19 95 20 92 22 94 23
REMARK SMILES IDX 93 24 16 25 17 26 18 27 19 28 20 29 21 30 22 31 23 32 24 33
REMARK SMILES IDX 25 34 26 35 87 36 27 37 86 38 28 39 29 40 30 41 80 42 31 43
REMARK SMILES IDX 85 44 79 45 81 46 32 47 84 48 78 49 77 50 33 52 65 53 45 54
REMARK SMILES IDX 64 55 46 56 49 57 63 58 82 59 47 60 48 61 62 63 83 64 50 65
REMARK SMILES IDX 34 66 35 67 43 68 36 69 42 70 44 71 41 72 37 73 38 74 39 75
REMARK SMILES IDX 40 76 66 77 67 78 75 79 68 80 74 81 76 82 73 83 69 84 70 85
REMARK SMILES IDX 71 86 72 87 51 88 52 89 60 90 53 91 59 92 61 93 58 94 54 95
REMARK SMILES IDX 55 96 56 97 57 98
REMARK H PARENT 90 21 81 51 49 62
REMARK Flexibility Score: inf
ROOT
ATOM      1  C   UNL A   1      33.707  26.061  25.746  1.00  0.00     0.188 C 
ENDROOT
BRANCH   1   2
ATOM      2  C   UNL A   1      33.152  27.428  25.314  1.00  0.00     0.188 C 
BRANCH   2   3
ATOM      3  O   UNL A   1      33.988  28.564  25.522  1.00  0.00    -0.376 OA
BRANCH   3   4
ATOM      4  C   UNL A   1      33.922  29.210  26.799  1.00  0.00     0.202 C 
BRANCH   4   5
ATOM      5  C   UNL A   1      35.214  29.299  27.630  1.00  0.00     0.261 C 
BRANCH   5   6
ATOM      6  O   UNL A   1      36.057  30.446  27.371  1.00  0.00    -0.463 OA
BRANCH   6   7
ATOM      7  C   UNL A   1      35.748  31.579  28.049  1.00  0.00     0.305 C 
ATOM      8  O   UNL A   1      35.376  32.624  27.522  1.00  0.00    -0.252 OA
BRANCH   7   9
ATOM      9  C   UNL A   1      35.779  31.425  29.560  1.00  0.00     0.123 C 
BRANCH   9  10
ATOM     10  C   UNL A   1      37.065  31.117  30.368  1.00  0.00     0.016 C 
BRANCH  10  11
ATOM     11  C   UNL A   1      37.170  29.844  31.248  1.00  0.00     0.000 C 
BRANCH  11  12
ATOM     12  C   UNL A   1      38.437  28.916  30.968  1.00  0.00    -0.035 C 
ATOM     13  C   UNL A   1      38.409  27.608  31.781  1.00  0.00     0.011 C 
ATOM     14  C   UNL A   1      39.801  29.569  31.257  1.00  0.00     0.011 C 
ATOM     15  C   UNL A   1      38.435  28.566  29.459  1.00  0.00     0.011 C 
ENDBRANCH  11  12
BRANCH  11  16
ATOM     16  C   UNL A   1      37.060  30.184  32.796  1.00  0.00     0.065 C 
BRANCH  16  17
ATOM     17  C   UNL A   1      37.187  31.591  33.446  1.00  0.00     0.262 C 
BRANCH  17  18
ATOM     18  N   UNL A   1      37.628  31.900  34.808  1.00  0.00    -0.331 N 
ATOM     19  C   UNL A   1      38.394  33.138  35.028  1.00  0.00     0.291 C 
ATOM     20  C   UNL A   1      38.319  30.797  35.464  1.00  0.00     0.291 C 
ATOM     21  H   UNL A   1      36.718  32.066  35.241  1.00  0.00     0.348 HD
ATOM     22  C   UNL A   1      39.886  33.034  34.671  1.00  0.00     0.221 C 
ATOM     23  C   UNL A   1      39.726  30.688  34.932  1.00  0.00     0.221 C 
ATOM     24  O   UNL A   1      40.499  31.855  35.216  1.00  0.00    -0.370 OA
ENDBRANCH  17  18
ENDBRANCH  16  17
ENDBRANCH  11  16
ENDBRANCH  10  11
ENDBRANCH   9  10
ENDBRANCH   7   9
ENDBRANCH   6   7
ENDBRANCH   5   6
ENDBRANCH   4   5
ENDBRANCH   3   4
ENDBRANCH   2   3
ENDBRANCH   1   2
BRANCH   1  25
ATOM     25  O   UNL A   1      33.435  25.078  24.774  1.00  0.00    -0.377 OA
BRANCH  25  26
ATOM     26  C   UNL A   1      33.640  23.694  25.023  1.00  0.00     0.188 C 
BRANCH  26  27
ATOM     27  C   UNL A   1      34.748  23.267  25.972  1.00  0.00     0.188 C 
BRANCH  27  28
ATOM     28  O   UNL A   1      35.595  22.195  25.546  1.00  0.00    -0.376 OA
BRANCH  28  29
ATOM     29  C   UNL A   1      36.954  22.460  25.204  1.00  0.00     0.202 C 
BRANCH  29  30
ATOM     30  C   UNL A   1      37.962  21.358  25.527  1.00  0.00     0.261 C 
BRANCH  30  31
ATOM     31  O   UNL A   1      39.120  21.896  26.187  1.00  0.00    -0.460 OA
BRANCH  31  32
ATOM     32  C   UNL A   1      40.214  21.111  26.148  1.00  0.00     0.338 C 
ATOM     33  O   UNL A   1      40.238  19.894  25.996  1.00  0.00    -0.246 OA
BRANCH  32  34
ATOM     34  C   UNL A   1      41.432  21.931  26.194  1.00  0.00     0.060 A 
ATOM     35  C   UNL A   1      42.647  21.279  26.424  1.00  0.00     0.016 A 
ATOM     36  C   UNL A   1      41.366  23.327  26.146  1.00  0.00     0.016 A 
ATOM     37  C   UNL A   1      43.784  22.024  26.717  1.00  0.00     0.010 A 
ATOM     38  C   UNL A   1      42.510  24.074  26.433  1.00  0.00     0.010 A 
ATOM     39  C   UNL A   1      43.702  23.421  26.793  1.00  0.00    -0.014 A 
BRANCH  39  40
ATOM     40  C   UNL A   1      44.779  24.160  27.495  1.00  0.00     0.031 A 
ATOM     41  C   UNL A   1      44.684  24.301  28.993  1.00  0.00     0.074 A 
ATOM     42  C   UNL A   1      45.851  24.625  26.831  1.00  0.00     0.049 A 
ATOM     43  N   UNL A   1      45.508  24.874  29.832  1.00  0.00    -0.248 NA
ATOM     44  C   UNL A   1      43.492  23.717  29.631  1.00  0.00     0.031 C 
ATOM     45  C   UNL A   1      46.075  24.491  25.393  1.00  0.00     0.029 A 
ATOM     46  N   UNL A   1      46.958  25.293  27.285  1.00  0.00    -0.354 N 
ATOM     47  C   UNL A   1      44.931  24.728  31.090  1.00  0.00     0.074 A 
ATOM     48  C   UNL A   1      43.666  24.054  30.897  1.00  0.00     0.031 C 
ATOM     49  C   UNL A   1      47.256  25.053  25.084  1.00  0.00     0.029 A 
ATOM     50  C   UNL A   1      47.852  25.617  26.294  1.00  0.00     0.049 A 
ATOM     51  H   UNL A   1      47.100  25.520  28.233  1.00  0.00     0.167 HD
ATOM     52  C   UNL A   1      45.418  25.108  32.297  1.00  0.00     0.034 A 
ATOM     53  C   UNL A   1      49.013  26.300  26.359  1.00  0.00     0.034 A 
ATOM     54  C   UNL A   1      46.681  25.783  32.468  1.00  0.00     0.049 A 
ATOM     55  C   UNL A   1      49.493  26.794  27.705  1.00  0.00     0.074 A 
ATOM     56  C   UNL A   1      47.284  26.199  33.641  1.00  0.00     0.029 A 
ATOM     57  N   UNL A   1      47.529  26.155  31.432  1.00  0.00    -0.354 N 
ATOM     58  N   UNL A   1      48.947  26.637  28.890  1.00  0.00    -0.248 NA
ATOM     59  C   UNL A   1      50.755  27.543  27.720  1.00  0.00     0.031 C 
ATOM     60  C   UNL A   1      48.449  26.901  33.309  1.00  0.00     0.029 A 
ATOM     61  C   UNL A   1      48.627  26.835  31.935  1.00  0.00     0.049 A 
ATOM     62  H   UNL A   1      47.372  25.964  30.478  1.00  0.00     0.167 HD
ATOM     63  C   UNL A   1      49.825  27.231  29.796  1.00  0.00     0.074 A 
ATOM     64  C   UNL A   1      50.938  27.736  29.018  1.00  0.00     0.031 C 
ATOM     65  C   UNL A   1      49.727  27.342  31.146  1.00  0.00     0.034 A 
BRANCH  52  66
ATOM     66  C   UNL A   1      44.547  24.862  33.509  1.00  0.00     0.023 A 
ATOM     67  C   UNL A   1      43.595  25.799  33.951  1.00  0.00     0.031 A 
ATOM     68  C   UNL A   1      44.705  23.684  34.261  1.00  0.00     0.131 A 
ATOM     69  C   UNL A   1      42.899  25.578  35.150  1.00  0.00     0.055 A 
ATOM     70  C   UNL A   1      43.944  23.430  35.405  1.00  0.00     0.041 A 
ATOM     71  F   UNL A   1      45.616  22.764  33.909  1.00  0.00    -0.206 F 
ATOM     72  C   UNL A   1      43.047  24.388  35.865  1.00  0.00     0.022 A 
BRANCH  69  73
ATOM     73  S   UNL A   1      41.924  26.938  35.852  1.00  0.00     0.124 S 
ATOM     74  O   UNL A   1      41.054  26.225  36.785  1.00  0.00    -0.237 OA
ATOM     75  O   UNL A   1      42.948  27.784  36.452  1.00  0.00    -0.237 OA
ATOM     76  O   UNL A   1      41.244  27.508  34.691  1.00  0.00    -0.744 OA
ENDBRANCH  69  73
ENDBRANCH  52  66
BRANCH  53  77
ATOM     77  C   UNL A   1      49.800  26.580  25.123  1.00  0.00     0.023 A 
ATOM     78  C   UNL A   1      49.235  27.280  24.046  1.00  0.00     0.031 A 
ATOM     79  C   UNL A   1      51.113  26.097  24.976  1.00  0.00     0.131 A 
ATOM     80  C   UNL A   1      49.957  27.430  22.852  1.00  0.00     0.055 A 
ATOM     81  C   UNL A   1      51.850  26.300  23.808  1.00  0.00     0.041 A 
ATOM     82  F   UNL A   1      51.703  25.418  25.973  1.00  0.00    -0.206 F 
ATOM     83  C   UNL A   1      51.266  26.959  22.731  1.00  0.00     0.022 A 
BRANCH  80  84
ATOM     84  S   UNL A   1      49.123  28.166  21.418  1.00  0.00     0.124 S 
ATOM     85  O   UNL A   1      47.755  28.295  21.906  1.00  0.00    -0.237 OA
ATOM     86  O   UNL A   1      49.863  29.412  21.245  1.00  0.00    -0.237 OA
ATOM     87  O   UNL A   1      49.321  27.174  20.364  1.00  0.00    -0.744 OA
ENDBRANCH  80  84
ENDBRANCH  53  77
BRANCH  65  88
ATOM     88  C   UNL A   1      50.888  27.985  31.872  1.00  0.00     0.023 A 
ATOM     89  C   UNL A   1      50.950  29.370  32.101  1.00  0.00     0.031 A 
ATOM     90  C   UNL A   1      51.965  27.196  32.318  1.00  0.00     0.131 A 
ATOM     91  C   UNL A   1      52.093  29.933  32.689  1.00  0.00     0.055 A 
ATOM     92  C   UNL A   1      53.064  27.751  32.972  1.00  0.00     0.041 A 
ATOM     93  F   UNL A   1      51.966  25.867  32.124  1.00  0.00    -0.206 F 
ATOM     94  C   UNL A   1      53.142  29.129  33.145  1.00  0.00     0.022 A 
BRANCH  91  95
ATOM     95  S   UNL A   1      52.251  31.739  32.732  1.00  0.00     0.124 S 
ATOM     96  O   UNL A   1      52.927  32.014  31.467  1.00  0.00    -0.237 OA
ATOM     97  O   UNL A   1      50.860  32.172  32.819  1.00  0.00    -0.237 OA
ATOM     98  O   UNL A   1      53.053  31.986  33.929  1.00  0.00    -0.744 OA
ENDBRANCH  91  95
ENDBRANCH  65  88
ENDBRANCH  39  40
ENDBRANCH  32  34
ENDBRANCH  31  32
ENDBRANCH  30  31
ENDBRANCH  29  30
ENDBRANCH  28  29
ENDBRANCH  27  28
ENDBRANCH  26  27
ENDBRANCH  25  26
ENDBRANCH   1  25
TORSDOF 29
ENDMDL
