MODEL 1
REMARK VINA RESULT:      -9.5      0.000      0.000
REMARK SMILES Cc1ccccc1/C=C1\SC(=O)N(CC(=O)Nc2ccccc2C(=O)OCCOCCOCCOCCOC(=O)c2ccc(-c3c4nc(c(-c5cc(S(=O)(=O)[O-])ccc5F)c5ccc([nH]5)c(-c5cc(S(=O)(=O)[O-])ccc5F)c5nc(c(-c6cc(S(=O)(=O)[O-])ccc6F)c6ccc3[nH]6)C=C5)C=C4)cc2)C1=O
REMARK SMILES IDX 31 1 30 2 29 3 28 4 27 5 26 6 24 7 25 8 23 9 18 10 19 11
REMARK SMILES IDX 20 12 22 13 21 14 17 15 15 16 16 17 14 19 13 20 8 21 9 22
REMARK SMILES IDX 10 23 104 24 11 25 105 26 12 27 7 28 1 29 2 30 3 31 4 32
REMARK SMILES IDX 6 33 5 34 32 35 33 36 34 37 35 38 36 39 37 40 38 41 39 42
REMARK SMILES IDX 40 43 41 44 42 45 103 46 43 47 102 48 44 49 45 50 46 51
REMARK SMILES IDX 96 52 47 53 101 54 95 55 97 56 48 57 100 58 94 59 93 60
REMARK SMILES IDX 49 62 81 63 61 64 80 65 62 66 65 67 79 68 98 69 63 70 64 71
REMARK SMILES IDX 78 73 99 74 66 75 50 76 51 77 59 78 52 79 58 80 60 81 57 82
REMARK SMILES IDX 53 83 54 84 55 85 56 86 82 87 83 88 91 89 84 90 90 91 92 92
REMARK SMILES IDX 89 93 85 94 86 95 87 96 88 97 67 98 68 99 76 100 69 101
REMARK SMILES IDX 75 102 77 103 74 104 70 105 71 106 72 107 73 108
REMARK H PARENT 17 18 97 61 65 72
REMARK Flexibility Score: inf
ROOT
ATOM      1  C   UNL A   1      46.117  37.483  27.136  1.00  0.00     0.188 C 
ENDROOT
BRANCH   1   2
ATOM      2  C   UNL A   1      45.792  35.868  27.523  1.00  0.00     0.188 C 
BRANCH   2   3
ATOM      3  O   UNL A   1      44.672  34.538  27.055  1.00  0.00    -0.376 OA
BRANCH   3   4
ATOM      4  C   UNL A   1      44.860  32.727  26.974  1.00  0.00     0.202 C 
BRANCH   4   5
ATOM      5  C   UNL A   1      43.681  31.365  26.208  1.00  0.00     0.261 C 
BRANCH   5   6
ATOM      6  O   UNL A   1      42.889  29.662  26.193  1.00  0.00    -0.460 OA
BRANCH   6   7
ATOM      7  C   UNL A   1      42.297  28.152  25.767  1.00  0.00     0.340 C 
ATOM      8  O   UNL A   1      42.475  27.665  24.634  1.00  0.00    -0.246 OA
BRANCH   7   9
ATOM      9  C   UNL A   1      41.333  26.943  26.480  1.00  0.00     0.083 A 
ATOM     10  C   UNL A   1      41.244  25.465  26.467  1.00  0.00     0.055 A 
ATOM     11  C   UNL A   1      40.371  24.805  27.375  1.00  0.00     0.027 A 
ATOM     12  C   UNL A   1      39.498  25.499  28.193  1.00  0.00     0.002 A 
ATOM     13  C   UNL A   1      40.283  27.557  27.195  1.00  0.00     0.018 A 
ATOM     14  C   UNL A   1      39.415  26.870  28.059  1.00  0.00     0.001 A 
BRANCH  10  15
ATOM     15  N   UNL A   1      41.899  24.503  25.582  1.00  0.00    -0.324 N 
ATOM     16  C   UNL A   1      42.245  23.169  25.981  1.00  0.00     0.244 C 
ATOM     17  O   UNL A   1      41.496  22.206  25.808  1.00  0.00    -0.273 OA
ATOM     18  H   UNL A   1      42.113  24.785  24.663  1.00  0.00     0.170 HD
BRANCH  16  19
ATOM     19  C   UNL A   1      43.635  22.959  26.640  1.00  0.00     0.230 C 
BRANCH  19  20
ATOM     20  N   UNL A   1      44.538  23.437  25.656  1.00  0.00    -0.259 N 
ATOM     21  C   UNL A   1      47.856  25.871  24.328  1.00  0.00     0.029 C 
ATOM     22  C   UNL A   1      46.824  24.765  24.974  1.00  0.00     0.083 C 
ATOM     23  S   UNL A   1      46.407  23.057  24.320  1.00  0.00    -0.022 SA
ATOM     24  C   UNL A   1      45.312  24.595  25.896  1.00  0.00     0.268 C 
ATOM     25  C   UNL A   1      45.001  22.454  24.904  1.00  0.00     0.294 C 
ATOM     26  O   UNL A   1      44.811  25.295  26.770  1.00  0.00    -0.268 OA
ATOM     27  O   UNL A   1      44.635  21.300  24.798  1.00  0.00    -0.261 OA
BRANCH  21  28
ATOM     28  C   UNL A   1      49.228  26.656  23.304  1.00  0.00    -0.021 A 
ATOM     29  C   UNL A   1      51.769  26.666  24.238  1.00  0.00     0.045 C 
ATOM     30  C   UNL A   1      50.529  27.313  23.588  1.00  0.00    -0.044 A 
ATOM     31  C   UNL A   1      51.083  28.404  22.826  1.00  0.00     0.004 A 
ATOM     32  C   UNL A   1      50.661  28.650  21.560  1.00  0.00     0.000 A 
ATOM     33  C   UNL A   1      49.135  26.731  21.897  1.00  0.00     0.008 A 
ATOM     34  C   UNL A   1      49.803  27.703  21.062  1.00  0.00     0.001 A 
ENDBRANCH  21  28
ENDBRANCH  19  20
ENDBRANCH  16  19
ENDBRANCH  10  15
ENDBRANCH   7   9
ENDBRANCH   6   7
ENDBRANCH   5   6
ENDBRANCH   4   5
ENDBRANCH   3   4
ENDBRANCH   2   3
ENDBRANCH   1   2
BRANCH   1  35
ATOM     35  O   UNL A   1      46.028  38.331  25.986  1.00  0.00    -0.377 OA
BRANCH  35  36
ATOM     36  C   UNL A   1      47.063  38.995  25.259  1.00  0.00     0.188 C 
BRANCH  36  37
ATOM     37  C   UNL A   1      46.887  40.462  25.057  1.00  0.00     0.188 C 
BRANCH  37  38
ATOM     38  O   UNL A   1      46.797  40.640  23.658  1.00  0.00    -0.376 OA
BRANCH  38  39
ATOM     39  C   UNL A   1      46.338  41.909  23.265  1.00  0.00     0.202 C 
BRANCH  39  40
ATOM     40  C   UNL A   1      47.559  42.802  23.139  1.00  0.00     0.261 C 
BRANCH  40  41
ATOM     41  O   UNL A   1      47.697  43.574  24.367  1.00  0.00    -0.460 OA
BRANCH  41  42
ATOM     42  C   UNL A   1      46.659  44.434  24.649  1.00  0.00     0.338 C 
ATOM     43  O   UNL A   1      46.203  45.239  23.855  1.00  0.00    -0.246 OA
BRANCH  42  44
ATOM     44  C   UNL A   1      46.328  44.411  26.112  1.00  0.00     0.060 A 
ATOM     45  C   UNL A   1      47.155  44.992  27.086  1.00  0.00     0.016 A 
ATOM     46  C   UNL A   1      45.422  43.507  26.558  1.00  0.00     0.016 A 
ATOM     47  C   UNL A   1      47.443  44.315  28.324  1.00  0.00     0.010 A 
ATOM     48  C   UNL A   1      45.686  42.936  27.801  1.00  0.00     0.010 A 
ATOM     49  C   UNL A   1      46.932  43.044  28.603  1.00  0.00    -0.014 A 
BRANCH  49  50
ATOM     50  C   UNL A   1      47.749  41.754  29.715  1.00  0.00     0.031 A 
ATOM     51  C   UNL A   1      48.985  40.293  28.981  1.00  0.00     0.074 A 
ATOM     52  C   UNL A   1      46.981  41.901  30.981  1.00  0.00     0.049 A 
ATOM     53  N   UNL A   1      48.666  38.965  28.593  1.00  0.00    -0.248 NA
ATOM     54  C   UNL A   1      50.346  40.229  28.091  1.00  0.00     0.031 C 
ATOM     55  C   UNL A   1      47.301  41.739  32.442  1.00  0.00     0.029 A 
ATOM     56  N   UNL A   1      45.512  41.750  31.154  1.00  0.00    -0.354 N 
ATOM     57  C   UNL A   1      49.697  37.991  28.123  1.00  0.00     0.074 A 
ATOM     58  C   UNL A   1      50.594  38.985  27.603  1.00  0.00     0.031 C 
ATOM     59  C   UNL A   1      46.311  41.116  33.121  1.00  0.00     0.029 A 
ATOM     60  C   UNL A   1      45.265  40.751  32.200  1.00  0.00     0.049 A 
ATOM     61  H   UNL A   1      44.820  42.239  30.651  1.00  0.00     0.167 HD
ATOM     62  C   UNL A   1      49.950  36.532  28.391  1.00  0.00     0.034 A 
ATOM     63  C   UNL A   1      44.223  39.873  32.464  1.00  0.00     0.034 A 
ATOM     64  C   UNL A   1      49.332  35.700  29.709  1.00  0.00     0.049 A 
ATOM     65  C   UNL A   1      44.359  38.154  32.490  1.00  0.00     0.074 A 
ATOM     66  C   UNL A   1      49.832  35.386  31.002  1.00  0.00     0.029 A 
ATOM     67  N   UNL A   1      48.073  35.064  29.861  1.00  0.00    -0.354 N 
ATOM     68  N   UNL A   1      45.322  37.390  31.985  1.00  0.00    -0.248 NA
ATOM     69  C   UNL A   1      43.379  37.225  33.081  1.00  0.00     0.031 C 
ATOM     70  C   UNL A   1      48.751  35.203  31.932  1.00  0.00     0.029 A 
ATOM     71  C   UNL A   1      47.554  35.194  31.231  1.00  0.00     0.049 A 
ATOM     72  H   UNL A   1      47.604  34.591  29.136  1.00  0.00     0.167 HD
ATOM     73  C   UNL A   1      45.217  35.992  32.182  1.00  0.00     0.074 A 
ATOM     74  C   UNL A   1      43.920  35.989  32.884  1.00  0.00     0.031 C 
ATOM     75  C   UNL A   1      46.095  34.956  31.691  1.00  0.00     0.034 A 
BRANCH  62  76
ATOM     76  C   UNL A   1      51.291  35.827  27.905  1.00  0.00     0.023 A 
ATOM     77  C   UNL A   1      51.238  34.980  26.763  1.00  0.00     0.031 A 
ATOM     78  C   UNL A   1      52.555  35.860  28.512  1.00  0.00     0.131 A 
ATOM     79  C   UNL A   1      52.250  34.072  26.413  1.00  0.00     0.055 A 
ATOM     80  C   UNL A   1      53.600  34.978  28.143  1.00  0.00     0.041 A 
ATOM     81  F   UNL A   1      52.860  36.768  29.449  1.00  0.00    -0.206 F 
ATOM     82  C   UNL A   1      53.440  34.052  27.115  1.00  0.00     0.022 A 
BRANCH  79  83
ATOM     83  S   UNL A   1      51.937  32.899  25.057  1.00  0.00     0.124 S 
ATOM     84  O   UNL A   1      51.356  33.757  24.029  1.00  0.00    -0.237 OA
ATOM     85  O   UNL A   1      53.269  32.373  24.780  1.00  0.00    -0.237 OA
ATOM     86  O   UNL A   1      51.010  31.936  25.653  1.00  0.00    -0.744 OA
ENDBRANCH  79  83
ENDBRANCH  62  76
BRANCH  63  87
ATOM     87  C   UNL A   1      42.977  40.763  32.458  1.00  0.00     0.023 A 
ATOM     88  C   UNL A   1      43.067  41.878  33.355  1.00  0.00     0.031 A 
ATOM     89  C   UNL A   1      42.388  41.038  31.214  1.00  0.00     0.131 A 
ATOM     90  C   UNL A   1      42.945  43.201  32.861  1.00  0.00     0.055 A 
ATOM     91  C   UNL A   1      42.228  42.350  30.739  1.00  0.00     0.041 A 
ATOM     92  F   UNL A   1      42.108  40.052  30.366  1.00  0.00    -0.206 F 
ATOM     93  C   UNL A   1      42.569  43.436  31.538  1.00  0.00     0.022 A 
BRANCH  90  94
ATOM     94  S   UNL A   1      43.654  44.591  33.821  1.00  0.00     0.124 S 
ATOM     95  O   UNL A   1      44.581  45.181  32.864  1.00  0.00    -0.237 OA
ATOM     96  O   UNL A   1      42.475  45.385  34.149  1.00  0.00    -0.237 OA
ATOM     97  O   UNL A   1      44.267  43.924  34.970  1.00  0.00    -0.744 OA
ENDBRANCH  90  94
ENDBRANCH  63  87
BRANCH  75  98
ATOM     98  C   UNL A   1      45.615  33.496  31.341  1.00  0.00     0.023 A 
ATOM     99  C   UNL A   1      46.128  32.351  31.954  1.00  0.00     0.031 A 
ATOM    100  C   UNL A   1      44.387  33.274  30.638  1.00  0.00     0.131 A 
ATOM    101  C   UNL A   1      45.391  31.145  32.004  1.00  0.00     0.055 A 
ATOM    102  C   UNL A   1      43.624  32.103  30.747  1.00  0.00     0.041 A 
ATOM    103  F   UNL A   1      43.827  34.201  29.849  1.00  0.00    -0.206 F 
ATOM    104  C   UNL A   1      44.117  31.031  31.455  1.00  0.00     0.022 A 
BRANCH 101 105
ATOM    105  S   UNL A   1      46.112  29.737  32.879  1.00  0.00     0.124 S 
ATOM    106  O   UNL A   1      44.952  28.879  33.100  1.00  0.00    -0.237 OA
ATOM    107  O   UNL A   1      47.089  29.250  31.911  1.00  0.00    -0.237 OA
ATOM    108  O   UNL A   1      46.675  30.338  34.087  1.00  0.00    -0.744 OA
ENDBRANCH 101 105
ENDBRANCH  75  98
ENDBRANCH  49  50
ENDBRANCH  42  44
ENDBRANCH  41  42
ENDBRANCH  40  41
ENDBRANCH  39  40
ENDBRANCH  38  39
ENDBRANCH  37  38
ENDBRANCH  36  37
ENDBRANCH  35  36
ENDBRANCH   1  35
TORSDOF 27
ENDMDL
MODEL 2
REMARK VINA RESULT:      -9.2      1.628      4.601
REMARK SMILES Cc1ccccc1/C=C1\SC(=O)N(CC(=O)Nc2ccccc2C(=O)OCCOCCOCCOCCOC(=O)c2ccc(-c3c4nc(c(-c5cc(S(=O)(=O)[O-])ccc5F)c5ccc([nH]5)c(-c5cc(S(=O)(=O)[O-])ccc5F)c5nc(c(-c6cc(S(=O)(=O)[O-])ccc6F)c6ccc3[nH]6)C=C5)C=C4)cc2)C1=O
REMARK SMILES IDX 31 1 30 2 29 3 28 4 27 5 26 6 24 7 25 8 23 9 18 10 19 11
REMARK SMILES IDX 20 12 22 13 21 14 17 15 15 16 16 17 14 19 13 20 8 21 9 22
REMARK SMILES IDX 10 23 104 24 11 25 105 26 12 27 7 28 1 29 2 30 3 31 4 32
REMARK SMILES IDX 6 33 5 34 32 35 33 36 34 37 35 38 36 39 37 40 38 41 39 42
REMARK SMILES IDX 40 43 41 44 42 45 103 46 43 47 102 48 44 49 45 50 46 51
REMARK SMILES IDX 96 52 47 53 101 54 95 55 97 56 48 57 100 58 94 59 93 60
REMARK SMILES IDX 49 62 81 63 61 64 80 65 62 66 65 67 79 68 98 69 63 70 64 71
REMARK SMILES IDX 78 73 99 74 66 75 50 76 51 77 59 78 52 79 58 80 60 81 57 82
REMARK SMILES IDX 53 83 54 84 55 85 56 86 82 87 83 88 91 89 84 90 90 91 92 92
REMARK SMILES IDX 89 93 85 94 86 95 87 96 88 97 67 98 68 99 76 100 69 101
REMARK SMILES IDX 75 102 77 103 74 104 70 105 71 106 72 107 73 108
REMARK H PARENT 17 18 97 61 65 72
REMARK Flexibility Score: inf
ROOT
ATOM      1  C   UNL A   1      45.674  37.908  26.796  1.00  0.00     0.188 C 
ENDROOT
BRANCH   1   2
ATOM      2  C   UNL A   1      45.168  36.379  27.315  1.00  0.00     0.188 C 
BRANCH   2   3
ATOM      3  O   UNL A   1      43.895  35.156  26.961  1.00  0.00    -0.376 OA
BRANCH   3   4
ATOM      4  C   UNL A   1      43.903  33.589  26.031  1.00  0.00     0.202 C 
BRANCH   4   5
ATOM      5  C   UNL A   1      44.966  31.967  26.291  1.00  0.00     0.261 C 
BRANCH   5   6
ATOM      6  O   UNL A   1      45.264  30.121  26.113  1.00  0.00    -0.460 OA
BRANCH   6   7
ATOM      7  C   UNL A   1      45.416  28.470  26.367  1.00  0.00     0.340 C 
ATOM      8  O   UNL A   1      44.811  27.880  27.283  1.00  0.00    -0.246 OA
BRANCH   7   9
ATOM      9  C   UNL A   1      46.325  27.185  25.716  1.00  0.00     0.083 A 
ATOM     10  C   UNL A   1      46.212  25.714  25.597  1.00  0.00     0.055 A 
ATOM     11  C   UNL A   1      47.142  24.999  24.794  1.00  0.00     0.027 A 
ATOM     12  C   UNL A   1      48.236  25.613  24.212  1.00  0.00     0.002 A 
ATOM     13  C   UNL A   1      47.563  27.687  25.258  1.00  0.00     0.018 A 
ATOM     14  C   UNL A   1      48.476  26.943  24.494  1.00  0.00     0.001 A 
BRANCH  10  15
ATOM     15  N   UNL A   1      45.281  24.799  26.255  1.00  0.00    -0.324 N 
ATOM     16  C   UNL A   1      44.635  23.708  25.583  1.00  0.00     0.244 C 
ATOM     17  O   UNL A   1      45.105  22.569  25.557  1.00  0.00    -0.273 OA
ATOM     18  H   UNL A   1      45.088  24.937  27.211  1.00  0.00     0.170 HD
BRANCH  16  19
ATOM     19  C   UNL A   1      43.282  24.003  24.881  1.00  0.00     0.230 C 
BRANCH  19  20
ATOM     20  N   UNL A   1      42.532  24.668  25.887  1.00  0.00    -0.259 N 
ATOM     21  C   UNL A   1      40.012  27.871  27.328  1.00  0.00     0.029 C 
ATOM     22  C   UNL A   1      40.702  26.551  26.629  1.00  0.00     0.083 C 
ATOM     23  S   UNL A   1      40.608  24.765  27.194  1.00  0.00    -0.022 SA
ATOM     24  C   UNL A   1      42.121  26.008  25.705  1.00  0.00     0.268 C 
ATOM     25  C   UNL A   1      41.797  23.819  26.584  1.00  0.00     0.294 C 
ATOM     26  O   UNL A   1      42.815  26.579  24.871  1.00  0.00    -0.268 OA
ATOM     27  O   UNL A   1      41.820  22.606  26.630  1.00  0.00    -0.261 OA
BRANCH  21  28
ATOM     28  C   UNL A   1      38.899  28.960  28.387  1.00  0.00    -0.021 A 
ATOM     29  C   UNL A   1      39.993  30.827  30.014  1.00  0.00     0.045 C 
ATOM     30  C   UNL A   1      39.025  29.674  29.684  1.00  0.00    -0.044 A 
ATOM     31  C   UNL A   1      37.951  29.859  30.628  1.00  0.00     0.004 A 
ATOM     32  C   UNL A   1      36.656  29.754  30.234  1.00  0.00     0.000 A 
ATOM     33  C   UNL A   1      37.574  29.251  27.993  1.00  0.00     0.008 A 
ATOM     34  C   UNL A   1      36.492  29.608  28.881  1.00  0.00     0.001 A 
ENDBRANCH  21  28
ENDBRANCH  19  20
ENDBRANCH  16  19
ENDBRANCH  10  15
ENDBRANCH   7   9
ENDBRANCH   6   7
ENDBRANCH   5   6
ENDBRANCH   4   5
ENDBRANCH   3   4
ENDBRANCH   2   3
ENDBRANCH   1   2
BRANCH   1  35
ATOM     35  O   UNL A   1      46.174  38.503  25.593  1.00  0.00    -0.377 OA
BRANCH  35  36
ATOM     36  C   UNL A   1      47.283  39.382  25.402  1.00  0.00     0.188 C 
BRANCH  36  37
ATOM     37  C   UNL A   1      47.057  40.535  24.482  1.00  0.00     0.188 C 
BRANCH  37  38
ATOM     38  O   UNL A   1      45.668  40.790  24.533  1.00  0.00    -0.376 OA
BRANCH  38  39
ATOM     39  C   UNL A   1      45.319  42.135  24.328  1.00  0.00     0.202 C 
BRANCH  39  40
ATOM     40  C   UNL A   1      46.566  42.845  23.834  1.00  0.00     0.261 C 
BRANCH  40  41
ATOM     41  O   UNL A   1      47.038  43.738  24.884  1.00  0.00    -0.460 OA
BRANCH  41  42
ATOM     42  C   UNL A   1      46.093  44.593  25.408  1.00  0.00     0.338 C 
ATOM     43  O   UNL A   1      45.421  45.360  24.741  1.00  0.00    -0.246 OA
BRANCH  42  44
ATOM     44  C   UNL A   1      46.170  44.622  26.906  1.00  0.00     0.060 A 
ATOM     45  C   UNL A   1      47.341  44.963  27.600  1.00  0.00     0.016 A 
ATOM     46  C   UNL A   1      45.226  43.957  27.616  1.00  0.00     0.016 A 
ATOM     47  C   UNL A   1      47.778  44.211  28.747  1.00  0.00     0.010 A 
ATOM     48  C   UNL A   1      45.667  43.313  28.771  1.00  0.00     0.010 A 
ATOM     49  C   UNL A   1      47.070  43.097  29.209  1.00  0.00    -0.014 A 
BRANCH  49  50
ATOM     50  C   UNL A   1      47.820  41.624  30.125  1.00  0.00     0.031 A 
ATOM     51  C   UNL A   1      49.111  40.311  29.225  1.00  0.00     0.074 A 
ATOM     52  C   UNL A   1      46.967  41.546  31.342  1.00  0.00     0.049 A 
ATOM     53  N   UNL A   1      48.828  39.077  28.585  1.00  0.00    -0.248 NA
ATOM     54  C   UNL A   1      50.529  40.401  28.431  1.00  0.00     0.031 C 
ATOM     55  C   UNL A   1      47.191  41.124  32.769  1.00  0.00     0.029 A 
ATOM     56  N   UNL A   1      45.491  41.375  31.386  1.00  0.00    -0.354 N 
ATOM     57  C   UNL A   1      49.894  38.197  28.018  1.00  0.00     0.074 A 
ATOM     58  C   UNL A   1      50.817  39.263  27.746  1.00  0.00     0.031 C 
ATOM     59  C   UNL A   1      46.162  40.395  33.257  1.00  0.00     0.029 A 
ATOM     60  C   UNL A   1      45.181  40.206  32.218  1.00  0.00     0.049 A 
ATOM     61  H   UNL A   1      44.832  41.950  30.935  1.00  0.00     0.167 HD
ATOM     62  C   UNL A   1      50.138  36.712  28.036  1.00  0.00     0.034 A 
ATOM     63  C   UNL A   1      44.130  39.301  32.250  1.00  0.00     0.034 A 
ATOM     64  C   UNL A   1      49.439  35.661  29.140  1.00  0.00     0.049 A 
ATOM     65  C   UNL A   1      44.275  37.605  31.977  1.00  0.00     0.074 A 
ATOM     66  C   UNL A   1      49.853  35.118  30.386  1.00  0.00     0.029 A 
ATOM     67  N   UNL A   1      48.177  35.015  29.091  1.00  0.00    -0.354 N 
ATOM     68  N   UNL A   1      45.275  36.937  31.409  1.00  0.00    -0.248 NA
ATOM     69  C   UNL A   1      43.265  36.589  32.325  1.00  0.00     0.031 C 
ATOM     70  C   UNL A   1      48.714  34.777  31.194  1.00  0.00     0.029 A 
ATOM     71  C   UNL A   1      47.567  34.900  30.424  1.00  0.00     0.049 A 
ATOM     72  H   UNL A   1      47.761  34.682  28.263  1.00  0.00     0.167 HD
ATOM     73  C   UNL A   1      45.166  35.528  31.345  1.00  0.00     0.074 A 
ATOM     74  C   UNL A   1      43.825  35.406  31.946  1.00  0.00     0.031 C 
ATOM     75  C   UNL A   1      46.082  34.591  30.736  1.00  0.00     0.034 A 
BRANCH  62  76
ATOM     76  C   UNL A   1      51.514  36.099  27.523  1.00  0.00     0.023 A 
ATOM     77  C   UNL A   1      51.492  35.238  26.390  1.00  0.00     0.031 A 
ATOM     78  C   UNL A   1      52.786  36.226  28.098  1.00  0.00     0.131 A 
ATOM     79  C   UNL A   1      52.556  34.400  26.022  1.00  0.00     0.055 A 
ATOM     80  C   UNL A   1      53.882  35.416  27.710  1.00  0.00     0.041 A 
ATOM     81  F   UNL A   1      53.049  37.163  29.019  1.00  0.00    -0.206 F 
ATOM     82  C   UNL A   1      53.762  34.471  26.694  1.00  0.00     0.022 A 
BRANCH  79  83
ATOM     83  S   UNL A   1      52.294  33.194  24.685  1.00  0.00     0.124 S 
ATOM     84  O   UNL A   1      53.007  32.020  25.179  1.00  0.00    -0.237 OA
ATOM     85  O   UNL A   1      50.839  33.089  24.634  1.00  0.00    -0.237 OA
ATOM     86  O   UNL A   1      52.902  33.842  23.523  1.00  0.00    -0.744 OA
ENDBRANCH  79  83
ENDBRANCH  62  76
BRANCH  63  87
ATOM     87  C   UNL A   1      42.881  40.184  32.320  1.00  0.00     0.023 A 
ATOM     88  C   UNL A   1      42.832  41.011  33.491  1.00  0.00     0.031 A 
ATOM     89  C   UNL A   1      42.460  40.800  31.132  1.00  0.00     0.131 A 
ATOM     90  C   UNL A   1      42.755  42.420  33.364  1.00  0.00     0.055 A 
ATOM     91  C   UNL A   1      42.343  42.194  31.015  1.00  0.00     0.041 A 
ATOM     92  F   UNL A   1      42.313  40.088  30.018  1.00  0.00    -0.206 F 
ATOM     93  C   UNL A   1      42.557  43.014  32.118  1.00  0.00     0.022 A 
BRANCH  90  94
ATOM     94  S   UNL A   1      43.305  43.482  34.752  1.00  0.00     0.124 S 
ATOM     95  O   UNL A   1      42.373  43.108  35.809  1.00  0.00    -0.237 OA
ATOM     96  O   UNL A   1      44.691  43.068  34.940  1.00  0.00    -0.237 OA
ATOM     97  O   UNL A   1      43.150  44.835  34.219  1.00  0.00    -0.744 OA
ENDBRANCH  90  94
ENDBRANCH  63  87
BRANCH  75  98
ATOM     98  C   UNL A   1      45.636  33.221  30.098  1.00  0.00     0.023 A 
ATOM     99  C   UNL A   1      46.412  32.061  30.150  1.00  0.00     0.031 A 
ATOM    100  C   UNL A   1      44.269  32.986  29.739  1.00  0.00     0.131 A 
ATOM    101  C   UNL A   1      45.832  30.777  30.028  1.00  0.00     0.055 A 
ATOM    102  C   UNL A   1      43.681  31.715  29.689  1.00  0.00     0.041 A 
ATOM    103  F   UNL A   1      43.410  33.979  29.473  1.00  0.00    -0.206 F 
ATOM    104  C   UNL A   1      44.463  30.594  29.855  1.00  0.00     0.022 A 
BRANCH 101 105
ATOM    105  S   UNL A   1      46.910  29.333  30.177  1.00  0.00     0.124 S 
ATOM    106  O   UNL A   1      47.647  29.364  28.917  1.00  0.00    -0.237 OA
ATOM    107  O   UNL A   1      47.681  29.655  31.374  1.00  0.00    -0.237 OA
ATOM    108  O   UNL A   1      45.972  28.221  30.317  1.00  0.00    -0.744 OA
ENDBRANCH 101 105
ENDBRANCH  75  98
ENDBRANCH  49  50
ENDBRANCH  42  44
ENDBRANCH  41  42
ENDBRANCH  40  41
ENDBRANCH  39  40
ENDBRANCH  38  39
ENDBRANCH  37  38
ENDBRANCH  36  37
ENDBRANCH  35  36
ENDBRANCH   1  35
TORSDOF 27
ENDMDL
MODEL 3
REMARK VINA RESULT:      -9.1      6.962     14.836
REMARK SMILES Cc1ccccc1/C=C1\SC(=O)N(CC(=O)Nc2ccccc2C(=O)OCCOCCOCCOCCOC(=O)c2ccc(-c3c4nc(c(-c5cc(S(=O)(=O)[O-])ccc5F)c5ccc([nH]5)c(-c5cc(S(=O)(=O)[O-])ccc5F)c5nc(c(-c6cc(S(=O)(=O)[O-])ccc6F)c6ccc3[nH]6)C=C5)C=C4)cc2)C1=O
REMARK SMILES IDX 31 1 30 2 29 3 28 4 27 5 26 6 24 7 25 8 23 9 18 10 19 11
REMARK SMILES IDX 20 12 22 13 21 14 17 15 15 16 16 17 14 19 13 20 8 21 9 22
REMARK SMILES IDX 10 23 104 24 11 25 105 26 12 27 7 28 1 29 2 30 3 31 4 32
REMARK SMILES IDX 6 33 5 34 32 35 33 36 34 37 35 38 36 39 37 40 38 41 39 42
REMARK SMILES IDX 40 43 41 44 42 45 103 46 43 47 102 48 44 49 45 50 46 51
REMARK SMILES IDX 96 52 47 53 101 54 95 55 97 56 48 57 100 58 94 59 93 60
REMARK SMILES IDX 49 62 81 63 61 64 80 65 62 66 65 67 79 68 98 69 63 70 64 71
REMARK SMILES IDX 78 73 99 74 66 75 50 76 51 77 59 78 52 79 58 80 60 81 57 82
REMARK SMILES IDX 53 83 54 84 55 85 56 86 82 87 83 88 91 89 84 90 90 91 92 92
REMARK SMILES IDX 89 93 85 94 86 95 87 96 88 97 67 98 68 99 76 100 69 101
REMARK SMILES IDX 75 102 77 103 74 104 70 105 71 106 72 107 73 108
REMARK H PARENT 17 18 97 61 65 72
REMARK Flexibility Score: inf
ROOT
ATOM      1  C   UNL A   1      49.225  19.786  33.903  1.00  0.00     0.188 C 
ENDROOT
BRANCH   1   2
ATOM      2  C   UNL A   1      47.639  20.367  34.012  1.00  0.00     0.188 C 
BRANCH   2   3
ATOM      3  O   UNL A   1      46.532  21.132  35.207  1.00  0.00    -0.376 OA
BRANCH   3   4
ATOM      4  C   UNL A   1      45.051  22.179  35.035  1.00  0.00     0.202 C 
BRANCH   4   5
ATOM      5  C   UNL A   1      44.198  22.913  33.434  1.00  0.00     0.261 C 
BRANCH   5   6
ATOM      6  O   UNL A   1      44.220  23.478  31.642  1.00  0.00    -0.460 OA
BRANCH   6   7
ATOM      7  C   UNL A   1      44.409  24.338  30.215  1.00  0.00     0.340 C 
ATOM      8  O   UNL A   1      43.677  25.301  29.917  1.00  0.00    -0.246 OA
BRANCH   7   9
ATOM      9  C   UNL A   1      45.382  24.242  28.820  1.00  0.00     0.083 A 
ATOM     10  C   UNL A   1      45.356  23.548  27.513  1.00  0.00     0.055 A 
ATOM     11  C   UNL A   1      46.312  23.887  26.517  1.00  0.00     0.027 A 
ATOM     12  C   UNL A   1      47.357  24.758  26.766  1.00  0.00     0.002 A 
ATOM     13  C   UNL A   1      46.579  24.955  29.047  1.00  0.00     0.018 A 
ATOM     14  C   UNL A   1      47.521  25.245  28.048  1.00  0.00     0.001 A 
BRANCH  10  15
ATOM     15  N   UNL A   1      44.494  22.458  27.058  1.00  0.00    -0.324 N 
ATOM     16  C   UNL A   1      44.315  22.115  25.676  1.00  0.00     0.244 C 
ATOM     17  O   UNL A   1      45.004  21.269  25.105  1.00  0.00    -0.273 OA
ATOM     18  H   UNL A   1      44.012  21.930  27.735  1.00  0.00     0.170 HD
BRANCH  16  19
ATOM     19  C   UNL A   1      43.186  22.847  24.899  1.00  0.00     0.230 C 
BRANCH  19  20
ATOM     20  N   UNL A   1      42.404  23.427  25.932  1.00  0.00    -0.259 N 
ATOM     21  C   UNL A   1      40.293  26.715  27.782  1.00  0.00     0.029 C 
ATOM     22  C   UNL A   1      40.845  25.459  26.873  1.00  0.00     0.083 C 
ATOM     23  S   UNL A   1      40.329  23.658  26.962  1.00  0.00    -0.022 SA
ATOM     24  C   UNL A   1      42.282  24.831  26.035  1.00  0.00     0.268 C 
ATOM     25  C   UNL A   1      41.415  22.629  26.297  1.00  0.00     0.294 C 
ATOM     26  O   UNL A   1      43.206  25.403  25.466  1.00  0.00    -0.268 OA
ATOM     27  O   UNL A   1      41.209  21.459  26.044  1.00  0.00    -0.261 OA
BRANCH  21  28
ATOM     28  C   UNL A   1      39.227  27.767  28.924  1.00  0.00    -0.021 A 
ATOM     29  C   UNL A   1      37.628  29.688  27.884  1.00  0.00     0.045 C 
ATOM     30  C   UNL A   1      38.659  29.139  28.890  1.00  0.00    -0.044 A 
ATOM     31  C   UNL A   1      38.480  29.983  30.044  1.00  0.00     0.004 A 
ATOM     32  C   UNL A   1      38.438  29.451  31.293  1.00  0.00     0.000 A 
ATOM     33  C   UNL A   1      38.790  27.273  30.172  1.00  0.00     0.008 A 
ATOM     34  C   UNL A   1      38.435  28.080  31.317  1.00  0.00     0.001 A 
ENDBRANCH  21  28
ENDBRANCH  19  20
ENDBRANCH  16  19
ENDBRANCH  10  15
ENDBRANCH   7   9
ENDBRANCH   6   7
ENDBRANCH   5   6
ENDBRANCH   4   5
ENDBRANCH   3   4
ENDBRANCH   2   3
ENDBRANCH   1   2
BRANCH   1  35
ATOM     35  O   UNL A   1      50.271  19.398  34.801  1.00  0.00    -0.377 OA
BRANCH  35  36
ATOM     36  C   UNL A   1      50.808  20.089  35.930  1.00  0.00     0.188 C 
BRANCH  36  37
ATOM     37  C   UNL A   1      49.909  20.217  37.112  1.00  0.00     0.188 C 
BRANCH  37  38
ATOM     38  O   UNL A   1      50.760  20.508  38.202  1.00  0.00    -0.376 OA
BRANCH  38  39
ATOM     39  C   UNL A   1      50.538  21.764  38.792  1.00  0.00     0.202 C 
BRANCH  39  40
ATOM     40  C   UNL A   1      49.181  22.243  38.311  1.00  0.00     0.261 C 
BRANCH  40  41
ATOM     41  O   UNL A   1      48.864  23.493  38.989  1.00  0.00    -0.460 OA
BRANCH  41  42
ATOM     42  C   UNL A   1      47.532  23.689  39.285  1.00  0.00     0.338 C 
ATOM     43  O   UNL A   1      46.886  22.975  40.031  1.00  0.00    -0.246 OA
BRANCH  42  44
ATOM     44  C   UNL A   1      46.936  24.740  38.395  1.00  0.00     0.060 A 
ATOM     45  C   UNL A   1      46.846  24.594  37.003  1.00  0.00     0.016 A 
ATOM     46  C   UNL A   1      46.818  26.002  38.873  1.00  0.00     0.016 A 
ATOM     47  C   UNL A   1      47.177  25.676  36.113  1.00  0.00     0.010 A 
ATOM     48  C   UNL A   1      47.060  27.029  37.962  1.00  0.00     0.010 A 
ATOM     49  C   UNL A   1      47.624  26.912  36.593  1.00  0.00    -0.014 A 
BRANCH  49  50
ATOM     50  C   UNL A   1      48.767  28.098  35.669  1.00  0.00     0.031 A 
ATOM     51  C   UNL A   1      48.111  29.286  34.133  1.00  0.00     0.074 A 
ATOM     52  C   UNL A   1      50.114  27.627  36.093  1.00  0.00     0.049 A 
ATOM     53  N   UNL A   1      48.135  29.035  32.737  1.00  0.00    -0.248 NA
ATOM     54  C   UNL A   1      46.951  30.406  33.914  1.00  0.00     0.031 C 
ATOM     55  C   UNL A   1      51.446  28.289  36.323  1.00  0.00     0.029 A 
ATOM     56  N   UNL A   1      50.677  26.263  35.917  1.00  0.00    -0.354 N 
ATOM     57  C   UNL A   1      47.665  30.031  31.728  1.00  0.00     0.074 A 
ATOM     58  C   UNL A   1      46.721  30.671  32.602  1.00  0.00     0.031 C 
ATOM     59  C   UNL A   1      52.475  27.555  35.843  1.00  0.00     0.029 A 
ATOM     60  C   UNL A   1      51.955  26.372  35.205  1.00  0.00     0.049 A 
ATOM     61  H   UNL A   1      50.262  25.426  36.228  1.00  0.00     0.167 HD
ATOM     62  C   UNL A   1      48.194  30.498  30.398  1.00  0.00     0.034 A 
ATOM     63  C   UNL A   1      52.666  25.521  34.371  1.00  0.00     0.034 A 
ATOM     64  C   UNL A   1      49.781  30.293  29.897  1.00  0.00     0.049 A 
ATOM     65  C   UNL A   1      53.059  25.848  32.724  1.00  0.00     0.074 A 
ATOM     66  C   UNL A   1      50.945  31.106  29.946  1.00  0.00     0.029 A 
ATOM     67  N   UNL A   1      50.385  29.180  29.258  1.00  0.00    -0.354 N 
ATOM     68  N   UNL A   1      52.523  26.748  31.905  1.00  0.00    -0.248 NA
ATOM     69  C   UNL A   1      54.075  25.137  31.927  1.00  0.00     0.031 C 
ATOM     70  C   UNL A   1      52.131  30.293  29.951  1.00  0.00     0.029 A 
ATOM     71  C   UNL A   1      51.772  28.976  29.705  1.00  0.00     0.049 A 
ATOM     72  H   UNL A   1      49.931  28.612  28.594  1.00  0.00     0.167 HD
ATOM     73  C   UNL A   1      53.061  26.845  30.600  1.00  0.00     0.074 A 
ATOM     74  C   UNL A   1      54.043  25.751  30.709  1.00  0.00     0.031 C 
ATOM     75  C   UNL A   1      52.623  27.696  29.518  1.00  0.00     0.034 A 
BRANCH  62  76
ATOM     76  C   UNL A   1      47.568  31.762  29.661  1.00  0.00     0.023 A 
ATOM     77  C   UNL A   1      46.487  31.555  28.760  1.00  0.00     0.031 A 
ATOM     78  C   UNL A   1      47.999  33.095  29.715  1.00  0.00     0.131 A 
ATOM     79  C   UNL A   1      46.050  32.511  27.829  1.00  0.00     0.055 A 
ATOM     80  C   UNL A   1      47.537  34.082  28.809  1.00  0.00     0.041 A 
ATOM     81  F   UNL A   1      48.841  33.523  30.665  1.00  0.00    -0.206 F 
ATOM     82  C   UNL A   1      46.587  33.785  27.835  1.00  0.00     0.022 A 
BRANCH  79  83
ATOM     83  S   UNL A   1      44.808  32.019  26.593  1.00  0.00     0.124 S 
ATOM     84  O   UNL A   1      44.050  33.252  26.405  1.00  0.00    -0.237 OA
ATOM     85  O   UNL A   1      45.633  31.593  25.468  1.00  0.00    -0.237 OA
ATOM     86  O   UNL A   1      44.078  30.941  27.260  1.00  0.00    -0.744 OA
ENDBRANCH  79  83
ENDBRANCH  62  76
BRANCH  63  87
ATOM     87  C   UNL A   1      52.763  24.217  35.167  1.00  0.00     0.023 A 
ATOM     88  C   UNL A   1      52.453  23.051  34.392  1.00  0.00     0.031 A 
ATOM     89  C   UNL A   1      53.843  24.081  36.052  1.00  0.00     0.131 A 
ATOM     90  C   UNL A   1      53.409  22.014  34.252  1.00  0.00     0.055 A 
ATOM     91  C   UNL A   1      54.771  23.032  35.941  1.00  0.00     0.041 A 
ATOM     92  F   UNL A   1      54.122  25.040  36.931  1.00  0.00    -0.206 F 
ATOM     93  C   UNL A   1      54.591  22.030  34.994  1.00  0.00     0.022 A 
BRANCH  90  94
ATOM     94  S   UNL A   1      53.295  20.869  32.827  1.00  0.00     0.124 S 
ATOM     95  O   UNL A   1      53.610  19.585  33.442  1.00  0.00    -0.237 OA
ATOM     96  O   UNL A   1      51.918  21.048  32.383  1.00  0.00    -0.237 OA
ATOM     97  O   UNL A   1      54.298  21.390  31.899  1.00  0.00    -0.744 OA
ENDBRANCH  90  94
ENDBRANCH  63  87
BRANCH  75  98
ATOM     98  C   UNL A   1      52.753  27.312  27.995  1.00  0.00     0.023 A 
ATOM     99  C   UNL A   1      53.901  27.554  27.238  1.00  0.00     0.031 A 
ATOM    100  C   UNL A   1      51.849  26.381  27.390  1.00  0.00     0.131 A 
ATOM    101  C   UNL A   1      54.194  26.802  26.076  1.00  0.00     0.055 A 
ATOM    102  C   UNL A   1      52.169  25.586  26.281  1.00  0.00     0.041 A 
ATOM    103  F   UNL A   1      50.621  26.146  27.875  1.00  0.00    -0.206 F 
ATOM    104  C   UNL A   1      53.364  25.781  25.625  1.00  0.00     0.022 A 
BRANCH 101 105
ATOM    105  S   UNL A   1      55.739  27.145  25.201  1.00  0.00     0.124 S 
ATOM    106  O   UNL A   1      55.270  27.477  23.860  1.00  0.00    -0.237 OA
ATOM    107  O   UNL A   1      56.284  28.254  25.978  1.00  0.00    -0.237 OA
ATOM    108  O   UNL A   1      56.475  25.887  25.305  1.00  0.00    -0.744 OA
ENDBRANCH 101 105
ENDBRANCH  75  98
ENDBRANCH  49  50
ENDBRANCH  42  44
ENDBRANCH  41  42
ENDBRANCH  40  41
ENDBRANCH  39  40
ENDBRANCH  38  39
ENDBRANCH  37  38
ENDBRANCH  36  37
ENDBRANCH  35  36
ENDBRANCH   1  35
TORSDOF 27
ENDMDL
