MODEL 1
REMARK VINA RESULT:     -10.3      0.000      0.000
REMARK SMILES Cc1cc2c(c(C)c1Br)C=C(C(=O)OCCOCCOCCOCCOC(=O)c1ccc(-c3c4nc(c(-c5cc(S(=O)(=O)[O-])ccc5F)c5ccc([nH]5)c(-c5cc(S(=O)(=O)[O-])ccc5F)c5nc(c(-c6cc(S(=O)(=O)[O-])ccc6F)c6ccc3[nH]6)C=C5)C=C4)cc1)[C@@H](C(F)(F)F)O2
REMARK SMILES IDX 21 1 20 2 19 3 18 4 17 5 16 6 15 7 14 8 12 9 13 10 11 11
REMARK SMILES IDX 1 12 2 13 3 14 8 15 4 16 6 17 9 18 5 19 97 20 7 21 10 22
REMARK SMILES IDX 92 23 93 24 94 25 95 26 96 27 22 28 23 29 24 30 25 31 26 32
REMARK SMILES IDX 27 33 28 34 29 35 30 36 91 37 31 38 90 39 32 40 33 41 34 42
REMARK SMILES IDX 84 43 35 44 89 45 83 46 85 47 36 48 88 49 82 50 81 51 37 53
REMARK SMILES IDX 69 54 49 55 68 56 50 57 53 58 67 59 86 60 51 61 52 62 66 64
REMARK SMILES IDX 87 65 54 66 38 67 39 68 47 69 40 70 46 71 48 72 45 73 41 74
REMARK SMILES IDX 42 75 43 76 44 77 70 78 71 79 79 80 72 81 78 82 80 83 77 84
REMARK SMILES IDX 73 85 74 86 75 87 76 88 55 89 56 90 64 91 57 92 63 93 65 94
REMARK SMILES IDX 62 95 58 96 59 97 60 98 61 99
REMARK H PARENT 85 52 53 63
REMARK Flexibility Score: inf
ROOT
ATOM      1  C   UNL A   1      36.061  20.535  25.306  1.00  0.00     0.188 C 
ENDROOT
BRANCH   1   2
ATOM      2  O   UNL A   1      34.824  20.505  24.592  1.00  0.00    -0.377 OA
BRANCH   2   3
ATOM      3  C   UNL A   1      33.676  20.049  25.288  1.00  0.00     0.188 C 
BRANCH   3   4
ATOM      4  C   UNL A   1      32.364  20.416  24.570  1.00  0.00     0.188 C 
BRANCH   4   5
ATOM      5  O   UNL A   1      31.405  21.004  25.432  1.00  0.00    -0.376 OA
BRANCH   5   6
ATOM      6  C   UNL A   1      31.762  22.109  26.250  1.00  0.00     0.202 C 
BRANCH   6   7
ATOM      7  C   UNL A   1      31.381  23.562  25.904  1.00  0.00     0.261 C 
BRANCH   7   8
ATOM      8  O   UNL A   1      32.454  24.459  25.597  1.00  0.00    -0.460 OA
BRANCH   8   9
ATOM      9  C   UNL A   1      32.469  25.044  24.388  1.00  0.00     0.338 C 
ATOM     10  O   UNL A   1      32.549  24.493  23.305  1.00  0.00    -0.246 OA
BRANCH   9  11
ATOM     11  C   UNL A   1      32.177  26.481  24.589  1.00  0.00     0.087 C 
ATOM     12  C   UNL A   1      31.317  32.460  26.821  1.00  0.00     0.046 C 
ATOM     13  C   UNL A   1      31.948  31.171  26.367  1.00  0.00    -0.033 A 
ATOM     14  C   UNL A   1      31.213  30.417  25.439  1.00  0.00     0.051 A 
ATOM     15  C   UNL A   1      33.176  30.658  26.836  1.00  0.00     0.024 A 
ATOM     16  C   UNL A   1      31.617  29.139  25.069  1.00  0.00     0.128 A 
ATOM     17  C   UNL A   1      33.625  29.375  26.430  1.00  0.00    -0.026 A 
ATOM     18  Br  UNL A   1      34.215  31.697  28.061  1.00  0.00    -0.050 Br
ATOM     19  C   UNL A   1      32.781  28.585  25.606  1.00  0.00     0.021 A 
ATOM     20  O   UNL A   1      30.788  28.506  24.190  1.00  0.00    -0.475 OA
ATOM     21  C   UNL A   1      34.968  28.814  26.843  1.00  0.00     0.046 C 
ATOM     22  C   UNL A   1      33.033  27.168  25.356  1.00  0.00     0.027 C 
ATOM     23  C   UNL A   1      31.011  27.107  23.872  1.00  0.00     0.316 C 
BRANCH  23  24
ATOM     24  C   UNL A   1      29.695  26.358  24.121  1.00  0.00     0.430 C 
ATOM     25  F   UNL A   1      29.532  26.076  25.436  1.00  0.00    -0.167 F 
ATOM     26  F   UNL A   1      28.617  27.075  23.736  1.00  0.00    -0.167 F 
ATOM     27  F   UNL A   1      29.660  25.183  23.449  1.00  0.00    -0.167 F 
ENDBRANCH  23  24
ENDBRANCH   9  11
ENDBRANCH   8   9
ENDBRANCH   7   8
ENDBRANCH   6   7
ENDBRANCH   5   6
ENDBRANCH   4   5
ENDBRANCH   3   4
ENDBRANCH   2   3
ENDBRANCH   1   2
BRANCH   1  28
ATOM     28  C   UNL A   1      37.103  21.653  25.064  1.00  0.00     0.188 C 
BRANCH  28  29
ATOM     29  O   UNL A   1      38.457  21.224  25.194  1.00  0.00    -0.376 OA
BRANCH  29  30
ATOM     30  C   UNL A   1      39.237  21.844  26.206  1.00  0.00     0.202 C 
BRANCH  30  31
ATOM     31  C   UNL A   1      40.223  20.910  26.916  1.00  0.00     0.261 C 
BRANCH  31  32
ATOM     32  O   UNL A   1      40.779  19.865  26.104  1.00  0.00    -0.460 OA
BRANCH  32  33
ATOM     33  C   UNL A   1      42.121  19.849  25.941  1.00  0.00     0.338 C 
ATOM     34  O   UNL A   1      42.792  18.947  25.471  1.00  0.00    -0.246 OA
BRANCH  33  35
ATOM     35  C   UNL A   1      42.616  21.203  26.258  1.00  0.00     0.060 A 
ATOM     36  C   UNL A   1      42.925  21.524  27.585  1.00  0.00     0.016 A 
ATOM     37  C   UNL A   1      42.806  22.138  25.237  1.00  0.00     0.016 A 
ATOM     38  C   UNL A   1      43.413  22.795  27.894  1.00  0.00     0.010 A 
ATOM     39  C   UNL A   1      43.277  23.414  25.551  1.00  0.00     0.010 A 
ATOM     40  C   UNL A   1      43.562  23.755  26.884  1.00  0.00    -0.014 A 
BRANCH  40  41
ATOM     41  C   UNL A   1      43.855  25.165  27.241  1.00  0.00     0.031 A 
ATOM     42  C   UNL A   1      45.246  25.687  27.005  1.00  0.00     0.074 A 
ATOM     43  C   UNL A   1      42.899  25.973  27.733  1.00  0.00     0.049 A 
ATOM     44  N   UNL A   1      45.735  26.876  27.242  1.00  0.00    -0.248 NA
ATOM     45  C   UNL A   1      46.212  24.742  26.421  1.00  0.00     0.031 C 
ATOM     46  C   UNL A   1      41.506  25.592  27.959  1.00  0.00     0.029 A 
ATOM     47  N   UNL A   1      42.955  27.289  28.120  1.00  0.00    -0.354 N 
ATOM     48  C   UNL A   1      47.058  26.828  26.820  1.00  0.00     0.074 A 
ATOM     49  C   UNL A   1      47.309  25.481  26.357  1.00  0.00     0.031 C 
ATOM     50  C   UNL A   1      40.835  26.657  28.435  1.00  0.00     0.029 A 
ATOM     51  C   UNL A   1      41.756  27.784  28.577  1.00  0.00     0.049 A 
ATOM     52  H   UNL A   1      43.777  27.828  28.075  1.00  0.00     0.167 HD
ATOM     53  C   UNL A   1      47.975  27.824  26.801  1.00  0.00     0.034 A 
ATOM     54  C   UNL A   1      41.442  29.005  29.060  1.00  0.00     0.034 A 
ATOM     55  C   UNL A   1      47.723  29.158  27.279  1.00  0.00     0.049 A 
ATOM     56  C   UNL A   1      42.512  30.067  29.135  1.00  0.00     0.074 A 
ATOM     57  C   UNL A   1      48.590  30.235  27.313  1.00  0.00     0.029 A 
ATOM     58  N   UNL A   1      46.518  29.597  27.809  1.00  0.00    -0.354 N 
ATOM     59  N   UNL A   1      43.766  30.001  28.753  1.00  0.00    -0.248 NA
ATOM     60  C   UNL A   1      42.126  31.367  29.706  1.00  0.00     0.031 C 
ATOM     61  C   UNL A   1      47.930  31.306  27.923  1.00  0.00     0.029 A 
ATOM     62  C   UNL A   1      46.629  30.920  28.199  1.00  0.00     0.049 A 
ATOM     63  H   UNL A   1      45.705  29.049  27.894  1.00  0.00     0.167 HD
ATOM     64  C   UNL A   1      44.308  31.259  29.006  1.00  0.00     0.074 A 
ATOM     65  C   UNL A   1      43.250  32.062  29.580  1.00  0.00     0.031 C 
ATOM     66  C   UNL A   1      45.566  31.709  28.773  1.00  0.00     0.034 A 
BRANCH  53  67
ATOM     67  C   UNL A   1      49.345  27.499  26.270  1.00  0.00     0.023 A 
ATOM     68  C   UNL A   1      49.687  27.753  24.932  1.00  0.00     0.031 A 
ATOM     69  C   UNL A   1      50.324  26.953  27.116  1.00  0.00     0.131 A 
ATOM     70  C   UNL A   1      50.969  27.426  24.468  1.00  0.00     0.055 A 
ATOM     71  C   UNL A   1      51.617  26.686  26.665  1.00  0.00     0.041 A 
ATOM     72  F   UNL A   1      50.040  26.671  28.397  1.00  0.00    -0.206 F 
ATOM     73  C   UNL A   1      51.944  26.917  25.331  1.00  0.00     0.022 A 
BRANCH  70  74
ATOM     74  S   UNL A   1      51.324  27.602  22.699  1.00  0.00     0.124 S 
ATOM     75  O   UNL A   1      50.205  26.878  22.101  1.00  0.00    -0.237 OA
ATOM     76  O   UNL A   1      51.318  29.048  22.516  1.00  0.00    -0.237 OA
ATOM     77  O   UNL A   1      52.627  26.961  22.545  1.00  0.00    -0.744 OA
ENDBRANCH  70  74
ENDBRANCH  53  67
BRANCH  54  78
ATOM     78  C   UNL A   1      40.055  29.291  29.524  1.00  0.00     0.023 A 
ATOM     79  C   UNL A   1      39.742  29.319  30.892  1.00  0.00     0.031 A 
ATOM     80  C   UNL A   1      39.018  29.523  28.603  1.00  0.00     0.131 A 
ATOM     81  C   UNL A   1      38.419  29.554  31.301  1.00  0.00     0.055 A 
ATOM     82  C   UNL A   1      37.713  29.796  29.016  1.00  0.00     0.041 A 
ATOM     83  F   UNL A   1      39.266  29.506  27.284  1.00  0.00    -0.206 F 
ATOM     84  C   UNL A   1      37.406  29.805  30.373  1.00  0.00     0.022 A 
BRANCH  81  85
ATOM     85  S   UNL A   1      38.031  29.490  33.073  1.00  0.00     0.124 S 
ATOM     86  O   UNL A   1      37.258  28.258  33.162  1.00  0.00    -0.237 OA
ATOM     87  O   UNL A   1      39.360  29.461  33.675  1.00  0.00    -0.237 OA
ATOM     88  O   UNL A   1      37.276  30.721  33.299  1.00  0.00    -0.744 OA
ENDBRANCH  81  85
ENDBRANCH  54  78
BRANCH  66  89
ATOM     89  C   UNL A   1      45.873  33.149  29.093  1.00  0.00     0.023 A 
ATOM     90  C   UNL A   1      45.480  34.193  28.240  1.00  0.00     0.031 A 
ATOM     91  C   UNL A   1      46.488  33.480  30.314  1.00  0.00     0.131 A 
ATOM     92  C   UNL A   1      45.720  35.524  28.616  1.00  0.00     0.055 A 
ATOM     93  C   UNL A   1      46.686  34.805  30.701  1.00  0.00     0.041 A 
ATOM     94  F   UNL A   1      46.874  32.516  31.166  1.00  0.00    -0.206 F 
ATOM     95  C   UNL A   1      46.303  35.836  29.849  1.00  0.00     0.022 A 
BRANCH  92  96
ATOM     96  S   UNL A   1      45.269  36.852  27.467  1.00  0.00     0.124 S 
ATOM     97  O   UNL A   1      46.573  37.279  26.972  1.00  0.00    -0.237 OA
ATOM     98  O   UNL A   1      44.417  36.162  26.503  1.00  0.00    -0.237 OA
ATOM     99  O   UNL A   1      44.579  37.822  28.315  1.00  0.00    -0.744 OA
ENDBRANCH  92  96
ENDBRANCH  66  89
ENDBRANCH  40  41
ENDBRANCH  33  35
ENDBRANCH  32  33
ENDBRANCH  31  32
ENDBRANCH  30  31
ENDBRANCH  29  30
ENDBRANCH  28  29
ENDBRANCH   1  28
TORSDOF 24
ENDMDL
MODEL 2
REMARK VINA RESULT:     -10.0      1.435      7.578
REMARK SMILES Cc1cc2c(c(C)c1Br)C=C(C(=O)OCCOCCOCCOCCOC(=O)c1ccc(-c3c4nc(c(-c5cc(S(=O)(=O)[O-])ccc5F)c5ccc([nH]5)c(-c5cc(S(=O)(=O)[O-])ccc5F)c5nc(c(-c6cc(S(=O)(=O)[O-])ccc6F)c6ccc3[nH]6)C=C5)C=C4)cc1)[C@@H](C(F)(F)F)O2
REMARK SMILES IDX 21 1 20 2 19 3 18 4 17 5 16 6 15 7 14 8 12 9 13 10 11 11
REMARK SMILES IDX 1 12 2 13 3 14 8 15 4 16 6 17 9 18 5 19 97 20 7 21 10 22
REMARK SMILES IDX 92 23 93 24 94 25 95 26 96 27 22 28 23 29 24 30 25 31 26 32
REMARK SMILES IDX 27 33 28 34 29 35 30 36 91 37 31 38 90 39 32 40 33 41 34 42
REMARK SMILES IDX 84 43 35 44 89 45 83 46 85 47 36 48 88 49 82 50 81 51 37 53
REMARK SMILES IDX 69 54 49 55 68 56 50 57 53 58 67 59 86 60 51 61 52 62 66 64
REMARK SMILES IDX 87 65 54 66 38 67 39 68 47 69 40 70 46 71 48 72 45 73 41 74
REMARK SMILES IDX 42 75 43 76 44 77 70 78 71 79 79 80 72 81 78 82 80 83 77 84
REMARK SMILES IDX 73 85 74 86 75 87 76 88 55 89 56 90 64 91 57 92 63 93 65 94
REMARK SMILES IDX 62 95 58 96 59 97 60 98 61 99
REMARK H PARENT 85 52 53 63
REMARK Flexibility Score: inf
ROOT
ATOM      1  C   UNL A   1      35.874  20.399  25.038  1.00  0.00     0.188 C 
ENDROOT
BRANCH   1   2
ATOM      2  O   UNL A   1      34.524  20.523  24.585  1.00  0.00    -0.377 OA
BRANCH   2   3
ATOM      3  C   UNL A   1      33.493  20.188  25.498  1.00  0.00     0.188 C 
BRANCH   3   4
ATOM      4  C   UNL A   1      32.088  20.368  24.894  1.00  0.00     0.188 C 
BRANCH   4   5
ATOM      5  O   UNL A   1      31.206  21.082  25.745  1.00  0.00    -0.376 OA
BRANCH   5   6
ATOM      6  C   UNL A   1      31.617  22.308  26.334  1.00  0.00     0.202 C 
BRANCH   6   7
ATOM      7  C   UNL A   1      31.337  23.679  25.688  1.00  0.00     0.261 C 
BRANCH   7   8
ATOM      8  O   UNL A   1      32.473  24.453  25.287  1.00  0.00    -0.460 OA
BRANCH   8   9
ATOM      9  C   UNL A   1      32.427  25.083  24.101  1.00  0.00     0.338 C 
ATOM     10  O   UNL A   1      32.454  24.574  22.995  1.00  0.00    -0.246 OA
BRANCH   9  11
ATOM     11  C   UNL A   1      32.143  26.511  24.372  1.00  0.00     0.087 C 
ATOM     12  C   UNL A   1      31.335  32.385  26.884  1.00  0.00     0.046 C 
ATOM     13  C   UNL A   1      31.956  31.115  26.364  1.00  0.00    -0.033 A 
ATOM     14  C   UNL A   1      31.206  30.407  25.413  1.00  0.00     0.051 A 
ATOM     15  C   UNL A   1      33.187  30.577  26.792  1.00  0.00     0.024 A 
ATOM     16  C   UNL A   1      31.600  29.145  24.979  1.00  0.00     0.128 A 
ATOM     17  C   UNL A   1      33.626  29.313  26.323  1.00  0.00    -0.026 A 
ATOM     18  Br  UNL A   1      34.246  31.556  28.050  1.00  0.00    -0.050 Br
ATOM     19  C   UNL A   1      32.769  28.564  25.475  1.00  0.00     0.021 A 
ATOM     20  O   UNL A   1      30.757  28.556  24.083  1.00  0.00    -0.475 OA
ATOM     21  C   UNL A   1      34.972  28.729  26.693  1.00  0.00     0.046 C 
ATOM     22  C   UNL A   1      33.012  27.159  25.158  1.00  0.00     0.027 C 
ATOM     23  C   UNL A   1      30.970  27.172  23.699  1.00  0.00     0.316 C 
BRANCH  23  24
ATOM     24  C   UNL A   1      29.655  26.418  23.931  1.00  0.00     0.430 C 
ATOM     25  F   UNL A   1      29.636  25.244  23.256  1.00  0.00    -0.167 F 
ATOM     26  F   UNL A   1      29.454  26.125  25.235  1.00  0.00    -0.167 F 
ATOM     27  F   UNL A   1      28.590  27.142  23.511  1.00  0.00    -0.167 F 
ENDBRANCH  23  24
ENDBRANCH   9  11
ENDBRANCH   8   9
ENDBRANCH   7   8
ENDBRANCH   6   7
ENDBRANCH   5   6
ENDBRANCH   4   5
ENDBRANCH   3   4
ENDBRANCH   2   3
ENDBRANCH   1   2
BRANCH   1  28
ATOM     28  C   UNL A   1      36.926  21.495  24.745  1.00  0.00     0.188 C 
BRANCH  28  29
ATOM     29  O   UNL A   1      38.267  21.109  25.042  1.00  0.00    -0.376 OA
BRANCH  29  30
ATOM     30  C   UNL A   1      38.947  21.855  26.040  1.00  0.00     0.202 C 
BRANCH  30  31
ATOM     31  C   UNL A   1      40.009  21.067  26.816  1.00  0.00     0.261 C 
BRANCH  31  32
ATOM     32  O   UNL A   1      40.457  19.855  26.191  1.00  0.00    -0.460 OA
BRANCH  32  33
ATOM     33  C   UNL A   1      41.791  19.649  26.116  1.00  0.00     0.338 C 
ATOM     34  O   UNL A   1      42.357  18.632  25.756  1.00  0.00    -0.246 OA
BRANCH  33  35
ATOM     35  C   UNL A   1      42.448  20.947  26.364  1.00  0.00     0.060 A 
ATOM     36  C   UNL A   1      42.734  21.327  27.681  1.00  0.00     0.016 A 
ATOM     37  C   UNL A   1      42.811  21.767  25.293  1.00  0.00     0.016 A 
ATOM     38  C   UNL A   1      43.374  22.543  27.927  1.00  0.00     0.010 A 
ATOM     39  C   UNL A   1      43.434  22.991  25.542  1.00  0.00     0.010 A 
ATOM     40  C   UNL A   1      43.699  23.395  26.862  1.00  0.00    -0.014 A 
BRANCH  40  41
ATOM     41  C   UNL A   1      44.162  24.777  27.135  1.00  0.00     0.031 A 
ATOM     42  C   UNL A   1      43.160  25.781  27.636  1.00  0.00     0.074 A 
ATOM     43  C   UNL A   1      45.452  25.124  26.976  1.00  0.00     0.049 A 
ATOM     44  N   UNL A   1      43.330  27.041  27.938  1.00  0.00    -0.248 NA
ATOM     45  C   UNL A   1      41.783  25.296  27.823  1.00  0.00     0.031 C 
ATOM     46  C   UNL A   1      46.521  24.226  26.543  1.00  0.00     0.029 A 
ATOM     47  N   UNL A   1      46.083  26.328  27.172  1.00  0.00    -0.354 N 
ATOM     48  C   UNL A   1      42.090  27.495  28.368  1.00  0.00     0.074 A 
ATOM     49  C   UNL A   1      41.165  26.389  28.242  1.00  0.00     0.031 C 
ATOM     50  C   UNL A   1      47.680  24.909  26.519  1.00  0.00     0.029 A 
ATOM     51  C   UNL A   1      47.431  26.298  26.903  1.00  0.00     0.049 A 
ATOM     52  H   UNL A   1      45.613  27.137  27.478  1.00  0.00     0.167 HD
ATOM     53  C   UNL A   1      41.756  28.718  28.843  1.00  0.00     0.034 A 
ATOM     54  C   UNL A   1      48.354  27.281  26.953  1.00  0.00     0.034 A 
ATOM     55  C   UNL A   1      42.677  29.818  28.949  1.00  0.00     0.049 A 
ATOM     56  C   UNL A   1      47.934  28.667  27.379  1.00  0.00     0.074 A 
ATOM     57  C   UNL A   1      42.433  31.100  29.407  1.00  0.00     0.029 A 
ATOM     58  N   UNL A   1      44.017  29.769  28.589  1.00  0.00    -0.354 N 
ATOM     59  N   UNL A   1      46.751  29.088  27.761  1.00  0.00    -0.248 NA
ATOM     60  C   UNL A   1      48.971  29.710  27.380  1.00  0.00     0.031 C 
ATOM     61  C   UNL A   1      43.608  31.844  29.264  1.00  0.00     0.029 A 
ATOM     62  C   UNL A   1      44.603  31.007  28.788  1.00  0.00     0.049 A 
ATOM     63  H   UNL A   1      44.480  28.973  28.244  1.00  0.00     0.167 HD
ATOM     64  C   UNL A   1      46.911  30.435  28.080  1.00  0.00     0.074 A 
ATOM     65  C   UNL A   1      48.300  30.760  27.839  1.00  0.00     0.031 C 
ATOM     66  C   UNL A   1      45.991  31.318  28.540  1.00  0.00     0.034 A 
BRANCH  53  67
ATOM     67  C   UNL A   1      40.326  28.936  29.259  1.00  0.00     0.023 A 
ATOM     68  C   UNL A   1      39.935  28.836  30.604  1.00  0.00     0.031 A 
ATOM     69  C   UNL A   1      39.351  29.271  28.305  1.00  0.00     0.131 A 
ATOM     70  C   UNL A   1      38.592  29.034  30.955  1.00  0.00     0.055 A 
ATOM     71  C   UNL A   1      38.028  29.528  28.667  1.00  0.00     0.041 A 
ATOM     72  F   UNL A   1      39.670  29.357  27.004  1.00  0.00    -0.206 F 
ATOM     73  C   UNL A   1      37.641  29.404  29.999  1.00  0.00     0.022 A 
BRANCH  70  74
ATOM     74  S   UNL A   1      38.086  28.727  32.668  1.00  0.00     0.124 S 
ATOM     75  O   UNL A   1      38.135  27.268  32.732  1.00  0.00    -0.237 OA
ATOM     76  O   UNL A   1      39.109  29.433  33.432  1.00  0.00    -0.237 OA
ATOM     77  O   UNL A   1      36.747  29.305  32.740  1.00  0.00    -0.744 OA
ENDBRANCH  70  74
ENDBRANCH  53  67
BRANCH  54  78
ATOM     78  C   UNL A   1      49.769  26.998  26.582  1.00  0.00     0.023 A 
ATOM     79  C   UNL A   1      50.244  27.267  25.288  1.00  0.00     0.031 A 
ATOM     80  C   UNL A   1      50.663  26.437  27.511  1.00  0.00     0.131 A 
ATOM     81  C   UNL A   1      51.572  26.955  24.952  1.00  0.00     0.055 A 
ATOM     82  C   UNL A   1      51.992  26.166  27.184  1.00  0.00     0.041 A 
ATOM     83  F   UNL A   1      50.257  26.160  28.760  1.00  0.00    -0.206 F 
ATOM     84  C   UNL A   1      52.452  26.419  25.896  1.00  0.00     0.022 A 
BRANCH  81  85
ATOM     85  S   UNL A   1      52.126  27.229  23.246  1.00  0.00     0.124 S 
ATOM     86  O   UNL A   1      53.120  26.174  23.086  1.00  0.00    -0.237 OA
ATOM     87  O   UNL A   1      50.887  27.065  22.494  1.00  0.00    -0.237 OA
ATOM     88  O   UNL A   1      52.657  28.589  23.276  1.00  0.00    -0.744 OA
ENDBRANCH  81  85
ENDBRANCH  54  78
BRANCH  66  89
ATOM     89  C   UNL A   1      46.450  32.716  28.862  1.00  0.00     0.023 A 
ATOM     90  C   UNL A   1      46.956  33.053  30.128  1.00  0.00     0.031 A 
ATOM     91  C   UNL A   1      46.463  33.698  27.854  1.00  0.00     0.131 A 
ATOM     92  C   UNL A   1      47.443  34.349  30.358  1.00  0.00     0.055 A 
ATOM     93  C   UNL A   1      46.988  34.971  28.077  1.00  0.00     0.041 A 
ATOM     94  F   UNL A   1      45.998  33.421  26.626  1.00  0.00    -0.206 F 
ATOM     95  C   UNL A   1      47.480  35.303  29.336  1.00  0.00     0.022 A 
BRANCH  92  96
ATOM     96  S   UNL A   1      48.024  34.782  32.021  1.00  0.00     0.124 S 
ATOM     97  O   UNL A   1      47.226  33.895  32.860  1.00  0.00    -0.237 OA
ATOM     98  O   UNL A   1      49.449  34.476  31.948  1.00  0.00    -0.237 OA
ATOM     99  O   UNL A   1      47.704  36.203  32.138  1.00  0.00    -0.744 OA
ENDBRANCH  92  96
ENDBRANCH  66  89
ENDBRANCH  40  41
ENDBRANCH  33  35
ENDBRANCH  32  33
ENDBRANCH  31  32
ENDBRANCH  30  31
ENDBRANCH  29  30
ENDBRANCH  28  29
ENDBRANCH   1  28
TORSDOF 24
ENDMDL
MODEL 3
REMARK VINA RESULT:      -9.9      1.830      2.154
REMARK SMILES Cc1cc2c(c(C)c1Br)C=C(C(=O)OCCOCCOCCOCCOC(=O)c1ccc(-c3c4nc(c(-c5cc(S(=O)(=O)[O-])ccc5F)c5ccc([nH]5)c(-c5cc(S(=O)(=O)[O-])ccc5F)c5nc(c(-c6cc(S(=O)(=O)[O-])ccc6F)c6ccc3[nH]6)C=C5)C=C4)cc1)[C@@H](C(F)(F)F)O2
REMARK SMILES IDX 21 1 20 2 19 3 18 4 17 5 16 6 15 7 14 8 12 9 13 10 11 11
REMARK SMILES IDX 1 12 2 13 3 14 8 15 4 16 6 17 9 18 5 19 97 20 7 21 10 22
REMARK SMILES IDX 92 23 93 24 94 25 95 26 96 27 22 28 23 29 24 30 25 31 26 32
REMARK SMILES IDX 27 33 28 34 29 35 30 36 91 37 31 38 90 39 32 40 33 41 34 42
REMARK SMILES IDX 84 43 35 44 89 45 83 46 85 47 36 48 88 49 82 50 81 51 37 53
REMARK SMILES IDX 69 54 49 55 68 56 50 57 53 58 67 59 86 60 51 61 52 62 66 64
REMARK SMILES IDX 87 65 54 66 38 67 39 68 47 69 40 70 46 71 48 72 45 73 41 74
REMARK SMILES IDX 42 75 43 76 44 77 70 78 71 79 79 80 72 81 78 82 80 83 77 84
REMARK SMILES IDX 73 85 74 86 75 87 76 88 55 89 56 90 64 91 57 92 63 93 65 94
REMARK SMILES IDX 62 95 58 96 59 97 60 98 61 99
REMARK H PARENT 85 52 53 63
REMARK Flexibility Score: inf
ROOT
ATOM      1  C   UNL A   1      36.406  19.291  24.937  1.00  0.00     0.188 C 
ENDROOT
BRANCH   1   2
ATOM      2  O   UNL A   1      35.050  19.126  24.518  1.00  0.00    -0.377 OA
BRANCH   2   3
ATOM      3  C   UNL A   1      34.091  20.039  25.027  1.00  0.00     0.188 C 
BRANCH   3   4
ATOM      4  C   UNL A   1      32.644  19.570  24.788  1.00  0.00     0.188 C 
BRANCH   4   5
ATOM      5  O   UNL A   1      31.678  20.527  25.190  1.00  0.00    -0.376 OA
BRANCH   5   6
ATOM      6  C   UNL A   1      32.084  21.728  25.831  1.00  0.00     0.202 C 
BRANCH   6   7
ATOM      7  C   UNL A   1      31.360  23.072  25.623  1.00  0.00     0.261 C 
BRANCH   7   8
ATOM      8  O   UNL A   1      32.163  24.256  25.656  1.00  0.00    -0.460 OA
BRANCH   8   9
ATOM      9  C   UNL A   1      32.475  24.848  24.491  1.00  0.00     0.338 C 
ATOM     10  O   UNL A   1      32.787  24.301  23.448  1.00  0.00    -0.246 OA
BRANCH   9  11
ATOM     11  C   UNL A   1      32.185  26.292  24.638  1.00  0.00     0.087 C 
ATOM     12  C   UNL A   1      31.283  32.339  26.659  1.00  0.00     0.046 C 
ATOM     13  C   UNL A   1      31.922  31.033  26.269  1.00  0.00    -0.033 A 
ATOM     14  C   UNL A   1      31.220  30.258  25.334  1.00  0.00     0.051 A 
ATOM     15  C   UNL A   1      33.125  30.526  26.802  1.00  0.00     0.024 A 
ATOM     16  C   UNL A   1      31.628  28.966  25.018  1.00  0.00     0.128 A 
ATOM     17  C   UNL A   1      33.581  29.228  26.452  1.00  0.00    -0.026 A 
ATOM     18  Br  UNL A   1      34.122  31.594  28.039  1.00  0.00    -0.050 Br
ATOM     19  C   UNL A   1      32.765  28.421  25.618  1.00  0.00     0.021 A 
ATOM     20  O   UNL A   1      30.831  28.313  24.124  1.00  0.00    -0.475 OA
ATOM     21  C   UNL A   1      34.901  28.671  26.937  1.00  0.00     0.046 C 
ATOM     22  C   UNL A   1      33.016  26.995  25.420  1.00  0.00     0.027 C 
ATOM     23  C   UNL A   1      31.055  26.904  23.856  1.00  0.00     0.316 C 
BRANCH  23  24
ATOM     24  C   UNL A   1      29.724  26.172  24.073  1.00  0.00     0.430 C 
ATOM     25  F   UNL A   1      29.693  25.000  23.396  1.00  0.00    -0.167 F 
ATOM     26  F   UNL A   1      29.504  25.882  25.374  1.00  0.00    -0.167 F 
ATOM     27  F   UNL A   1      28.676  26.915  23.642  1.00  0.00    -0.167 F 
ENDBRANCH  23  24
ENDBRANCH   9  11
ENDBRANCH   8   9
ENDBRANCH   7   8
ENDBRANCH   6   7
ENDBRANCH   5   6
ENDBRANCH   4   5
ENDBRANCH   3   4
ENDBRANCH   2   3
ENDBRANCH   1   2
BRANCH   1  28
ATOM     28  C   UNL A   1      37.198  20.581  24.614  1.00  0.00     0.188 C 
BRANCH  28  29
ATOM     29  O   UNL A   1      38.550  20.562  25.069  1.00  0.00    -0.376 OA
BRANCH  29  30
ATOM     30  C   UNL A   1      38.914  21.525  26.049  1.00  0.00     0.202 C 
BRANCH  30  31
ATOM     31  C   UNL A   1      40.154  21.160  26.873  1.00  0.00     0.261 C 
BRANCH  31  32
ATOM     32  O   UNL A   1      40.813  19.944  26.493  1.00  0.00    -0.460 OA
BRANCH  32  33
ATOM     33  C   UNL A   1      42.059  20.045  25.977  1.00  0.00     0.338 C 
ATOM     34  O   UNL A   1      42.623  19.237  25.260  1.00  0.00    -0.246 OA
BRANCH  33  35
ATOM     35  C   UNL A   1      42.547  21.405  26.278  1.00  0.00     0.060 A 
ATOM     36  C   UNL A   1      43.003  21.696  27.570  1.00  0.00     0.016 A 
ATOM     37  C   UNL A   1      42.587  22.375  25.274  1.00  0.00     0.016 A 
ATOM     38  C   UNL A   1      43.487  22.972  27.862  1.00  0.00     0.010 A 
ATOM     39  C   UNL A   1      43.054  23.656  25.573  1.00  0.00     0.010 A 
ATOM     40  C   UNL A   1      43.486  23.967  26.873  1.00  0.00    -0.014 A 
BRANCH  40  41
ATOM     41  C   UNL A   1      43.778  25.374  27.241  1.00  0.00     0.031 A 
ATOM     42  C   UNL A   1      45.181  25.885  27.054  1.00  0.00     0.074 A 
ATOM     43  C   UNL A   1      42.812  26.190  27.699  1.00  0.00     0.049 A 
ATOM     44  N   UNL A   1      45.670  27.069  27.307  1.00  0.00    -0.248 NA
ATOM     45  C   UNL A   1      46.158  24.932  26.504  1.00  0.00     0.031 C 
ATOM     46  C   UNL A   1      41.408  25.821  27.876  1.00  0.00     0.029 A 
ATOM     47  N   UNL A   1      42.865  27.506  28.088  1.00  0.00    -0.354 N 
ATOM     48  C   UNL A   1      47.007  27.011  26.931  1.00  0.00     0.074 A 
ATOM     49  C   UNL A   1      47.263  25.661  26.478  1.00  0.00     0.031 C 
ATOM     50  C   UNL A   1      40.731  26.891  28.329  1.00  0.00     0.029 A 
ATOM     51  C   UNL A   1      41.655  28.011  28.503  1.00  0.00     0.049 A 
ATOM     52  H   UNL A   1      43.693  28.038  28.071  1.00  0.00     0.167 HD
ATOM     53  C   UNL A   1      47.932  28.000  26.945  1.00  0.00     0.034 A 
ATOM     54  C   UNL A   1      41.334  29.234  28.975  1.00  0.00     0.034 A 
ATOM     55  C   UNL A   1      47.674  29.335  27.414  1.00  0.00     0.049 A 
ATOM     56  C   UNL A   1      42.409  30.287  29.087  1.00  0.00     0.074 A 
ATOM     57  C   UNL A   1      48.549  30.406  27.479  1.00  0.00     0.029 A 
ATOM     58  N   UNL A   1      46.455  29.785  27.902  1.00  0.00    -0.354 N 
ATOM     59  N   UNL A   1      43.676  30.211  28.749  1.00  0.00    -0.248 NA
ATOM     60  C   UNL A   1      42.015  31.590  29.644  1.00  0.00     0.031 C 
ATOM     61  C   UNL A   1      47.877  31.482  28.064  1.00  0.00     0.029 A 
ATOM     62  C   UNL A   1      46.564  31.107  28.296  1.00  0.00     0.049 A 
ATOM     63  H   UNL A   1      45.635  29.243  27.958  1.00  0.00     0.167 HD
ATOM     64  C   UNL A   1      44.219  31.465  29.021  1.00  0.00     0.074 A 
ATOM     65  C   UNL A   1      43.147  32.277  29.557  1.00  0.00     0.031 C 
ATOM     66  C   UNL A   1      45.487  31.905  28.832  1.00  0.00     0.034 A 
BRANCH  53  67
ATOM     67  C   UNL A   1      49.317  27.663  26.462  1.00  0.00     0.023 A 
ATOM     68  C   UNL A   1      50.355  27.378  27.365  1.00  0.00     0.031 A 
ATOM     69  C   UNL A   1      49.595  27.604  25.087  1.00  0.00     0.131 A 
ATOM     70  C   UNL A   1      51.636  27.080  26.880  1.00  0.00     0.055 A 
ATOM     71  C   UNL A   1      50.857  27.247  24.609  1.00  0.00     0.041 A 
ATOM     72  F   UNL A   1      48.644  27.890  24.185  1.00  0.00    -0.206 F 
ATOM     73  C   UNL A   1      51.888  26.988  25.508  1.00  0.00     0.022 A 
BRANCH  70  74
ATOM     74  S   UNL A   1      52.992  26.888  28.067  1.00  0.00     0.124 S 
ATOM     75  O   UNL A   1      53.648  28.191  27.978  1.00  0.00    -0.237 OA
ATOM     76  O   UNL A   1      52.287  26.615  29.314  1.00  0.00    -0.237 OA
ATOM     77  O   UNL A   1      53.764  25.771  27.530  1.00  0.00    -0.744 OA
ENDBRANCH  70  74
ENDBRANCH  53  67
BRANCH  54  78
ATOM     78  C   UNL A   1      39.934  29.532  29.389  1.00  0.00     0.023 A 
ATOM     79  C   UNL A   1      39.568  29.536  30.745  1.00  0.00     0.031 A 
ATOM     80  C   UNL A   1      38.938  29.799  28.434  1.00  0.00     0.131 A 
ATOM     81  C   UNL A   1      38.233  29.783  31.107  1.00  0.00     0.055 A 
ATOM     82  C   UNL A   1      37.621  30.082  28.802  1.00  0.00     0.041 A 
ATOM     83  F   UNL A   1      39.237  29.805  27.125  1.00  0.00    -0.206 F 
ATOM     84  C   UNL A   1      37.261  30.069  30.145  1.00  0.00     0.022 A 
BRANCH  81  85
ATOM     85  S   UNL A   1      37.774  29.688  32.860  1.00  0.00     0.124 S 
ATOM     86  O   UNL A   1      38.951  30.259  33.505  1.00  0.00    -0.237 OA
ATOM     87  O   UNL A   1      36.562  30.499  32.901  1.00  0.00    -0.237 OA
ATOM     88  O   UNL A   1      37.571  28.259  33.081  1.00  0.00    -0.744 OA
ENDBRANCH  81  85
ENDBRANCH  54  78
BRANCH  66  89
ATOM     89  C   UNL A   1      45.795  33.342  29.162  1.00  0.00     0.023 A 
ATOM     90  C   UNL A   1      46.289  33.719  30.422  1.00  0.00     0.031 A 
ATOM     91  C   UNL A   1      45.674  34.330  28.169  1.00  0.00     0.131 A 
ATOM     92  C   UNL A   1      46.633  35.059  30.659  1.00  0.00     0.055 A 
ATOM     93  C   UNL A   1      46.058  35.651  28.397  1.00  0.00     0.041 A 
ATOM     94  F   UNL A   1      45.215  34.016  26.947  1.00  0.00    -0.206 F 
ATOM     95  C   UNL A   1      46.539  36.023  29.649  1.00  0.00     0.022 A 
BRANCH  92  96
ATOM     96  S   UNL A   1      47.201  35.536  32.314  1.00  0.00     0.124 S 
ATOM     97  O   UNL A   1      45.945  35.616  33.053  1.00  0.00    -0.237 OA
ATOM     98  O   UNL A   1      48.083  34.432  32.677  1.00  0.00    -0.237 OA
ATOM     99  O   UNL A   1      47.874  36.814  32.092  1.00  0.00    -0.744 OA
ENDBRANCH  92  96
ENDBRANCH  66  89
ENDBRANCH  40  41
ENDBRANCH  33  35
ENDBRANCH  32  33
ENDBRANCH  31  32
ENDBRANCH  30  31
ENDBRANCH  29  30
ENDBRANCH  28  29
ENDBRANCH   1  28
TORSDOF 24
ENDMDL
