MODEL 1
REMARK VINA RESULT:      -9.4      0.000      0.000
REMARK SMILES Cc1cc([N+](=O)[O-])ccc1NC(=O)[C@@H]1[C@@H](C(=O)OCCOCCOCCOCCOC(=O)c2ccc(-c3c4nc(c(-c5cc(S(=O)(=O)[O-])ccc5F)c5ccc([nH]5)c(-c5cc(S(=O)(=O)[O-])ccc5F)c5nc(c(-c6cc(S(=O)(=O)[O-])ccc6F)c6ccc3[nH]6)C=C5)C=C4)cc2)[C@H]2C=C[C@@H]1C2
REMARK SMILES IDX 24 1 23 2 22 3 21 4 20 5 19 6 18 7 16 8 17 9 15 10 14 11
REMARK SMILES IDX 99 12 96 13 98 14 100 15 97 16 12 17 11 18 13 20 10 21 1 22
REMARK SMILES IDX 2 23 3 24 4 25 9 26 8 27 5 28 6 29 7 30 25 31 26 32 27 33
REMARK SMILES IDX 28 34 29 35 30 36 31 37 32 38 33 39 34 40 95 41 35 42 94 43
REMARK SMILES IDX 36 44 37 45 38 46 88 47 39 48 93 49 87 50 89 51 40 52 92 53
REMARK SMILES IDX 86 54 85 55 41 57 73 58 53 59 72 60 54 61 57 62 71 63 90 64
REMARK SMILES IDX 55 65 56 66 70 68 91 69 58 70 42 71 43 72 51 73 44 74 50 75
REMARK SMILES IDX 52 76 49 77 45 78 46 79 47 80 48 81 74 82 75 83 83 84 76 85
REMARK SMILES IDX 82 86 84 87 81 88 77 89 78 90 79 91 80 92 59 93 60 94 68 95
REMARK SMILES IDX 61 96 67 97 69 98 66 99 62 100 63 101 64 102 65 103
REMARK H PARENT 11 19 89 56 57 67
REMARK Flexibility Score: inf
ROOT
ATOM      1  O   UNL A   1      34.929  31.792  29.106  1.00  0.00    -0.377 OA
ENDROOT
BRANCH   1   2
ATOM      2  C   UNL A   1      34.989  31.405  27.740  1.00  0.00     0.188 C 
BRANCH   2   3
ATOM      3  C   UNL A   1      33.714  30.719  27.283  1.00  0.00     0.188 C 
BRANCH   3   4
ATOM      4  O   UNL A   1      33.765  29.520  26.516  1.00  0.00    -0.376 OA
BRANCH   4   5
ATOM      5  C   UNL A   1      33.097  28.411  27.153  1.00  0.00     0.202 C 
BRANCH   5   6
ATOM      6  C   UNL A   1      31.945  27.601  26.455  1.00  0.00     0.261 C 
BRANCH   6   7
ATOM      7  O   UNL A   1      32.056  26.195  26.165  1.00  0.00    -0.463 OA
BRANCH   7   8
ATOM      8  C   UNL A   1      30.868  25.649  26.056  1.00  0.00     0.310 C 
ATOM      9  O   UNL A   1      29.948  26.008  26.789  1.00  0.00    -0.252 OA
BRANCH   8  10
ATOM     10  C   UNL A   1      30.604  24.776  24.870  1.00  0.00     0.119 C 
ATOM     11  C   UNL A   1      31.696  23.702  25.089  1.00  0.00     0.100 C 
ATOM     12  C   UNL A   1      32.134  23.360  23.673  1.00  0.00     0.025 C 
ATOM     13  C   UNL A   1      30.734  25.096  23.374  1.00  0.00     0.027 C 
ATOM     14  C   UNL A   1      32.959  24.573  23.230  1.00  0.00    -0.027 C 
ATOM     15  C   UNL A   1      30.887  23.649  22.843  1.00  0.00     0.017 C 
ATOM     16  C   UNL A   1      32.110  25.597  23.046  1.00  0.00    -0.027 C 
BRANCH  11  17
ATOM     17  C   UNL A   1      31.142  22.701  26.089  1.00  0.00     0.228 C 
ATOM     18  N   UNL A   1      32.005  21.894  26.801  1.00  0.00    -0.326 N 
ATOM     19  H   UNL A   1      31.634  21.478  27.612  1.00  0.00     0.169 HD
ATOM     20  O   UNL A   1      29.935  22.637  26.344  1.00  0.00    -0.274 OA
BRANCH  18  21
ATOM     21  C   UNL A   1      33.356  21.590  26.513  1.00  0.00     0.044 A 
ATOM     22  C   UNL A   1      32.607  19.448  25.354  1.00  0.00     0.047 C 
ATOM     23  C   UNL A   1      33.616  20.515  25.659  1.00  0.00    -0.021 A 
ATOM     24  C   UNL A   1      34.877  20.455  25.033  1.00  0.00     0.091 A 
ATOM     25  C   UNL A   1      35.857  21.426  25.298  1.00  0.00     0.269 A 
ATOM     26  C   UNL A   1      34.436  22.386  26.930  1.00  0.00     0.033 A 
ATOM     27  C   UNL A   1      35.661  22.366  26.286  1.00  0.00     0.088 A 
BRANCH  25  28
ATOM     28  N   UNL A   1      37.057  21.503  24.477  1.00  0.00     0.062 N 
ATOM     29  O   UNL A   1      37.397  22.628  24.076  1.00  0.00    -0.258 OA
ATOM     30  O   UNL A   1      37.739  20.474  24.360  1.00  0.00    -0.258 OA
ENDBRANCH  25  28
ENDBRANCH  18  21
ENDBRANCH  11  17
ENDBRANCH   8  10
ENDBRANCH   7   8
ENDBRANCH   6   7
ENDBRANCH   5   6
ENDBRANCH   4   5
ENDBRANCH   3   4
ENDBRANCH   2   3
ENDBRANCH   1   2
BRANCH   1  31
ATOM     31  C   UNL A   1      34.657  33.173  29.314  1.00  0.00     0.188 C 
BRANCH  31  32
ATOM     32  C   UNL A   1      34.507  33.515  30.781  1.00  0.00     0.188 C 
BRANCH  32  33
ATOM     33  O   UNL A   1      34.676  32.319  31.559  1.00  0.00    -0.376 OA
BRANCH  33  34
ATOM     34  C   UNL A   1      35.383  32.510  32.775  1.00  0.00     0.202 C 
BRANCH  34  35
ATOM     35  C   UNL A   1      36.839  32.035  32.710  1.00  0.00     0.261 C 
BRANCH  35  36
ATOM     36  O   UNL A   1      37.054  31.298  31.486  1.00  0.00    -0.460 OA
BRANCH  36  37
ATOM     37  C   UNL A   1      38.068  31.750  30.706  1.00  0.00     0.338 C 
ATOM     38  O   UNL A   1      38.110  32.873  30.200  1.00  0.00    -0.246 OA
BRANCH  37  39
ATOM     39  C   UNL A   1      39.095  30.695  30.494  1.00  0.00     0.060 A 
ATOM     40  C   UNL A   1      40.116  30.482  31.438  1.00  0.00     0.016 A 
ATOM     41  C   UNL A   1      39.179  30.089  29.247  1.00  0.00     0.016 A 
ATOM     42  C   UNL A   1      41.273  29.772  31.083  1.00  0.00     0.010 A 
ATOM     43  C   UNL A   1      40.369  29.509  28.863  1.00  0.00     0.010 A 
ATOM     44  C   UNL A   1      41.433  29.347  29.763  1.00  0.00    -0.014 A 
BRANCH  44  45
ATOM     45  C   UNL A   1      42.717  28.956  29.140  1.00  0.00     0.031 A 
ATOM     46  C   UNL A   1      43.062  27.483  29.008  1.00  0.00     0.074 A 
ATOM     47  C   UNL A   1      43.223  29.928  28.342  1.00  0.00     0.049 A 
ATOM     48  N   UNL A   1      44.116  26.951  28.472  1.00  0.00    -0.248 NA
ATOM     49  C   UNL A   1      42.204  26.441  29.580  1.00  0.00     0.031 C 
ATOM     50  C   UNL A   1      43.645  29.808  26.970  1.00  0.00     0.029 A 
ATOM     51  N   UNL A   1      43.272  31.296  28.492  1.00  0.00    -0.354 N 
ATOM     52  C   UNL A   1      43.882  25.580  28.267  1.00  0.00     0.074 A 
ATOM     53  C   UNL A   1      42.741  25.314  29.102  1.00  0.00     0.031 C 
ATOM     54  C   UNL A   1      44.196  30.914  26.470  1.00  0.00     0.029 A 
ATOM     55  C   UNL A   1      44.147  31.852  27.535  1.00  0.00     0.049 A 
ATOM     56  H   UNL A   1      42.771  31.809  29.167  1.00  0.00     0.167 HD
ATOM     57  C   UNL A   1      44.570  24.873  27.296  1.00  0.00     0.034 A 
ATOM     58  C   UNL A   1      45.208  32.587  27.925  1.00  0.00     0.034 A 
ATOM     59  C   UNL A   1      45.648  25.701  26.688  1.00  0.00     0.049 A 
ATOM     60  C   UNL A   1      46.438  31.651  27.906  1.00  0.00     0.074 A 
ATOM     61  C   UNL A   1      46.062  25.972  25.389  1.00  0.00     0.029 A 
ATOM     62  N   UNL A   1      46.371  26.600  27.484  1.00  0.00    -0.354 N 
ATOM     63  N   UNL A   1      46.380  30.330  27.790  1.00  0.00    -0.248 NA
ATOM     64  C   UNL A   1      47.815  32.128  27.786  1.00  0.00     0.031 C 
ATOM     65  C   UNL A   1      46.838  27.166  25.413  1.00  0.00     0.029 A 
ATOM     66  C   UNL A   1      46.999  27.568  26.729  1.00  0.00     0.049 A 
ATOM     67  H   UNL A   1      46.424  26.545  28.466  1.00  0.00     0.167 HD
ATOM     68  C   UNL A   1      47.629  29.806  27.562  1.00  0.00     0.074 A 
ATOM     69  C   UNL A   1      48.489  30.983  27.568  1.00  0.00     0.031 C 
ATOM     70  C   UNL A   1      47.946  28.483  27.344  1.00  0.00     0.034 A 
BRANCH  57  71
ATOM     71  C   UNL A   1      44.146  23.501  26.653  1.00  0.00     0.023 A 
ATOM     72  C   UNL A   1      42.808  23.027  26.783  1.00  0.00     0.031 A 
ATOM     73  C   UNL A   1      44.990  22.574  25.996  1.00  0.00     0.131 A 
ATOM     74  C   UNL A   1      42.402  21.727  26.372  1.00  0.00     0.055 A 
ATOM     75  C   UNL A   1      44.573  21.306  25.532  1.00  0.00     0.041 A 
ATOM     76  F   UNL A   1      46.280  22.809  25.762  1.00  0.00    -0.206 F 
ATOM     77  C   UNL A   1      43.280  20.868  25.732  1.00  0.00     0.022 A 
BRANCH  74  78
ATOM     78  S   UNL A   1      40.703  21.139  26.679  1.00  0.00     0.124 S 
ATOM     79  O   UNL A   1      40.652  19.932  25.861  1.00  0.00    -0.237 OA
ATOM     80  O   UNL A   1      40.687  20.942  28.122  1.00  0.00    -0.237 OA
ATOM     81  O   UNL A   1      39.870  22.239  26.195  1.00  0.00    -0.744 OA
ENDBRANCH  74  78
ENDBRANCH  57  71
BRANCH  58  82
ATOM     82  C   UNL A   1      44.591  33.705  28.748  1.00  0.00     0.023 A 
ATOM     83  C   UNL A   1      44.785  33.509  30.166  1.00  0.00     0.031 A 
ATOM     84  C   UNL A   1      44.667  35.035  28.295  1.00  0.00     0.131 A 
ATOM     85  C   UNL A   1      45.333  34.531  30.975  1.00  0.00     0.055 A 
ATOM     86  C   UNL A   1      45.173  36.061  29.127  1.00  0.00     0.041 A 
ATOM     87  F   UNL A   1      44.527  35.315  26.991  1.00  0.00    -0.206 F 
ATOM     88  C   UNL A   1      45.572  35.798  30.442  1.00  0.00     0.022 A 
BRANCH  85  89
ATOM     89  S   UNL A   1      46.060  34.127  32.617  1.00  0.00     0.124 S 
ATOM     90  O   UNL A   1      47.393  33.662  32.254  1.00  0.00    -0.237 OA
ATOM     91  O   UNL A   1      46.006  35.399  33.327  1.00  0.00    -0.237 OA
ATOM     92  O   UNL A   1      45.154  33.101  33.135  1.00  0.00    -0.744 OA
ENDBRANCH  85  89
ENDBRANCH  58  82
BRANCH  70  93
ATOM     93  C   UNL A   1      49.308  27.894  27.662  1.00  0.00     0.023 A 
ATOM     94  C   UNL A   1      50.159  27.481  26.639  1.00  0.00     0.031 A 
ATOM     95  C   UNL A   1      49.871  27.885  28.967  1.00  0.00     0.131 A 
ATOM     96  C   UNL A   1      51.428  26.966  26.913  1.00  0.00     0.055 A 
ATOM     97  C   UNL A   1      51.184  27.481  29.226  1.00  0.00     0.041 A 
ATOM     98  F   UNL A   1      49.196  28.292  30.050  1.00  0.00    -0.206 F 
ATOM     99  C   UNL A   1      51.967  26.992  28.195  1.00  0.00     0.022 A 
BRANCH  96 100
ATOM    100  S   UNL A   1      52.287  26.165  25.547  1.00  0.00     0.124 S 
ATOM    101  O   UNL A   1      51.371  26.424  24.437  1.00  0.00    -0.237 OA
ATOM    102  O   UNL A   1      53.553  26.888  25.502  1.00  0.00    -0.237 OA
ATOM    103  O   UNL A   1      52.376  24.770  25.969  1.00  0.00    -0.744 OA
ENDBRANCH  96 100
ENDBRANCH  70  93
ENDBRANCH  44  45
ENDBRANCH  37  39
ENDBRANCH  36  37
ENDBRANCH  35  36
ENDBRANCH  34  35
ENDBRANCH  33  34
ENDBRANCH  32  33
ENDBRANCH  31  32
ENDBRANCH   1  31
TORSDOF 26
ENDMDL
MODEL 2
REMARK VINA RESULT:      -8.9      8.394     15.781
REMARK SMILES Cc1cc([N+](=O)[O-])ccc1NC(=O)[C@@H]1[C@@H](C(=O)OCCOCCOCCOCCOC(=O)c2ccc(-c3c4nc(c(-c5cc(S(=O)(=O)[O-])ccc5F)c5ccc([nH]5)c(-c5cc(S(=O)(=O)[O-])ccc5F)c5nc(c(-c6cc(S(=O)(=O)[O-])ccc6F)c6ccc3[nH]6)C=C5)C=C4)cc2)[C@H]2C=C[C@@H]1C2
REMARK SMILES IDX 24 1 23 2 22 3 21 4 20 5 19 6 18 7 16 8 17 9 15 10 14 11
REMARK SMILES IDX 99 12 96 13 98 14 100 15 97 16 12 17 11 18 13 20 10 21 1 22
REMARK SMILES IDX 2 23 3 24 4 25 9 26 8 27 5 28 6 29 7 30 25 31 26 32 27 33
REMARK SMILES IDX 28 34 29 35 30 36 31 37 32 38 33 39 34 40 95 41 35 42 94 43
REMARK SMILES IDX 36 44 37 45 38 46 88 47 39 48 93 49 87 50 89 51 40 52 92 53
REMARK SMILES IDX 86 54 85 55 41 57 73 58 53 59 72 60 54 61 57 62 71 63 90 64
REMARK SMILES IDX 55 65 56 66 70 68 91 69 58 70 42 71 43 72 51 73 44 74 50 75
REMARK SMILES IDX 52 76 49 77 45 78 46 79 47 80 48 81 74 82 75 83 83 84 76 85
REMARK SMILES IDX 82 86 84 87 81 88 77 89 78 90 79 91 80 92 59 93 60 94 68 95
REMARK SMILES IDX 61 96 67 97 69 98 66 99 62 100 63 101 64 102 65 103
REMARK H PARENT 11 19 89 56 57 67
REMARK Flexibility Score: inf
ROOT
ATOM      1  O   UNL A   1      47.043  43.358  27.495  1.00  0.00    -0.377 OA
ENDROOT
BRANCH   1   2
ATOM      2  C   UNL A   1      47.077  44.395  26.525  1.00  0.00     0.188 C 
BRANCH   2   3
ATOM      3  C   UNL A   1      45.686  44.877  26.153  1.00  0.00     0.188 C 
BRANCH   3   4
ATOM      4  O   UNL A   1      44.807  44.053  25.393  1.00  0.00    -0.376 OA
BRANCH   4   5
ATOM      5  C   UNL A   1      44.540  44.574  24.075  1.00  0.00     0.202 C 
BRANCH   5   6
ATOM      6  C   UNL A   1      43.373  44.035  23.170  1.00  0.00     0.261 C 
BRANCH   6   7
ATOM      7  O   UNL A   1      43.339  44.248  21.746  1.00  0.00    -0.463 OA
BRANCH   7   8
ATOM      8  C   UNL A   1      43.317  43.103  21.106  1.00  0.00     0.310 C 
ATOM      9  O   UNL A   1      43.015  42.066  21.695  1.00  0.00    -0.252 OA
BRANCH   8  10
ATOM     10  C   UNL A   1      43.420  43.132  19.614  1.00  0.00     0.119 C 
ATOM     11  C   UNL A   1      44.114  44.502  19.427  1.00  0.00     0.100 C 
ATOM     12  C   UNL A   1      43.490  45.035  18.146  1.00  0.00     0.025 C 
ATOM     13  C   UNL A   1      42.305  43.166  18.558  1.00  0.00     0.027 C 
ATOM     14  C   UNL A   1      42.073  45.445  18.559  1.00  0.00    -0.027 C 
ATOM     15  C   UNL A   1      43.121  43.766  17.385  1.00  0.00     0.017 C 
ATOM     16  C   UNL A   1      41.376  44.320  18.792  1.00  0.00    -0.027 C 
BRANCH  11  17
ATOM     17  C   UNL A   1      45.603  44.280  19.637  1.00  0.00     0.228 C 
ATOM     18  N   UNL A   1      46.426  45.356  19.901  1.00  0.00    -0.326 N 
ATOM     19  H   UNL A   1      47.300  45.141  20.297  1.00  0.00     0.169 HD
ATOM     20  O   UNL A   1      46.094  43.148  19.656  1.00  0.00    -0.274 OA
BRANCH  18  21
ATOM     21  C   UNL A   1      46.171  46.728  19.673  1.00  0.00     0.044 A 
ATOM     22  C   UNL A   1      47.179  46.510  17.343  1.00  0.00     0.047 C 
ATOM     23  C   UNL A   1      46.364  47.223  18.381  1.00  0.00    -0.021 A 
ATOM     24  C   UNL A   1      45.733  48.434  18.032  1.00  0.00     0.091 A 
ATOM     25  C   UNL A   1      44.970  49.143  18.975  1.00  0.00     0.269 A 
ATOM     26  C   UNL A   1      45.611  47.583  20.637  1.00  0.00     0.033 A 
ATOM     27  C   UNL A   1      44.948  48.749  20.295  1.00  0.00     0.088 A 
BRANCH  25  28
ATOM     28  N   UNL A   1      44.126  50.253  18.555  1.00  0.00     0.062 N 
ATOM     29  O   UNL A   1      44.142  50.551  17.349  1.00  0.00    -0.258 OA
ATOM     30  O   UNL A   1      43.341  50.724  19.391  1.00  0.00    -0.258 OA
ENDBRANCH  25  28
ENDBRANCH  18  21
ENDBRANCH  11  17
ENDBRANCH   8  10
ENDBRANCH   7   8
ENDBRANCH   6   7
ENDBRANCH   5   6
ENDBRANCH   4   5
ENDBRANCH   3   4
ENDBRANCH   2   3
ENDBRANCH   1   2
BRANCH   1  31
ATOM     31  C   UNL A   1      47.280  42.056  26.972  1.00  0.00     0.188 C 
BRANCH  31  32
ATOM     32  C   UNL A   1      46.386  41.011  27.604  1.00  0.00     0.188 C 
BRANCH  32  33
ATOM     33  O   UNL A   1      45.017  41.432  27.482  1.00  0.00    -0.376 OA
BRANCH  33  34
ATOM     34  C   UNL A   1      44.213  40.574  26.685  1.00  0.00     0.202 C 
BRANCH  34  35
ATOM     35  C   UNL A   1      44.423  39.088  26.995  1.00  0.00     0.261 C 
BRANCH  35  36
ATOM     36  O   UNL A   1      43.371  38.621  27.867  1.00  0.00    -0.460 OA
BRANCH  36  37
ATOM     37  C   UNL A   1      43.766  38.264  29.115  1.00  0.00     0.338 C 
ATOM     38  O   UNL A   1      44.546  38.916  29.811  1.00  0.00    -0.246 OA
BRANCH  37  39
ATOM     39  C   UNL A   1      43.179  36.957  29.513  1.00  0.00     0.060 A 
ATOM     40  C   UNL A   1      43.592  36.307  30.690  1.00  0.00     0.016 A 
ATOM     41  C   UNL A   1      42.398  36.271  28.590  1.00  0.00     0.016 A 
ATOM     42  C   UNL A   1      43.332  34.940  30.874  1.00  0.00     0.010 A 
ATOM     43  C   UNL A   1      42.262  34.905  28.714  1.00  0.00     0.010 A 
ATOM     44  C   UNL A   1      42.728  34.217  29.844  1.00  0.00    -0.014 A 
BRANCH  44  45
ATOM     45  C   UNL A   1      42.746  32.743  29.709  1.00  0.00     0.031 A 
ATOM     46  C   UNL A   1      43.945  32.070  29.066  1.00  0.00     0.074 A 
ATOM     47  C   UNL A   1      41.913  32.132  30.587  1.00  0.00     0.049 A 
ATOM     48  N   UNL A   1      44.153  30.803  28.885  1.00  0.00    -0.248 NA
ATOM     49  C   UNL A   1      45.038  32.850  28.477  1.00  0.00     0.031 C 
ATOM     50  C   UNL A   1      42.232  31.072  31.509  1.00  0.00     0.029 A 
ATOM     51  N   UNL A   1      40.650  32.462  31.023  1.00  0.00    -0.354 N 
ATOM     52  C   UNL A   1      45.506  30.602  28.563  1.00  0.00     0.074 A 
ATOM     53  C   UNL A   1      45.953  31.918  28.193  1.00  0.00     0.031 C 
ATOM     54  C   UNL A   1      41.182  30.600  32.180  1.00  0.00     0.029 A 
ATOM     55  C   UNL A   1      40.083  31.371  31.717  1.00  0.00     0.049 A 
ATOM     56  H   UNL A   1      40.207  33.328  30.872  1.00  0.00     0.167 HD
ATOM     57  C   UNL A   1      46.128  29.389  28.806  1.00  0.00     0.034 A 
ATOM     58  C   UNL A   1      38.918  30.831  31.306  1.00  0.00     0.034 A 
ATOM     59  C   UNL A   1      45.148  28.359  29.251  1.00  0.00     0.049 A 
ATOM     60  C   UNL A   1      39.270  29.584  30.463  1.00  0.00     0.074 A 
ATOM     61  C   UNL A   1      45.106  27.427  30.281  1.00  0.00     0.029 A 
ATOM     62  N   UNL A   1      43.859  28.340  28.702  1.00  0.00    -0.354 N 
ATOM     63  N   UNL A   1      40.488  29.290  30.023  1.00  0.00    -0.248 NA
ATOM     64  C   UNL A   1      38.350  28.469  30.245  1.00  0.00     0.031 C 
ATOM     65  C   UNL A   1      43.747  27.044  30.473  1.00  0.00     0.029 A 
ATOM     66  C   UNL A   1      42.971  27.647  29.497  1.00  0.00     0.049 A 
ATOM     67  H   UNL A   1      43.617  28.769  27.850  1.00  0.00     0.167 HD
ATOM     68  C   UNL A   1      40.528  28.013  29.519  1.00  0.00     0.074 A 
ATOM     69  C   UNL A   1      39.157  27.547  29.687  1.00  0.00     0.031 C 
ATOM     70  C   UNL A   1      41.629  27.352  29.020  1.00  0.00     0.034 A 
BRANCH  57  71
ATOM     71  C   UNL A   1      47.676  29.131  28.916  1.00  0.00     0.023 A 
ATOM     72  C   UNL A   1      48.500  30.008  29.679  1.00  0.00     0.031 A 
ATOM     73  C   UNL A   1      48.420  28.131  28.246  1.00  0.00     0.131 A 
ATOM     74  C   UNL A   1      49.921  29.929  29.685  1.00  0.00     0.055 A 
ATOM     75  C   UNL A   1      49.827  28.014  28.300  1.00  0.00     0.041 A 
ATOM     76  F   UNL A   1      47.856  27.200  27.479  1.00  0.00    -0.206 F 
ATOM     77  C   UNL A   1      50.588  28.922  29.007  1.00  0.00     0.022 A 
BRANCH  74  78
ATOM     78  S   UNL A   1      50.921  31.160  30.585  1.00  0.00     0.124 S 
ATOM     79  O   UNL A   1      52.017  30.341  31.093  1.00  0.00    -0.237 OA
ATOM     80  O   UNL A   1      51.261  32.121  29.545  1.00  0.00    -0.237 OA
ATOM     81  O   UNL A   1      50.005  31.656  31.612  1.00  0.00    -0.744 OA
ENDBRANCH  74  78
ENDBRANCH  57  71
BRANCH  58  82
ATOM     82  C   UNL A   1      37.948  31.999  31.333  1.00  0.00     0.023 A 
ATOM     83  C   UNL A   1      37.403  32.284  30.026  1.00  0.00     0.031 A 
ATOM     84  C   UNL A   1      37.061  32.152  32.415  1.00  0.00     0.131 A 
ATOM     85  C   UNL A   1      36.006  32.388  29.824  1.00  0.00     0.055 A 
ATOM     86  C   UNL A   1      35.671  32.302  32.204  1.00  0.00     0.041 A 
ATOM     87  F   UNL A   1      37.468  31.884  33.665  1.00  0.00    -0.206 F 
ATOM     88  C   UNL A   1      35.135  32.349  30.912  1.00  0.00     0.022 A 
BRANCH  85  89
ATOM     89  S   UNL A   1      35.297  32.222  28.134  1.00  0.00     0.124 S 
ATOM     90  O   UNL A   1      36.044  31.089  27.600  1.00  0.00    -0.237 OA
ATOM     91  O   UNL A   1      33.882  31.983  28.389  1.00  0.00    -0.237 OA
ATOM     92  O   UNL A   1      35.596  33.518  27.522  1.00  0.00    -0.744 OA
ENDBRANCH  85  89
ENDBRANCH  58  82
BRANCH  70  93
ATOM     93  C   UNL A   1      41.533  26.237  27.996  1.00  0.00     0.023 A 
ATOM     94  C   UNL A   1      41.694  24.906  28.379  1.00  0.00     0.031 A 
ATOM     95  C   UNL A   1      41.110  26.440  26.654  1.00  0.00     0.131 A 
ATOM     96  C   UNL A   1      41.577  23.865  27.455  1.00  0.00     0.055 A 
ATOM     97  C   UNL A   1      40.878  25.389  25.762  1.00  0.00     0.041 A 
ATOM     98  F   UNL A   1      40.871  27.657  26.147  1.00  0.00    -0.206 F 
ATOM     99  C   UNL A   1      41.136  24.087  26.155  1.00  0.00     0.022 A 
BRANCH  96 100
ATOM    100  S   UNL A   1      42.133  22.239  27.996  1.00  0.00     0.124 S 
ATOM    101  O   UNL A   1      42.856  21.772  26.814  1.00  0.00    -0.237 OA
ATOM    102  O   UNL A   1      42.959  22.556  29.156  1.00  0.00    -0.237 OA
ATOM    103  O   UNL A   1      40.889  21.531  28.286  1.00  0.00    -0.744 OA
ENDBRANCH  96 100
ENDBRANCH  70  93
ENDBRANCH  44  45
ENDBRANCH  37  39
ENDBRANCH  36  37
ENDBRANCH  35  36
ENDBRANCH  34  35
ENDBRANCH  33  34
ENDBRANCH  32  33
ENDBRANCH  31  32
ENDBRANCH   1  31
TORSDOF 26
ENDMDL
MODEL 3
REMARK VINA RESULT:      -8.1      7.354     11.856
REMARK SMILES Cc1cc([N+](=O)[O-])ccc1NC(=O)[C@@H]1[C@@H](C(=O)OCCOCCOCCOCCOC(=O)c2ccc(-c3c4nc(c(-c5cc(S(=O)(=O)[O-])ccc5F)c5ccc([nH]5)c(-c5cc(S(=O)(=O)[O-])ccc5F)c5nc(c(-c6cc(S(=O)(=O)[O-])ccc6F)c6ccc3[nH]6)C=C5)C=C4)cc2)[C@H]2C=C[C@@H]1C2
REMARK SMILES IDX 24 1 23 2 22 3 21 4 20 5 19 6 18 7 16 8 17 9 15 10 14 11
REMARK SMILES IDX 99 12 96 13 98 14 100 15 97 16 12 17 11 18 13 20 10 21 1 22
REMARK SMILES IDX 2 23 3 24 4 25 9 26 8 27 5 28 6 29 7 30 25 31 26 32 27 33
REMARK SMILES IDX 28 34 29 35 30 36 31 37 32 38 33 39 34 40 95 41 35 42 94 43
REMARK SMILES IDX 36 44 37 45 38 46 88 47 39 48 93 49 87 50 89 51 40 52 92 53
REMARK SMILES IDX 86 54 85 55 41 57 73 58 53 59 72 60 54 61 57 62 71 63 90 64
REMARK SMILES IDX 55 65 56 66 70 68 91 69 58 70 42 71 43 72 51 73 44 74 50 75
REMARK SMILES IDX 52 76 49 77 45 78 46 79 47 80 48 81 74 82 75 83 83 84 76 85
REMARK SMILES IDX 82 86 84 87 81 88 77 89 78 90 79 91 80 92 59 93 60 94 68 95
REMARK SMILES IDX 61 96 67 97 69 98 66 99 62 100 63 101 64 102 65 103
REMARK H PARENT 11 19 89 56 57 67
REMARK Flexibility Score: inf
ROOT
ATOM      1  O   UNL A   1      34.108  36.277  32.787  1.00  0.00    -0.377 OA
ENDROOT
BRANCH   1   2
ATOM      2  C   UNL A   1      34.563  35.548  33.919  1.00  0.00     0.188 C 
BRANCH   2   3
ATOM      3  C   UNL A   1      35.444  34.375  33.528  1.00  0.00     0.188 C 
BRANCH   3   4
ATOM      4  O   UNL A   1      35.612  33.265  34.404  1.00  0.00    -0.376 OA
BRANCH   4   5
ATOM      5  C   UNL A   1      36.984  33.055  34.796  1.00  0.00     0.202 C 
BRANCH   5   6
ATOM      6  C   UNL A   1      37.580  33.623  36.135  1.00  0.00     0.261 C 
BRANCH   6   7
ATOM      7  O   UNL A   1      38.979  33.522  36.461  1.00  0.00    -0.463 OA
BRANCH   7   8
ATOM      8  C   UNL A   1      39.687  34.348  35.728  1.00  0.00     0.310 C 
ATOM      9  O   UNL A   1      39.327  35.515  35.580  1.00  0.00    -0.252 OA
BRANCH   8  10
ATOM     10  C   UNL A   1      41.050  33.908  35.294  1.00  0.00     0.119 C 
ATOM     11  C   UNL A   1      41.917  34.819  36.195  1.00  0.00     0.100 C 
ATOM     12  C   UNL A   1      43.109  35.149  35.309  1.00  0.00     0.025 C 
ATOM     13  C   UNL A   1      41.727  34.038  33.922  1.00  0.00     0.027 C 
ATOM     14  C   UNL A   1      42.553  36.144  34.285  1.00  0.00    -0.027 C 
ATOM     15  C   UNL A   1      43.202  33.938  34.386  1.00  0.00     0.017 C 
ATOM     16  C   UNL A   1      41.739  35.465  33.459  1.00  0.00    -0.027 C 
BRANCH  11  17
ATOM     17  C   UNL A   1      42.010  34.144  37.553  1.00  0.00     0.228 C 
ATOM     18  N   UNL A   1      41.717  34.859  38.696  1.00  0.00    -0.326 N 
ATOM     19  H   UNL A   1      41.521  34.326  39.499  1.00  0.00     0.169 HD
ATOM     20  O   UNL A   1      42.267  32.941  37.665  1.00  0.00    -0.274 OA
BRANCH  18  21
ATOM     21  C   UNL A   1      41.663  36.263  38.859  1.00  0.00     0.044 A 
ATOM     22  C   UNL A   1      39.125  36.127  39.036  1.00  0.00     0.047 C 
ATOM     23  C   UNL A   1      40.437  36.834  39.208  1.00  0.00    -0.021 A 
ATOM     24  C   UNL A   1      40.442  38.123  39.778  1.00  0.00     0.091 A 
ATOM     25  C   UNL A   1      41.646  38.828  39.947  1.00  0.00     0.269 A 
ATOM     26  C   UNL A   1      42.797  37.092  38.820  1.00  0.00     0.033 A 
ATOM     27  C   UNL A   1      42.822  38.338  39.422  1.00  0.00     0.088 A 
BRANCH  25  28
ATOM     28  N   UNL A   1      41.682  40.042  40.749  1.00  0.00     0.062 N 
ATOM     29  O   UNL A   1      42.688  40.226  41.453  1.00  0.00    -0.258 OA
ATOM     30  O   UNL A   1      40.784  40.878  40.564  1.00  0.00    -0.258 OA
ENDBRANCH  25  28
ENDBRANCH  18  21
ENDBRANCH  11  17
ENDBRANCH   8  10
ENDBRANCH   7   8
ENDBRANCH   6   7
ENDBRANCH   5   6
ENDBRANCH   4   5
ENDBRANCH   3   4
ENDBRANCH   2   3
ENDBRANCH   1   2
BRANCH   1  31
ATOM     31  C   UNL A   1      33.811  35.473  31.651  1.00  0.00     0.188 C 
BRANCH  31  32
ATOM     32  C   UNL A   1      32.711  36.067  30.798  1.00  0.00     0.188 C 
BRANCH  32  33
ATOM     33  O   UNL A   1      33.123  36.041  29.421  1.00  0.00    -0.376 OA
BRANCH  33  34
ATOM     34  C   UNL A   1      33.413  34.743  28.924  1.00  0.00     0.202 C 
BRANCH  34  35
ATOM     35  C   UNL A   1      34.690  34.690  28.079  1.00  0.00     0.261 C 
BRANCH  35  36
ATOM     36  O   UNL A   1      35.798  34.261  28.900  1.00  0.00    -0.460 OA
BRANCH  36  37
ATOM     37  C   UNL A   1      36.317  33.046  28.589  1.00  0.00     0.338 C 
ATOM     38  O   UNL A   1      36.041  32.412  27.569  1.00  0.00    -0.246 OA
BRANCH  37  39
ATOM     39  C   UNL A   1      37.220  32.555  29.664  1.00  0.00     0.060 A 
ATOM     40  C   UNL A   1      37.592  33.391  30.732  1.00  0.00     0.016 A 
ATOM     41  C   UNL A   1      37.882  31.348  29.476  1.00  0.00     0.016 A 
ATOM     42  C   UNL A   1      38.707  33.075  31.524  1.00  0.00     0.010 A 
ATOM     43  C   UNL A   1      39.050  31.111  30.169  1.00  0.00     0.010 A 
ATOM     44  C   UNL A   1      39.486  31.966  31.192  1.00  0.00    -0.014 A 
BRANCH  44  45
ATOM     45  C   UNL A   1      40.872  31.726  31.651  1.00  0.00     0.031 A 
ATOM     46  C   UNL A   1      41.118  30.770  32.806  1.00  0.00     0.074 A 
ATOM     47  C   UNL A   1      41.792  32.018  30.700  1.00  0.00     0.049 A 
ATOM     48  N   UNL A   1      42.251  30.416  33.326  1.00  0.00    -0.248 NA
ATOM     49  C   UNL A   1      40.009  30.162  33.547  1.00  0.00     0.031 C 
ATOM     50  C   UNL A   1      42.849  31.172  30.209  1.00  0.00     0.029 A 
ATOM     51  N   UNL A   1      41.864  33.048  29.789  1.00  0.00    -0.354 N 
ATOM     52  C   UNL A   1      42.050  29.284  34.135  1.00  0.00     0.074 A 
ATOM     53  C   UNL A   1      40.625  29.274  34.333  1.00  0.00     0.031 C 
ATOM     54  C   UNL A   1      43.664  31.767  29.338  1.00  0.00     0.029 A 
ATOM     55  C   UNL A   1      43.148  33.083  29.205  1.00  0.00     0.049 A 
ATOM     56  H   UNL A   1      41.129  33.670  29.578  1.00  0.00     0.167 HD
ATOM     57  C   UNL A   1      43.081  28.401  34.403  1.00  0.00     0.034 A 
ATOM     58  C   UNL A   1      43.910  34.191  29.294  1.00  0.00     0.034 A 
ATOM     59  C   UNL A   1      44.380  28.917  33.887  1.00  0.00     0.049 A 
ATOM     60  C   UNL A   1      44.896  33.969  30.464  1.00  0.00     0.074 A 
ATOM     61  C   UNL A   1      45.423  28.377  33.145  1.00  0.00     0.029 A 
ATOM     62  N   UNL A   1      44.657  30.289  33.943  1.00  0.00    -0.354 N 
ATOM     63  N   UNL A   1      44.802  32.989  31.354  1.00  0.00    -0.248 NA
ATOM     64  C   UNL A   1      46.170  34.674  30.592  1.00  0.00     0.031 C 
ATOM     65  C   UNL A   1      46.168  29.454  32.582  1.00  0.00     0.029 A 
ATOM     66  C   UNL A   1      45.659  30.649  33.066  1.00  0.00     0.049 A 
ATOM     67  H   UNL A   1      44.193  30.921  34.538  1.00  0.00     0.167 HD
ATOM     68  C   UNL A   1      45.944  32.910  32.114  1.00  0.00     0.074 A 
ATOM     69  C   UNL A   1      46.767  33.992  31.587  1.00  0.00     0.031 C 
ATOM     70  C   UNL A   1      46.223  31.988  33.099  1.00  0.00     0.034 A 
BRANCH  57  71
ATOM     71  C   UNL A   1      42.943  26.915  34.900  1.00  0.00     0.023 A 
ATOM     72  C   UNL A   1      43.683  25.873  34.268  1.00  0.00     0.031 A 
ATOM     73  C   UNL A   1      42.062  26.430  35.896  1.00  0.00     0.131 A 
ATOM     74  C   UNL A   1      43.481  24.494  34.557  1.00  0.00     0.055 A 
ATOM     75  C   UNL A   1      41.905  25.065  36.225  1.00  0.00     0.041 A 
ATOM     76  F   UNL A   1      41.276  27.228  36.617  1.00  0.00    -0.206 F 
ATOM     77  C   UNL A   1      42.602  24.087  35.546  1.00  0.00     0.022 A 
BRANCH  74  78
ATOM     78  S   UNL A   1      44.373  23.206  33.625  1.00  0.00     0.124 S 
ATOM     79  O   UNL A   1      43.579  23.116  32.404  1.00  0.00    -0.237 OA
ATOM     80  O   UNL A   1      45.707  23.774  33.486  1.00  0.00    -0.237 OA
ATOM     81  O   UNL A   1      44.286  22.034  34.495  1.00  0.00    -0.744 OA
ENDBRANCH  74  78
ENDBRANCH  57  71
BRANCH  58  82
ATOM     82  C   UNL A   1      43.047  35.275  28.670  1.00  0.00     0.023 A 
ATOM     83  C   UNL A   1      43.015  36.475  29.473  1.00  0.00     0.031 A 
ATOM     84  C   UNL A   1      43.061  35.469  27.276  1.00  0.00     0.131 A 
ATOM     85  C   UNL A   1      43.306  37.739  28.909  1.00  0.00     0.055 A 
ATOM     86  C   UNL A   1      43.307  36.745  26.719  1.00  0.00     0.041 A 
ATOM     87  F   UNL A   1      43.119  34.415  26.448  1.00  0.00    -0.206 F 
ATOM     88  C   UNL A   1      43.499  37.867  27.534  1.00  0.00     0.022 A 
BRANCH  85  89
ATOM     89  S   UNL A   1      43.778  39.152  29.989  1.00  0.00     0.124 S 
ATOM     90  O   UNL A   1      42.688  40.092  29.754  1.00  0.00    -0.237 OA
ATOM     91  O   UNL A   1      43.821  38.554  31.318  1.00  0.00    -0.237 OA
ATOM     92  O   UNL A   1      45.081  39.553  29.459  1.00  0.00    -0.744 OA
ENDBRANCH  85  89
ENDBRANCH  58  82
BRANCH  70  93
ATOM     93  C   UNL A   1      47.174  32.266  34.247  1.00  0.00     0.023 A 
ATOM     94  C   UNL A   1      46.705  32.803  35.444  1.00  0.00     0.031 A 
ATOM     95  C   UNL A   1      48.533  31.848  34.256  1.00  0.00     0.131 A 
ATOM     96  C   UNL A   1      47.562  33.035  36.522  1.00  0.00     0.055 A 
ATOM     97  C   UNL A   1      49.360  31.971  35.376  1.00  0.00     0.041 A 
ATOM     98  F   UNL A   1      49.121  31.275  33.197  1.00  0.00    -0.206 F 
ATOM     99  C   UNL A   1      48.881  32.593  36.516  1.00  0.00     0.022 A 
BRANCH  96 100
ATOM    100  S   UNL A   1      46.909  34.031  37.874  1.00  0.00     0.124 S 
ATOM    101  O   UNL A   1      47.537  35.325  37.609  1.00  0.00    -0.237 OA
ATOM    102  O   UNL A   1      45.470  33.971  37.645  1.00  0.00    -0.237 OA
ATOM    103  O   UNL A   1      47.384  33.341  39.069  1.00  0.00    -0.744 OA
ENDBRANCH  96 100
ENDBRANCH  70  93
ENDBRANCH  44  45
ENDBRANCH  37  39
ENDBRANCH  36  37
ENDBRANCH  35  36
ENDBRANCH  34  35
ENDBRANCH  33  34
ENDBRANCH  32  33
ENDBRANCH  31  32
ENDBRANCH   1  31
TORSDOF 26
ENDMDL
