MODEL 1
REMARK VINA RESULT:      -9.6      0.000      0.000
REMARK SMILES COc1ccc2c(CC(=O)OCCOCCOCCOCCOC(=O)c3ccc(-c4c5nc(c(-c6cc(S(=O)(=O)[O-])ccc6F)c6ccc([nH]6)c(-c6cc(S(=O)(=O)[O-])ccc6F)c6nc(c(-c7cc(S(=O)(=O)[O-])ccc7F)c7ccc4[nH]7)C=C6)C=C5)cc3)c(C(=O)c3cc(C)ccn3)[nH]c2c1
REMARK SMILES IDX 17 1 16 2 15 3 14 4 13 5 12 6 11 7 9 8 10 9 8 10 7 11 3 12
REMARK SMILES IDX 4 13 101 14 5 15 100 16 6 17 99 18 89 19 2 21 1 22 90 23
REMARK SMILES IDX 91 24 92 25 93 26 98 27 94 28 97 29 95 30 96 31 18 32 19 33
REMARK SMILES IDX 20 34 21 35 22 36 23 37 24 38 25 39 26 40 27 41 88 42 28 43
REMARK SMILES IDX 87 44 29 45 30 46 31 47 81 48 32 49 86 50 80 51 82 52 33 53
REMARK SMILES IDX 85 54 79 55 78 56 34 58 66 59 46 60 65 61 47 62 50 63 64 64
REMARK SMILES IDX 83 65 48 66 49 67 63 69 84 70 51 71 35 72 36 73 44 74 37 75
REMARK SMILES IDX 43 76 45 77 42 78 38 79 39 80 40 81 41 82 67 83 68 84 76 85
REMARK SMILES IDX 69 86 75 87 77 88 74 89 70 90 71 91 72 92 73 93 52 94 53 95
REMARK SMILES IDX 61 96 54 97 60 98 62 99 59 100 55 101 56 102 57 103 58 104
REMARK H PARENT 99 20 82 57 50 68
REMARK Flexibility Score: inf
ROOT
ATOM      1  O   UNL A   1      34.328  28.482  26.444  1.00  0.00    -0.377 OA
ENDROOT
BRANCH   1   2
ATOM      2  C   UNL A   1      32.941  28.693  26.283  1.00  0.00     0.188 C 
BRANCH   2   3
ATOM      3  C   UNL A   1      32.267  29.361  25.064  1.00  0.00     0.188 C 
BRANCH   3   4
ATOM      4  O   UNL A   1      32.410  28.797  23.775  1.00  0.00    -0.376 OA
BRANCH   4   5
ATOM      5  C   UNL A   1      31.315  28.324  23.020  1.00  0.00     0.202 C 
BRANCH   5   6
ATOM      6  C   UNL A   1      31.310  27.025  22.189  1.00  0.00     0.261 C 
BRANCH   6   7
ATOM      7  O   UNL A   1      32.522  26.685  21.494  1.00  0.00    -0.463 OA
BRANCH   7   8
ATOM      8  C   UNL A   1      33.217  25.611  21.926  1.00  0.00     0.310 C 
ATOM      9  O   UNL A   1      33.287  24.559  21.293  1.00  0.00    -0.252 OA
BRANCH   8  10
ATOM     10  C   UNL A   1      33.966  25.782  23.242  1.00  0.00     0.161 C 
BRANCH  10  11
ATOM     11  C   UNL A   1      33.772  24.829  24.412  1.00  0.00     0.000 A 
ATOM     12  C   UNL A   1      30.477  23.868  26.872  1.00  0.00     0.120 A 
ATOM     13  C   UNL A   1      30.294  24.968  26.037  1.00  0.00     0.047 A 
ATOM     14  C   UNL A   1      31.723  23.247  26.964  1.00  0.00     0.073 A 
ATOM     15  C   UNL A   1      31.336  25.420  25.208  1.00  0.00     0.014 A 
ATOM     16  C   UNL A   1      32.734  23.688  26.101  1.00  0.00     0.050 A 
ATOM     17  C   UNL A   1      32.571  24.739  25.204  1.00  0.00     0.004 A 
ATOM     18  N   UNL A   1      34.017  23.236  25.952  1.00  0.00    -0.351 N 
ATOM     19  C   UNL A   1      34.591  23.745  24.805  1.00  0.00     0.093 A 
ATOM     20  H   UNL A   1      34.472  22.627  26.579  1.00  0.00     0.167 HD
BRANCH  12  21
ATOM     21  O   UNL A   1      29.496  23.360  27.685  1.00  0.00    -0.497 OA
ATOM     22  C   UNL A   1      28.864  22.196  27.156  1.00  0.00     0.278 C 
ENDBRANCH  12  21
BRANCH  19  23
ATOM     23  C   UNL A   1      35.846  23.261  24.209  1.00  0.00     0.227 C 
ATOM     24  O   UNL A   1      35.951  23.043  23.002  1.00  0.00    -0.285 OA
BRANCH  23  25
ATOM     25  C   UNL A   1      37.087  23.064  25.047  1.00  0.00     0.113 A 
ATOM     26  C   UNL A   1      37.636  24.068  25.846  1.00  0.00     0.036 A 
ATOM     27  N   UNL A   1      37.607  21.808  24.996  1.00  0.00    -0.253 NA
ATOM     28  C   UNL A   1      38.788  23.779  26.597  1.00  0.00    -0.047 A 
ATOM     29  C   UNL A   1      38.705  21.554  25.736  1.00  0.00     0.112 A 
ATOM     30  C   UNL A   1      39.455  24.808  27.462  1.00  0.00     0.044 C 
ATOM     31  C   UNL A   1      39.340  22.499  26.519  1.00  0.00     0.023 A 
ENDBRANCH  23  25
ENDBRANCH  19  23
ENDBRANCH  10  11
ENDBRANCH   8  10
ENDBRANCH   7   8
ENDBRANCH   6   7
ENDBRANCH   5   6
ENDBRANCH   4   5
ENDBRANCH   3   4
ENDBRANCH   2   3
ENDBRANCH   1   2
BRANCH   1  32
ATOM     32  C   UNL A   1      35.017  29.354  27.302  1.00  0.00     0.188 C 
BRANCH  32  33
ATOM     33  C   UNL A   1      34.396  30.751  27.287  1.00  0.00     0.188 C 
BRANCH  33  34
ATOM     34  O   UNL A   1      34.580  31.452  28.511  1.00  0.00    -0.376 OA
BRANCH  34  35
ATOM     35  C   UNL A   1      35.919  31.751  28.901  1.00  0.00     0.202 C 
BRANCH  35  36
ATOM     36  C   UNL A   1      36.271  31.891  30.396  1.00  0.00     0.261 C 
BRANCH  36  37
ATOM     37  O   UNL A   1      36.834  30.738  31.032  1.00  0.00    -0.460 OA
BRANCH  37  38
ATOM     38  C   UNL A   1      37.174  30.837  32.329  1.00  0.00     0.338 C 
ATOM     39  O   UNL A   1      36.487  31.252  33.246  1.00  0.00    -0.246 OA
BRANCH  38  40
ATOM     40  C   UNL A   1      38.460  30.131  32.457  1.00  0.00     0.060 A 
ATOM     41  C   UNL A   1      39.612  30.888  32.703  1.00  0.00     0.016 A 
ATOM     42  C   UNL A   1      38.508  28.733  32.438  1.00  0.00     0.016 A 
ATOM     43  C   UNL A   1      40.820  30.245  32.954  1.00  0.00     0.010 A 
ATOM     44  C   UNL A   1      39.728  28.091  32.642  1.00  0.00     0.010 A 
ATOM     45  C   UNL A   1      40.887  28.848  32.887  1.00  0.00    -0.014 A 
BRANCH  45  46
ATOM     46  C   UNL A   1      42.210  28.199  32.820  1.00  0.00     0.031 A 
ATOM     47  C   UNL A   1      42.898  27.918  34.124  1.00  0.00     0.074 A 
ATOM     48  C   UNL A   1      42.761  27.855  31.643  1.00  0.00     0.049 A 
ATOM     49  N   UNL A   1      44.077  27.410  34.352  1.00  0.00    -0.248 NA
ATOM     50  C   UNL A   1      42.143  28.263  35.342  1.00  0.00     0.031 C 
ATOM     51  C   UNL A   1      42.135  28.036  30.334  1.00  0.00     0.029 A 
ATOM     52  N   UNL A   1      43.974  27.286  31.362  1.00  0.00    -0.354 N 
ATOM     53  C   UNL A   1      44.205  27.369  35.735  1.00  0.00     0.074 A 
ATOM     54  C   UNL A   1      42.999  27.936  36.295  1.00  0.00     0.031 C 
ATOM     55  C   UNL A   1      42.982  27.598  29.384  1.00  0.00     0.029 A 
ATOM     56  C   UNL A   1      44.220  27.147  30.015  1.00  0.00     0.049 A 
ATOM     57  H   UNL A   1      44.611  27.003  32.057  1.00  0.00     0.167 HD
ATOM     58  C   UNL A   1      45.238  26.894  36.470  1.00  0.00     0.034 A 
ATOM     59  C   UNL A   1      45.335  26.734  29.379  1.00  0.00     0.034 A 
ATOM     60  C   UNL A   1      46.443  26.373  35.880  1.00  0.00     0.049 A 
ATOM     61  C   UNL A   1      46.525  26.324  30.218  1.00  0.00     0.074 A 
ATOM     62  C   UNL A   1      47.569  25.877  36.508  1.00  0.00     0.029 A 
ATOM     63  N   UNL A   1      46.683  26.302  34.512  1.00  0.00    -0.354 N 
ATOM     64  N   UNL A   1      46.637  26.282  31.528  1.00  0.00    -0.248 NA
ATOM     65  C   UNL A   1      47.735  25.909  29.499  1.00  0.00     0.031 C 
ATOM     66  C   UNL A   1      48.518  25.579  35.524  1.00  0.00     0.029 A 
ATOM     67  C   UNL A   1      47.955  25.808  34.278  1.00  0.00     0.049 A 
ATOM     68  H   UNL A   1      46.043  26.566  33.811  1.00  0.00     0.167 HD
ATOM     69  C   UNL A   1      47.922  25.809  31.786  1.00  0.00     0.074 A 
ATOM     70  C   UNL A   1      48.538  25.567  30.496  1.00  0.00     0.031 C 
ATOM     71  C   UNL A   1      48.540  25.590  32.975  1.00  0.00     0.034 A 
BRANCH  58  72
ATOM     72  C   UNL A   1      45.120  26.991  37.971  1.00  0.00     0.023 A 
ATOM     73  C   UNL A   1      45.559  28.127  38.675  1.00  0.00     0.031 A 
ATOM     74  C   UNL A   1      44.618  25.909  38.713  1.00  0.00     0.131 A 
ATOM     75  C   UNL A   1      45.556  28.125  40.078  1.00  0.00     0.055 A 
ATOM     76  C   UNL A   1      44.542  25.946  40.107  1.00  0.00     0.041 A 
ATOM     77  F   UNL A   1      44.215  24.786  38.099  1.00  0.00    -0.206 F 
ATOM     78  C   UNL A   1      45.026  27.052  40.798  1.00  0.00     0.022 A 
BRANCH  75  79
ATOM     79  S   UNL A   1      46.392  29.479  40.950  1.00  0.00     0.124 S 
ATOM     80  O   UNL A   1      47.554  29.708  40.094  1.00  0.00    -0.237 OA
ATOM     81  O   UNL A   1      45.380  30.528  40.947  1.00  0.00    -0.237 OA
ATOM     82  O   UNL A   1      46.695  28.908  42.260  1.00  0.00    -0.744 OA
ENDBRANCH  75  79
ENDBRANCH  58  72
BRANCH  59  83
ATOM     83  C   UNL A   1      45.412  26.735  27.889  1.00  0.00     0.023 A 
ATOM     84  C   UNL A   1      45.500  25.537  27.161  1.00  0.00     0.031 A 
ATOM     85  C   UNL A   1      45.460  27.943  27.167  1.00  0.00     0.131 A 
ATOM     86  C   UNL A   1      45.675  25.572  25.768  1.00  0.00     0.055 A 
ATOM     87  C   UNL A   1      45.578  27.972  25.776  1.00  0.00     0.041 A 
ATOM     88  F   UNL A   1      45.389  29.121  27.808  1.00  0.00    -0.206 F 
ATOM     89  C   UNL A   1      45.699  26.781  25.069  1.00  0.00     0.022 A 
BRANCH  86  90
ATOM     90  S   UNL A   1      45.967  24.012  24.888  1.00  0.00     0.124 S 
ATOM     91  O   UNL A   1      46.299  23.110  25.985  1.00  0.00    -0.237 OA
ATOM     92  O   UNL A   1      44.681  23.787  24.237  1.00  0.00    -0.237 OA
ATOM     93  O   UNL A   1      47.071  24.331  23.986  1.00  0.00    -0.744 OA
ENDBRANCH  86  90
ENDBRANCH  59  83
BRANCH  71  94
ATOM     94  C   UNL A   1      49.939  25.027  32.927  1.00  0.00     0.023 A 
ATOM     95  C   UNL A   1      50.180  23.645  33.005  1.00  0.00     0.031 A 
ATOM     96  C   UNL A   1      51.040  25.889  32.778  1.00  0.00     0.131 A 
ATOM     97  C   UNL A   1      51.497  23.167  32.978  1.00  0.00     0.055 A 
ATOM     98  C   UNL A   1      52.344  25.401  32.691  1.00  0.00     0.041 A 
ATOM     99  F   UNL A   1      50.864  27.217  32.699  1.00  0.00    -0.206 F 
ATOM    100  C   UNL A   1      52.579  24.035  32.802  1.00  0.00     0.022 A 
BRANCH  97 101
ATOM    101  S   UNL A   1      51.786  21.398  33.254  1.00  0.00     0.124 S 
ATOM    102  O   UNL A   1      50.429  20.862  33.222  1.00  0.00    -0.237 OA
ATOM    103  O   UNL A   1      52.639  21.040  32.126  1.00  0.00    -0.237 OA
ATOM    104  O   UNL A   1      52.439  21.358  34.561  1.00  0.00    -0.744 OA
ENDBRANCH  97 101
ENDBRANCH  71  94
ENDBRANCH  45  46
ENDBRANCH  38  40
ENDBRANCH  37  38
ENDBRANCH  36  37
ENDBRANCH  35  36
ENDBRANCH  34  35
ENDBRANCH  33  34
ENDBRANCH  32  33
ENDBRANCH   1  32
TORSDOF 27
ENDMDL
MODEL 2
REMARK VINA RESULT:      -9.1      2.149      2.437
REMARK SMILES COc1ccc2c(CC(=O)OCCOCCOCCOCCOC(=O)c3ccc(-c4c5nc(c(-c6cc(S(=O)(=O)[O-])ccc6F)c6ccc([nH]6)c(-c6cc(S(=O)(=O)[O-])ccc6F)c6nc(c(-c7cc(S(=O)(=O)[O-])ccc7F)c7ccc4[nH]7)C=C6)C=C5)cc3)c(C(=O)c3cc(C)ccn3)[nH]c2c1
REMARK SMILES IDX 17 1 16 2 15 3 14 4 13 5 12 6 11 7 9 8 10 9 8 10 7 11 3 12
REMARK SMILES IDX 4 13 101 14 5 15 100 16 6 17 99 18 89 19 2 21 1 22 90 23
REMARK SMILES IDX 91 24 92 25 93 26 98 27 94 28 97 29 95 30 96 31 18 32 19 33
REMARK SMILES IDX 20 34 21 35 22 36 23 37 24 38 25 39 26 40 27 41 88 42 28 43
REMARK SMILES IDX 87 44 29 45 30 46 31 47 81 48 32 49 86 50 80 51 82 52 33 53
REMARK SMILES IDX 85 54 79 55 78 56 34 58 66 59 46 60 65 61 47 62 50 63 64 64
REMARK SMILES IDX 83 65 48 66 49 67 63 69 84 70 51 71 35 72 36 73 44 74 37 75
REMARK SMILES IDX 43 76 45 77 42 78 38 79 39 80 40 81 41 82 67 83 68 84 76 85
REMARK SMILES IDX 69 86 75 87 77 88 74 89 70 90 71 91 72 92 73 93 52 94 53 95
REMARK SMILES IDX 61 96 54 97 60 98 62 99 59 100 55 101 56 102 57 103 58 104
REMARK H PARENT 99 20 82 57 50 68
REMARK Flexibility Score: inf
ROOT
ATOM      1  O   UNL A   1      33.194  28.481  25.990  1.00  0.00    -0.377 OA
ENDROOT
BRANCH   1   2
ATOM      2  C   UNL A   1      31.827  28.829  25.924  1.00  0.00     0.188 C 
BRANCH   2   3
ATOM      3  C   UNL A   1      31.043  29.156  24.634  1.00  0.00     0.188 C 
BRANCH   3   4
ATOM      4  O   UNL A   1      31.541  28.744  23.376  1.00  0.00    -0.376 OA
BRANCH   4   5
ATOM      5  C   UNL A   1      30.795  27.946  22.480  1.00  0.00     0.202 C 
BRANCH   5   6
ATOM      6  C   UNL A   1      31.245  26.575  21.935  1.00  0.00     0.261 C 
BRANCH   6   7
ATOM      7  O   UNL A   1      32.629  26.433  21.577  1.00  0.00    -0.463 OA
BRANCH   7   8
ATOM      8  C   UNL A   1      33.301  25.367  22.063  1.00  0.00     0.310 C 
ATOM      9  O   UNL A   1      33.311  24.270  21.508  1.00  0.00    -0.252 OA
BRANCH   8  10
ATOM     10  C   UNL A   1      34.101  25.603  23.339  1.00  0.00     0.161 C 
BRANCH  10  11
ATOM     11  C   UNL A   1      34.024  24.659  24.528  1.00  0.00     0.000 A 
ATOM     12  C   UNL A   1      30.868  23.348  27.009  1.00  0.00     0.120 A 
ATOM     13  C   UNL A   1      30.552  24.399  26.151  1.00  0.00     0.047 A 
ATOM     14  C   UNL A   1      32.181  22.888  27.113  1.00  0.00     0.073 A 
ATOM     15  C   UNL A   1      31.532  24.959  25.313  1.00  0.00     0.014 A 
ATOM     16  C   UNL A   1      33.131  23.433  26.241  1.00  0.00     0.050 A 
ATOM     17  C   UNL A   1      32.842  24.436  25.323  1.00  0.00     0.004 A 
ATOM     18  N   UNL A   1      34.461  23.140  26.101  1.00  0.00    -0.351 N 
ATOM     19  C   UNL A   1      34.970  23.693  24.943  1.00  0.00     0.093 A 
ATOM     20  H   UNL A   1      34.986  22.605  26.740  1.00  0.00     0.167 HD
BRANCH  12  21
ATOM     21  O   UNL A   1      29.956  22.739  27.832  1.00  0.00    -0.497 OA
ATOM     22  C   UNL A   1      28.715  22.448  27.192  1.00  0.00     0.278 C 
ENDBRANCH  12  21
BRANCH  19  23
ATOM     23  C   UNL A   1      36.277  23.356  24.357  1.00  0.00     0.227 C 
ATOM     24  O   UNL A   1      36.447  23.299  23.139  1.00  0.00    -0.285 OA
BRANCH  23  25
ATOM     25  C   UNL A   1      37.489  23.121  25.226  1.00  0.00     0.113 A 
ATOM     26  C   UNL A   1      38.023  24.093  26.072  1.00  0.00     0.036 A 
ATOM     27  N   UNL A   1      37.997  21.861  25.154  1.00  0.00    -0.253 NA
ATOM     28  C   UNL A   1      39.148  23.770  26.849  1.00  0.00    -0.047 A 
ATOM     29  C   UNL A   1      39.069  21.572  25.920  1.00  0.00     0.112 A 
ATOM     30  C   UNL A   1      39.798  24.765  27.765  1.00  0.00     0.044 C 
ATOM     31  C   UNL A   1      39.689  22.487  26.750  1.00  0.00     0.023 A 
ENDBRANCH  23  25
ENDBRANCH  19  23
ENDBRANCH  10  11
ENDBRANCH   8  10
ENDBRANCH   7   8
ENDBRANCH   6   7
ENDBRANCH   5   6
ENDBRANCH   4   5
ENDBRANCH   3   4
ENDBRANCH   2   3
ENDBRANCH   1   2
BRANCH   1  32
ATOM     32  C   UNL A   1      34.006  29.225  26.862  1.00  0.00     0.188 C 
BRANCH  32  33
ATOM     33  C   UNL A   1      33.627  30.705  26.846  1.00  0.00     0.188 C 
BRANCH  33  34
ATOM     34  O   UNL A   1      33.704  31.311  28.131  1.00  0.00    -0.376 OA
BRANCH  34  35
ATOM     35  C   UNL A   1      35.003  31.607  28.638  1.00  0.00     0.202 C 
BRANCH  35  36
ATOM     36  C   UNL A   1      35.183  31.975  30.125  1.00  0.00     0.261 C 
BRANCH  36  37
ATOM     37  O   UNL A   1      35.886  31.028  30.938  1.00  0.00    -0.460 OA
BRANCH  37  38
ATOM     38  C   UNL A   1      36.390  31.456  32.110  1.00  0.00     0.338 C 
ATOM     39  O   UNL A   1      35.807  32.063  32.989  1.00  0.00    -0.246 OA
BRANCH  38  40
ATOM     40  C   UNL A   1      37.725  30.842  32.214  1.00  0.00     0.060 A 
ATOM     41  C   UNL A   1      38.826  31.561  31.735  1.00  0.00     0.016 A 
ATOM     42  C   UNL A   1      37.895  29.619  32.871  1.00  0.00     0.016 A 
ATOM     43  C   UNL A   1      40.112  31.067  31.932  1.00  0.00     0.010 A 
ATOM     44  C   UNL A   1      39.179  29.102  33.026  1.00  0.00     0.010 A 
ATOM     45  C   UNL A   1      40.287  29.820  32.544  1.00  0.00    -0.014 A 
BRANCH  45  46
ATOM     46  C   UNL A   1      41.603  29.158  32.449  1.00  0.00     0.031 A 
ATOM     47  C   UNL A   1      42.548  29.353  33.599  1.00  0.00     0.074 A 
ATOM     48  C   UNL A   1      41.925  28.396  31.391  1.00  0.00     0.049 A 
ATOM     49  N   UNL A   1      43.773  28.932  33.750  1.00  0.00    -0.248 NA
ATOM     50  C   UNL A   1      42.032  30.135  34.736  1.00  0.00     0.031 C 
ATOM     51  C   UNL A   1      41.045  28.104  30.260  1.00  0.00     0.029 A 
ATOM     52  N   UNL A   1      43.087  27.732  31.094  1.00  0.00    -0.354 N 
ATOM     53  C   UNL A   1      44.174  29.393  34.999  1.00  0.00     0.074 A 
ATOM     54  C   UNL A   1      43.075  30.155  35.547  1.00  0.00     0.031 C 
ATOM     55  C   UNL A   1      41.708  27.329  29.382  1.00  0.00     0.029 A 
ATOM     56  C   UNL A   1      43.067  27.107  29.869  1.00  0.00     0.049 A 
ATOM     57  H   UNL A   1      43.862  27.705  31.700  1.00  0.00     0.167 HD
ATOM     58  C   UNL A   1      45.354  29.191  35.629  1.00  0.00     0.034 A 
ATOM     59  C   UNL A   1      44.054  26.462  29.213  1.00  0.00     0.034 A 
ATOM     60  C   UNL A   1      46.443  28.460  35.036  1.00  0.00     0.049 A 
ATOM     61  C   UNL A   1      45.406  26.355  29.884  1.00  0.00     0.074 A 
ATOM     62  C   UNL A   1      47.695  28.198  35.559  1.00  0.00     0.029 A 
ATOM     63  N   UNL A   1      46.411  27.891  33.768  1.00  0.00    -0.354 N 
ATOM     64  N   UNL A   1      45.777  26.789  31.068  1.00  0.00    -0.248 NA
ATOM     65  C   UNL A   1      46.468  25.675  29.133  1.00  0.00     0.031 C 
ATOM     66  C   UNL A   1      48.444  27.538  34.579  1.00  0.00     0.029 A 
ATOM     67  C   UNL A   1      47.635  27.313  33.476  1.00  0.00     0.049 A 
ATOM     68  H   UNL A   1      45.633  27.898  33.164  1.00  0.00     0.167 HD
ATOM     69  C   UNL A   1      47.109  26.409  31.214  1.00  0.00     0.074 A 
ATOM     70  C   UNL A   1      47.469  25.699  30.002  1.00  0.00     0.031 C 
ATOM     71  C   UNL A   1      47.961  26.621  32.250  1.00  0.00     0.034 A 
BRANCH  58  72
ATOM     72  C   UNL A   1      45.531  29.830  36.985  1.00  0.00     0.023 A 
ATOM     73  C   UNL A   1      46.036  31.136  37.127  1.00  0.00     0.031 A 
ATOM     74  C   UNL A   1      45.249  29.103  38.153  1.00  0.00     0.131 A 
ATOM     75  C   UNL A   1      46.311  31.644  38.404  1.00  0.00     0.055 A 
ATOM     76  C   UNL A   1      45.448  29.646  39.423  1.00  0.00     0.041 A 
ATOM     77  F   UNL A   1      44.796  27.841  38.081  1.00  0.00    -0.206 F 
ATOM     78  C   UNL A   1      45.997  30.918  39.555  1.00  0.00     0.022 A 
BRANCH  75  79
ATOM     79  S   UNL A   1      47.225  33.206  38.539  1.00  0.00     0.124 S 
ATOM     80  O   UNL A   1      48.025  33.186  37.316  1.00  0.00    -0.237 OA
ATOM     81  O   UNL A   1      46.155  34.195  38.586  1.00  0.00    -0.237 OA
ATOM     82  O   UNL A   1      47.988  33.052  39.776  1.00  0.00    -0.744 OA
ENDBRANCH  75  79
ENDBRANCH  58  72
BRANCH  59  83
ATOM     83  C   UNL A   1      43.834  25.920  27.840  1.00  0.00     0.023 A 
ATOM     84  C   UNL A   1      43.643  24.546  27.620  1.00  0.00     0.031 A 
ATOM     85  C   UNL A   1      43.871  26.763  26.713  1.00  0.00     0.131 A 
ATOM     86  C   UNL A   1      43.542  24.051  26.309  1.00  0.00     0.055 A 
ATOM     87  C   UNL A   1      43.714  26.274  25.415  1.00  0.00     0.041 A 
ATOM     88  F   UNL A   1      44.059  28.085  26.860  1.00  0.00    -0.206 F 
ATOM     89  C   UNL A   1      43.561  24.908  25.206  1.00  0.00     0.022 A 
BRANCH  86  90
ATOM     90  S   UNL A   1      43.480  22.255  26.058  1.00  0.00     0.124 S 
ATOM     91  O   UNL A   1      42.877  21.802  27.307  1.00  0.00    -0.237 OA
ATOM     92  O   UNL A   1      42.648  22.145  24.866  1.00  0.00    -0.237 OA
ATOM     93  O   UNL A   1      44.882  21.888  25.873  1.00  0.00    -0.744 OA
ENDBRANCH  86  90
ENDBRANCH  59  83
BRANCH  71  94
ATOM     94  C   UNL A   1      49.349  26.044  32.126  1.00  0.00     0.023 A 
ATOM     95  C   UNL A   1      50.369  26.719  31.435  1.00  0.00     0.031 A 
ATOM     96  C   UNL A   1      49.655  24.811  32.729  1.00  0.00     0.131 A 
ATOM     97  C   UNL A   1      51.638  26.136  31.326  1.00  0.00     0.055 A 
ATOM     98  C   UNL A   1      50.937  24.266  32.668  1.00  0.00     0.041 A 
ATOM     99  F   UNL A   1      48.717  24.126  33.400  1.00  0.00    -0.206 F 
ATOM    100  C   UNL A   1      51.934  24.923  31.954  1.00  0.00     0.022 A 
BRANCH  97 101
ATOM    101  S   UNL A   1      52.881  26.947  30.284  1.00  0.00     0.124 S 
ATOM    102  O   UNL A   1      54.121  26.351  30.773  1.00  0.00    -0.237 OA
ATOM    103  O   UNL A   1      52.471  26.552  28.941  1.00  0.00    -0.237 OA
ATOM    104  O   UNL A   1      52.711  28.366  30.591  1.00  0.00    -0.744 OA
ENDBRANCH  97 101
ENDBRANCH  71  94
ENDBRANCH  45  46
ENDBRANCH  38  40
ENDBRANCH  37  38
ENDBRANCH  36  37
ENDBRANCH  35  36
ENDBRANCH  34  35
ENDBRANCH  33  34
ENDBRANCH  32  33
ENDBRANCH   1  32
TORSDOF 27
ENDMDL
MODEL 3
REMARK VINA RESULT:      -8.7      5.483     11.732
REMARK SMILES COc1ccc2c(CC(=O)OCCOCCOCCOCCOC(=O)c3ccc(-c4c5nc(c(-c6cc(S(=O)(=O)[O-])ccc6F)c6ccc([nH]6)c(-c6cc(S(=O)(=O)[O-])ccc6F)c6nc(c(-c7cc(S(=O)(=O)[O-])ccc7F)c7ccc4[nH]7)C=C6)C=C5)cc3)c(C(=O)c3cc(C)ccn3)[nH]c2c1
REMARK SMILES IDX 17 1 16 2 15 3 14 4 13 5 12 6 11 7 9 8 10 9 8 10 7 11 3 12
REMARK SMILES IDX 4 13 101 14 5 15 100 16 6 17 99 18 89 19 2 21 1 22 90 23
REMARK SMILES IDX 91 24 92 25 93 26 98 27 94 28 97 29 95 30 96 31 18 32 19 33
REMARK SMILES IDX 20 34 21 35 22 36 23 37 24 38 25 39 26 40 27 41 88 42 28 43
REMARK SMILES IDX 87 44 29 45 30 46 31 47 81 48 32 49 86 50 80 51 82 52 33 53
REMARK SMILES IDX 85 54 79 55 78 56 34 58 66 59 46 60 65 61 47 62 50 63 64 64
REMARK SMILES IDX 83 65 48 66 49 67 63 69 84 70 51 71 35 72 36 73 44 74 37 75
REMARK SMILES IDX 43 76 45 77 42 78 38 79 39 80 40 81 41 82 67 83 68 84 76 85
REMARK SMILES IDX 69 86 75 87 77 88 74 89 70 90 71 91 72 92 73 93 52 94 53 95
REMARK SMILES IDX 61 96 54 97 60 98 62 99 59 100 55 101 56 102 57 103 58 104
REMARK H PARENT 99 20 82 57 50 68
REMARK Flexibility Score: inf
ROOT
ATOM      1  O   UNL A   1      40.358  19.216  26.021  1.00  0.00    -0.377 OA
ENDROOT
BRANCH   1   2
ATOM      2  C   UNL A   1      41.714  18.954  26.317  1.00  0.00     0.188 C 
BRANCH   2   3
ATOM      3  C   UNL A   1      42.891  19.923  26.071  1.00  0.00     0.188 C 
BRANCH   3   4
ATOM      4  O   UNL A   1      43.386  20.122  24.761  1.00  0.00    -0.376 OA
BRANCH   4   5
ATOM      5  C   UNL A   1      44.762  20.270  24.475  1.00  0.00     0.202 C 
BRANCH   5   6
ATOM      6  C   UNL A   1      45.784  20.967  25.395  1.00  0.00     0.261 C 
BRANCH   6   7
ATOM      7  O   UNL A   1      45.948  22.386  25.239  1.00  0.00    -0.463 OA
BRANCH   7   8
ATOM      8  C   UNL A   1      45.090  23.034  24.422  1.00  0.00     0.310 C 
ATOM      9  O   UNL A   1      44.965  22.764  23.229  1.00  0.00    -0.252 OA
BRANCH   8  10
ATOM     10  C   UNL A   1      44.231  24.113  25.072  1.00  0.00     0.161 C 
BRANCH  10  11
ATOM     11  C   UNL A   1      44.584  24.727  26.417  1.00  0.00     0.000 A 
ATOM     12  C   UNL A   1      44.070  23.473  30.417  1.00  0.00     0.120 A 
ATOM     13  C   UNL A   1      43.403  22.707  29.464  1.00  0.00     0.047 A 
ATOM     14  C   UNL A   1      44.729  24.647  30.049  1.00  0.00     0.073 A 
ATOM     15  C   UNL A   1      43.453  23.054  28.103  1.00  0.00     0.014 A 
ATOM     16  C   UNL A   1      44.800  24.951  28.684  1.00  0.00     0.050 A 
ATOM     17  C   UNL A   1      44.205  24.175  27.695  1.00  0.00     0.004 A 
ATOM     18  N   UNL A   1      45.411  26.000  28.051  1.00  0.00    -0.351 N 
ATOM     19  C   UNL A   1      45.490  25.778  26.690  1.00  0.00     0.093 A 
ATOM     20  H   UNL A   1      45.751  26.805  28.504  1.00  0.00     0.167 HD
BRANCH  12  21
ATOM     21  O   UNL A   1      44.084  23.177  31.756  1.00  0.00    -0.497 OA
ATOM     22  C   UNL A   1      44.583  24.238  32.569  1.00  0.00     0.278 C 
ENDBRANCH  12  21
BRANCH  19  23
ATOM     23  C   UNL A   1      46.312  26.566  25.759  1.00  0.00     0.227 C 
ATOM     24  O   UNL A   1      46.532  26.189  24.608  1.00  0.00    -0.285 OA
BRANCH  23  25
ATOM     25  C   UNL A   1      46.878  27.908  26.156  1.00  0.00     0.113 A 
ATOM     26  C   UNL A   1      46.120  29.079  26.183  1.00  0.00     0.036 A 
ATOM     27  N   UNL A   1      48.186  27.879  26.531  1.00  0.00    -0.253 NA
ATOM     28  C   UNL A   1      46.739  30.277  26.578  1.00  0.00    -0.047 A 
ATOM     29  C   UNL A   1      48.753  29.039  26.918  1.00  0.00     0.112 A 
ATOM     30  C   UNL A   1      46.002  31.583  26.612  1.00  0.00     0.044 C 
ATOM     31  C   UNL A   1      48.090  30.252  26.932  1.00  0.00     0.023 A 
ENDBRANCH  23  25
ENDBRANCH  19  23
ENDBRANCH  10  11
ENDBRANCH   8  10
ENDBRANCH   7   8
ENDBRANCH   6   7
ENDBRANCH   5   6
ENDBRANCH   4   5
ENDBRANCH   3   4
ENDBRANCH   2   3
ENDBRANCH   1   2
BRANCH   1  32
ATOM     32  C   UNL A   1      39.937  20.555  26.062  1.00  0.00     0.188 C 
BRANCH  32  33
ATOM     33  C   UNL A   1      38.513  20.705  25.526  1.00  0.00     0.188 C 
BRANCH  33  34
ATOM     34  O   UNL A   1      38.251  22.003  25.007  1.00  0.00    -0.376 OA
BRANCH  34  35
ATOM     35  C   UNL A   1      37.452  22.877  25.802  1.00  0.00     0.202 C 
BRANCH  35  36
ATOM     36  C   UNL A   1      38.128  23.937  26.697  1.00  0.00     0.261 C 
BRANCH  36  37
ATOM     37  O   UNL A   1      39.123  24.758  26.075  1.00  0.00    -0.460 OA
BRANCH  37  38
ATOM     38  C   UNL A   1      40.414  24.508  26.357  1.00  0.00     0.338 C 
ATOM     39  O   UNL A   1      41.109  23.614  25.910  1.00  0.00    -0.246 OA
BRANCH  38  40
ATOM     40  C   UNL A   1      40.881  25.666  27.137  1.00  0.00     0.060 A 
ATOM     41  C   UNL A   1      41.027  25.519  28.522  1.00  0.00     0.016 A 
ATOM     42  C   UNL A   1      41.269  26.846  26.494  1.00  0.00     0.016 A 
ATOM     43  C   UNL A   1      41.584  26.550  29.271  1.00  0.00     0.010 A 
ATOM     44  C   UNL A   1      41.784  27.896  27.252  1.00  0.00     0.010 A 
ATOM     45  C   UNL A   1      41.928  27.753  28.642  1.00  0.00    -0.014 A 
BRANCH  45  46
ATOM     46  C   UNL A   1      42.199  28.941  29.475  1.00  0.00     0.031 A 
ATOM     47  C   UNL A   1      41.013  29.751  29.912  1.00  0.00     0.074 A 
ATOM     48  C   UNL A   1      43.450  29.265  29.844  1.00  0.00     0.049 A 
ATOM     49  N   UNL A   1      40.968  30.859  30.598  1.00  0.00    -0.248 NA
ATOM     50  C   UNL A   1      39.692  29.231  29.515  1.00  0.00     0.031 C 
ATOM     51  C   UNL A   1      44.652  28.500  29.514  1.00  0.00     0.029 A 
ATOM     52  N   UNL A   1      43.915  30.327  30.572  1.00  0.00    -0.354 N 
ATOM     53  C   UNL A   1      39.618  31.168  30.720  1.00  0.00     0.074 A 
ATOM     54  C   UNL A   1      38.880  30.151  30.006  1.00  0.00     0.031 C 
ATOM     55  C   UNL A   1      45.722  29.131  30.030  1.00  0.00     0.029 A 
ATOM     56  C   UNL A   1      45.285  30.361  30.686  1.00  0.00     0.049 A 
ATOM     57  H   UNL A   1      43.325  31.003  30.977  1.00  0.00     0.167 HD
ATOM     58  C   UNL A   1      39.051  32.208  31.374  1.00  0.00     0.034 A 
ATOM     59  C   UNL A   1      46.084  31.302  31.230  1.00  0.00     0.034 A 
ATOM     60  C   UNL A   1      39.819  33.227  32.040  1.00  0.00     0.049 A 
ATOM     61  C   UNL A   1      45.433  32.520  31.848  1.00  0.00     0.074 A 
ATOM     62  C   UNL A   1      39.370  34.340  32.723  1.00  0.00     0.029 A 
ATOM     63  N   UNL A   1      41.208  33.263  32.084  1.00  0.00    -0.354 N 
ATOM     64  N   UNL A   1      44.154  32.804  31.964  1.00  0.00    -0.248 NA
ATOM     65  C   UNL A   1      46.328  33.542  32.404  1.00  0.00     0.031 C 
ATOM     66  C   UNL A   1      40.485  35.088  33.114  1.00  0.00     0.029 A 
ATOM     67  C   UNL A   1      41.633  34.400  32.749  1.00  0.00     0.049 A 
ATOM     68  H   UNL A   1      41.804  32.580  31.698  1.00  0.00     0.167 HD
ATOM     69  C   UNL A   1      44.093  34.024  32.632  1.00  0.00     0.074 A 
ATOM     70  C   UNL A   1      45.463  34.413  32.905  1.00  0.00     0.031 C 
ATOM     71  C   UNL A   1      43.011  34.760  32.993  1.00  0.00     0.034 A 
BRANCH  58  72
ATOM     72  C   UNL A   1      37.546  32.314  31.327  1.00  0.00     0.023 A 
ATOM     73  C   UNL A   1      36.870  32.740  30.169  1.00  0.00     0.031 A 
ATOM     74  C   UNL A   1      36.781  32.046  32.475  1.00  0.00     0.131 A 
ATOM     75  C   UNL A   1      35.484  32.954  30.206  1.00  0.00     0.055 A 
ATOM     76  C   UNL A   1      35.392  32.182  32.481  1.00  0.00     0.041 A 
ATOM     77  F   UNL A   1      37.373  31.668  33.618  1.00  0.00    -0.206 F 
ATOM     78  C   UNL A   1      34.737  32.653  31.347  1.00  0.00     0.022 A 
BRANCH  75  79
ATOM     79  S   UNL A   1      34.694  33.772  28.793  1.00  0.00     0.124 S 
ATOM     80  O   UNL A   1      35.364  35.071  28.793  1.00  0.00    -0.237 OA
ATOM     81  O   UNL A   1      35.024  32.882  27.687  1.00  0.00    -0.237 OA
ATOM     82  O   UNL A   1      33.281  33.809  29.164  1.00  0.00    -0.744 OA
ENDBRANCH  75  79
ENDBRANCH  58  72
BRANCH  59  83
ATOM     83  C   UNL A   1      47.570  31.172  31.174  1.00  0.00     0.023 A 
ATOM     84  C   UNL A   1      48.273  30.415  32.125  1.00  0.00     0.031 A 
ATOM     85  C   UNL A   1      48.320  31.856  30.199  1.00  0.00     0.131 A 
ATOM     86  C   UNL A   1      49.677  30.394  32.108  1.00  0.00     0.055 A 
ATOM     87  C   UNL A   1      49.714  31.788  30.152  1.00  0.00     0.041 A 
ATOM     88  F   UNL A   1      47.705  32.603  29.268  1.00  0.00    -0.206 F 
ATOM     89  C   UNL A   1      50.402  31.064  31.119  1.00  0.00     0.022 A 
BRANCH  86  90
ATOM     90  S   UNL A   1      50.552  29.555  33.459  1.00  0.00     0.124 S 
ATOM     91  O   UNL A   1      51.864  29.326  32.866  1.00  0.00    -0.237 OA
ATOM     92  O   UNL A   1      50.492  30.552  34.522  1.00  0.00    -0.237 OA
ATOM     93  O   UNL A   1      49.751  28.354  33.688  1.00  0.00    -0.744 OA
ENDBRANCH  86  90
ENDBRANCH  59  83
BRANCH  71  94
ATOM     94  C   UNL A   1      43.271  36.037  33.753  1.00  0.00     0.023 A 
ATOM     95  C   UNL A   1      43.365  37.277  33.100  1.00  0.00     0.031 A 
ATOM     96  C   UNL A   1      43.405  36.009  35.152  1.00  0.00     0.131 A 
ATOM     97  C   UNL A   1      43.630  38.435  33.843  1.00  0.00     0.055 A 
ATOM     98  C   UNL A   1      43.607  37.174  35.892  1.00  0.00     0.041 A 
ATOM     99  F   UNL A   1      43.323  34.850  35.824  1.00  0.00    -0.206 F 
ATOM    100  C   UNL A   1      43.732  38.394  35.236  1.00  0.00     0.022 A 
BRANCH  97 101
ATOM    101  S   UNL A   1      43.916  39.991  32.956  1.00  0.00     0.124 S 
ATOM    102  O   UNL A   1      45.051  39.649  32.105  1.00  0.00    -0.237 OA
ATOM    103  O   UNL A   1      42.645  40.199  32.269  1.00  0.00    -0.237 OA
ATOM    104  O   UNL A   1      44.206  40.946  34.024  1.00  0.00    -0.744 OA
ENDBRANCH  97 101
ENDBRANCH  71  94
ENDBRANCH  45  46
ENDBRANCH  38  40
ENDBRANCH  37  38
ENDBRANCH  36  37
ENDBRANCH  35  36
ENDBRANCH  34  35
ENDBRANCH  33  34
ENDBRANCH  32  33
ENDBRANCH   1  32
TORSDOF 27
ENDMDL
