MODEL 1
REMARK VINA RESULT:      -7.9      0.000      0.000
REMARK SMILES O=C(CCCC[C@@H]1CCSS1)OCCOCCOCCOCCOC(=O)c1ccc(-c2c3nc(c(-c4cc(S(=O)(=O)[O-])ccc4F)c4ccc([nH]4)c(-c4cc(S(=O)(=O)[O-])ccc4F)c4nc(c(-c5cc(S(=O)(=O)[O-])ccc5F)c5ccc2[nH]5)C=C4)C=C3)cc1
REMARK SMILES IDX 17 1 16 2 15 3 14 4 13 5 12 6 2 7 1 8 3 9 4 10 5 11 6 12
REMARK SMILES IDX 7 13 8 14 11 15 9 16 10 17 18 18 19 19 20 20 21 21 22 22
REMARK SMILES IDX 23 23 24 24 25 25 26 26 27 27 28 28 89 29 29 30 88 31 30 32
REMARK SMILES IDX 31 33 32 34 82 35 33 36 87 37 81 38 83 39 34 40 86 41 80 42
REMARK SMILES IDX 79 43 35 45 67 46 47 47 66 48 48 49 51 50 65 51 84 52 49 53
REMARK SMILES IDX 50 54 64 56 85 57 52 58 36 59 37 60 45 61 38 62 44 63 46 64
REMARK SMILES IDX 43 65 39 66 40 67 41 68 42 69 68 70 69 71 77 72 70 73 76 74
REMARK SMILES IDX 78 75 75 76 71 77 72 78 73 79 74 80 53 81 54 82 62 83 55 84
REMARK SMILES IDX 61 85 63 86 60 87 56 88 57 89 58 90 59 91
REMARK H PARENT 83 44 51 55
REMARK Flexibility Score: inf
ROOT
ATOM      1  C   UNL A   1      46.204  19.623  25.015  1.00  0.00     0.188 C 
ENDROOT
BRANCH   1   2
ATOM      2  C   UNL A   1      45.071  18.683  25.408  1.00  0.00     0.188 C 
BRANCH   2   3
ATOM      3  O   UNL A   1      43.761  19.120  25.059  1.00  0.00    -0.376 OA
BRANCH   3   4
ATOM      4  C   UNL A   1      42.797  19.225  26.093  1.00  0.00     0.202 C 
BRANCH   4   5
ATOM      5  C   UNL A   1      41.915  20.439  25.893  1.00  0.00     0.261 C 
BRANCH   5   6
ATOM      6  O   UNL A   1      40.579  20.259  26.391  1.00  0.00    -0.463 OA
BRANCH   6   7
ATOM      7  C   UNL A   1      39.451  20.911  26.057  1.00  0.00     0.305 C 
ATOM      8  O   UNL A   1      39.164  21.927  26.698  1.00  0.00    -0.252 OA
BRANCH   7   9
ATOM      9  C   UNL A   1      38.477  20.417  25.000  1.00  0.00     0.123 C 
BRANCH   9  10
ATOM     10  C   UNL A   1      37.000  20.231  25.338  1.00  0.00     0.012 C 
BRANCH  10  11
ATOM     11  C   UNL A   1      36.021  21.382  25.060  1.00  0.00     0.002 C 
BRANCH  11  12
ATOM     12  C   UNL A   1      36.630  22.686  24.520  1.00  0.00     0.015 C 
BRANCH  12  13
ATOM     13  C   UNL A   1      35.634  23.829  24.298  1.00  0.00     0.059 C 
ATOM     14  C   UNL A   1      34.924  24.208  25.609  1.00  0.00     0.027 C 
ATOM     15  S   UNL A   1      34.341  23.332  23.106  1.00  0.00    -0.091 SA
ATOM     16  C   UNL A   1      33.674  25.028  25.329  1.00  0.00     0.083 C 
ATOM     17  S   UNL A   1      32.725  24.068  24.130  1.00  0.00    -0.094 SA
ENDBRANCH  12  13
ENDBRANCH  11  12
ENDBRANCH  10  11
ENDBRANCH   9  10
ENDBRANCH   7   9
ENDBRANCH   6   7
ENDBRANCH   5   6
ENDBRANCH   4   5
ENDBRANCH   3   4
ENDBRANCH   2   3
ENDBRANCH   1   2
BRANCH   1  18
ATOM     18  O   UNL A   1      46.192  20.950  25.522  1.00  0.00    -0.377 OA
BRANCH  18  19
ATOM     19  C   UNL A   1      46.081  22.066  24.659  1.00  0.00     0.188 C 
BRANCH  19  20
ATOM     20  C   UNL A   1      44.941  21.980  23.634  1.00  0.00     0.188 C 
BRANCH  20  21
ATOM     21  O   UNL A   1      43.691  22.557  23.978  1.00  0.00    -0.376 OA
BRANCH  21  22
ATOM     22  C   UNL A   1      43.679  23.610  24.942  1.00  0.00     0.202 C 
BRANCH  22  23
ATOM     23  C   UNL A   1      42.439  23.877  25.826  1.00  0.00     0.261 C 
BRANCH  23  24
ATOM     24  O   UNL A   1      41.652  25.031  25.466  1.00  0.00    -0.460 OA
BRANCH  24  25
ATOM     25  C   UNL A   1      40.973  25.628  26.478  1.00  0.00     0.338 C 
ATOM     26  O   UNL A   1      40.081  25.127  27.136  1.00  0.00    -0.246 OA
BRANCH  25  27
ATOM     27  C   UNL A   1      41.604  26.919  26.855  1.00  0.00     0.060 A 
ATOM     28  C   UNL A   1      42.504  26.911  27.933  1.00  0.00     0.016 A 
ATOM     29  C   UNL A   1      41.259  28.126  26.245  1.00  0.00     0.016 A 
ATOM     30  C   UNL A   1      43.024  28.104  28.436  1.00  0.00     0.010 A 
ATOM     31  C   UNL A   1      41.750  29.330  26.777  1.00  0.00     0.010 A 
ATOM     32  C   UNL A   1      42.595  29.326  27.905  1.00  0.00    -0.014 A 
BRANCH  32  33
ATOM     33  C   UNL A   1      42.782  30.558  28.722  1.00  0.00     0.031 A 
ATOM     34  C   UNL A   1      43.870  31.515  28.299  1.00  0.00     0.074 A 
ATOM     35  C   UNL A   1      41.979  30.870  29.756  1.00  0.00     0.049 A 
ATOM     36  N   UNL A   1      44.235  32.655  28.827  1.00  0.00    -0.248 NA
ATOM     37  C   UNL A   1      44.653  31.123  27.116  1.00  0.00     0.031 C 
ATOM     38  C   UNL A   1      40.849  30.070  30.221  1.00  0.00     0.029 A 
ATOM     39  N   UNL A   1      41.992  31.955  30.599  1.00  0.00    -0.354 N 
ATOM     40  C   UNL A   1      45.294  33.110  28.045  1.00  0.00     0.074 A 
ATOM     41  C   UNL A   1      45.535  32.103  27.036  1.00  0.00     0.031 C 
ATOM     42  C   UNL A   1      40.276  30.693  31.267  1.00  0.00     0.029 A 
ATOM     43  C   UNL A   1      41.018  31.917  31.570  1.00  0.00     0.049 A 
ATOM     44  H   UNL A   1      42.639  32.692  30.516  1.00  0.00     0.167 HD
ATOM     45  C   UNL A   1      45.997  34.265  28.153  1.00  0.00     0.034 A 
ATOM     46  C   UNL A   1      40.767  32.764  32.592  1.00  0.00     0.034 A 
ATOM     47  C   UNL A   1      45.757  35.256  29.172  1.00  0.00     0.049 A 
ATOM     48  C   UNL A   1      41.632  33.996  32.755  1.00  0.00     0.074 A 
ATOM     49  C   UNL A   1      46.401  36.465  29.367  1.00  0.00     0.029 A 
ATOM     50  N   UNL A   1      44.809  35.146  30.182  1.00  0.00    -0.354 N 
ATOM     51  N   UNL A   1      42.625  34.420  32.007  1.00  0.00    -0.248 NA
ATOM     52  C   UNL A   1      41.333  34.867  33.900  1.00  0.00     0.031 C 
ATOM     53  C   UNL A   1      45.908  37.040  30.542  1.00  0.00     0.029 A 
ATOM     54  C   UNL A   1      44.882  36.244  31.026  1.00  0.00     0.049 A 
ATOM     55  H   UNL A   1      44.178  34.397  30.284  1.00  0.00     0.167 HD
ATOM     56  C   UNL A   1      43.035  35.631  32.565  1.00  0.00     0.074 A 
ATOM     57  C   UNL A   1      42.174  35.871  33.705  1.00  0.00     0.031 C 
ATOM     58  C   UNL A   1      44.024  36.473  32.166  1.00  0.00     0.034 A 
BRANCH  45  59
ATOM     59  C   UNL A   1      47.140  34.473  27.184  1.00  0.00     0.023 A 
ATOM     60  C   UNL A   1      48.455  34.073  27.483  1.00  0.00     0.031 A 
ATOM     61  C   UNL A   1      46.915  35.129  25.960  1.00  0.00     0.131 A 
ATOM     62  C   UNL A   1      49.502  34.407  26.611  1.00  0.00     0.055 A 
ATOM     63  C   UNL A   1      47.949  35.375  25.055  1.00  0.00     0.041 A 
ATOM     64  F   UNL A   1      45.687  35.560  25.631  1.00  0.00    -0.206 F 
ATOM     65  C   UNL A   1      49.255  35.030  25.386  1.00  0.00     0.022 A 
BRANCH  62  66
ATOM     66  S   UNL A   1      51.210  34.171  27.178  1.00  0.00     0.124 S 
ATOM     67  O   UNL A   1      51.951  35.007  26.237  1.00  0.00    -0.237 OA
ATOM     68  O   UNL A   1      51.155  34.649  28.554  1.00  0.00    -0.237 OA
ATOM     69  O   UNL A   1      51.425  32.733  27.024  1.00  0.00    -0.744 OA
ENDBRANCH  62  66
ENDBRANCH  45  59
BRANCH  46  70
ATOM     70  C   UNL A   1      39.671  32.483  33.569  1.00  0.00     0.023 A 
ATOM     71  C   UNL A   1      38.400  33.064  33.424  1.00  0.00     0.031 A 
ATOM     72  C   UNL A   1      39.903  31.691  34.707  1.00  0.00     0.131 A 
ATOM     73  C   UNL A   1      37.429  32.887  34.423  1.00  0.00     0.055 A 
ATOM     74  C   UNL A   1      38.915  31.468  35.668  1.00  0.00     0.041 A 
ATOM     75  F   UNL A   1      41.101  31.118  34.904  1.00  0.00    -0.206 F 
ATOM     76  C   UNL A   1      37.673  32.081  35.536  1.00  0.00     0.022 A 
BRANCH  73  77
ATOM     77  S   UNL A   1      35.871  33.809  34.296  1.00  0.00     0.124 S 
ATOM     78  O   UNL A   1      36.271  34.956  33.491  1.00  0.00    -0.237 OA
ATOM     79  O   UNL A   1      34.998  32.838  33.644  1.00  0.00    -0.237 OA
ATOM     80  O   UNL A   1      35.538  34.106  35.688  1.00  0.00    -0.744 OA
ENDBRANCH  73  77
ENDBRANCH  46  70
BRANCH  58  81
ATOM     81  C   UNL A   1      44.184  37.769  32.932  1.00  0.00     0.023 A 
ATOM     82  C   UNL A   1      43.407  38.906  32.651  1.00  0.00     0.031 A 
ATOM     83  C   UNL A   1      45.149  37.869  33.952  1.00  0.00     0.131 A 
ATOM     84  C   UNL A   1      43.657  40.111  33.328  1.00  0.00     0.055 A 
ATOM     85  C   UNL A   1      45.340  39.048  34.675  1.00  0.00     0.041 A 
ATOM     86  F   UNL A   1      45.926  36.820  34.266  1.00  0.00    -0.206 F 
ATOM     87  C   UNL A   1      44.603  40.183  34.352  1.00  0.00     0.022 A 
BRANCH  84  88
ATOM     88  S   UNL A   1      42.817  41.617  32.764  1.00  0.00     0.124 S 
ATOM     89  O   UNL A   1      41.877  41.089  31.779  1.00  0.00    -0.237 OA
ATOM     90  O   UNL A   1      42.228  42.127  33.998  1.00  0.00    -0.237 OA
ATOM     91  O   UNL A   1      43.901  42.429  32.214  1.00  0.00    -0.744 OA
ENDBRANCH  84  88
ENDBRANCH  58  81
ENDBRANCH  32  33
ENDBRANCH  25  27
ENDBRANCH  24  25
ENDBRANCH  23  24
ENDBRANCH  22  23
ENDBRANCH  21  22
ENDBRANCH  20  21
ENDBRANCH  19  20
ENDBRANCH  18  19
ENDBRANCH   1  18
TORSDOF 27
ENDMDL
MODEL 2
REMARK VINA RESULT:      -7.4      4.596     10.609
REMARK SMILES O=C(CCCC[C@@H]1CCSS1)OCCOCCOCCOCCOC(=O)c1ccc(-c2c3nc(c(-c4cc(S(=O)(=O)[O-])ccc4F)c4ccc([nH]4)c(-c4cc(S(=O)(=O)[O-])ccc4F)c4nc(c(-c5cc(S(=O)(=O)[O-])ccc5F)c5ccc2[nH]5)C=C4)C=C3)cc1
REMARK SMILES IDX 17 1 16 2 15 3 14 4 13 5 12 6 2 7 1 8 3 9 4 10 5 11 6 12
REMARK SMILES IDX 7 13 8 14 11 15 9 16 10 17 18 18 19 19 20 20 21 21 22 22
REMARK SMILES IDX 23 23 24 24 25 25 26 26 27 27 28 28 89 29 29 30 88 31 30 32
REMARK SMILES IDX 31 33 32 34 82 35 33 36 87 37 81 38 83 39 34 40 86 41 80 42
REMARK SMILES IDX 79 43 35 45 67 46 47 47 66 48 48 49 51 50 65 51 84 52 49 53
REMARK SMILES IDX 50 54 64 56 85 57 52 58 36 59 37 60 45 61 38 62 44 63 46 64
REMARK SMILES IDX 43 65 39 66 40 67 41 68 42 69 68 70 69 71 77 72 70 73 76 74
REMARK SMILES IDX 78 75 75 76 71 77 72 78 73 79 74 80 53 81 54 82 62 83 55 84
REMARK SMILES IDX 61 85 63 86 60 87 56 88 57 89 58 90 59 91
REMARK H PARENT 83 44 51 55
REMARK Flexibility Score: inf
ROOT
ATOM      1  C   UNL A   1      37.986  19.730  25.259  1.00  0.00     0.188 C 
ENDROOT
BRANCH   1   2
ATOM      2  C   UNL A   1      37.776  21.209  24.958  1.00  0.00     0.188 C 
BRANCH   2   3
ATOM      3  O   UNL A   1      37.649  22.055  26.097  1.00  0.00    -0.376 OA
BRANCH   3   4
ATOM      4  C   UNL A   1      37.986  23.424  25.950  1.00  0.00     0.202 C 
BRANCH   4   5
ATOM      5  C   UNL A   1      39.320  23.728  26.597  1.00  0.00     0.261 C 
BRANCH   5   6
ATOM      6  O   UNL A   1      39.580  25.135  26.732  1.00  0.00    -0.463 OA
BRANCH   6   7
ATOM      7  C   UNL A   1      40.647  25.847  26.327  1.00  0.00     0.305 C 
ATOM      8  O   UNL A   1      41.107  25.606  25.207  1.00  0.00    -0.252 OA
BRANCH   7   9
ATOM      9  C   UNL A   1      41.359  26.864  27.205  1.00  0.00     0.123 C 
BRANCH   9  10
ATOM     10  C   UNL A   1      41.251  28.356  26.900  1.00  0.00     0.012 C 
BRANCH  10  11
ATOM     11  C   UNL A   1      41.106  29.346  28.067  1.00  0.00     0.002 C 
BRANCH  11  12
ATOM     12  C   UNL A   1      42.026  29.120  29.277  1.00  0.00     0.015 C 
BRANCH  12  13
ATOM     13  C   UNL A   1      41.425  29.501  30.634  1.00  0.00     0.059 C 
ATOM     14  C   UNL A   1      41.012  28.249  31.427  1.00  0.00     0.027 C 
ATOM     15  S   UNL A   1      39.924  30.520  30.409  1.00  0.00    -0.091 SA
ATOM     16  C   UNL A   1      40.062  28.615  32.558  1.00  0.00     0.083 C 
ATOM     17  S   UNL A   1      38.740  29.573  31.788  1.00  0.00    -0.094 SA
ENDBRANCH  12  13
ENDBRANCH  11  12
ENDBRANCH  10  11
ENDBRANCH   9  10
ENDBRANCH   7   9
ENDBRANCH   6   7
ENDBRANCH   5   6
ENDBRANCH   4   5
ENDBRANCH   3   4
ENDBRANCH   2   3
ENDBRANCH   1   2
BRANCH   1  18
ATOM     18  O   UNL A   1      39.314  19.229  25.307  1.00  0.00    -0.377 OA
BRANCH  18  19
ATOM     19  C   UNL A   1      40.339  19.927  25.989  1.00  0.00     0.188 C 
BRANCH  19  20
ATOM     20  C   UNL A   1      41.686  19.194  26.059  1.00  0.00     0.188 C 
BRANCH  20  21
ATOM     21  O   UNL A   1      42.641  19.459  25.043  1.00  0.00    -0.376 OA
BRANCH  21  22
ATOM     22  C   UNL A   1      43.935  19.914  25.439  1.00  0.00     0.202 C 
BRANCH  22  23
ATOM     23  C   UNL A   1      44.496  21.269  24.949  1.00  0.00     0.261 C 
BRANCH  23  24
ATOM     24  O   UNL A   1      44.812  22.224  25.983  1.00  0.00    -0.460 OA
BRANCH  24  25
ATOM     25  C   UNL A   1      43.819  23.085  26.321  1.00  0.00     0.338 C 
ATOM     26  O   UNL A   1      42.698  22.779  26.685  1.00  0.00    -0.246 OA
BRANCH  25  27
ATOM     27  C   UNL A   1      44.328  24.477  26.418  1.00  0.00     0.060 A 
ATOM     28  C   UNL A   1      44.483  25.196  25.221  1.00  0.00     0.016 A 
ATOM     29  C   UNL A   1      44.739  25.040  27.626  1.00  0.00     0.016 A 
ATOM     30  C   UNL A   1      45.089  26.453  25.219  1.00  0.00     0.010 A 
ATOM     31  C   UNL A   1      45.386  26.288  27.619  1.00  0.00     0.010 A 
ATOM     32  C   UNL A   1      45.608  26.975  26.410  1.00  0.00    -0.014 A 
BRANCH  32  33
ATOM     33  C   UNL A   1      46.629  28.056  26.322  1.00  0.00     0.031 A 
ATOM     34  C   UNL A   1      46.154  29.479  26.491  1.00  0.00     0.074 A 
ATOM     35  C   UNL A   1      47.943  27.801  26.176  1.00  0.00     0.049 A 
ATOM     36  N   UNL A   1      46.831  30.597  26.468  1.00  0.00    -0.248 NA
ATOM     37  C   UNL A   1      44.710  29.656  26.714  1.00  0.00     0.031 C 
ATOM     38  C   UNL A   1      48.540  26.472  26.076  1.00  0.00     0.029 A 
ATOM     39  N   UNL A   1      49.014  28.658  26.095  1.00  0.00    -0.354 N 
ATOM     40  C   UNL A   1      45.895  31.610  26.664  1.00  0.00     0.074 A 
ATOM     41  C   UNL A   1      44.601  30.972  26.763  1.00  0.00     0.031 C 
ATOM     42  C   UNL A   1      49.873  26.603  25.946  1.00  0.00     0.029 A 
ATOM     43  C   UNL A   1      50.222  28.024  25.919  1.00  0.00     0.049 A 
ATOM     44  H   UNL A   1      48.925  29.637  26.157  1.00  0.00     0.167 HD
ATOM     45  C   UNL A   1      46.095  32.947  26.762  1.00  0.00     0.034 A 
ATOM     46  C   UNL A   1      51.460  28.533  25.740  1.00  0.00     0.034 A 
ATOM     47  C   UNL A   1      47.389  33.573  26.648  1.00  0.00     0.049 A 
ATOM     48  C   UNL A   1      51.645  30.036  25.749  1.00  0.00     0.074 A 
ATOM     49  C   UNL A   1      47.707  34.917  26.741  1.00  0.00     0.029 A 
ATOM     50  N   UNL A   1      48.579  32.902  26.396  1.00  0.00    -0.354 N 
ATOM     51  N   UNL A   1      50.755  30.983  25.942  1.00  0.00    -0.248 NA
ATOM     52  C   UNL A   1      53.009  30.536  25.522  1.00  0.00     0.031 C 
ATOM     53  C   UNL A   1      49.067  35.066  26.456  1.00  0.00     0.029 A 
ATOM     54  C   UNL A   1      49.623  33.808  26.288  1.00  0.00     0.049 A 
ATOM     55  H   UNL A   1      48.667  31.925  26.306  1.00  0.00     0.167 HD
ATOM     56  C   UNL A   1      51.461  32.185  25.908  1.00  0.00     0.074 A 
ATOM     57  C   UNL A   1      52.850  31.841  25.685  1.00  0.00     0.031 C 
ATOM     58  C   UNL A   1      51.006  33.457  26.058  1.00  0.00     0.034 A 
BRANCH  45  59
ATOM     59  C   UNL A   1      44.871  33.820  26.927  1.00  0.00     0.023 A 
ATOM     60  C   UNL A   1      44.275  34.042  28.181  1.00  0.00     0.031 A 
ATOM     61  C   UNL A   1      44.261  34.399  25.799  1.00  0.00     0.131 A 
ATOM     62  C   UNL A   1      43.065  34.748  28.266  1.00  0.00     0.055 A 
ATOM     63  C   UNL A   1      43.108  35.179  25.903  1.00  0.00     0.041 A 
ATOM     64  F   UNL A   1      44.765  34.199  24.571  1.00  0.00    -0.206 F 
ATOM     65  C   UNL A   1      42.493  35.342  27.140  1.00  0.00     0.022 A 
BRANCH  62  66
ATOM     66  S   UNL A   1      42.161  34.734  29.840  1.00  0.00     0.124 S 
ATOM     67  O   UNL A   1      42.219  33.320  30.199  1.00  0.00    -0.237 OA
ATOM     68  O   UNL A   1      42.953  35.637  30.666  1.00  0.00    -0.237 OA
ATOM     69  O   UNL A   1      40.833  35.223  29.475  1.00  0.00    -0.744 OA
ENDBRANCH  62  66
ENDBRANCH  45  59
BRANCH  46  70
ATOM     70  C   UNL A   1      52.632  27.635  25.510  1.00  0.00     0.023 A 
ATOM     71  C   UNL A   1      53.489  27.271  26.563  1.00  0.00     0.031 A 
ATOM     72  C   UNL A   1      52.959  27.191  24.216  1.00  0.00     0.131 A 
ATOM     73  C   UNL A   1      54.654  26.533  26.297  1.00  0.00     0.055 A 
ATOM     74  C   UNL A   1      54.086  26.406  23.966  1.00  0.00     0.041 A 
ATOM     75  F   UNL A   1      52.182  27.515  23.169  1.00  0.00    -0.206 F 
ATOM     76  C   UNL A   1      54.950  26.085  25.008  1.00  0.00     0.022 A 
BRANCH  73  77
ATOM     77  S   UNL A   1      55.832  26.249  27.647  1.00  0.00     0.124 S 
ATOM     78  O   UNL A   1      57.109  26.343  26.950  1.00  0.00    -0.237 OA
ATOM     79  O   UNL A   1      55.516  27.344  28.559  1.00  0.00    -0.237 OA
ATOM     80  O   UNL A   1      55.479  24.916  28.132  1.00  0.00    -0.744 OA
ENDBRANCH  73  77
ENDBRANCH  46  70
BRANCH  58  81
ATOM     81  C   UNL A   1      52.034  34.568  26.051  1.00  0.00     0.023 A 
ATOM     82  C   UNL A   1      52.635  35.039  27.232  1.00  0.00     0.031 A 
ATOM     83  C   UNL A   1      52.404  35.177  24.838  1.00  0.00     0.131 A 
ATOM     84  C   UNL A   1      53.515  36.133  27.183  1.00  0.00     0.055 A 
ATOM     85  C   UNL A   1      53.338  36.214  24.787  1.00  0.00     0.041 A 
ATOM     86  F   UNL A   1      51.863  34.776  23.677  1.00  0.00    -0.206 F 
ATOM     87  C   UNL A   1      53.885  36.709  25.966  1.00  0.00     0.022 A 
BRANCH  84  88
ATOM     88  S   UNL A   1      54.068  36.875  28.743  1.00  0.00     0.124 S 
ATOM     89  O   UNL A   1      53.388  38.166  28.723  1.00  0.00    -0.237 OA
ATOM     90  O   UNL A   1      53.588  35.916  29.733  1.00  0.00    -0.237 OA
ATOM     91  O   UNL A   1      55.522  36.937  28.596  1.00  0.00    -0.744 OA
ENDBRANCH  84  88
ENDBRANCH  58  81
ENDBRANCH  32  33
ENDBRANCH  25  27
ENDBRANCH  24  25
ENDBRANCH  23  24
ENDBRANCH  22  23
ENDBRANCH  21  22
ENDBRANCH  20  21
ENDBRANCH  19  20
ENDBRANCH  18  19
ENDBRANCH   1  18
TORSDOF 27
ENDMDL
MODEL 3
REMARK VINA RESULT:      -7.3      4.625     10.830
REMARK SMILES O=C(CCCC[C@@H]1CCSS1)OCCOCCOCCOCCOC(=O)c1ccc(-c2c3nc(c(-c4cc(S(=O)(=O)[O-])ccc4F)c4ccc([nH]4)c(-c4cc(S(=O)(=O)[O-])ccc4F)c4nc(c(-c5cc(S(=O)(=O)[O-])ccc5F)c5ccc2[nH]5)C=C4)C=C3)cc1
REMARK SMILES IDX 17 1 16 2 15 3 14 4 13 5 12 6 2 7 1 8 3 9 4 10 5 11 6 12
REMARK SMILES IDX 7 13 8 14 11 15 9 16 10 17 18 18 19 19 20 20 21 21 22 22
REMARK SMILES IDX 23 23 24 24 25 25 26 26 27 27 28 28 89 29 29 30 88 31 30 32
REMARK SMILES IDX 31 33 32 34 82 35 33 36 87 37 81 38 83 39 34 40 86 41 80 42
REMARK SMILES IDX 79 43 35 45 67 46 47 47 66 48 48 49 51 50 65 51 84 52 49 53
REMARK SMILES IDX 50 54 64 56 85 57 52 58 36 59 37 60 45 61 38 62 44 63 46 64
REMARK SMILES IDX 43 65 39 66 40 67 41 68 42 69 68 70 69 71 77 72 70 73 76 74
REMARK SMILES IDX 78 75 75 76 71 77 72 78 73 79 74 80 53 81 54 82 62 83 55 84
REMARK SMILES IDX 61 85 63 86 60 87 56 88 57 89 58 90 59 91
REMARK H PARENT 83 44 51 55
REMARK Flexibility Score: inf
ROOT
ATOM      1  C   UNL A   1      37.204  32.523  33.602  1.00  0.00     0.188 C 
ENDROOT
BRANCH   1   2
ATOM      2  C   UNL A   1      37.718  33.005  32.250  1.00  0.00     0.188 C 
BRANCH   2   3
ATOM      3  O   UNL A   1      39.103  32.780  32.006  1.00  0.00    -0.376 OA
BRANCH   3   4
ATOM      4  C   UNL A   1      39.520  32.595  30.663  1.00  0.00     0.202 C 
BRANCH   4   5
ATOM      5  C   UNL A   1      40.381  31.358  30.527  1.00  0.00     0.261 C 
BRANCH   5   6
ATOM      6  O   UNL A   1      39.730  30.160  30.980  1.00  0.00    -0.463 OA
BRANCH   6   7
ATOM      7  C   UNL A   1      38.889  29.344  30.318  1.00  0.00     0.305 C 
ATOM      8  O   UNL A   1      37.730  29.256  30.733  1.00  0.00    -0.252 OA
BRANCH   7   9
ATOM      9  C   UNL A   1      39.315  28.468  29.150  1.00  0.00     0.123 C 
BRANCH   9  10
ATOM     10  C   UNL A   1      39.354  26.949  29.299  1.00  0.00     0.012 C 
BRANCH  10  11
ATOM     11  C   UNL A   1      40.484  26.163  28.616  1.00  0.00     0.002 C 
BRANCH  11  12
ATOM     12  C   UNL A   1      40.108  24.798  28.020  1.00  0.00     0.015 C 
BRANCH  12  13
ATOM     13  C   UNL A   1      41.066  24.267  26.949  1.00  0.00     0.059 C 
ATOM     14  C   UNL A   1      40.766  22.794  26.618  1.00  0.00     0.027 C 
ATOM     15  S   UNL A   1      42.795  24.349  27.535  1.00  0.00    -0.091 SA
ATOM     16  C   UNL A   1      41.937  22.155  25.887  1.00  0.00     0.083 C 
ATOM     17  S   UNL A   1      43.386  22.489  26.911  1.00  0.00    -0.094 SA
ENDBRANCH  12  13
ENDBRANCH  11  12
ENDBRANCH  10  11
ENDBRANCH   9  10
ENDBRANCH   7   9
ENDBRANCH   6   7
ENDBRANCH   5   6
ENDBRANCH   4   5
ENDBRANCH   3   4
ENDBRANCH   2   3
ENDBRANCH   1   2
BRANCH   1  18
ATOM     18  O   UNL A   1      37.934  32.872  34.770  1.00  0.00    -0.377 OA
BRANCH  18  19
ATOM     19  C   UNL A   1      38.127  31.944  35.820  1.00  0.00     0.188 C 
BRANCH  19  20
ATOM     20  C   UNL A   1      39.036  32.433  36.957  1.00  0.00     0.188 C 
BRANCH  20  21
ATOM     21  O   UNL A   1      38.513  33.395  37.860  1.00  0.00    -0.376 OA
BRANCH  21  22
ATOM     22  C   UNL A   1      39.145  33.536  39.132  1.00  0.00     0.202 C 
BRANCH  22  23
ATOM     23  C   UNL A   1      39.434  34.929  39.737  1.00  0.00     0.261 C 
BRANCH  23  24
ATOM     24  O   UNL A   1      39.794  35.957  38.791  1.00  0.00    -0.460 OA
BRANCH  24  25
ATOM     25  C   UNL A   1      41.121  36.217  38.670  1.00  0.00     0.338 C 
ATOM     26  O   UNL A   1      41.861  36.596  39.559  1.00  0.00    -0.246 OA
BRANCH  25  27
ATOM     27  C   UNL A   1      41.637  35.762  37.353  1.00  0.00     0.060 A 
ATOM     28  C   UNL A   1      40.721  35.679  36.292  1.00  0.00     0.016 A 
ATOM     29  C   UNL A   1      42.952  35.332  37.174  1.00  0.00     0.016 A 
ATOM     30  C   UNL A   1      41.099  35.126  35.067  1.00  0.00     0.010 A 
ATOM     31  C   UNL A   1      43.321  34.738  35.955  1.00  0.00     0.010 A 
ATOM     32  C   UNL A   1      42.382  34.587  34.915  1.00  0.00    -0.014 A 
BRANCH  32  33
ATOM     33  C   UNL A   1      42.615  33.615  33.811  1.00  0.00     0.031 A 
ATOM     34  C   UNL A   1      42.869  34.175  32.433  1.00  0.00     0.074 A 
ATOM     35  C   UNL A   1      42.679  32.286  34.017  1.00  0.00     0.049 A 
ATOM     36  N   UNL A   1      43.107  33.553  31.306  1.00  0.00    -0.248 NA
ATOM     37  C   UNL A   1      42.847  35.641  32.316  1.00  0.00     0.031 C 
ATOM     38  C   UNL A   1      42.525  31.623  35.310  1.00  0.00     0.029 A 
ATOM     39  N   UNL A   1      42.899  31.256  33.135  1.00  0.00    -0.354 N 
ATOM     40  C   UNL A   1      43.254  34.553  30.348  1.00  0.00     0.074 A 
ATOM     41  C   UNL A   1      43.038  35.815  31.020  1.00  0.00     0.031 C 
ATOM     42  C   UNL A   1      42.656  30.295  35.135  1.00  0.00     0.029 A 
ATOM     43  C   UNL A   1      42.867  30.009  33.716  1.00  0.00     0.049 A 
ATOM     44  H   UNL A   1      43.064  31.398  32.175  1.00  0.00     0.167 HD
ATOM     45  C   UNL A   1      43.550  34.432  29.030  1.00  0.00     0.034 A 
ATOM     46  C   UNL A   1      42.980  28.783  33.162  1.00  0.00     0.034 A 
ATOM     47  C   UNL A   1      43.750  33.167  28.368  1.00  0.00     0.049 A 
ATOM     48  C   UNL A   1      43.207  28.668  31.669  1.00  0.00     0.074 A 
ATOM     49  C   UNL A   1      44.065  32.930  27.041  1.00  0.00     0.029 A 
ATOM     50  N   UNL A   1      43.637  31.923  28.975  1.00  0.00    -0.354 N 
ATOM     51  N   UNL A   1      43.352  29.619  30.774  1.00  0.00    -0.248 NA
ATOM     52  C   UNL A   1      43.294  27.309  31.115  1.00  0.00     0.031 C 
ATOM     53  C   UNL A   1      44.051  31.548  26.828  1.00  0.00     0.029 A 
ATOM     54  C   UNL A   1      43.833  30.917  28.042  1.00  0.00     0.049 A 
ATOM     55  H   UNL A   1      43.445  31.778  29.930  1.00  0.00     0.167 HD
ATOM     56  C   UNL A   1      43.594  28.971  29.563  1.00  0.00     0.074 A 
ATOM     57  C   UNL A   1      43.586  27.551  29.846  1.00  0.00     0.031 C 
ATOM     58  C   UNL A   1      43.815  29.501  28.331  1.00  0.00     0.034 A 
BRANCH  45  59
ATOM     59  C   UNL A   1      43.598  35.703  28.212  1.00  0.00     0.023 A 
ATOM     60  C   UNL A   1      44.793  36.416  28.006  1.00  0.00     0.031 A 
ATOM     61  C   UNL A   1      42.414  36.238  27.671  1.00  0.00     0.131 A 
ATOM     62  C   UNL A   1      44.763  37.658  27.354  1.00  0.00     0.055 A 
ATOM     63  C   UNL A   1      42.408  37.428  26.943  1.00  0.00     0.041 A 
ATOM     64  F   UNL A   1      41.236  35.619  27.858  1.00  0.00    -0.206 F 
ATOM     65  C   UNL A   1      43.584  38.155  26.796  1.00  0.00     0.022 A 
BRANCH  62  66
ATOM     66  S   UNL A   1      46.253  38.694  27.395  1.00  0.00     0.124 S 
ATOM     67  O   UNL A   1      47.063  38.004  28.395  1.00  0.00    -0.237 OA
ATOM     68  O   UNL A   1      46.729  38.616  26.019  1.00  0.00    -0.237 OA
ATOM     69  O   UNL A   1      45.748  40.002  27.808  1.00  0.00    -0.744 OA
ENDBRANCH  62  66
ENDBRANCH  45  59
BRANCH  46  70
ATOM     70  C   UNL A   1      42.857  27.550  33.998  1.00  0.00     0.023 A 
ATOM     71  C   UNL A   1      43.993  26.831  34.407  1.00  0.00     0.031 A 
ATOM     72  C   UNL A   1      41.595  27.028  34.333  1.00  0.00     0.131 A 
ATOM     73  C   UNL A   1      43.844  25.608  35.081  1.00  0.00     0.055 A 
ATOM     74  C   UNL A   1      41.453  25.842  35.056  1.00  0.00     0.041 A 
ATOM     75  F   UNL A   1      40.474  27.666  33.961  1.00  0.00    -0.206 F 
ATOM     76  C   UNL A   1      42.582  25.117  35.422  1.00  0.00     0.022 A 
BRANCH  73  77
ATOM     77  S   UNL A   1      45.325  24.615  35.421  1.00  0.00     0.124 S 
ATOM     78  O   UNL A   1      45.907  24.489  34.091  1.00  0.00    -0.237 OA
ATOM     79  O   UNL A   1      46.048  25.464  36.362  1.00  0.00    -0.237 OA
ATOM     80  O   UNL A   1      44.784  23.381  35.988  1.00  0.00    -0.744 OA
ENDBRANCH  73  77
ENDBRANCH  46  70
BRANCH  58  81
ATOM     81  C   UNL A   1      44.132  28.538  27.207  1.00  0.00     0.023 A 
ATOM     82  C   UNL A   1      45.444  28.110  26.935  1.00  0.00     0.031 A 
ATOM     83  C   UNL A   1      43.099  28.054  26.382  1.00  0.00     0.131 A 
ATOM     84  C   UNL A   1      45.697  27.288  25.824  1.00  0.00     0.055 A 
ATOM     85  C   UNL A   1      43.348  27.175  25.327  1.00  0.00     0.041 A 
ATOM     86  F   UNL A   1      41.826  28.428  26.588  1.00  0.00    -0.206 F 
ATOM     87  C   UNL A   1      44.655  26.802  25.032  1.00  0.00     0.022 A 
BRANCH  84  88
ATOM     88  S   UNL A   1      47.419  26.967  25.353  1.00  0.00     0.124 S 
ATOM     89  O   UNL A   1      47.781  28.204  24.668  1.00  0.00    -0.237 OA
ATOM     90  O   UNL A   1      48.059  26.743  26.646  1.00  0.00    -0.237 OA
ATOM     91  O   UNL A   1      47.326  25.787  24.496  1.00  0.00    -0.744 OA
ENDBRANCH  84  88
ENDBRANCH  58  81
ENDBRANCH  32  33
ENDBRANCH  25  27
ENDBRANCH  24  25
ENDBRANCH  23  24
ENDBRANCH  22  23
ENDBRANCH  21  22
ENDBRANCH  20  21
ENDBRANCH  19  20
ENDBRANCH  18  19
ENDBRANCH   1  18
TORSDOF 27
ENDMDL
