MODEL 1
REMARK VINA RESULT:      -8.7      0.000      0.000
REMARK SMILES NC(=O)C1CC[NH+](Cc2ccc(C(=O)OCCOCCOCCOCCOC(=O)c3ccc(-c4c5nc(c(-c6cc(S(=O)(=O)[O-])ccc6F)c6ccc([nH]6)c(-c6cc(S(=O)(=O)[O-])ccc6F)c6nc(c(-c7cc(S(=O)(=O)[O-])ccc7F)c7ccc4[nH]7)C=C6)C=C5)cc3)cc2)CC1
REMARK SMILES IDX 21 1 20 2 19 3 18 4 17 5 16 6 15 7 13 8 14 9 12 10 9 11
REMARK SMILES IDX 10 12 94 13 11 14 93 15 8 16 7 17 4 18 5 19 96 20 6 21 95 22
REMARK SMILES IDX 2 24 1 25 3 28 22 29 23 30 24 31 25 32 26 33 27 34 28 35
REMARK SMILES IDX 29 36 30 37 31 38 92 39 32 40 91 41 33 42 34 43 35 44 85 45
REMARK SMILES IDX 36 46 90 47 84 48 86 49 37 50 89 51 83 52 82 53 38 55 70 56
REMARK SMILES IDX 50 57 69 58 51 59 54 60 68 61 87 62 52 63 53 64 67 66 88 67
REMARK SMILES IDX 55 68 39 69 40 70 48 71 41 72 47 73 49 74 46 75 42 76 43 77
REMARK SMILES IDX 44 78 45 79 71 80 72 81 80 82 73 83 79 84 81 85 78 86 74 87
REMARK SMILES IDX 75 88 76 89 77 90 56 91 57 92 65 93 58 94 64 95 66 96 63 97
REMARK SMILES IDX 59 98 60 99 61 100 62 101
REMARK H PARENT 7 23 1 26 1 27 86 54 54 65
REMARK Flexibility Score: inf
ROOT
ATOM      1  O   UNL A   1      42.178  26.911  28.478  1.00  0.00    -0.377 OA
ENDROOT
BRANCH   1   2
ATOM      2  C   UNL A   1      43.061  25.805  28.460  1.00  0.00     0.188 C 
BRANCH   2   3
ATOM      3  C   UNL A   1      42.388  24.425  28.333  1.00  0.00     0.188 C 
BRANCH   3   4
ATOM      4  O   UNL A   1      42.343  23.919  27.013  1.00  0.00    -0.376 OA
BRANCH   4   5
ATOM      5  C   UNL A   1      41.285  23.094  26.555  1.00  0.00     0.202 C 
BRANCH   5   6
ATOM      6  C   UNL A   1      39.861  23.079  27.138  1.00  0.00     0.261 C 
BRANCH   6   7
ATOM      7  O   UNL A   1      38.796  23.342  26.235  1.00  0.00    -0.460 OA
BRANCH   7   8
ATOM      8  C   UNL A   1      38.185  22.289  25.662  1.00  0.00     0.338 C 
ATOM      9  O   UNL A   1      38.560  21.130  25.652  1.00  0.00    -0.246 OA
BRANCH   8  10
ATOM     10  C   UNL A   1      36.848  22.742  25.211  1.00  0.00     0.060 A 
ATOM     11  C   UNL A   1      34.422  23.759  24.291  1.00  0.00     0.006 A 
ATOM     12  C   UNL A   1      35.386  23.311  23.375  1.00  0.00     0.010 A 
ATOM     13  C   UNL A   1      34.596  23.483  25.656  1.00  0.00     0.010 A 
ATOM     14  C   UNL A   1      36.603  22.814  23.836  1.00  0.00     0.016 A 
ATOM     15  C   UNL A   1      35.823  23.024  26.120  1.00  0.00     0.016 A 
BRANCH  11  16
ATOM     16  C   UNL A   1      33.357  24.757  23.856  1.00  0.00     0.299 C 
BRANCH  16  17
ATOM     17  N   UNL A   1      33.862  26.157  23.725  1.00  0.00    -0.331 N 
ATOM     18  C   UNL A   1      33.262  29.035  23.389  1.00  0.00     0.089 C 
ATOM     19  C   UNL A   1      33.901  28.214  22.261  1.00  0.00     0.075 C 
ATOM     20  C   UNL A   1      33.799  28.472  24.704  1.00  0.00     0.075 C 
ATOM     21  C   UNL A   1      33.534  26.737  22.410  1.00  0.00     0.263 C 
ATOM     22  C   UNL A   1      33.447  26.993  24.859  1.00  0.00     0.263 C 
ATOM     23  H   UNL A   1      34.881  26.127  23.762  1.00  0.00     0.348 HD
BRANCH  18  24
ATOM     24  C   UNL A   1      31.734  29.052  23.234  1.00  0.00     0.220 C 
ATOM     25  N   UNL A   1      31.211  29.357  22.016  1.00  0.00    -0.369 N 
ATOM     26  H   UNL A   1      30.235  29.374  21.890  1.00  0.00     0.159 HD
ATOM     27  H   UNL A   1      31.809  29.561  21.260  1.00  0.00     0.159 HD
ATOM     28  O   UNL A   1      30.971  28.737  24.144  1.00  0.00    -0.275 OA
ENDBRANCH  18  24
ENDBRANCH  16  17
ENDBRANCH  11  16
ENDBRANCH   8  10
ENDBRANCH   7   8
ENDBRANCH   6   7
ENDBRANCH   5   6
ENDBRANCH   4   5
ENDBRANCH   3   4
ENDBRANCH   2   3
ENDBRANCH   1   2
BRANCH   1  29
ATOM     29  C   UNL A   1      40.855  26.731  28.986  1.00  0.00     0.188 C 
BRANCH  29  30
ATOM     30  C   UNL A   1      39.588  26.885  28.107  1.00  0.00     0.188 C 
BRANCH  30  31
ATOM     31  O   UNL A   1      38.680  27.895  28.522  1.00  0.00    -0.376 OA
BRANCH  31  32
ATOM     32  C   UNL A   1      38.507  28.112  29.911  1.00  0.00     0.202 C 
BRANCH  32  33
ATOM     33  C   UNL A   1      37.617  29.295  30.318  1.00  0.00     0.261 C 
BRANCH  33  34
ATOM     34  O   UNL A   1      36.869  29.130  31.530  1.00  0.00    -0.460 OA
BRANCH  34  35
ATOM     35  C   UNL A   1      37.568  28.785  32.639  1.00  0.00     0.338 C 
ATOM     36  O   UNL A   1      37.655  27.680  33.129  1.00  0.00    -0.246 OA
BRANCH  35  37
ATOM     37  C   UNL A   1      38.367  29.964  33.042  1.00  0.00     0.060 A 
ATOM     38  C   UNL A   1      37.761  31.227  33.049  1.00  0.00     0.016 A 
ATOM     39  C   UNL A   1      39.702  29.815  33.422  1.00  0.00     0.016 A 
ATOM     40  C   UNL A   1      38.504  32.353  33.406  1.00  0.00     0.010 A 
ATOM     41  C   UNL A   1      40.449  30.947  33.759  1.00  0.00     0.010 A 
ATOM     42  C   UNL A   1      39.863  32.224  33.723  1.00  0.00    -0.014 A 
BRANCH  42  43
ATOM     43  C   UNL A   1      40.717  33.436  33.819  1.00  0.00     0.031 A 
ATOM     44  C   UNL A   1      41.378  33.937  32.563  1.00  0.00     0.074 A 
ATOM     45  C   UNL A   1      40.885  34.090  34.982  1.00  0.00     0.049 A 
ATOM     46  N   UNL A   1      42.224  34.921  32.403  1.00  0.00    -0.248 NA
ATOM     47  C   UNL A   1      41.037  33.227  31.319  1.00  0.00     0.031 C 
ATOM     48  C   UNL A   1      40.256  33.730  36.252  1.00  0.00     0.029 A 
ATOM     49  N   UNL A   1      41.647  35.192  35.285  1.00  0.00    -0.354 N 
ATOM     50  C   UNL A   1      42.515  34.950  31.043  1.00  0.00     0.074 A 
ATOM     51  C   UNL A   1      41.791  33.856  30.433  1.00  0.00     0.031 C 
ATOM     52  C   UNL A   1      40.673  34.588  37.201  1.00  0.00     0.029 A 
ATOM     53  C   UNL A   1      41.631  35.527  36.619  1.00  0.00     0.049 A 
ATOM     54  H   UNL A   1      42.158  35.695  34.609  1.00  0.00     0.167 HD
ATOM     55  C   UNL A   1      43.305  35.819  30.364  1.00  0.00     0.034 A 
ATOM     56  C   UNL A   1      42.335  36.460  37.295  1.00  0.00     0.034 A 
ATOM     57  C   UNL A   1      44.036  36.892  30.989  1.00  0.00     0.049 A 
ATOM     58  C   UNL A   1      43.293  37.348  36.532  1.00  0.00     0.074 A 
ATOM     59  C   UNL A   1      44.873  37.822  30.397  1.00  0.00     0.029 A 
ATOM     60  N   UNL A   1      44.028  37.175  32.349  1.00  0.00    -0.354 N 
ATOM     61  N   UNL A   1      43.564  37.365  35.246  1.00  0.00    -0.248 NA
ATOM     62  C   UNL A   1      44.033  38.351  37.311  1.00  0.00     0.031 C 
ATOM     63  C   UNL A   1      45.428  38.616  31.405  1.00  0.00     0.029 A 
ATOM     64  C   UNL A   1      44.868  38.244  32.617  1.00  0.00     0.049 A 
ATOM     65  H   UNL A   1      43.503  36.686  33.023  1.00  0.00     0.167 HD
ATOM     66  C   UNL A   1      44.477  38.403  35.062  1.00  0.00     0.074 A 
ATOM     67  C   UNL A   1      44.695  38.998  36.363  1.00  0.00     0.031 C 
ATOM     68  C   UNL A   1      45.078  38.828  33.920  1.00  0.00     0.034 A 
BRANCH  55  69
ATOM     69  C   UNL A   1      43.448  35.609  28.877  1.00  0.00     0.023 A 
ATOM     70  C   UNL A   1      44.500  34.847  28.336  1.00  0.00     0.031 A 
ATOM     71  C   UNL A   1      42.529  36.188  27.984  1.00  0.00     0.131 A 
ATOM     72  C   UNL A   1      44.641  34.735  26.945  1.00  0.00     0.055 A 
ATOM     73  C   UNL A   1      42.629  36.006  26.603  1.00  0.00     0.041 A 
ATOM     74  F   UNL A   1      41.521  36.948  28.439  1.00  0.00    -0.206 F 
ATOM     75  C   UNL A   1      43.696  35.286  26.075  1.00  0.00     0.022 A 
BRANCH  72  76
ATOM     76  S   UNL A   1      46.149  33.976  26.285  1.00  0.00     0.124 S 
ATOM     77  O   UNL A   1      45.872  32.554  26.475  1.00  0.00    -0.237 OA
ATOM     78  O   UNL A   1      46.163  34.446  24.905  1.00  0.00    -0.237 OA
ATOM     79  O   UNL A   1      47.207  34.515  27.139  1.00  0.00    -0.744 OA
ENDBRANCH  72  76
ENDBRANCH  55  69
BRANCH  56  80
ATOM     80  C   UNL A   1      42.219  36.575  38.780  1.00  0.00     0.023 A 
ATOM     81  C   UNL A   1      41.293  37.447  39.377  1.00  0.00     0.031 A 
ATOM     82  C   UNL A   1      43.099  35.876  39.627  1.00  0.00     0.131 A 
ATOM     83  C   UNL A   1      41.312  37.645  40.767  1.00  0.00     0.055 A 
ATOM     84  C   UNL A   1      43.067  36.024  41.014  1.00  0.00     0.041 A 
ATOM     85  F   UNL A   1      44.013  35.036  39.113  1.00  0.00    -0.206 F 
ATOM     86  C   UNL A   1      42.181  36.927  41.591  1.00  0.00     0.022 A 
BRANCH  83  87
ATOM     87  S   UNL A   1      40.268  38.952  41.472  1.00  0.00     0.124 S 
ATOM     88  O   UNL A   1      39.558  39.432  40.293  1.00  0.00    -0.237 OA
ATOM     89  O   UNL A   1      39.471  38.210  42.444  1.00  0.00    -0.237 OA
ATOM     90  O   UNL A   1      41.234  39.887  42.045  1.00  0.00    -0.744 OA
ENDBRANCH  83  87
ENDBRANCH  56  80
BRANCH  68  91
ATOM     91  C   UNL A   1      45.984  40.034  34.021  1.00  0.00     0.023 A 
ATOM     92  C   UNL A   1      45.479  41.343  34.107  1.00  0.00     0.031 A 
ATOM     93  C   UNL A   1      47.382  39.867  34.029  1.00  0.00     0.131 A 
ATOM     94  C   UNL A   1      46.360  42.433  34.135  1.00  0.00     0.055 A 
ATOM     95  C   UNL A   1      48.253  40.951  34.129  1.00  0.00     0.041 A 
ATOM     96  F   UNL A   1      47.924  38.641  33.948  1.00  0.00    -0.206 F 
ATOM     97  C   UNL A   1      47.744  42.246  34.167  1.00  0.00     0.022 A 
BRANCH  94  98
ATOM     98  S   UNL A   1      45.678  44.111  34.023  1.00  0.00     0.124 S 
ATOM     99  O   UNL A   1      45.391  44.226  32.597  1.00  0.00    -0.237 OA
ATOM    100  O   UNL A   1      44.516  44.034  34.902  1.00  0.00    -0.237 OA
ATOM    101  O   UNL A   1      46.767  44.957  34.508  1.00  0.00    -0.744 OA
ENDBRANCH  94  98
ENDBRANCH  68  91
ENDBRANCH  42  43
ENDBRANCH  35  37
ENDBRANCH  34  35
ENDBRANCH  33  34
ENDBRANCH  32  33
ENDBRANCH  31  32
ENDBRANCH  30  31
ENDBRANCH  29  30
ENDBRANCH   1  29
TORSDOF 26
ENDMDL
MODEL 2
REMARK VINA RESULT:      -8.6      4.513      9.206
REMARK SMILES NC(=O)C1CC[NH+](Cc2ccc(C(=O)OCCOCCOCCOCCOC(=O)c3ccc(-c4c5nc(c(-c6cc(S(=O)(=O)[O-])ccc6F)c6ccc([nH]6)c(-c6cc(S(=O)(=O)[O-])ccc6F)c6nc(c(-c7cc(S(=O)(=O)[O-])ccc7F)c7ccc4[nH]7)C=C6)C=C5)cc3)cc2)CC1
REMARK SMILES IDX 21 1 20 2 19 3 18 4 17 5 16 6 15 7 13 8 14 9 12 10 9 11
REMARK SMILES IDX 10 12 94 13 11 14 93 15 8 16 7 17 4 18 5 19 96 20 6 21 95 22
REMARK SMILES IDX 2 24 1 25 3 28 22 29 23 30 24 31 25 32 26 33 27 34 28 35
REMARK SMILES IDX 29 36 30 37 31 38 92 39 32 40 91 41 33 42 34 43 35 44 85 45
REMARK SMILES IDX 36 46 90 47 84 48 86 49 37 50 89 51 83 52 82 53 38 55 70 56
REMARK SMILES IDX 50 57 69 58 51 59 54 60 68 61 87 62 52 63 53 64 67 66 88 67
REMARK SMILES IDX 55 68 39 69 40 70 48 71 41 72 47 73 49 74 46 75 42 76 43 77
REMARK SMILES IDX 44 78 45 79 71 80 72 81 80 82 73 83 79 84 81 85 78 86 74 87
REMARK SMILES IDX 75 88 76 89 77 90 56 91 57 92 65 93 58 94 64 95 66 96 63 97
REMARK SMILES IDX 59 98 60 99 61 100 62 101
REMARK H PARENT 7 23 1 26 1 27 86 54 54 65
REMARK Flexibility Score: inf
ROOT
ATOM      1  O   UNL A   1      40.120  21.091  26.230  1.00  0.00    -0.377 OA
ENDROOT
BRANCH   1   2
ATOM      2  C   UNL A   1      39.078  22.036  26.385  1.00  0.00     0.188 C 
BRANCH   2   3
ATOM      3  C   UNL A   1      37.831  21.790  25.514  1.00  0.00     0.188 C 
BRANCH   3   4
ATOM      4  O   UNL A   1      36.677  22.488  25.939  1.00  0.00    -0.376 OA
BRANCH   4   5
ATOM      5  C   UNL A   1      35.372  22.116  25.527  1.00  0.00     0.202 C 
BRANCH   5   6
ATOM      6  C   UNL A   1      34.234  21.696  26.474  1.00  0.00     0.261 C 
BRANCH   6   7
ATOM      7  O   UNL A   1      32.940  22.202  26.182  1.00  0.00    -0.460 OA
BRANCH   7   8
ATOM      8  C   UNL A   1      32.273  21.662  25.146  1.00  0.00     0.338 C 
ATOM      9  O   UNL A   1      31.830  20.530  25.059  1.00  0.00    -0.246 OA
BRANCH   8  10
ATOM     10  C   UNL A   1      31.978  22.753  24.188  1.00  0.00     0.060 A 
ATOM     11  C   UNL A   1      31.590  24.897  22.451  1.00  0.00     0.006 A 
ATOM     12  C   UNL A   1      32.632  23.986  22.217  1.00  0.00     0.010 A 
ATOM     13  C   UNL A   1      30.622  24.595  23.420  1.00  0.00     0.010 A 
ATOM     14  C   UNL A   1      32.831  22.922  23.093  1.00  0.00     0.016 A 
ATOM     15  C   UNL A   1      30.841  23.557  24.319  1.00  0.00     0.016 A 
BRANCH  11  16
ATOM     16  C   UNL A   1      31.658  26.303  21.869  1.00  0.00     0.299 C 
BRANCH  16  17
ATOM     17  N   UNL A   1      32.148  27.331  22.835  1.00  0.00    -0.331 N 
ATOM     18  C   UNL A   1      32.663  28.114  25.642  1.00  0.00     0.089 C 
ATOM     19  C   UNL A   1      31.534  28.758  24.826  1.00  0.00     0.075 C 
ATOM     20  C   UNL A   1      33.801  27.819  24.666  1.00  0.00     0.075 C 
ATOM     21  C   UNL A   1      31.070  27.806  23.724  1.00  0.00     0.263 C 
ATOM     22  C   UNL A   1      33.346  26.876  23.552  1.00  0.00     0.263 C 
ATOM     23  H   UNL A   1      32.440  28.149  22.301  1.00  0.00     0.348 HD
BRANCH  18  24
ATOM     24  C   UNL A   1      32.125  26.915  26.438  1.00  0.00     0.220 C 
ATOM     25  N   UNL A   1      31.039  27.102  27.234  1.00  0.00    -0.369 N 
ATOM     26  H   UNL A   1      30.675  26.349  27.754  1.00  0.00     0.159 HD
ATOM     27  H   UNL A   1      30.617  27.990  27.291  1.00  0.00     0.159 HD
ATOM     28  O   UNL A   1      32.595  25.785  26.332  1.00  0.00    -0.275 OA
ENDBRANCH  18  24
ENDBRANCH  16  17
ENDBRANCH  11  16
ENDBRANCH   8  10
ENDBRANCH   7   8
ENDBRANCH   6   7
ENDBRANCH   5   6
ENDBRANCH   4   5
ENDBRANCH   3   4
ENDBRANCH   2   3
ENDBRANCH   1   2
BRANCH   1  29
ATOM     29  C   UNL A   1      41.436  21.556  25.926  1.00  0.00     0.188 C 
BRANCH  29  30
ATOM     30  C   UNL A   1      42.672  20.620  25.890  1.00  0.00     0.188 C 
BRANCH  30  31
ATOM     31  O   UNL A   1      43.750  21.070  25.083  1.00  0.00    -0.376 OA
BRANCH  31  32
ATOM     32  C   UNL A   1      43.927  22.466  24.916  1.00  0.00     0.202 C 
BRANCH  32  33
ATOM     33  C   UNL A   1      45.113  22.911  24.051  1.00  0.00     0.261 C 
BRANCH  33  34
ATOM     34  O   UNL A   1      45.753  24.133  24.445  1.00  0.00    -0.460 OA
BRANCH  34  35
ATOM     35  C   UNL A   1      46.245  24.187  25.707  1.00  0.00     0.338 C 
ATOM     36  O   UNL A   1      46.996  23.392  26.230  1.00  0.00    -0.246 OA
BRANCH  35  37
ATOM     37  C   UNL A   1      45.854  25.495  26.278  1.00  0.00     0.060 A 
ATOM     38  C   UNL A   1      45.206  26.429  25.459  1.00  0.00     0.016 A 
ATOM     39  C   UNL A   1      46.116  25.787  27.617  1.00  0.00     0.016 A 
ATOM     40  C   UNL A   1      44.849  27.676  25.973  1.00  0.00     0.010 A 
ATOM     41  C   UNL A   1      45.776  27.044  28.125  1.00  0.00     0.010 A 
ATOM     42  C   UNL A   1      45.169  28.006  27.297  1.00  0.00    -0.014 A 
BRANCH  42  43
ATOM     43  C   UNL A   1      45.054  29.414  27.756  1.00  0.00     0.031 A 
ATOM     44  C   UNL A   1      43.795  29.825  28.471  1.00  0.00     0.074 A 
ATOM     45  C   UNL A   1      46.048  30.300  27.567  1.00  0.00     0.049 A 
ATOM     46  N   UNL A   1      43.427  31.005  28.897  1.00  0.00    -0.248 NA
ATOM     47  C   UNL A   1      42.818  28.756  28.737  1.00  0.00     0.031 C 
ATOM     48  C   UNL A   1      47.333  30.006  26.936  1.00  0.00     0.029 A 
ATOM     49  N   UNL A   1      46.126  31.635  27.882  1.00  0.00    -0.354 N 
ATOM     50  C   UNL A   1      42.179  30.822  29.483  1.00  0.00     0.074 A 
ATOM     51  C   UNL A   1      41.834  29.427  29.315  1.00  0.00     0.031 C 
ATOM     52  C   UNL A   1      48.065  31.134  26.895  1.00  0.00     0.029 A 
ATOM     53  C   UNL A   1      47.286  32.238  27.454  1.00  0.00     0.049 A 
ATOM     54  H   UNL A   1      45.417  32.115  28.368  1.00  0.00     0.167 HD
ATOM     55  C   UNL A   1      41.398  31.733  30.115  1.00  0.00     0.034 A 
ATOM     56  C   UNL A   1      47.658  33.535  27.479  1.00  0.00     0.034 A 
ATOM     57  C   UNL A   1      41.745  33.124  30.257  1.00  0.00     0.049 A 
ATOM     58  C   UNL A   1      46.721  34.553  28.092  1.00  0.00     0.074 A 
ATOM     59  C   UNL A   1      41.023  34.134  30.868  1.00  0.00     0.029 A 
ATOM     60  N   UNL A   1      42.909  33.707  29.774  1.00  0.00    -0.354 N 
ATOM     61  N   UNL A   1      45.541  34.370  28.640  1.00  0.00    -0.248 NA
ATOM     62  C   UNL A   1      47.172  35.952  28.100  1.00  0.00     0.031 C 
ATOM     63  C   UNL A   1      41.711  35.337  30.688  1.00  0.00     0.029 A 
ATOM     64  C   UNL A   1      42.909  35.066  30.047  1.00  0.00     0.049 A 
ATOM     65  H   UNL A   1      43.629  33.225  29.305  1.00  0.00     0.167 HD
ATOM     66  C   UNL A   1      45.129  35.624  29.089  1.00  0.00     0.074 A 
ATOM     67  C   UNL A   1      46.193  36.550  28.764  1.00  0.00     0.031 C 
ATOM     68  C   UNL A   1      43.977  35.979  29.716  1.00  0.00     0.034 A 
BRANCH  55  69
ATOM     69  C   UNL A   1      40.073  31.254  30.657  1.00  0.00     0.023 A 
ATOM     70  C   UNL A   1      38.866  31.499  29.978  1.00  0.00     0.031 A 
ATOM     71  C   UNL A   1      40.013  30.553  31.874  1.00  0.00     0.131 A 
ATOM     72  C   UNL A   1      37.648  31.102  30.550  1.00  0.00     0.055 A 
ATOM     73  C   UNL A   1      38.805  30.089  32.398  1.00  0.00     0.041 A 
ATOM     74  F   UNL A   1      41.129  30.314  32.580  1.00  0.00    -0.206 F 
ATOM     75  C   UNL A   1      37.612  30.373  31.741  1.00  0.00     0.022 A 
BRANCH  72  76
ATOM     76  S   UNL A   1      36.105  31.667  29.783  1.00  0.00     0.124 S 
ATOM     77  O   UNL A   1      35.172  31.590  30.905  1.00  0.00    -0.237 OA
ATOM     78  O   UNL A   1      36.450  33.009  29.329  1.00  0.00    -0.237 OA
ATOM     79  O   UNL A   1      35.872  30.690  28.720  1.00  0.00    -0.744 OA
ENDBRANCH  72  76
ENDBRANCH  55  69
BRANCH  56  80
ATOM     80  C   UNL A   1      48.944  33.973  26.857  1.00  0.00     0.023 A 
ATOM     81  C   UNL A   1      50.152  33.938  27.571  1.00  0.00     0.031 A 
ATOM     82  C   UNL A   1      48.966  34.518  25.559  1.00  0.00     0.131 A 
ATOM     83  C   UNL A   1      51.314  34.496  27.013  1.00  0.00     0.055 A 
ATOM     84  C   UNL A   1      50.139  35.007  24.981  1.00  0.00     0.041 A 
ATOM     85  F   UNL A   1      47.840  34.587  24.831  1.00  0.00    -0.206 F 
ATOM     86  C   UNL A   1      51.319  35.015  25.717  1.00  0.00     0.022 A 
BRANCH  83  87
ATOM     87  S   UNL A   1      52.792  34.649  28.056  1.00  0.00     0.124 S 
ATOM     88  O   UNL A   1      53.842  34.205  27.147  1.00  0.00    -0.237 OA
ATOM     89  O   UNL A   1      52.785  36.072  28.382  1.00  0.00    -0.237 OA
ATOM     90  O   UNL A   1      52.513  33.753  29.175  1.00  0.00    -0.744 OA
ENDBRANCH  83  87
ENDBRANCH  56  80
BRANCH  68  91
ATOM     91  C   UNL A   1      43.838  37.422  30.145  1.00  0.00     0.023 A 
ATOM     92  C   UNL A   1      44.118  37.842  31.457  1.00  0.00     0.031 A 
ATOM     93  C   UNL A   1      43.412  38.394  29.220  1.00  0.00     0.131 A 
ATOM     94  C   UNL A   1      43.913  39.180  31.823  1.00  0.00     0.055 A 
ATOM     95  C   UNL A   1      43.278  39.737  29.572  1.00  0.00     0.041 A 
ATOM     96  F   UNL A   1      43.126  38.054  27.953  1.00  0.00    -0.206 F 
ATOM     97  C   UNL A   1      43.514  40.135  30.884  1.00  0.00     0.022 A 
BRANCH  94  98
ATOM     98  S   UNL A   1      44.073  39.642  33.570  1.00  0.00     0.124 S 
ATOM     99  O   UNL A   1      44.279  41.084  33.484  1.00  0.00    -0.237 OA
ATOM    100  O   UNL A   1      42.792  39.214  34.124  1.00  0.00    -0.237 OA
ATOM    101  O   UNL A   1      45.231  38.875  34.023  1.00  0.00    -0.744 OA
ENDBRANCH  94  98
ENDBRANCH  68  91
ENDBRANCH  42  43
ENDBRANCH  35  37
ENDBRANCH  34  35
ENDBRANCH  33  34
ENDBRANCH  32  33
ENDBRANCH  31  32
ENDBRANCH  30  31
ENDBRANCH  29  30
ENDBRANCH   1  29
TORSDOF 26
ENDMDL
MODEL 3
REMARK VINA RESULT:      -8.2      2.266      2.846
REMARK SMILES NC(=O)C1CC[NH+](Cc2ccc(C(=O)OCCOCCOCCOCCOC(=O)c3ccc(-c4c5nc(c(-c6cc(S(=O)(=O)[O-])ccc6F)c6ccc([nH]6)c(-c6cc(S(=O)(=O)[O-])ccc6F)c6nc(c(-c7cc(S(=O)(=O)[O-])ccc7F)c7ccc4[nH]7)C=C6)C=C5)cc3)cc2)CC1
REMARK SMILES IDX 21 1 20 2 19 3 18 4 17 5 16 6 15 7 13 8 14 9 12 10 9 11
REMARK SMILES IDX 10 12 94 13 11 14 93 15 8 16 7 17 4 18 5 19 96 20 6 21 95 22
REMARK SMILES IDX 2 24 1 25 3 28 22 29 23 30 24 31 25 32 26 33 27 34 28 35
REMARK SMILES IDX 29 36 30 37 31 38 92 39 32 40 91 41 33 42 34 43 35 44 85 45
REMARK SMILES IDX 36 46 90 47 84 48 86 49 37 50 89 51 83 52 82 53 38 55 70 56
REMARK SMILES IDX 50 57 69 58 51 59 54 60 68 61 87 62 52 63 53 64 67 66 88 67
REMARK SMILES IDX 55 68 39 69 40 70 48 71 41 72 47 73 49 74 46 75 42 76 43 77
REMARK SMILES IDX 44 78 45 79 71 80 72 81 80 82 73 83 79 84 81 85 78 86 74 87
REMARK SMILES IDX 75 88 76 89 77 90 56 91 57 92 65 93 58 94 64 95 66 96 63 97
REMARK SMILES IDX 59 98 60 99 61 100 62 101
REMARK H PARENT 7 23 1 26 1 27 86 54 54 65
REMARK Flexibility Score: inf
ROOT
ATOM      1  O   UNL A   1      42.470  27.714  28.369  1.00  0.00    -0.377 OA
ENDROOT
BRANCH   1   2
ATOM      2  C   UNL A   1      43.773  27.160  28.362  1.00  0.00     0.188 C 
BRANCH   2   3
ATOM      3  C   UNL A   1      43.840  25.630  28.530  1.00  0.00     0.188 C 
BRANCH   3   4
ATOM      4  O   UNL A   1      43.777  24.908  27.316  1.00  0.00    -0.376 OA
BRANCH   4   5
ATOM      5  C   UNL A   1      43.360  23.554  27.261  1.00  0.00     0.202 C 
BRANCH   5   6
ATOM      6  C   UNL A   1      42.555  22.833  28.356  1.00  0.00     0.261 C 
BRANCH   6   7
ATOM      7  O   UNL A   1      41.146  22.783  28.187  1.00  0.00    -0.460 OA
BRANCH   7   8
ATOM      8  C   UNL A   1      40.632  21.739  27.511  1.00  0.00     0.338 C 
ATOM      9  O   UNL A   1      40.894  20.559  27.659  1.00  0.00    -0.246 OA
BRANCH   8  10
ATOM     10  C   UNL A   1      39.517  22.252  26.680  1.00  0.00     0.060 A 
ATOM     11  C   UNL A   1      37.316  23.242  25.287  1.00  0.00     0.006 A 
ATOM     12  C   UNL A   1      38.085  24.103  26.085  1.00  0.00     0.010 A 
ATOM     13  C   UNL A   1      37.793  21.950  25.020  1.00  0.00     0.010 A 
ATOM     14  C   UNL A   1      39.177  23.604  26.790  1.00  0.00     0.016 A 
ATOM     15  C   UNL A   1      38.859  21.438  25.752  1.00  0.00     0.016 A 
BRANCH  11  16
ATOM     16  C   UNL A   1      35.875  23.596  24.946  1.00  0.00     0.299 C 
BRANCH  16  17
ATOM     17  N   UNL A   1      34.937  22.435  25.011  1.00  0.00    -0.331 N 
ATOM     18  C   UNL A   1      32.269  21.383  25.738  1.00  0.00     0.089 C 
ATOM     19  C   UNL A   1      33.524  20.998  26.532  1.00  0.00     0.075 C 
ATOM     20  C   UNL A   1      32.701  21.548  24.281  1.00  0.00     0.075 C 
ATOM     21  C   UNL A   1      34.587  22.090  26.401  1.00  0.00     0.263 C 
ATOM     22  C   UNL A   1      33.772  22.629  24.139  1.00  0.00     0.263 C 
ATOM     23  H   UNL A   1      35.425  21.619  24.642  1.00  0.00     0.348 HD
BRANCH  18  24
ATOM     24  C   UNL A   1      31.584  22.598  26.382  1.00  0.00     0.220 C 
ATOM     25  N   UNL A   1      30.275  22.830  26.095  1.00  0.00    -0.369 N 
ATOM     26  H   UNL A   1      29.813  23.602  26.495  1.00  0.00     0.159 HD
ATOM     27  H   UNL A   1      29.790  22.227  25.487  1.00  0.00     0.159 HD
ATOM     28  O   UNL A   1      32.151  23.326  27.194  1.00  0.00    -0.275 OA
ENDBRANCH  18  24
ENDBRANCH  16  17
ENDBRANCH  11  16
ENDBRANCH   8  10
ENDBRANCH   7   8
ENDBRANCH   6   7
ENDBRANCH   5   6
ENDBRANCH   4   5
ENDBRANCH   3   4
ENDBRANCH   2   3
ENDBRANCH   1   2
BRANCH   1  29
ATOM     29  C   UNL A   1      41.417  26.996  29.013  1.00  0.00     0.188 C 
BRANCH  29  30
ATOM     30  C   UNL A   1      40.119  26.570  28.281  1.00  0.00     0.188 C 
BRANCH  30  31
ATOM     31  O   UNL A   1      38.932  27.209  28.727  1.00  0.00    -0.376 OA
BRANCH  31  32
ATOM     32  C   UNL A   1      38.969  27.910  29.957  1.00  0.00     0.202 C 
BRANCH  32  33
ATOM     33  C   UNL A   1      37.905  28.996  30.164  1.00  0.00     0.261 C 
BRANCH  33  34
ATOM     34  O   UNL A   1      37.111  28.879  31.352  1.00  0.00    -0.460 OA
BRANCH  34  35
ATOM     35  C   UNL A   1      37.765  28.566  32.497  1.00  0.00     0.338 C 
ATOM     36  O   UNL A   1      37.843  27.473  33.015  1.00  0.00    -0.246 OA
BRANCH  35  37
ATOM     37  C   UNL A   1      38.534  29.762  32.908  1.00  0.00     0.060 A 
ATOM     38  C   UNL A   1      37.887  31.003  32.955  1.00  0.00     0.016 A 
ATOM     39  C   UNL A   1      39.881  29.649  33.256  1.00  0.00     0.016 A 
ATOM     40  C   UNL A   1      38.600  32.146  33.320  1.00  0.00     0.010 A 
ATOM     41  C   UNL A   1      40.598  30.798  33.602  1.00  0.00     0.010 A 
ATOM     42  C   UNL A   1      39.970  32.056  33.605  1.00  0.00    -0.014 A 
BRANCH  42  43
ATOM     43  C   UNL A   1      40.786  33.293  33.708  1.00  0.00     0.031 A 
ATOM     44  C   UNL A   1      41.399  33.843  32.449  1.00  0.00     0.074 A 
ATOM     45  C   UNL A   1      40.959  33.927  34.882  1.00  0.00     0.049 A 
ATOM     46  N   UNL A   1      42.209  34.858  32.292  1.00  0.00    -0.248 NA
ATOM     47  C   UNL A   1      41.053  33.149  31.198  1.00  0.00     0.031 C 
ATOM     48  C   UNL A   1      40.373  33.520  36.157  1.00  0.00     0.029 A 
ATOM     49  N   UNL A   1      41.692  35.048  35.191  1.00  0.00    -0.354 N 
ATOM     50  C   UNL A   1      42.467  34.926  30.926  1.00  0.00     0.074 A 
ATOM     51  C   UNL A   1      41.765  33.822  30.308  1.00  0.00     0.031 C 
ATOM     52  C   UNL A   1      40.783  34.370  37.116  1.00  0.00     0.029 A 
ATOM     53  C   UNL A   1      41.696  35.353  36.533  1.00  0.00     0.049 A 
ATOM     54  H   UNL A   1      42.170  35.582  34.516  1.00  0.00     0.167 HD
ATOM     55  C   UNL A   1      43.211  35.835  30.249  1.00  0.00     0.034 A 
ATOM     56  C   UNL A   1      42.384  36.294  37.213  1.00  0.00     0.034 A 
ATOM     57  C   UNL A   1      43.921  36.918  30.881  1.00  0.00     0.049 A 
ATOM     58  C   UNL A   1      43.295  37.230  36.449  1.00  0.00     0.074 A 
ATOM     59  C   UNL A   1      44.713  37.888  30.291  1.00  0.00     0.029 A 
ATOM     60  N   UNL A   1      43.936  37.171  32.247  1.00  0.00    -0.354 N 
ATOM     61  N   UNL A   1      43.535  37.283  35.158  1.00  0.00    -0.248 NA
ATOM     62  C   UNL A   1      44.020  38.240  37.232  1.00  0.00     0.031 C 
ATOM     63  C   UNL A   1      45.265  38.678  31.304  1.00  0.00     0.029 A 
ATOM     64  C   UNL A   1      44.747  38.262  32.519  1.00  0.00     0.049 A 
ATOM     65  H   UNL A   1      43.443  36.651  32.922  1.00  0.00     0.167 HD
ATOM     66  C   UNL A   1      44.408  38.355  34.976  1.00  0.00     0.074 A 
ATOM     67  C   UNL A   1      44.638  38.929  36.284  1.00  0.00     0.031 C 
ATOM     68  C   UNL A   1      44.968  38.825  33.830  1.00  0.00     0.034 A 
BRANCH  55  69
ATOM     69  C   UNL A   1      43.326  35.662  28.755  1.00  0.00     0.023 A 
ATOM     70  C   UNL A   1      44.208  34.726  28.185  1.00  0.00     0.031 A 
ATOM     71  C   UNL A   1      42.554  36.452  27.885  1.00  0.00     0.131 A 
ATOM     72  C   UNL A   1      44.340  34.646  26.791  1.00  0.00     0.055 A 
ATOM     73  C   UNL A   1      42.630  36.311  26.498  1.00  0.00     0.041 A 
ATOM     74  F   UNL A   1      41.715  37.381  28.369  1.00  0.00    -0.206 F 
ATOM     75  C   UNL A   1      43.536  35.412  25.943  1.00  0.00     0.022 A 
BRANCH  72  76
ATOM     76  S   UNL A   1      45.671  33.625  26.103  1.00  0.00     0.124 S 
ATOM     77  O   UNL A   1      46.373  34.586  25.256  1.00  0.00    -0.237 OA
ATOM     78  O   UNL A   1      46.382  33.185  27.297  1.00  0.00    -0.237 OA
ATOM     79  O   UNL A   1      44.957  32.573  25.379  1.00  0.00    -0.744 OA
ENDBRANCH  72  76
ENDBRANCH  55  69
BRANCH  56  80
ATOM     80  C   UNL A   1      42.300  36.373  38.702  1.00  0.00     0.023 A 
ATOM     81  C   UNL A   1      41.396  37.238  39.340  1.00  0.00     0.031 A 
ATOM     82  C   UNL A   1      43.190  35.644  39.513  1.00  0.00     0.131 A 
ATOM     83  C   UNL A   1      41.444  37.402  40.734  1.00  0.00     0.055 A 
ATOM     84  C   UNL A   1      43.188  35.758  40.905  1.00  0.00     0.041 A 
ATOM     85  F   UNL A   1      44.085  34.810  38.961  1.00  0.00    -0.206 F 
ATOM     86  C   UNL A   1      42.323  36.655  41.522  1.00  0.00     0.022 A 
BRANCH  83  87
ATOM     87  S   UNL A   1      40.428  38.701  41.493  1.00  0.00     0.124 S 
ATOM     88  O   UNL A   1      39.656  37.940  42.468  1.00  0.00    -0.237 OA
ATOM     89  O   UNL A   1      41.443  39.598  42.036  1.00  0.00    -0.237 OA
ATOM     90  O   UNL A   1      39.663  39.235  40.368  1.00  0.00    -0.744 OA
ENDBRANCH  83  87
ENDBRANCH  56  80
BRANCH  68  91
ATOM     91  C   UNL A   1      45.836  40.058  33.937  1.00  0.00     0.023 A 
ATOM     92  C   UNL A   1      47.226  39.979  34.126  1.00  0.00     0.031 A 
ATOM     93  C   UNL A   1      45.255  41.337  33.852  1.00  0.00     0.131 A 
ATOM     94  C   UNL A   1      47.979  41.152  34.283  1.00  0.00     0.055 A 
ATOM     95  C   UNL A   1      46.019  42.501  33.937  1.00  0.00     0.041 A 
ATOM     96  F   UNL A   1      43.931  41.477  33.674  1.00  0.00    -0.206 F 
ATOM     97  C   UNL A   1      47.388  42.413  34.169  1.00  0.00     0.022 A 
BRANCH  94  98
ATOM     98  S   UNL A   1      49.728  41.011  34.742  1.00  0.00     0.124 S 
ATOM     99  O   UNL A   1      50.387  41.039  33.440  1.00  0.00    -0.237 OA
ATOM    100  O   UNL A   1      49.927  42.189  35.581  1.00  0.00    -0.237 OA
ATOM    101  O   UNL A   1      49.797  39.732  35.445  1.00  0.00    -0.744 OA
ENDBRANCH  94  98
ENDBRANCH  68  91
ENDBRANCH  42  43
ENDBRANCH  35  37
ENDBRANCH  34  35
ENDBRANCH  33  34
ENDBRANCH  32  33
ENDBRANCH  31  32
ENDBRANCH  30  31
ENDBRANCH  29  30
ENDBRANCH   1  29
TORSDOF 26
ENDMDL
