MODEL 1
REMARK VINA RESULT:      -9.2      0.000      0.000
REMARK SMILES Cc1ccnc(C(=O)c2[nH]c3ccc(F)cc3c2CC(=O)OCCOCCOCCOCCOC(=O)c2ccc(-c3c4nc(c(-c5cc(S(=O)(=O)[O-])ccc5F)c5ccc([nH]5)c(-c5cc(S(=O)(=O)[O-])ccc5F)c5nc(c(-c6cc(S(=O)(=O)[O-])ccc6F)c6ccc3[nH]6)C=C5)C=C4)cc2)c1
REMARK SMILES IDX 28 1 27 2 26 3 25 4 24 5 23 6 22 7 20 8 21 9 19 10 18 11
REMARK SMILES IDX 9 12 10 13 11 14 17 16 12 17 16 18 13 19 14 20 15 21 7 22
REMARK SMILES IDX 8 23 6 24 1 25 2 26 3 27 100 28 4 29 5 30 29 31 30 32 31 33
REMARK SMILES IDX 32 34 33 35 34 36 35 37 36 38 37 39 38 40 99 41 39 42 98 43
REMARK SMILES IDX 40 44 41 45 42 46 92 47 43 48 97 49 91 50 93 51 44 52 96 53
REMARK SMILES IDX 90 54 89 55 45 57 77 58 57 59 76 60 58 61 61 62 75 63 94 64
REMARK SMILES IDX 59 65 60 66 74 68 95 69 62 70 46 71 47 72 55 73 48 74 54 75
REMARK SMILES IDX 56 76 53 77 49 78 50 79 51 80 52 81 78 82 79 83 87 84 80 85
REMARK SMILES IDX 86 86 88 87 85 88 81 89 82 90 83 91 84 92 63 93 64 94 72 95
REMARK SMILES IDX 65 96 71 97 73 98 70 99 66 100 67 101 68 102 69 103
REMARK H PARENT 10 15 93 56 61 67
REMARK Flexibility Score: inf
ROOT
ATOM      1  O   UNL A   1      31.408  27.929  26.320  1.00  0.00    -0.377 OA
ENDROOT
BRANCH   1   2
ATOM      2  C   UNL A   1      31.002  26.852  25.491  1.00  0.00     0.188 C 
BRANCH   2   3
ATOM      3  C   UNL A   1      30.150  25.837  26.276  1.00  0.00     0.188 C 
BRANCH   3   4
ATOM      4  O   UNL A   1      30.916  24.784  26.801  1.00  0.00    -0.376 OA
BRANCH   4   5
ATOM      5  C   UNL A   1      30.806  23.620  25.999  1.00  0.00     0.202 C 
BRANCH   5   6
ATOM      6  C   UNL A   1      31.883  22.559  26.330  1.00  0.00     0.261 C 
BRANCH   6   7
ATOM      7  O   UNL A   1      31.953  21.427  25.382  1.00  0.00    -0.463 OA
BRANCH   7   8
ATOM      8  C   UNL A   1      32.624  21.586  24.211  1.00  0.00     0.310 C 
ATOM      9  O   UNL A   1      32.082  22.064  23.218  1.00  0.00    -0.252 OA
BRANCH   8  10
ATOM     10  C   UNL A   1      34.154  21.272  24.233  1.00  0.00     0.161 C 
BRANCH  10  11
ATOM     11  C   UNL A   1      35.198  22.147  24.966  1.00  0.00     0.000 A 
ATOM     12  C   UNL A   1      35.241  23.540  25.351  1.00  0.00     0.093 A 
ATOM     13  N   UNL A   1      36.606  23.767  25.578  1.00  0.00    -0.352 N 
ATOM     14  C   UNL A   1      37.361  22.622  25.606  1.00  0.00     0.046 A 
ATOM     15  H   UNL A   1      36.987  24.666  25.704  1.00  0.00     0.167 HD
ATOM     16  C   UNL A   1      36.520  21.583  25.233  1.00  0.00     0.007 A 
ATOM     17  C   UNL A   1      38.729  22.437  25.884  1.00  0.00     0.030 A 
ATOM     18  C   UNL A   1      37.080  20.286  25.126  1.00  0.00     0.049 A 
ATOM     19  C   UNL A   1      39.250  21.141  25.799  1.00  0.00     0.041 A 
ATOM     20  C   UNL A   1      38.432  20.087  25.425  1.00  0.00     0.123 A 
ATOM     21  F   UNL A   1      38.951  18.855  25.332  1.00  0.00    -0.207 F 
BRANCH  12  22
ATOM     22  C   UNL A   1      34.374  24.794  25.296  1.00  0.00     0.227 C 
ATOM     23  O   UNL A   1      33.911  25.175  26.377  1.00  0.00    -0.285 OA
BRANCH  22  24
ATOM     24  C   UNL A   1      33.776  25.538  24.037  1.00  0.00     0.113 A 
ATOM     25  C   UNL A   1      33.398  29.056  22.526  1.00  0.00     0.044 C 
ATOM     26  C   UNL A   1      33.306  27.553  22.677  1.00  0.00    -0.047 A 
ATOM     27  C   UNL A   1      32.443  26.819  21.899  1.00  0.00     0.023 A 
ATOM     28  C   UNL A   1      34.060  26.835  23.635  1.00  0.00     0.036 A 
ATOM     29  C   UNL A   1      32.330  25.468  22.195  1.00  0.00     0.112 A 
ATOM     30  N   UNL A   1      32.920  24.829  23.258  1.00  0.00    -0.253 NA
ENDBRANCH  22  24
ENDBRANCH  12  22
ENDBRANCH  10  11
ENDBRANCH   8  10
ENDBRANCH   7   8
ENDBRANCH   6   7
ENDBRANCH   5   6
ENDBRANCH   4   5
ENDBRANCH   3   4
ENDBRANCH   2   3
ENDBRANCH   1   2
BRANCH   1  31
ATOM     31  C   UNL A   1      31.079  29.198  25.769  1.00  0.00     0.188 C 
BRANCH  31  32
ATOM     32  C   UNL A   1      31.947  30.295  26.384  1.00  0.00     0.188 C 
BRANCH  32  33
ATOM     33  O   UNL A   1      33.223  30.015  26.958  1.00  0.00    -0.376 OA
BRANCH  33  34
ATOM     34  C   UNL A   1      33.866  30.994  27.761  1.00  0.00     0.202 C 
BRANCH  34  35
ATOM     35  C   UNL A   1      33.620  32.443  27.332  1.00  0.00     0.261 C 
BRANCH  35  36
ATOM     36  O   UNL A   1      33.061  33.185  28.418  1.00  0.00    -0.460 OA
BRANCH  36  37
ATOM     37  C   UNL A   1      33.861  34.191  28.889  1.00  0.00     0.338 C 
ATOM     38  O   UNL A   1      33.604  35.363  28.934  1.00  0.00    -0.246 OA
BRANCH  37  39
ATOM     39  C   UNL A   1      34.960  33.529  29.648  1.00  0.00     0.060 A 
ATOM     40  C   UNL A   1      36.274  33.944  29.362  1.00  0.00     0.016 A 
ATOM     41  C   UNL A   1      34.694  32.741  30.775  1.00  0.00     0.016 A 
ATOM     42  C   UNL A   1      37.326  33.545  30.183  1.00  0.00     0.010 A 
ATOM     43  C   UNL A   1      35.748  32.314  31.577  1.00  0.00     0.010 A 
ATOM     44  C   UNL A   1      37.068  32.674  31.248  1.00  0.00    -0.014 A 
BRANCH  44  45
ATOM     45  C   UNL A   1      38.161  31.810  31.736  1.00  0.00     0.031 A 
ATOM     46  C   UNL A   1      38.697  32.153  33.100  1.00  0.00     0.074 A 
ATOM     47  C   UNL A   1      38.661  30.794  31.014  1.00  0.00     0.049 A 
ATOM     48  N   UNL A   1      39.718  31.662  33.745  1.00  0.00    -0.248 NA
ATOM     49  C   UNL A   1      37.985  33.222  33.823  1.00  0.00     0.031 C 
ATOM     50  C   UNL A   1      38.171  30.355  29.709  1.00  0.00     0.029 A 
ATOM     51  N   UNL A   1      39.709  29.956  31.284  1.00  0.00    -0.354 N 
ATOM     52  C   UNL A   1      39.772  32.370  34.942  1.00  0.00     0.074 A 
ATOM     53  C   UNL A   1      38.718  33.353  34.912  1.00  0.00     0.031 C 
ATOM     54  C   UNL A   1      38.936  29.333  29.283  1.00  0.00     0.029 A 
ATOM     55  C   UNL A   1      39.989  29.077  30.266  1.00  0.00     0.049 A 
ATOM     56  H   UNL A   1      40.215  29.979  32.128  1.00  0.00     0.167 HD
ATOM     57  C   UNL A   1      40.624  32.205  35.979  1.00  0.00     0.034 A 
ATOM     58  C   UNL A   1      41.003  28.196  30.142  1.00  0.00     0.034 A 
ATOM     59  C   UNL A   1      41.685  31.236  35.966  1.00  0.00     0.049 A 
ATOM     60  C   UNL A   1      42.005  28.092  31.271  1.00  0.00     0.074 A 
ATOM     61  C   UNL A   1      42.622  30.969  36.946  1.00  0.00     0.029 A 
ATOM     62  N   UNL A   1      41.960  30.383  34.903  1.00  0.00    -0.354 N 
ATOM     63  N   UNL A   1      42.050  28.758  32.404  1.00  0.00    -0.248 NA
ATOM     64  C   UNL A   1      43.088  27.114  31.106  1.00  0.00     0.031 C 
ATOM     65  C   UNL A   1      43.511  30.015  36.443  1.00  0.00     0.029 A 
ATOM     66  C   UNL A   1      43.074  29.614  35.188  1.00  0.00     0.049 A 
ATOM     67  H   UNL A   1      41.439  30.334  34.069  1.00  0.00     0.167 HD
ATOM     68  C   UNL A   1      43.145  28.251  33.102  1.00  0.00     0.074 A 
ATOM     69  C   UNL A   1      43.723  27.218  32.265  1.00  0.00     0.031 C 
ATOM     70  C   UNL A   1      43.630  28.597  34.324  1.00  0.00     0.034 A 
BRANCH  57  71
ATOM     71  C   UNL A   1      40.469  33.143  37.150  1.00  0.00     0.023 A 
ATOM     72  C   UNL A   1      39.857  32.739  38.351  1.00  0.00     0.031 A 
ATOM     73  C   UNL A   1      40.867  34.486  37.036  1.00  0.00     0.131 A 
ATOM     74  C   UNL A   1      39.583  33.684  39.351  1.00  0.00     0.055 A 
ATOM     75  C   UNL A   1      40.676  35.402  38.073  1.00  0.00     0.041 A 
ATOM     76  F   UNL A   1      41.419  34.942  35.900  1.00  0.00    -0.206 F 
ATOM     77  C   UNL A   1      40.015  35.007  39.232  1.00  0.00     0.022 A 
BRANCH  74  78
ATOM     78  S   UNL A   1      38.502  33.203  40.726  1.00  0.00     0.124 S 
ATOM     79  O   UNL A   1      38.802  31.778  40.852  1.00  0.00    -0.237 OA
ATOM     80  O   UNL A   1      38.973  34.055  41.811  1.00  0.00    -0.237 OA
ATOM     81  O   UNL A   1      37.160  33.507  40.231  1.00  0.00    -0.744 OA
ENDBRANCH  74  78
ENDBRANCH  57  71
BRANCH  58  82
ATOM     82  C   UNL A   1      41.151  27.375  28.905  1.00  0.00     0.023 A 
ATOM     83  C   UNL A   1      42.120  27.685  27.937  1.00  0.00     0.031 A 
ATOM     84  C   UNL A   1      40.293  26.290  28.650  1.00  0.00     0.131 A 
ATOM     85  C   UNL A   1      42.179  26.948  26.742  1.00  0.00     0.055 A 
ATOM     86  C   UNL A   1      40.391  25.525  27.485  1.00  0.00     0.041 A 
ATOM     87  F   UNL A   1      39.345  25.950  29.538  1.00  0.00    -0.206 F 
ATOM     88  C   UNL A   1      41.331  25.862  26.517  1.00  0.00     0.022 A 
BRANCH  85  89
ATOM     89  S   UNL A   1      43.328  27.485  25.445  1.00  0.00     0.124 S 
ATOM     90  O   UNL A   1      44.124  28.484  26.149  1.00  0.00    -0.237 OA
ATOM     91  O   UNL A   1      44.009  26.239  25.110  1.00  0.00    -0.237 OA
ATOM     92  O   UNL A   1      42.444  28.009  24.404  1.00  0.00    -0.744 OA
ENDBRANCH  85  89
ENDBRANCH  58  82
BRANCH  70  93
ATOM     93  C   UNL A   1      44.809  27.812  34.846  1.00  0.00     0.023 A 
ATOM     94  C   UNL A   1      46.133  28.228  34.629  1.00  0.00     0.031 A 
ATOM     95  C   UNL A   1      44.597  26.630  35.579  1.00  0.00     0.131 A 
ATOM     96  C   UNL A   1      47.196  27.436  35.087  1.00  0.00     0.055 A 
ATOM     97  C   UNL A   1      45.658  25.886  36.096  1.00  0.00     0.041 A 
ATOM     98  F   UNL A   1      43.353  26.184  35.815  1.00  0.00    -0.206 F 
ATOM     99  C   UNL A   1      46.967  26.280  35.838  1.00  0.00     0.022 A 
BRANCH  96 100
ATOM    100  S   UNL A   1      48.883  27.880  34.595  1.00  0.00     0.124 S 
ATOM    101  O   UNL A   1      48.942  27.371  33.229  1.00  0.00    -0.237 OA
ATOM    102  O   UNL A   1      48.877  29.333  34.735  1.00  0.00    -0.237 OA
ATOM    103  O   UNL A   1      49.719  27.168  35.560  1.00  0.00    -0.744 OA
ENDBRANCH  96 100
ENDBRANCH  70  93
ENDBRANCH  44  45
ENDBRANCH  37  39
ENDBRANCH  36  37
ENDBRANCH  35  36
ENDBRANCH  34  35
ENDBRANCH  33  34
ENDBRANCH  32  33
ENDBRANCH  31  32
ENDBRANCH   1  31
TORSDOF 26
ENDMDL
MODEL 2
REMARK VINA RESULT:      -8.9      3.832      7.894
REMARK SMILES Cc1ccnc(C(=O)c2[nH]c3ccc(F)cc3c2CC(=O)OCCOCCOCCOCCOC(=O)c2ccc(-c3c4nc(c(-c5cc(S(=O)(=O)[O-])ccc5F)c5ccc([nH]5)c(-c5cc(S(=O)(=O)[O-])ccc5F)c5nc(c(-c6cc(S(=O)(=O)[O-])ccc6F)c6ccc3[nH]6)C=C5)C=C4)cc2)c1
REMARK SMILES IDX 28 1 27 2 26 3 25 4 24 5 23 6 22 7 20 8 21 9 19 10 18 11
REMARK SMILES IDX 9 12 10 13 11 14 17 16 12 17 16 18 13 19 14 20 15 21 7 22
REMARK SMILES IDX 8 23 6 24 1 25 2 26 3 27 100 28 4 29 5 30 29 31 30 32 31 33
REMARK SMILES IDX 32 34 33 35 34 36 35 37 36 38 37 39 38 40 99 41 39 42 98 43
REMARK SMILES IDX 40 44 41 45 42 46 92 47 43 48 97 49 91 50 93 51 44 52 96 53
REMARK SMILES IDX 90 54 89 55 45 57 77 58 57 59 76 60 58 61 61 62 75 63 94 64
REMARK SMILES IDX 59 65 60 66 74 68 95 69 62 70 46 71 47 72 55 73 48 74 54 75
REMARK SMILES IDX 56 76 53 77 49 78 50 79 51 80 52 81 78 82 79 83 87 84 80 85
REMARK SMILES IDX 86 86 88 87 85 88 81 89 82 90 83 91 84 92 63 93 64 94 72 95
REMARK SMILES IDX 65 96 71 97 73 98 70 99 66 100 67 101 68 102 69 103
REMARK H PARENT 10 15 93 56 61 67
REMARK Flexibility Score: inf
ROOT
ATOM      1  O   UNL A   1      31.029  27.478  25.840  1.00  0.00    -0.377 OA
ENDROOT
BRANCH   1   2
ATOM      2  C   UNL A   1      30.375  26.371  25.242  1.00  0.00     0.188 C 
BRANCH   2   3
ATOM      3  C   UNL A   1      30.050  25.287  26.286  1.00  0.00     0.188 C 
BRANCH   3   4
ATOM      4  O   UNL A   1      31.148  24.455  26.558  1.00  0.00    -0.376 OA
BRANCH   4   5
ATOM      5  C   UNL A   1      30.934  23.145  26.060  1.00  0.00     0.202 C 
BRANCH   5   6
ATOM      6  C   UNL A   1      32.102  22.182  26.384  1.00  0.00     0.261 C 
BRANCH   6   7
ATOM      7  O   UNL A   1      32.273  21.068  25.428  1.00  0.00    -0.463 OA
BRANCH   7   8
ATOM      8  C   UNL A   1      32.728  21.334  24.176  1.00  0.00     0.310 C 
ATOM      9  O   UNL A   1      31.976  21.729  23.287  1.00  0.00    -0.252 OA
BRANCH   8  10
ATOM     10  C   UNL A   1      34.273  21.261  23.962  1.00  0.00     0.161 C 
BRANCH  10  11
ATOM     11  C   UNL A   1      35.281  22.203  24.665  1.00  0.00     0.000 A 
ATOM     12  C   UNL A   1      35.314  23.627  24.912  1.00  0.00     0.093 A 
ATOM     13  N   UNL A   1      36.665  23.871  25.194  1.00  0.00    -0.352 N 
ATOM     14  C   UNL A   1      37.408  22.732  25.379  1.00  0.00     0.046 A 
ATOM     15  H   UNL A   1      37.046  24.777  25.252  1.00  0.00     0.167 HD
ATOM     16  C   UNL A   1      36.580  21.664  25.063  1.00  0.00     0.007 A 
ATOM     17  C   UNL A   1      38.756  22.572  25.753  1.00  0.00     0.030 A 
ATOM     18  C   UNL A   1      37.135  20.361  25.117  1.00  0.00     0.049 A 
ATOM     19  C   UNL A   1      39.270  21.273  25.827  1.00  0.00     0.041 A 
ATOM     20  C   UNL A   1      38.466  20.190  25.512  1.00  0.00     0.123 A 
ATOM     21  F   UNL A   1      38.978  18.953  25.572  1.00  0.00    -0.207 F 
BRANCH  12  22
ATOM     22  C   UNL A   1      34.462  24.871  24.683  1.00  0.00     0.227 C 
ATOM     23  O   UNL A   1      34.139  25.496  25.699  1.00  0.00    -0.285 OA
BRANCH  22  24
ATOM     24  C   UNL A   1      33.724  25.346  23.368  1.00  0.00     0.113 A 
ATOM     25  C   UNL A   1      31.360  28.092  22.076  1.00  0.00     0.044 C 
ATOM     26  C   UNL A   1      32.259  26.875  22.086  1.00  0.00    -0.047 A 
ATOM     27  C   UNL A   1      32.227  25.968  21.053  1.00  0.00     0.023 A 
ATOM     28  C   UNL A   1      33.140  26.586  23.154  1.00  0.00     0.036 A 
ATOM     29  C   UNL A   1      32.989  24.819  21.208  1.00  0.00     0.112 A 
ATOM     30  N   UNL A   1      33.680  24.462  22.340  1.00  0.00    -0.253 NA
ENDBRANCH  22  24
ENDBRANCH  12  22
ENDBRANCH  10  11
ENDBRANCH   8  10
ENDBRANCH   7   8
ENDBRANCH   6   7
ENDBRANCH   5   6
ENDBRANCH   4   5
ENDBRANCH   3   4
ENDBRANCH   2   3
ENDBRANCH   1   2
BRANCH   1  31
ATOM     31  C   UNL A   1      30.897  28.671  25.076  1.00  0.00     0.188 C 
BRANCH  31  32
ATOM     32  C   UNL A   1      32.138  29.548  25.225  1.00  0.00     0.188 C 
BRANCH  32  33
ATOM     33  O   UNL A   1      33.320  29.081  25.873  1.00  0.00    -0.376 OA
BRANCH  33  34
ATOM     34  C   UNL A   1      33.986  29.911  26.813  1.00  0.00     0.202 C 
BRANCH  34  35
ATOM     35  C   UNL A   1      33.342  31.283  27.030  1.00  0.00     0.261 C 
BRANCH  35  36
ATOM     36  O   UNL A   1      33.564  31.720  28.373  1.00  0.00    -0.460 OA
BRANCH  36  37
ATOM     37  C   UNL A   1      33.739  33.069  28.510  1.00  0.00     0.338 C 
ATOM     38  O   UNL A   1      33.003  33.940  28.133  1.00  0.00    -0.246 OA
BRANCH  37  39
ATOM     39  C   UNL A   1      34.831  33.249  29.510  1.00  0.00     0.060 A 
ATOM     40  C   UNL A   1      34.795  34.418  30.292  1.00  0.00     0.016 A 
ATOM     41  C   UNL A   1      35.687  32.193  29.849  1.00  0.00     0.016 A 
ATOM     42  C   UNL A   1      35.637  34.546  31.394  1.00  0.00     0.010 A 
ATOM     43  C   UNL A   1      36.553  32.333  30.929  1.00  0.00     0.010 A 
ATOM     44  C   UNL A   1      36.563  33.531  31.667  1.00  0.00    -0.014 A 
BRANCH  44  45
ATOM     45  C   UNL A   1      37.793  33.877  32.407  1.00  0.00     0.031 A 
ATOM     46  C   UNL A   1      39.010  34.126  31.558  1.00  0.00     0.074 A 
ATOM     47  C   UNL A   1      37.837  33.954  33.747  1.00  0.00     0.049 A 
ATOM     48  N   UNL A   1      40.248  34.333  31.910  1.00  0.00    -0.248 NA
ATOM     49  C   UNL A   1      38.792  34.114  30.100  1.00  0.00     0.031 C 
ATOM     50  C   UNL A   1      36.700  33.782  34.648  1.00  0.00     0.029 A 
ATOM     51  N   UNL A   1      38.900  34.185  34.580  1.00  0.00    -0.354 N 
ATOM     52  C   UNL A   1      40.953  34.466  30.718  1.00  0.00     0.074 A 
ATOM     53  C   UNL A   1      40.018  34.268  29.638  1.00  0.00     0.031 C 
ATOM     54  C   UNL A   1      37.134  33.897  35.917  1.00  0.00     0.029 A 
ATOM     55  C   UNL A   1      38.581  34.109  35.914  1.00  0.00     0.049 A 
ATOM     56  H   UNL A   1      39.806  34.387  34.254  1.00  0.00     0.167 HD
ATOM     57  C   UNL A   1      42.265  34.740  30.542  1.00  0.00     0.034 A 
ATOM     58  C   UNL A   1      39.383  34.172  36.997  1.00  0.00     0.034 A 
ATOM     59  C   UNL A   1      43.178  34.902  31.640  1.00  0.00     0.049 A 
ATOM     60  C   UNL A   1      40.866  34.383  36.780  1.00  0.00     0.074 A 
ATOM     61  C   UNL A   1      44.532  35.176  31.604  1.00  0.00     0.029 A 
ATOM     62  N   UNL A   1      42.827  34.786  32.980  1.00  0.00    -0.354 N 
ATOM     63  N   UNL A   1      41.529  34.515  35.652  1.00  0.00    -0.248 NA
ATOM     64  C   UNL A   1      41.706  34.459  37.981  1.00  0.00     0.031 C 
ATOM     65  C   UNL A   1      45.013  35.143  32.915  1.00  0.00     0.029 A 
ATOM     66  C   UNL A   1      43.945  34.946  33.779  1.00  0.00     0.049 A 
ATOM     67  H   UNL A   1      41.916  34.615  33.312  1.00  0.00     0.167 HD
ATOM     68  C   UNL A   1      42.858  34.726  36.011  1.00  0.00     0.074 A 
ATOM     69  C   UNL A   1      42.898  34.714  37.460  1.00  0.00     0.031 C 
ATOM     70  C   UNL A   1      43.950  34.921  35.224  1.00  0.00     0.034 A 
BRANCH  57  71
ATOM     71  C   UNL A   1      42.771  34.798  29.122  1.00  0.00     0.023 A 
ATOM     72  C   UNL A   1      43.393  33.694  28.509  1.00  0.00     0.031 A 
ATOM     73  C   UNL A   1      42.702  36.000  28.397  1.00  0.00     0.131 A 
ATOM     74  C   UNL A   1      43.997  33.841  27.251  1.00  0.00     0.055 A 
ATOM     75  C   UNL A   1      43.222  36.112  27.106  1.00  0.00     0.041 A 
ATOM     76  F   UNL A   1      42.157  37.098  28.943  1.00  0.00    -0.206 F 
ATOM     77  C   UNL A   1      43.890  35.034  26.532  1.00  0.00     0.022 A 
BRANCH  74  78
ATOM     78  S   UNL A   1      45.071  32.510  26.645  1.00  0.00     0.124 S 
ATOM     79  O   UNL A   1      44.153  31.753  25.796  1.00  0.00    -0.237 OA
ATOM     80  O   UNL A   1      46.124  33.244  25.954  1.00  0.00    -0.237 OA
ATOM     81  O   UNL A   1      45.488  31.823  27.866  1.00  0.00    -0.744 OA
ENDBRANCH  74  78
ENDBRANCH  57  71
BRANCH  58  82
ATOM     82  C   UNL A   1      38.824  34.000  38.370  1.00  0.00     0.023 A 
ATOM     83  C   UNL A   1      38.233  32.791  38.769  1.00  0.00     0.031 A 
ATOM     84  C   UNL A   1      38.832  35.062  39.292  1.00  0.00     0.131 A 
ATOM     85  C   UNL A   1      37.637  32.686  40.037  1.00  0.00     0.055 A 
ATOM     86  C   UNL A   1      38.288  34.937  40.572  1.00  0.00     0.041 A 
ATOM     87  F   UNL A   1      39.380  36.243  38.963  1.00  0.00    -0.206 F 
ATOM     88  C   UNL A   1      37.674  33.745  40.946  1.00  0.00     0.022 A 
BRANCH  85  89
ATOM     89  S   UNL A   1      36.736  31.167  40.451  1.00  0.00     0.124 S 
ATOM     90  O   UNL A   1      37.131  30.958  41.839  1.00  0.00    -0.237 OA
ATOM     91  O   UNL A   1      35.351  31.568  40.230  1.00  0.00    -0.237 OA
ATOM     92  O   UNL A   1      37.259  30.190  39.498  1.00  0.00    -0.744 OA
ENDBRANCH  85  89
ENDBRANCH  58  82
BRANCH  70  93
ATOM     93  C   UNL A   1      45.263  35.189  35.919  1.00  0.00     0.023 A 
ATOM     94  C   UNL A   1      46.241  34.194  36.068  1.00  0.00     0.031 A 
ATOM     95  C   UNL A   1      45.536  36.470  36.434  1.00  0.00     0.131 A 
ATOM     96  C   UNL A   1      47.423  34.477  36.769  1.00  0.00     0.055 A 
ATOM     97  C   UNL A   1      46.744  36.766  37.065  1.00  0.00     0.041 A 
ATOM     98  F   UNL A   1      44.635  37.460  36.321  1.00  0.00    -0.206 F 
ATOM     99  C   UNL A   1      47.690  35.762  37.249  1.00  0.00     0.022 A 
BRANCH  96 100
ATOM    100  S   UNL A   1      48.560  33.115  37.141  1.00  0.00     0.124 S 
ATOM    101  O   UNL A   1      48.339  32.920  38.570  1.00  0.00    -0.237 OA
ATOM    102  O   UNL A   1      48.070  32.053  36.269  1.00  0.00    -0.237 OA
ATOM    103  O   UNL A   1      49.870  33.656  36.783  1.00  0.00    -0.744 OA
ENDBRANCH  96 100
ENDBRANCH  70  93
ENDBRANCH  44  45
ENDBRANCH  37  39
ENDBRANCH  36  37
ENDBRANCH  35  36
ENDBRANCH  34  35
ENDBRANCH  33  34
ENDBRANCH  32  33
ENDBRANCH  31  32
ENDBRANCH   1  31
TORSDOF 26
ENDMDL
MODEL 3
REMARK VINA RESULT:      -8.9      5.006     10.306
REMARK SMILES Cc1ccnc(C(=O)c2[nH]c3ccc(F)cc3c2CC(=O)OCCOCCOCCOCCOC(=O)c2ccc(-c3c4nc(c(-c5cc(S(=O)(=O)[O-])ccc5F)c5ccc([nH]5)c(-c5cc(S(=O)(=O)[O-])ccc5F)c5nc(c(-c6cc(S(=O)(=O)[O-])ccc6F)c6ccc3[nH]6)C=C5)C=C4)cc2)c1
REMARK SMILES IDX 28 1 27 2 26 3 25 4 24 5 23 6 22 7 20 8 21 9 19 10 18 11
REMARK SMILES IDX 9 12 10 13 11 14 17 16 12 17 16 18 13 19 14 20 15 21 7 22
REMARK SMILES IDX 8 23 6 24 1 25 2 26 3 27 100 28 4 29 5 30 29 31 30 32 31 33
REMARK SMILES IDX 32 34 33 35 34 36 35 37 36 38 37 39 38 40 99 41 39 42 98 43
REMARK SMILES IDX 40 44 41 45 42 46 92 47 43 48 97 49 91 50 93 51 44 52 96 53
REMARK SMILES IDX 90 54 89 55 45 57 77 58 57 59 76 60 58 61 61 62 75 63 94 64
REMARK SMILES IDX 59 65 60 66 74 68 95 69 62 70 46 71 47 72 55 73 48 74 54 75
REMARK SMILES IDX 56 76 53 77 49 78 50 79 51 80 52 81 78 82 79 83 87 84 80 85
REMARK SMILES IDX 86 86 88 87 85 88 81 89 82 90 83 91 84 92 63 93 64 94 72 95
REMARK SMILES IDX 65 96 71 97 73 98 70 99 66 100 67 101 68 102 69 103
REMARK H PARENT 10 15 93 56 61 67
REMARK Flexibility Score: inf
ROOT
ATOM      1  O   UNL A   1      45.806  27.265  25.456  1.00  0.00    -0.377 OA
ENDROOT
BRANCH   1   2
ATOM      2  C   UNL A   1      44.407  27.485  25.376  1.00  0.00     0.188 C 
BRANCH   2   3
ATOM      3  C   UNL A   1      43.772  27.550  26.778  1.00  0.00     0.188 C 
BRANCH   3   4
ATOM      4  O   UNL A   1      42.494  28.130  26.764  1.00  0.00    -0.376 OA
BRANCH   4   5
ATOM      5  C   UNL A   1      41.996  28.302  28.081  1.00  0.00     0.202 C 
BRANCH   5   6
ATOM      6  C   UNL A   1      41.840  26.964  28.842  1.00  0.00     0.261 C 
BRANCH   6   7
ATOM      7  O   UNL A   1      40.737  26.102  28.366  1.00  0.00    -0.463 OA
BRANCH   7   8
ATOM      8  C   UNL A   1      40.963  25.248  27.334  1.00  0.00     0.310 C 
ATOM      9  O   UNL A   1      40.367  25.358  26.265  1.00  0.00    -0.252 OA
BRANCH   8  10
ATOM     10  C   UNL A   1      42.121  24.217  27.519  1.00  0.00     0.161 C 
BRANCH  10  11
ATOM     11  C   UNL A   1      42.386  23.043  26.546  1.00  0.00     0.000 A 
ATOM     12  C   UNL A   1      41.647  21.852  26.191  1.00  0.00     0.093 A 
ATOM     13  N   UNL A   1      42.622  21.033  25.606  1.00  0.00    -0.352 N 
ATOM     14  C   UNL A   1      43.807  21.677  25.350  1.00  0.00     0.046 A 
ATOM     15  H   UNL A   1      42.472  20.083  25.398  1.00  0.00     0.167 HD
ATOM     16  C   UNL A   1      43.702  22.939  25.918  1.00  0.00     0.007 A 
ATOM     17  C   UNL A   1      44.974  21.221  24.707  1.00  0.00     0.030 A 
ATOM     18  C   UNL A   1      44.832  23.792  25.843  1.00  0.00     0.049 A 
ATOM     19  C   UNL A   1      46.064  22.094  24.622  1.00  0.00     0.041 A 
ATOM     20  C   UNL A   1      45.986  23.358  25.184  1.00  0.00     0.123 A 
ATOM     21  F   UNL A   1      47.045  24.175  25.108  1.00  0.00    -0.207 F 
BRANCH  12  22
ATOM     22  C   UNL A   1      40.323  21.164  26.504  1.00  0.00     0.227 C 
ATOM     23  O   UNL A   1      40.396  20.153  27.211  1.00  0.00    -0.285 OA
BRANCH  22  24
ATOM     24  C   UNL A   1      38.898  21.403  25.863  1.00  0.00     0.113 A 
ATOM     25  C   UNL A   1      36.066  24.002  25.721  1.00  0.00     0.044 C 
ATOM     26  C   UNL A   1      36.855  22.740  25.453  1.00  0.00    -0.047 A 
ATOM     27  C   UNL A   1      36.249  21.634  24.906  1.00  0.00     0.023 A 
ATOM     28  C   UNL A   1      38.226  22.614  25.777  1.00  0.00     0.036 A 
ATOM     29  C   UNL A   1      37.016  20.481  24.816  1.00  0.00     0.112 A 
ATOM     30  N   UNL A   1      38.283  20.321  25.321  1.00  0.00    -0.253 NA
ENDBRANCH  22  24
ENDBRANCH  12  22
ENDBRANCH  10  11
ENDBRANCH   8  10
ENDBRANCH   7   8
ENDBRANCH   6   7
ENDBRANCH   5   6
ENDBRANCH   4   5
ENDBRANCH   3   4
ENDBRANCH   2   3
ENDBRANCH   1   2
BRANCH   1  31
ATOM     31  C   UNL A   1      46.558  28.296  24.828  1.00  0.00     0.188 C 
BRANCH  31  32
ATOM     32  C   UNL A   1      46.737  29.485  25.770  1.00  0.00     0.188 C 
BRANCH  32  33
ATOM     33  O   UNL A   1      46.080  30.731  25.546  1.00  0.00    -0.376 OA
BRANCH  33  34
ATOM     34  C   UNL A   1      45.034  31.145  26.414  1.00  0.00     0.202 C 
BRANCH  34  35
ATOM     35  C   UNL A   1      44.203  32.324  25.903  1.00  0.00     0.261 C 
BRANCH  35  36
ATOM     36  O   UNL A   1      44.716  33.549  26.431  1.00  0.00    -0.460 OA
BRANCH  36  37
ATOM     37  C   UNL A   1      43.776  34.524  26.621  1.00  0.00     0.338 C 
ATOM     38  O   UNL A   1      43.108  35.063  25.781  1.00  0.00    -0.246 OA
BRANCH  37  39
ATOM     39  C   UNL A   1      43.489  34.548  28.084  1.00  0.00     0.060 A 
ATOM     40  C   UNL A   1      44.159  33.602  28.882  1.00  0.00     0.016 A 
ATOM     41  C   UNL A   1      42.808  35.621  28.674  1.00  0.00     0.016 A 
ATOM     42  C   UNL A   1      44.122  33.710  30.270  1.00  0.00     0.010 A 
ATOM     43  C   UNL A   1      42.742  35.711  30.061  1.00  0.00     0.010 A 
ATOM     44  C   UNL A   1      43.356  34.725  30.856  1.00  0.00    -0.014 A 
BRANCH  44  45
ATOM     45  C   UNL A   1      42.839  34.519  32.223  1.00  0.00     0.031 A 
ATOM     46  C   UNL A   1      41.364  34.235  32.322  1.00  0.00     0.074 A 
ATOM     47  C   UNL A   1      43.619  34.593  33.313  1.00  0.00     0.049 A 
ATOM     48  N   UNL A   1      40.602  34.125  33.373  1.00  0.00    -0.248 NA
ATOM     49  C   UNL A   1      40.652  34.075  31.041  1.00  0.00     0.031 C 
ATOM     50  C   UNL A   1      45.065  34.811  33.313  1.00  0.00     0.029 A 
ATOM     51  N   UNL A   1      43.288  34.504  34.640  1.00  0.00    -0.354 N 
ATOM     52  C   UNL A   1      39.322  33.893  32.877  1.00  0.00     0.074 A 
ATOM     53  C   UNL A   1      39.402  33.929  31.438  1.00  0.00     0.031 C 
ATOM     54  C   UNL A   1      45.494  34.857  34.588  1.00  0.00     0.029 A 
ATOM     55  C   UNL A   1      44.349  34.712  35.488  1.00  0.00     0.049 A 
ATOM     56  H   UNL A   1      42.377  34.310  34.956  1.00  0.00     0.167 HD
ATOM     57  C   UNL A   1      38.181  33.663  33.566  1.00  0.00     0.034 A 
ATOM     58  C   UNL A   1      44.372  34.806  36.833  1.00  0.00     0.034 A 
ATOM     59  C   UNL A   1      38.129  33.665  35.003  1.00  0.00     0.049 A 
ATOM     60  C   UNL A   1      43.069  34.641  37.586  1.00  0.00     0.074 A 
ATOM     61  C   UNL A   1      37.040  33.451  35.826  1.00  0.00     0.029 A 
ATOM     62  N   UNL A   1      39.218  33.912  35.831  1.00  0.00    -0.354 N 
ATOM     63  N   UNL A   1      41.862  34.416  37.115  1.00  0.00    -0.248 NA
ATOM     64  C   UNL A   1      43.134  34.737  39.049  1.00  0.00     0.031 C 
ATOM     65  C   UNL A   1      37.453  33.651  37.146  1.00  0.00     0.029 A 
ATOM     66  C   UNL A   1      38.820  33.892  37.155  1.00  0.00     0.049 A 
ATOM     67  H   UNL A   1      40.137  34.077  35.520  1.00  0.00     0.167 HD
ATOM     68  C   UNL A   1      41.031  34.307  38.228  1.00  0.00     0.074 A 
ATOM     69  C   UNL A   1      41.879  34.480  39.391  1.00  0.00     0.031 C 
ATOM     70  C   UNL A   1      39.692  34.078  38.293  1.00  0.00     0.034 A 
BRANCH  57  71
ATOM     71  C   UNL A   1      36.920  33.472  32.762  1.00  0.00     0.023 A 
ATOM     72  C   UNL A   1      36.040  34.538  32.495  1.00  0.00     0.031 A 
ATOM     73  C   UNL A   1      36.549  32.189  32.324  1.00  0.00     0.131 A 
ATOM     74  C   UNL A   1      34.800  34.287  31.890  1.00  0.00     0.055 A 
ATOM     75  C   UNL A   1      35.355  31.961  31.637  1.00  0.00     0.041 A 
ATOM     76  F   UNL A   1      37.327  31.126  32.584  1.00  0.00    -0.206 F 
ATOM     77  C   UNL A   1      34.464  33.010  31.432  1.00  0.00     0.022 A 
BRANCH  74  78
ATOM     78  S   UNL A   1      33.562  35.613  31.868  1.00  0.00     0.124 S 
ATOM     79  O   UNL A   1      34.225  36.648  32.659  1.00  0.00    -0.237 OA
ATOM     80  O   UNL A   1      33.421  35.890  30.443  1.00  0.00    -0.237 OA
ATOM     81  O   UNL A   1      32.395  35.005  32.504  1.00  0.00    -0.744 OA
ENDBRANCH  74  78
ENDBRANCH  57  71
BRANCH  58  82
ATOM     82  C   UNL A   1      45.643  35.102  37.555  1.00  0.00     0.023 A 
ATOM     83  C   UNL A   1      46.061  36.424  37.781  1.00  0.00     0.031 A 
ATOM     84  C   UNL A   1      46.486  34.064  37.991  1.00  0.00     0.131 A 
ATOM     85  C   UNL A   1      47.305  36.673  38.385  1.00  0.00     0.055 A 
ATOM     86  C   UNL A   1      47.697  34.316  38.641  1.00  0.00     0.041 A 
ATOM     87  F   UNL A   1      46.140  32.782  37.797  1.00  0.00    -0.206 F 
ATOM     88  C   UNL A   1      48.118  35.628  38.830  1.00  0.00     0.022 A 
BRANCH  85  89
ATOM     89  S   UNL A   1      47.885  38.387  38.506  1.00  0.00     0.124 S 
ATOM     90  O   UNL A   1      49.121  38.337  37.735  1.00  0.00    -0.237 OA
ATOM     91  O   UNL A   1      46.780  39.124  37.902  1.00  0.00    -0.237 OA
ATOM     92  O   UNL A   1      48.052  38.589  39.945  1.00  0.00    -0.744 OA
ENDBRANCH  85  89
ENDBRANCH  58  82
BRANCH  70  93
ATOM     93  C   UNL A   1      39.080  33.948  39.666  1.00  0.00     0.023 A 
ATOM     94  C   UNL A   1      38.927  32.703  40.297  1.00  0.00     0.031 A 
ATOM     95  C   UNL A   1      38.648  35.098  40.354  1.00  0.00     0.131 A 
ATOM     96  C   UNL A   1      38.302  32.630  41.551  1.00  0.00     0.055 A 
ATOM     97  C   UNL A   1      38.094  35.024  41.632  1.00  0.00     0.041 A 
ATOM     98  F   UNL A   1      38.768  36.314  39.797  1.00  0.00    -0.206 F 
ATOM     99  C   UNL A   1      37.905  33.783  42.232  1.00  0.00     0.022 A 
BRANCH  96 100
ATOM    100  S   UNL A   1      37.916  30.994  42.233  1.00  0.00     0.124 S 
ATOM    101  O   UNL A   1      39.094  30.724  43.052  1.00  0.00    -0.237 OA
ATOM    102  O   UNL A   1      36.677  31.245  42.961  1.00  0.00    -0.237 OA
ATOM    103  O   UNL A   1      37.779  30.152  41.046  1.00  0.00    -0.744 OA
ENDBRANCH  96 100
ENDBRANCH  70  93
ENDBRANCH  44  45
ENDBRANCH  37  39
ENDBRANCH  36  37
ENDBRANCH  35  36
ENDBRANCH  34  35
ENDBRANCH  33  34
ENDBRANCH  32  33
ENDBRANCH  31  32
ENDBRANCH   1  31
TORSDOF 26
ENDMDL
