MODEL 1
REMARK VINA RESULT:      -9.3      0.000      0.000
REMARK SMILES O=C(OCCOCCOCCOCCOC(=O)c1ccccc1/N=C/c1coc2ccccc2c1=O)c1ccc(-c2c3nc(c(-c4cc(S(=O)(=O)[O-])ccc4F)c4ccc([nH]4)c(-c4cc(S(=O)(=O)[O-])ccc4F)c4nc(c(-c5cc(S(=O)(=O)[O-])ccc5F)c5ccc2[nH]5)C=C4)C=C3)cc1
REMARK SMILES IDX 8 1 7 2 6 3 5 4 4 5 3 6 2 7 1 8 37 9 38 10 99 11 39 12 98 13
REMARK SMILES IDX 40 14 41 15 42 16 92 17 43 18 97 19 91 20 93 21 44 22 96 23
REMARK SMILES IDX 90 24 89 25 45 27 77 28 57 29 76 30 58 31 61 32 75 33 94 34
REMARK SMILES IDX 59 35 60 36 74 38 95 39 62 40 46 41 47 42 55 43 48 44 54 45
REMARK SMILES IDX 56 46 53 47 49 48 50 49 51 50 52 51 78 52 79 53 87 54 80 55
REMARK SMILES IDX 86 56 88 57 85 58 81 59 82 60 83 61 84 62 63 63 64 64 72 65
REMARK SMILES IDX 65 66 71 67 73 68 70 69 66 70 67 71 68 72 69 73 9 74 10 75
REMARK SMILES IDX 11 76 12 77 13 78 14 79 15 80 16 81 17 82 18 83 19 84 23 85
REMARK SMILES IDX 20 86 22 87 21 88 24 89 25 90 26 91 27 92 35 93 28 94 34 95
REMARK SMILES IDX 36 96 29 97 33 98 30 99 32 100 31 101
REMARK H PARENT 93 26 61 37
REMARK Flexibility Score: inf
ROOT
ATOM      1  C   UNL A   1      39.468  28.991  28.275  1.00  0.00     0.188 C 
ENDROOT
BRANCH   1   2
ATOM      2  C   UNL A   1      38.328  29.798  27.654  1.00  0.00     0.188 C 
BRANCH   2   3
ATOM      3  O   UNL A   1      37.839  30.793  28.545  1.00  0.00    -0.376 OA
BRANCH   3   4
ATOM      4  C   UNL A   1      36.539  30.588  29.084  1.00  0.00     0.202 C 
BRANCH   4   5
ATOM      5  C   UNL A   1      36.429  29.370  30.005  1.00  0.00     0.261 C 
BRANCH   5   6
ATOM      6  O   UNL A   1      36.153  29.736  31.364  1.00  0.00    -0.460 OA
BRANCH   6   7
ATOM      7  C   UNL A   1      37.026  30.221  32.285  1.00  0.00     0.338 C 
ATOM      8  O   UNL A   1      36.645  31.143  33.006  1.00  0.00    -0.246 OA
BRANCH   7   9
ATOM      9  C   UNL A   1      38.427  29.721  32.477  1.00  0.00     0.060 A 
ATOM     10  C   UNL A   1      39.558  30.518  32.662  1.00  0.00     0.016 A 
ATOM     11  C   UNL A   1      38.600  28.328  32.554  1.00  0.00     0.016 A 
ATOM     12  C   UNL A   1      40.818  29.975  32.865  1.00  0.00     0.010 A 
ATOM     13  C   UNL A   1      39.865  27.766  32.768  1.00  0.00     0.010 A 
ATOM     14  C   UNL A   1      40.982  28.597  32.897  1.00  0.00    -0.014 A 
BRANCH  14  15
ATOM     15  C   UNL A   1      42.362  28.082  32.849  1.00  0.00     0.031 A 
ATOM     16  C   UNL A   1      43.033  27.789  34.158  1.00  0.00     0.074 A 
ATOM     17  C   UNL A   1      42.909  27.722  31.673  1.00  0.00     0.049 A 
ATOM     18  N   UNL A   1      44.246  27.375  34.397  1.00  0.00    -0.248 NA
ATOM     19  C   UNL A   1      42.210  27.973  35.367  1.00  0.00     0.031 C 
ATOM     20  C   UNL A   1      42.243  27.817  30.370  1.00  0.00     0.029 A 
ATOM     21  N   UNL A   1      44.128  27.172  31.382  1.00  0.00    -0.354 N 
ATOM     22  C   UNL A   1      44.339  27.269  35.781  1.00  0.00     0.074 A 
ATOM     23  C   UNL A   1      43.067  27.678  36.329  1.00  0.00     0.031 C 
ATOM     24  C   UNL A   1      43.062  27.329  29.423  1.00  0.00     0.029 A 
ATOM     25  C   UNL A   1      44.334  26.965  30.037  1.00  0.00     0.049 A 
ATOM     26  H   UNL A   1      44.795  26.946  32.071  1.00  0.00     0.167 HD
ATOM     27  C   UNL A   1      45.400  26.868  36.517  1.00  0.00     0.034 A 
ATOM     28  C   UNL A   1      45.446  26.570  29.387  1.00  0.00     0.034 A 
ATOM     29  C   UNL A   1      46.654  26.486  35.921  1.00  0.00     0.049 A 
ATOM     30  C   UNL A   1      46.666  26.271  30.230  1.00  0.00     0.074 A 
ATOM     31  C   UNL A   1      47.847  26.160  36.537  1.00  0.00     0.029 A 
ATOM     32  N   UNL A   1      46.870  26.384  34.550  1.00  0.00    -0.354 N 
ATOM     33  N   UNL A   1      46.786  26.272  31.541  1.00  0.00    -0.248 NA
ATOM     34  C   UNL A   1      47.898  25.927  29.514  1.00  0.00     0.031 C 
ATOM     35  C   UNL A   1      48.797  25.924  35.538  1.00  0.00     0.029 A 
ATOM     36  C   UNL A   1      48.180  26.023  34.299  1.00  0.00     0.049 A 
ATOM     37  H   UNL A   1      46.187  26.544  33.859  1.00  0.00     0.167 HD
ATOM     38  C   UNL A   1      48.101  25.909  31.804  1.00  0.00     0.074 A 
ATOM     39  C   UNL A   1      48.722  25.663  30.516  1.00  0.00     0.031 C 
ATOM     40  C   UNL A   1      48.752  25.794  32.993  1.00  0.00     0.034 A 
BRANCH  27  41
ATOM     41  C   UNL A   1      45.257  26.935  38.016  1.00  0.00     0.023 A 
ATOM     42  C   UNL A   1      45.580  28.094  38.745  1.00  0.00     0.031 A 
ATOM     43  C   UNL A   1      44.879  25.788  38.737  1.00  0.00     0.131 A 
ATOM     44  C   UNL A   1      45.590  28.057  40.149  1.00  0.00     0.055 A 
ATOM     45  C   UNL A   1      44.816  25.781  40.131  1.00  0.00     0.041 A 
ATOM     46  F   UNL A   1      44.596  24.643  38.096  1.00  0.00    -0.206 F 
ATOM     47  C   UNL A   1      45.187  26.916  40.846  1.00  0.00     0.022 A 
BRANCH  44  48
ATOM     48  S   UNL A   1      46.278  29.472  41.055  1.00  0.00     0.124 S 
ATOM     49  O   UNL A   1      45.126  29.906  41.843  1.00  0.00    -0.237 OA
ATOM     50  O   UNL A   1      47.372  28.868  41.805  1.00  0.00    -0.237 OA
ATOM     51  O   UNL A   1      46.683  30.394  39.996  1.00  0.00    -0.744 OA
ENDBRANCH  44  48
ENDBRANCH  27  41
BRANCH  28  52
ATOM     52  C   UNL A   1      45.504  26.527  27.894  1.00  0.00     0.023 A 
ATOM     53  C   UNL A   1      45.434  25.315  27.189  1.00  0.00     0.031 A 
ATOM     54  C   UNL A   1      45.729  27.701  27.147  1.00  0.00     0.131 A 
ATOM     55  C   UNL A   1      45.647  25.294  25.799  1.00  0.00     0.055 A 
ATOM     56  C   UNL A   1      45.870  27.684  25.757  1.00  0.00     0.041 A 
ATOM     57  F   UNL A   1      45.823  28.892  27.759  1.00  0.00    -0.206 F 
ATOM     58  C   UNL A   1      45.849  26.472  25.077  1.00  0.00     0.022 A 
BRANCH  55  59
ATOM     59  S   UNL A   1      45.792  23.690  24.963  1.00  0.00     0.124 S 
ATOM     60  O   UNL A   1      46.247  22.829  26.049  1.00  0.00    -0.237 OA
ATOM     61  O   UNL A   1      44.427  23.467  24.496  1.00  0.00    -0.237 OA
ATOM     62  O   UNL A   1      46.775  23.942  23.911  1.00  0.00    -0.744 OA
ENDBRANCH  55  59
ENDBRANCH  28  52
BRANCH  40  63
ATOM     63  C   UNL A   1      50.189  25.346  32.929  1.00  0.00     0.023 A 
ATOM     64  C   UNL A   1      50.535  23.985  32.958  1.00  0.00     0.031 A 
ATOM     65  C   UNL A   1      51.221  26.296  32.852  1.00  0.00     0.131 A 
ATOM     66  C   UNL A   1      51.886  23.613  32.983  1.00  0.00     0.055 A 
ATOM     67  C   UNL A   1      52.562  25.916  32.802  1.00  0.00     0.041 A 
ATOM     68  F   UNL A   1      50.942  27.610  32.821  1.00  0.00    -0.206 F 
ATOM     69  C   UNL A   1      52.901  24.569  32.885  1.00  0.00     0.022 A 
BRANCH  66  70
ATOM     70  S   UNL A   1      52.297  21.870  33.259  1.00  0.00     0.124 S 
ATOM     71  O   UNL A   1      51.794  21.244  32.040  1.00  0.00    -0.237 OA
ATOM     72  O   UNL A   1      53.748  21.911  33.403  1.00  0.00    -0.237 OA
ATOM     73  O   UNL A   1      51.563  21.534  34.476  1.00  0.00    -0.744 OA
ENDBRANCH  66  70
ENDBRANCH  40  63
ENDBRANCH  14  15
ENDBRANCH   7   9
ENDBRANCH   6   7
ENDBRANCH   5   6
ENDBRANCH   4   5
ENDBRANCH   3   4
ENDBRANCH   2   3
ENDBRANCH   1   2
BRANCH   1  74
ATOM     74  O   UNL A   1      39.888  27.844  27.547  1.00  0.00    -0.377 OA
BRANCH  74  75
ATOM     75  C   UNL A   1      39.410  26.570  27.966  1.00  0.00     0.188 C 
BRANCH  75  76
ATOM     76  C   UNL A   1      40.087  25.251  27.499  1.00  0.00     0.188 C 
BRANCH  76  77
ATOM     77  O   UNL A   1      39.450  24.560  26.433  1.00  0.00    -0.376 OA
BRANCH  77  78
ATOM     78  C   UNL A   1      39.038  23.229  26.739  1.00  0.00     0.202 C 
BRANCH  78  79
ATOM     79  C   UNL A   1      38.120  22.631  25.678  1.00  0.00     0.261 C 
BRANCH  79  80
ATOM     80  O   UNL A   1      36.733  22.969  25.860  1.00  0.00    -0.460 OA
BRANCH  80  81
ATOM     81  C   UNL A   1      35.797  22.277  25.176  1.00  0.00     0.340 C 
ATOM     82  O   UNL A   1      35.962  21.576  24.197  1.00  0.00    -0.246 OA
BRANCH  81  83
ATOM     83  C   UNL A   1      34.511  22.456  25.872  1.00  0.00     0.085 A 
ATOM     84  C   UNL A   1      34.425  21.970  27.192  1.00  0.00     0.018 A 
ATOM     85  C   UNL A   1      33.469  23.216  25.319  1.00  0.00     0.077 A 
ATOM     86  C   UNL A   1      33.320  22.275  27.986  1.00  0.00     0.001 A 
ATOM     87  C   UNL A   1      32.326  23.421  26.113  1.00  0.00     0.029 A 
ATOM     88  C   UNL A   1      32.258  22.983  27.439  1.00  0.00     0.002 A 
BRANCH  85  89
ATOM     89  N   UNL A   1      33.566  24.097  24.235  1.00  0.00    -0.255 NA
ATOM     90  C   UNL A   1      34.063  25.287  24.240  1.00  0.00     0.127 C 
BRANCH  90  91
ATOM     91  C   UNL A   1      33.499  26.336  23.308  1.00  0.00     0.076 A 
ATOM     92  C   UNL A   1      32.161  26.279  23.155  1.00  0.00     0.209 A 
ATOM     93  C   UNL A   1      33.770  27.747  23.782  1.00  0.00     0.201 A 
ATOM     94  O   UNL A   1      31.279  26.641  24.198  1.00  0.00    -0.463 OA
ATOM     95  C   UNL A   1      33.057  28.062  25.043  1.00  0.00     0.065 A 
ATOM     96  O   UNL A   1      34.487  28.533  23.183  1.00  0.00    -0.288 OA
ATOM     97  C   UNL A   1      31.833  27.399  25.217  1.00  0.00     0.137 A 
ATOM     98  C   UNL A   1      33.686  28.711  26.104  1.00  0.00     0.016 A 
ATOM     99  C   UNL A   1      31.218  27.382  26.461  1.00  0.00     0.048 A 
ATOM    100  C   UNL A   1      33.082  28.660  27.363  1.00  0.00     0.001 A 
ATOM    101  C   UNL A   1      31.858  27.997  27.541  1.00  0.00     0.004 A 
ENDBRANCH  90  91
ENDBRANCH  85  89
ENDBRANCH  81  83
ENDBRANCH  80  81
ENDBRANCH  79  80
ENDBRANCH  78  79
ENDBRANCH  77  78
ENDBRANCH  76  77
ENDBRANCH  75  76
ENDBRANCH  74  75
ENDBRANCH   1  74
TORSDOF 25
ENDMDL
MODEL 2
REMARK VINA RESULT:      -9.2      6.099     12.073
REMARK SMILES O=C(OCCOCCOCCOCCOC(=O)c1ccccc1/N=C/c1coc2ccccc2c1=O)c1ccc(-c2c3nc(c(-c4cc(S(=O)(=O)[O-])ccc4F)c4ccc([nH]4)c(-c4cc(S(=O)(=O)[O-])ccc4F)c4nc(c(-c5cc(S(=O)(=O)[O-])ccc5F)c5ccc2[nH]5)C=C4)C=C3)cc1
REMARK SMILES IDX 8 1 7 2 6 3 5 4 4 5 3 6 2 7 1 8 37 9 38 10 99 11 39 12 98 13
REMARK SMILES IDX 40 14 41 15 42 16 92 17 43 18 97 19 91 20 93 21 44 22 96 23
REMARK SMILES IDX 90 24 89 25 45 27 77 28 57 29 76 30 58 31 61 32 75 33 94 34
REMARK SMILES IDX 59 35 60 36 74 38 95 39 62 40 46 41 47 42 55 43 48 44 54 45
REMARK SMILES IDX 56 46 53 47 49 48 50 49 51 50 52 51 78 52 79 53 87 54 80 55
REMARK SMILES IDX 86 56 88 57 85 58 81 59 82 60 83 61 84 62 63 63 64 64 72 65
REMARK SMILES IDX 65 66 71 67 73 68 70 69 66 70 67 71 68 72 69 73 9 74 10 75
REMARK SMILES IDX 11 76 12 77 13 78 14 79 15 80 16 81 17 82 18 83 19 84 23 85
REMARK SMILES IDX 20 86 22 87 21 88 24 89 25 90 26 91 27 92 35 93 28 94 34 95
REMARK SMILES IDX 36 96 29 97 33 98 30 99 32 100 31 101
REMARK H PARENT 93 26 61 37
REMARK Flexibility Score: inf
ROOT
ATOM      1  C   UNL A   1      43.869  30.785  27.070  1.00  0.00     0.188 C 
ENDROOT
BRANCH   1   2
ATOM      2  C   UNL A   1      45.166  31.374  26.515  1.00  0.00     0.188 C 
BRANCH   2   3
ATOM      3  O   UNL A   1      45.883  32.098  27.506  1.00  0.00    -0.376 OA
BRANCH   3   4
ATOM      4  C   UNL A   1      46.594  33.251  27.069  1.00  0.00     0.202 C 
BRANCH   4   5
ATOM      5  C   UNL A   1      45.869  34.062  25.992  1.00  0.00     0.261 C 
BRANCH   5   6
ATOM      6  O   UNL A   1      45.181  35.198  26.534  1.00  0.00    -0.460 OA
BRANCH   6   7
ATOM      7  C   UNL A   1      43.896  35.257  26.971  1.00  0.00     0.338 C 
ATOM      8  O   UNL A   1      43.034  35.618  26.169  1.00  0.00    -0.246 OA
BRANCH   7   9
ATOM      9  C   UNL A   1      43.454  34.926  28.366  1.00  0.00     0.060 A 
ATOM     10  C   UNL A   1      43.122  33.654  28.835  1.00  0.00     0.016 A 
ATOM     11  C   UNL A   1      43.449  35.979  29.297  1.00  0.00     0.016 A 
ATOM     12  C   UNL A   1      42.751  33.427  30.152  1.00  0.00     0.010 A 
ATOM     13  C   UNL A   1      43.086  35.763  30.633  1.00  0.00     0.010 A 
ATOM     14  C   UNL A   1      42.710  34.483  31.052  1.00  0.00    -0.014 A 
BRANCH  14  15
ATOM     15  C   UNL A   1      42.061  34.235  32.351  1.00  0.00     0.031 A 
ATOM     16  C   UNL A   1      40.561  34.244  32.383  1.00  0.00     0.074 A 
ATOM     17  C   UNL A   1      42.792  33.835  33.408  1.00  0.00     0.049 A 
ATOM     18  N   UNL A   1      39.749  34.099  33.393  1.00  0.00    -0.248 NA
ATOM     19  C   UNL A   1      39.884  34.425  31.087  1.00  0.00     0.031 C 
ATOM     20  C   UNL A   1      44.244  33.635  33.400  1.00  0.00     0.029 A 
ATOM     21  N   UNL A   1      42.417  33.491  34.679  1.00  0.00    -0.354 N 
ATOM     22  C   UNL A   1      38.468  34.193  32.859  1.00  0.00     0.074 A 
ATOM     23  C   UNL A   1      38.610  34.423  31.440  1.00  0.00     0.031 C 
ATOM     24  C   UNL A   1      44.633  33.191  34.608  1.00  0.00     0.029 A 
ATOM     25  C   UNL A   1      43.474  33.154  35.494  1.00  0.00     0.049 A 
ATOM     26  H   UNL A   1      41.480  33.485  34.981  1.00  0.00     0.167 HD
ATOM     27  C   UNL A   1      37.285  34.096  33.507  1.00  0.00     0.034 A 
ATOM     28  C   UNL A   1      43.493  32.895  36.816  1.00  0.00     0.034 A 
ATOM     29  C   UNL A   1      37.199  33.883  34.929  1.00  0.00     0.049 A 
ATOM     30  C   UNL A   1      42.169  32.941  37.545  1.00  0.00     0.074 A 
ATOM     31  C   UNL A   1      36.080  33.869  35.740  1.00  0.00     0.029 A 
ATOM     32  N   UNL A   1      38.295  33.647  35.753  1.00  0.00    -0.354 N 
ATOM     33  N   UNL A   1      40.961  33.134  37.056  1.00  0.00    -0.248 NA
ATOM     34  C   UNL A   1      42.205  32.745  38.998  1.00  0.00     0.031 C 
ATOM     35  C   UNL A   1      36.508  33.689  37.060  1.00  0.00     0.029 A 
ATOM     36  C   UNL A   1      37.884  33.509  37.066  1.00  0.00     0.049 A 
ATOM     37  H   UNL A   1      39.228  33.586  35.446  1.00  0.00     0.167 HD
ATOM     38  C   UNL A   1      40.095  33.061  38.140  1.00  0.00     0.074 A 
ATOM     39  C   UNL A   1      40.916  32.772  39.301  1.00  0.00     0.031 C 
ATOM     40  C   UNL A   1      38.746  33.225  38.190  1.00  0.00     0.034 A 
BRANCH  27  41
ATOM     41  C   UNL A   1      36.038  34.328  32.694  1.00  0.00     0.023 A 
ATOM     42  C   UNL A   1      35.401  35.581  32.645  1.00  0.00     0.031 A 
ATOM     43  C   UNL A   1      35.424  33.251  32.029  1.00  0.00     0.131 A 
ATOM     44  C   UNL A   1      34.154  35.708  32.011  1.00  0.00     0.055 A 
ATOM     45  C   UNL A   1      34.223  33.403  31.334  1.00  0.00     0.041 A 
ATOM     46  F   UNL A   1      35.966  32.025  32.072  1.00  0.00    -0.206 F 
ATOM     47  C   UNL A   1      33.573  34.633  31.335  1.00  0.00     0.022 A 
BRANCH  44  48
ATOM     48  S   UNL A   1      33.230  37.259  32.206  1.00  0.00     0.124 S 
ATOM     49  O   UNL A   1      32.042  36.805  32.927  1.00  0.00    -0.237 OA
ATOM     50  O   UNL A   1      34.157  38.088  32.965  1.00  0.00    -0.237 OA
ATOM     51  O   UNL A   1      32.988  37.690  30.831  1.00  0.00    -0.744 OA
ENDBRANCH  44  48
ENDBRANCH  27  41
BRANCH  28  52
ATOM     52  C   UNL A   1      44.776  32.671  37.550  1.00  0.00     0.023 A 
ATOM     53  C   UNL A   1      45.631  33.735  37.880  1.00  0.00     0.031 A 
ATOM     54  C   UNL A   1      45.217  31.367  37.851  1.00  0.00     0.131 A 
ATOM     55  C   UNL A   1      46.899  33.477  38.430  1.00  0.00     0.055 A 
ATOM     56  C   UNL A   1      46.448  31.119  38.462  1.00  0.00     0.041 A 
ATOM     57  F   UNL A   1      44.456  30.303  37.548  1.00  0.00    -0.206 F 
ATOM     58  C   UNL A   1      47.306  32.177  38.737  1.00  0.00     0.022 A 
BRANCH  55  59
ATOM     59  S   UNL A   1      48.067  34.854  38.615  1.00  0.00     0.124 S 
ATOM     60  O   UNL A   1      48.000  35.109  40.049  1.00  0.00    -0.237 OA
ATOM     61  O   UNL A   1      49.309  34.265  38.126  1.00  0.00    -0.237 OA
ATOM     62  O   UNL A   1      47.498  35.899  37.767  1.00  0.00    -0.744 OA
ENDBRANCH  55  59
ENDBRANCH  28  52
BRANCH  40  63
ATOM     63  C   UNL A   1      38.098  33.050  39.539  1.00  0.00     0.023 A 
ATOM     64  C   UNL A   1      38.229  34.020  40.546  1.00  0.00     0.031 A 
ATOM     65  C   UNL A   1      37.355  31.891  39.819  1.00  0.00     0.131 A 
ATOM     66  C   UNL A   1      37.684  33.781  41.814  1.00  0.00     0.055 A 
ATOM     67  C   UNL A   1      36.752  31.693  41.060  1.00  0.00     0.041 A 
ATOM     68  F   UNL A   1      37.201  30.934  38.889  1.00  0.00    -0.206 F 
ATOM     69  C   UNL A   1      36.929  32.632  42.072  1.00  0.00     0.022 A 
BRANCH  66  70
ATOM     70  S   UNL A   1      38.071  34.937  43.153  1.00  0.00     0.124 S 
ATOM     71  O   UNL A   1      36.759  35.150  43.758  1.00  0.00    -0.237 OA
ATOM     72  O   UNL A   1      39.026  34.180  43.955  1.00  0.00    -0.237 OA
ATOM     73  O   UNL A   1      38.627  36.095  42.456  1.00  0.00    -0.744 OA
ENDBRANCH  66  70
ENDBRANCH  40  63
ENDBRANCH  14  15
ENDBRANCH   7   9
ENDBRANCH   6   7
ENDBRANCH   5   6
ENDBRANCH   4   5
ENDBRANCH   3   4
ENDBRANCH   2   3
ENDBRANCH   1   2
BRANCH   1  74
ATOM     74  O   UNL A   1      43.990  30.033  28.271  1.00  0.00    -0.377 OA
BRANCH  74  75
ATOM     75  C   UNL A   1      42.998  29.052  28.554  1.00  0.00     0.188 C 
BRANCH  75  76
ATOM     76  C   UNL A   1      41.494  29.426  28.679  1.00  0.00     0.188 C 
BRANCH  76  77
ATOM     77  O   UNL A   1      41.108  30.092  29.873  1.00  0.00    -0.376 OA
BRANCH  77  78
ATOM     78  C   UNL A   1      40.305  29.318  30.762  1.00  0.00     0.202 C 
BRANCH  78  79
ATOM     79  C   UNL A   1      38.978  28.889  30.146  1.00  0.00     0.261 C 
BRANCH  79  80
ATOM     80  O   UNL A   1      38.128  29.994  29.784  1.00  0.00    -0.460 OA
BRANCH  80  81
ATOM     81  C   UNL A   1      37.809  30.174  28.484  1.00  0.00     0.340 C 
ATOM     82  O   UNL A   1      38.257  29.580  27.523  1.00  0.00    -0.246 OA
BRANCH  81  83
ATOM     83  C   UNL A   1      36.746  31.191  28.422  1.00  0.00     0.085 A 
ATOM     84  C   UNL A   1      37.140  32.538  28.555  1.00  0.00     0.018 A 
ATOM     85  C   UNL A   1      35.424  30.861  28.084  1.00  0.00     0.077 A 
ATOM     86  C   UNL A   1      36.231  33.567  28.309  1.00  0.00     0.001 A 
ATOM     87  C   UNL A   1      34.510  31.921  27.941  1.00  0.00     0.029 A 
ATOM     88  C   UNL A   1      34.907  33.258  28.023  1.00  0.00     0.002 A 
BRANCH  85  89
ATOM     89  N   UNL A   1      34.986  29.659  27.516  1.00  0.00    -0.255 NA
ATOM     90  C   UNL A   1      33.819  29.407  27.027  1.00  0.00     0.127 C 
BRANCH  90  91
ATOM     91  C   UNL A   1      33.258  28.006  27.119  1.00  0.00     0.076 A 
ATOM     92  C   UNL A   1      31.912  27.949  27.143  1.00  0.00     0.209 A 
ATOM     93  C   UNL A   1      33.656  27.138  25.945  1.00  0.00     0.201 A 
ATOM     94  O   UNL A   1      31.136  28.253  26.002  1.00  0.00    -0.463 OA
ATOM     95  C   UNL A   1      33.062  27.609  24.672  1.00  0.00     0.065 A 
ATOM     96  O   UNL A   1      34.378  26.158  26.045  1.00  0.00    -0.288 OA
ATOM     97  C   UNL A   1      31.812  28.236  24.794  1.00  0.00     0.137 A 
ATOM     98  C   UNL A   1      33.809  27.707  23.500  1.00  0.00     0.016 A 
ATOM     99  C   UNL A   1      31.292  28.968  23.736  1.00  0.00     0.048 A 
ATOM    100  C   UNL A   1      33.298  28.476  22.450  1.00  0.00     0.001 A 
ATOM    101  C   UNL A   1      32.049  29.104  22.569  1.00  0.00     0.004 A 
ENDBRANCH  90  91
ENDBRANCH  85  89
ENDBRANCH  81  83
ENDBRANCH  80  81
ENDBRANCH  79  80
ENDBRANCH  78  79
ENDBRANCH  77  78
ENDBRANCH  76  77
ENDBRANCH  75  76
ENDBRANCH  74  75
ENDBRANCH   1  74
TORSDOF 25
ENDMDL
MODEL 3
REMARK VINA RESULT:      -8.8      5.968      7.262
REMARK SMILES O=C(OCCOCCOCCOCCOC(=O)c1ccccc1/N=C/c1coc2ccccc2c1=O)c1ccc(-c2c3nc(c(-c4cc(S(=O)(=O)[O-])ccc4F)c4ccc([nH]4)c(-c4cc(S(=O)(=O)[O-])ccc4F)c4nc(c(-c5cc(S(=O)(=O)[O-])ccc5F)c5ccc2[nH]5)C=C4)C=C3)cc1
REMARK SMILES IDX 8 1 7 2 6 3 5 4 4 5 3 6 2 7 1 8 37 9 38 10 99 11 39 12 98 13
REMARK SMILES IDX 40 14 41 15 42 16 92 17 43 18 97 19 91 20 93 21 44 22 96 23
REMARK SMILES IDX 90 24 89 25 45 27 77 28 57 29 76 30 58 31 61 32 75 33 94 34
REMARK SMILES IDX 59 35 60 36 74 38 95 39 62 40 46 41 47 42 55 43 48 44 54 45
REMARK SMILES IDX 56 46 53 47 49 48 50 49 51 50 52 51 78 52 79 53 87 54 80 55
REMARK SMILES IDX 86 56 88 57 85 58 81 59 82 60 83 61 84 62 63 63 64 64 72 65
REMARK SMILES IDX 65 66 71 67 73 68 70 69 66 70 67 71 68 72 69 73 9 74 10 75
REMARK SMILES IDX 11 76 12 77 13 78 14 79 15 80 16 81 17 82 18 83 19 84 23 85
REMARK SMILES IDX 20 86 22 87 21 88 24 89 25 90 26 91 27 92 35 93 28 94 34 95
REMARK SMILES IDX 36 96 29 97 33 98 30 99 32 100 31 101
REMARK H PARENT 93 26 61 37
REMARK Flexibility Score: inf
ROOT
ATOM      1  C   UNL A   1      33.909  32.963  28.651  1.00  0.00     0.188 C 
ENDROOT
BRANCH   1   2
ATOM      2  C   UNL A   1      33.585  34.453  28.545  1.00  0.00     0.188 C 
BRANCH   2   3
ATOM      3  O   UNL A   1      34.087  35.183  29.657  1.00  0.00    -0.376 OA
BRANCH   3   4
ATOM      4  C   UNL A   1      33.128  35.673  30.587  1.00  0.00     0.202 C 
BRANCH   4   5
ATOM      5  C   UNL A   1      33.315  35.147  32.012  1.00  0.00     0.261 C 
BRANCH   5   6
ATOM      6  O   UNL A   1      33.844  33.814  32.038  1.00  0.00    -0.460 OA
BRANCH   6   7
ATOM      7  C   UNL A   1      34.837  33.332  32.830  1.00  0.00     0.338 C 
ATOM      8  O   UNL A   1      34.578  33.135  34.018  1.00  0.00    -0.246 OA
BRANCH   7   9
ATOM      9  C   UNL A   1      36.230  33.032  32.363  1.00  0.00     0.060 A 
ATOM     10  C   UNL A   1      37.107  32.117  32.948  1.00  0.00     0.016 A 
ATOM     11  C   UNL A   1      36.658  33.676  31.189  1.00  0.00     0.016 A 
ATOM     12  C   UNL A   1      38.372  31.875  32.434  1.00  0.00     0.010 A 
ATOM     13  C   UNL A   1      37.930  33.434  30.653  1.00  0.00     0.010 A 
ATOM     14  C   UNL A   1      38.799  32.548  31.297  1.00  0.00    -0.014 A 
BRANCH  14  15
ATOM     15  C   UNL A   1      40.229  32.453  30.956  1.00  0.00     0.031 A 
ATOM     16  C   UNL A   1      41.162  33.417  31.628  1.00  0.00     0.074 A 
ATOM     17  C   UNL A   1      40.682  31.421  30.220  1.00  0.00     0.049 A 
ATOM     18  N   UNL A   1      42.447  33.576  31.475  1.00  0.00    -0.248 NA
ATOM     19  C   UNL A   1      40.558  34.318  32.627  1.00  0.00     0.031 C 
ATOM     20  C   UNL A   1      39.849  30.344  29.677  1.00  0.00     0.029 A 
ATOM     21  N   UNL A   1      41.951  31.088  29.829  1.00  0.00    -0.354 N 
ATOM     22  C   UNL A   1      42.802  34.605  32.340  1.00  0.00     0.074 A 
ATOM     23  C   UNL A   1      41.596  35.045  33.002  1.00  0.00     0.031 C 
ATOM     24  C   UNL A   1      40.635  29.464  29.034  1.00  0.00     0.029 A 
ATOM     25  C   UNL A   1      42.009  29.955  29.050  1.00  0.00     0.049 A 
ATOM     26  H   UNL A   1      42.747  31.609  30.083  1.00  0.00     0.167 HD
ATOM     27  C   UNL A   1      44.030  35.130  32.552  1.00  0.00     0.034 A 
ATOM     28  C   UNL A   1      43.053  29.416  28.391  1.00  0.00     0.034 A 
ATOM     29  C   UNL A   1      45.200  34.666  31.851  1.00  0.00     0.049 A 
ATOM     30  C   UNL A   1      44.388  30.114  28.528  1.00  0.00     0.074 A 
ATOM     31  C   UNL A   1      46.487  35.168  31.880  1.00  0.00     0.029 A 
ATOM     32  N   UNL A   1      45.212  33.578  30.984  1.00  0.00    -0.354 N 
ATOM     33  N   UNL A   1      44.704  31.156  29.268  1.00  0.00    -0.248 NA
ATOM     34  C   UNL A   1      45.501  29.575  27.741  1.00  0.00     0.031 C 
ATOM     35  C   UNL A   1      47.260  34.422  30.982  1.00  0.00     0.029 A 
ATOM     36  C   UNL A   1      46.477  33.406  30.454  1.00  0.00     0.049 A 
ATOM     37  H   UNL A   1      44.434  33.013  30.779  1.00  0.00     0.167 HD
ATOM     38  C   UNL A   1      46.058  31.383  29.049  1.00  0.00     0.074 A 
ATOM     39  C   UNL A   1      46.502  30.347  28.135  1.00  0.00     0.031 C 
ATOM     40  C   UNL A   1      46.869  32.356  29.541  1.00  0.00     0.034 A 
BRANCH  27  41
ATOM     41  C   UNL A   1      44.119  36.310  33.485  1.00  0.00     0.023 A 
ATOM     42  C   UNL A   1      43.808  37.617  33.068  1.00  0.00     0.031 A 
ATOM     43  C   UNL A   1      44.611  36.136  34.791  1.00  0.00     0.131 A 
ATOM     44  C   UNL A   1      44.064  38.703  33.921  1.00  0.00     0.055 A 
ATOM     45  C   UNL A   1      44.789  37.213  35.662  1.00  0.00     0.041 A 
ATOM     46  F   UNL A   1      44.958  34.917  35.232  1.00  0.00    -0.206 F 
ATOM     47  C   UNL A   1      44.529  38.508  35.223  1.00  0.00     0.022 A 
BRANCH  44  48
ATOM     48  S   UNL A   1      43.920  40.387  33.257  1.00  0.00     0.124 S 
ATOM     49  O   UNL A   1      44.303  40.187  31.861  1.00  0.00    -0.237 OA
ATOM     50  O   UNL A   1      42.517  40.703  33.493  1.00  0.00    -0.237 OA
ATOM     51  O   UNL A   1      44.875  41.154  34.054  1.00  0.00    -0.744 OA
ENDBRANCH  44  48
ENDBRANCH  27  41
BRANCH  28  52
ATOM     52  C   UNL A   1      42.881  28.239  27.485  1.00  0.00     0.023 A 
ATOM     53  C   UNL A   1      43.162  26.932  27.913  1.00  0.00     0.031 A 
ATOM     54  C   UNL A   1      42.521  28.416  26.134  1.00  0.00     0.131 A 
ATOM     55  C   UNL A   1      43.140  25.868  26.994  1.00  0.00     0.055 A 
ATOM     56  C   UNL A   1      42.431  27.346  25.240  1.00  0.00     0.041 A 
ATOM     57  F   UNL A   1      42.254  29.641  25.653  1.00  0.00    -0.206 F 
ATOM     58  C   UNL A   1      42.762  26.065  25.664  1.00  0.00     0.022 A 
BRANCH  55  59
ATOM     59  S   UNL A   1      43.745  24.242  27.527  1.00  0.00     0.124 S 
ATOM     60  O   UNL A   1      44.378  24.563  28.801  1.00  0.00    -0.237 OA
ATOM     61  O   UNL A   1      42.510  23.469  27.600  1.00  0.00    -0.237 OA
ATOM     62  O   UNL A   1      44.661  23.852  26.456  1.00  0.00    -0.744 OA
ENDBRANCH  55  59
ENDBRANCH  28  52
BRANCH  40  63
ATOM     63  C   UNL A   1      48.315  32.300  29.122  1.00  0.00     0.023 A 
ATOM     64  C   UNL A   1      48.770  32.958  27.968  1.00  0.00     0.031 A 
ATOM     65  C   UNL A   1      49.241  31.566  29.882  1.00  0.00     0.131 A 
ATOM     66  C   UNL A   1      50.104  32.811  27.566  1.00  0.00     0.055 A 
ATOM     67  C   UNL A   1      50.584  31.484  29.517  1.00  0.00     0.041 A 
ATOM     68  F   UNL A   1      48.855  30.919  30.994  1.00  0.00    -0.206 F 
ATOM     69  C   UNL A   1      51.018  32.094  28.343  1.00  0.00     0.022 A 
BRANCH  66  70
ATOM     70  S   UNL A   1      50.598  33.474  25.954  1.00  0.00     0.124 S 
ATOM     71  O   UNL A   1      49.415  34.233  25.563  1.00  0.00    -0.237 OA
ATOM     72  O   UNL A   1      51.779  34.262  26.289  1.00  0.00    -0.237 OA
ATOM     73  O   UNL A   1      50.858  32.277  25.157  1.00  0.00    -0.744 OA
ENDBRANCH  66  70
ENDBRANCH  40  63
ENDBRANCH  14  15
ENDBRANCH   7   9
ENDBRANCH   6   7
ENDBRANCH   5   6
ENDBRANCH   4   5
ENDBRANCH   3   4
ENDBRANCH   2   3
ENDBRANCH   1   2
BRANCH   1  74
ATOM     74  O   UNL A   1      34.036  32.263  27.419  1.00  0.00    -0.377 OA
BRANCH  74  75
ATOM     75  C   UNL A   1      33.390  31.000  27.294  1.00  0.00     0.188 C 
BRANCH  75  76
ATOM     76  C   UNL A   1      34.198  29.675  27.214  1.00  0.00     0.188 C 
BRANCH  76  77
ATOM     77  O   UNL A   1      33.562  28.588  26.556  1.00  0.00    -0.376 OA
BRANCH  77  78
ATOM     78  C   UNL A   1      32.559  27.924  27.322  1.00  0.00     0.202 C 
BRANCH  78  79
ATOM     79  C   UNL A   1      31.617  27.082  26.469  1.00  0.00     0.261 C 
BRANCH  79  80
ATOM     80  O   UNL A   1      31.466  25.731  26.941  1.00  0.00    -0.460 OA
BRANCH  80  81
ATOM     81  C   UNL A   1      31.595  24.714  26.061  1.00  0.00     0.340 C 
ATOM     82  O   UNL A   1      30.924  24.503  25.070  1.00  0.00    -0.246 OA
BRANCH  81  83
ATOM     83  C   UNL A   1      32.761  23.913  26.471  1.00  0.00     0.085 A 
ATOM     84  C   UNL A   1      32.517  22.823  27.331  1.00  0.00     0.018 A 
ATOM     85  C   UNL A   1      34.032  24.114  25.912  1.00  0.00     0.077 A 
ATOM     86  C   UNL A   1      33.526  21.900  27.605  1.00  0.00     0.001 A 
ATOM     87  C   UNL A   1      35.052  23.222  26.288  1.00  0.00     0.029 A 
ATOM     88  C   UNL A   1      34.804  22.113  27.100  1.00  0.00     0.002 A 
BRANCH  85  89
ATOM     89  N   UNL A   1      34.326  24.853  24.760  1.00  0.00    -0.255 NA
ATOM     90  C   UNL A   1      33.583  25.742  24.193  1.00  0.00     0.127 C 
BRANCH  90  91
ATOM     91  C   UNL A   1      33.644  25.920  22.693  1.00  0.00     0.076 A 
ATOM     92  C   UNL A   1      32.695  25.244  22.016  1.00  0.00     0.209 A 
ATOM     93  C   UNL A   1      33.464  27.361  22.267  1.00  0.00     0.201 A 
ATOM     94  O   UNL A   1      31.335  25.621  22.069  1.00  0.00    -0.463 OA
ATOM     95  C   UNL A   1      32.105  27.869  22.567  1.00  0.00     0.065 A 
ATOM     96  O   UNL A   1      34.341  28.020  21.729  1.00  0.00    -0.288 OA
ATOM     97  C   UNL A   1      31.085  26.906  22.522  1.00  0.00     0.137 A 
ATOM     98  C   UNL A   1      31.895  29.118  23.149  1.00  0.00     0.016 A 
ATOM     99  C   UNL A   1      29.836  27.185  23.058  1.00  0.00     0.048 A 
ATOM    100  C   UNL A   1      30.647  29.382  23.720  1.00  0.00     0.001 A 
ATOM    101  C   UNL A   1      29.626  28.420  23.677  1.00  0.00     0.004 A 
ENDBRANCH  90  91
ENDBRANCH  85  89
ENDBRANCH  81  83
ENDBRANCH  80  81
ENDBRANCH  79  80
ENDBRANCH  78  79
ENDBRANCH  77  78
ENDBRANCH  76  77
ENDBRANCH  75  76
ENDBRANCH  74  75
ENDBRANCH   1  74
TORSDOF 25
ENDMDL
