MODEL 1
REMARK VINA RESULT:      -9.6      0.000      0.000
REMARK SMILES COc1ncccc1NS(=O)(=O)c1ccc(Br)c(C(=O)OCCOCCOCCOCCOC(=O)c2ccc(-c3c4nc(c(-c5cc(S(=O)(=O)[O-])ccc5F)c5ccc([nH]5)c(-c5cc(S(=O)(=O)[O-])ccc5F)c5nc(c(-c6cc(S(=O)(=O)[O-])ccc6F)c6ccc3[nH]6)C=C5)C=C4)cc2)c1
REMARK SMILES IDX 26 1 25 2 24 3 23 4 22 5 21 6 19 7 20 8 18 9 13 10 14 11
REMARK SMILES IDX 99 12 15 13 16 14 17 15 10 16 11 17 12 18 9 19 8 21 3 22
REMARK SMILES IDX 4 23 5 24 7 25 6 26 2 27 1 28 27 29 28 30 29 31 30 32 31 33
REMARK SMILES IDX 32 34 33 35 34 36 35 37 36 38 37 39 98 40 38 41 97 42 39 43
REMARK SMILES IDX 40 44 41 45 91 46 42 47 96 48 90 49 92 50 43 51 95 52 89 53
REMARK SMILES IDX 88 54 44 56 76 57 56 58 75 59 57 60 60 61 74 62 93 63 58 64
REMARK SMILES IDX 59 65 73 67 94 68 61 69 45 70 46 71 54 72 47 73 53 74 55 75
REMARK SMILES IDX 52 76 48 77 49 78 50 79 51 80 77 81 78 82 86 83 79 84 85 85
REMARK SMILES IDX 87 86 84 87 80 88 81 89 82 90 83 91 62 92 63 93 71 94 64 95
REMARK SMILES IDX 70 96 72 97 69 98 65 99 66 100 67 101 68 102
REMARK H PARENT 9 20 92 55 60 66
REMARK Flexibility Score: inf
ROOT
ATOM      1  C   UNL A   1      30.523  26.374  23.250  1.00  0.00     0.188 C 
ENDROOT
BRANCH   1   2
ATOM      2  C   UNL A   1      31.704  26.612  22.270  1.00  0.00     0.188 C 
BRANCH   2   3
ATOM      3  O   UNL A   1      32.137  25.482  21.538  1.00  0.00    -0.376 OA
BRANCH   3   4
ATOM      4  C   UNL A   1      33.392  24.880  21.781  1.00  0.00     0.202 C 
BRANCH   4   5
ATOM      5  C   UNL A   1      33.933  24.866  23.212  1.00  0.00     0.261 C 
BRANCH   5   6
ATOM      6  O   UNL A   1      35.355  24.752  23.302  1.00  0.00    -0.460 OA
BRANCH   6   7
ATOM      7  C   UNL A   1      35.878  23.514  23.233  1.00  0.00     0.339 C 
ATOM      8  O   UNL A   1      36.750  23.130  22.473  1.00  0.00    -0.246 OA
BRANCH   7   9
ATOM      9  C   UNL A   1      35.389  22.728  24.386  1.00  0.00     0.075 A 
ATOM     10  C   UNL A   1      33.735  21.149  25.201  1.00  0.00     0.088 A 
ATOM     11  C   UNL A   1      34.251  21.307  26.495  1.00  0.00     0.023 A 
ATOM     12  C   UNL A   1      34.266  21.905  24.156  1.00  0.00     0.039 A 
ATOM     13  C   UNL A   1      35.404  22.063  26.709  1.00  0.00     0.018 A 
ATOM     14  C   UNL A   1      35.990  22.766  25.654  1.00  0.00     0.032 A 
ATOM     15  Br  UNL A   1      37.557  23.756  26.065  1.00  0.00    -0.050 Br
BRANCH  10  16
ATOM     16  S   UNL A   1      32.272  20.180  24.962  1.00  0.00     0.262 S 
ATOM     17  O   UNL A   1      32.221  19.843  23.554  1.00  0.00    -0.201 OA
ATOM     18  O   UNL A   1      31.165  20.913  25.550  1.00  0.00    -0.201 OA
BRANCH  16  19
ATOM     19  N   UNL A   1      32.262  18.715  25.792  1.00  0.00    -0.274 N 
ATOM     20  H   UNL A   1      31.869  18.740  26.695  1.00  0.00     0.180 HD
BRANCH  19  21
ATOM     21  C   UNL A   1      32.747  17.432  25.362  1.00  0.00     0.111 A 
ATOM     22  C   UNL A   1      33.928  17.143  24.683  1.00  0.00     0.238 A 
ATOM     23  N   UNL A   1      34.411  15.897  24.459  1.00  0.00    -0.220 NA
ATOM     24  C   UNL A   1      33.740  14.871  25.015  1.00  0.00     0.115 A 
ATOM     25  C   UNL A   1      32.144  16.339  25.998  1.00  0.00     0.034 A 
ATOM     26  C   UNL A   1      32.633  15.044  25.822  1.00  0.00     0.023 A 
BRANCH  22  27
ATOM     27  O   UNL A   1      34.734  18.153  24.252  1.00  0.00    -0.480 OA
ATOM     28  C   UNL A   1      35.992  18.088  24.913  1.00  0.00     0.280 C 
ENDBRANCH  22  27
ENDBRANCH  19  21
ENDBRANCH  16  19
ENDBRANCH  10  16
ENDBRANCH   7   9
ENDBRANCH   6   7
ENDBRANCH   5   6
ENDBRANCH   4   5
ENDBRANCH   3   4
ENDBRANCH   2   3
ENDBRANCH   1   2
BRANCH   1  29
ATOM     29  O   UNL A   1      30.371  25.205  24.051  1.00  0.00    -0.377 OA
BRANCH  29  30
ATOM     30  C   UNL A   1      30.568  25.287  25.452  1.00  0.00     0.188 C 
BRANCH  30  31
ATOM     31  C   UNL A   1      30.611  26.721  26.012  1.00  0.00     0.188 C 
BRANCH  31  32
ATOM     32  O   UNL A   1      31.877  27.067  26.559  1.00  0.00    -0.376 OA
BRANCH  32  33
ATOM     33  C   UNL A   1      31.967  28.230  27.362  1.00  0.00     0.202 C 
BRANCH  33  34
ATOM     34  C   UNL A   1      31.831  29.628  26.738  1.00  0.00     0.261 C 
BRANCH  34  35
ATOM     35  O   UNL A   1      33.035  30.316  26.384  1.00  0.00    -0.460 OA
BRANCH  35  36
ATOM     36  C   UNL A   1      33.396  31.392  27.112  1.00  0.00     0.338 C 
ATOM     37  O   UNL A   1      32.708  32.362  27.385  1.00  0.00    -0.246 OA
BRANCH  36  38
ATOM     38  C   UNL A   1      34.718  31.073  27.689  1.00  0.00     0.060 A 
ATOM     39  C   UNL A   1      35.047  29.741  27.974  1.00  0.00     0.016 A 
ATOM     40  C   UNL A   1      35.652  32.095  27.886  1.00  0.00     0.016 A 
ATOM     41  C   UNL A   1      36.308  29.431  28.482  1.00  0.00     0.010 A 
ATOM     42  C   UNL A   1      36.904  31.786  28.416  1.00  0.00     0.010 A 
ATOM     43  C   UNL A   1      37.225  30.457  28.746  1.00  0.00    -0.014 A 
BRANCH  43  44
ATOM     44  C   UNL A   1      38.424  30.177  29.568  1.00  0.00     0.031 A 
ATOM     45  C   UNL A   1      39.449  29.230  29.010  1.00  0.00     0.074 A 
ATOM     46  C   UNL A   1      38.604  30.756  30.767  1.00  0.00     0.049 A 
ATOM     47  N   UNL A   1      40.551  28.780  29.550  1.00  0.00    -0.248 NA
ATOM     48  C   UNL A   1      39.184  28.715  27.658  1.00  0.00     0.031 C 
ATOM     49  C   UNL A   1      37.698  31.725  31.380  1.00  0.00     0.029 A 
ATOM     50  N   UNL A   1      39.613  30.607  31.684  1.00  0.00    -0.354 N 
ATOM     51  C   UNL A   1      41.107  27.922  28.606  1.00  0.00     0.074 A 
ATOM     52  C   UNL A   1      40.195  27.882  27.483  1.00  0.00     0.031 C 
ATOM     53  C   UNL A   1      38.193  32.083  32.578  1.00  0.00     0.029 A 
ATOM     54  C   UNL A   1      39.424  31.336  32.834  1.00  0.00     0.049 A 
ATOM     55  H   UNL A   1      40.398  30.034  31.533  1.00  0.00     0.167 HD
ATOM     56  C   UNL A   1      42.277  27.241  28.668  1.00  0.00     0.034 A 
ATOM     57  C   UNL A   1      40.151  31.371  33.970  1.00  0.00     0.034 A 
ATOM     58  C   UNL A   1      43.156  27.281  29.811  1.00  0.00     0.049 A 
ATOM     59  C   UNL A   1      41.397  30.522  34.062  1.00  0.00     0.074 A 
ATOM     60  C   UNL A   1      44.371  26.642  29.986  1.00  0.00     0.029 A 
ATOM     61  N   UNL A   1      42.905  27.984  30.983  1.00  0.00    -0.354 N 
ATOM     62  N   UNL A   1      41.924  29.722  33.163  1.00  0.00    -0.248 NA
ATOM     63  C   UNL A   1      42.149  30.587  35.322  1.00  0.00     0.031 C 
ATOM     64  C   UNL A   1      44.807  26.885  31.293  1.00  0.00     0.029 A 
ATOM     65  C   UNL A   1      43.919  27.759  31.902  1.00  0.00     0.049 A 
ATOM     66  H   UNL A   1      42.121  28.558  31.139  1.00  0.00     0.167 HD
ATOM     67  C   UNL A   1      43.090  29.216  33.737  1.00  0.00     0.074 A 
ATOM     68  C   UNL A   1      43.190  29.811  35.054  1.00  0.00     0.031 C 
ATOM     69  C   UNL A   1      43.998  28.348  33.220  1.00  0.00     0.034 A 
BRANCH  56  70
ATOM     70  C   UNL A   1      42.621  26.352  27.496  1.00  0.00     0.023 A 
ATOM     71  C   UNL A   1      42.258  24.992  27.464  1.00  0.00     0.031 A 
ATOM     72  C   UNL A   1      43.378  26.853  26.422  1.00  0.00     0.131 A 
ATOM     73  C   UNL A   1      42.730  24.166  26.433  1.00  0.00     0.055 A 
ATOM     74  C   UNL A   1      43.762  26.046  25.351  1.00  0.00     0.041 A 
ATOM     75  F   UNL A   1      43.780  28.134  26.408  1.00  0.00    -0.206 F 
ATOM     76  C   UNL A   1      43.455  24.688  25.361  1.00  0.00     0.022 A 
BRANCH  73  77
ATOM     77  S   UNL A   1      42.540  22.369  26.609  1.00  0.00     0.124 S 
ATOM     78  O   UNL A   1      42.744  22.190  28.046  1.00  0.00    -0.237 OA
ATOM     79  O   UNL A   1      41.183  22.146  26.123  1.00  0.00    -0.237 OA
ATOM     80  O   UNL A   1      43.604  21.827  25.765  1.00  0.00    -0.744 OA
ENDBRANCH  73  77
ENDBRANCH  56  70
BRANCH  57  81
ATOM     81  C   UNL A   1      39.710  32.211  35.122  1.00  0.00     0.023 A 
ATOM     82  C   UNL A   1      38.964  31.662  36.176  1.00  0.00     0.031 A 
ATOM     83  C   UNL A   1      39.997  33.588  35.163  1.00  0.00     0.131 A 
ATOM     84  C   UNL A   1      38.498  32.491  37.209  1.00  0.00     0.055 A 
ATOM     85  C   UNL A   1      39.580  34.397  36.222  1.00  0.00     0.041 A 
ATOM     86  F   UNL A   1      40.701  34.165  34.177  1.00  0.00    -0.206 F 
ATOM     87  C   UNL A   1      38.816  33.852  37.248  1.00  0.00     0.022 A 
BRANCH  84  88
ATOM     88  S   UNL A   1      37.401  31.781  38.468  1.00  0.00     0.124 S 
ATOM     89  O   UNL A   1      37.168  30.443  37.935  1.00  0.00    -0.237 OA
ATOM     90  O   UNL A   1      38.227  31.859  39.668  1.00  0.00    -0.237 OA
ATOM     91  O   UNL A   1      36.243  32.671  38.451  1.00  0.00    -0.744 OA
ENDBRANCH  84  88
ENDBRANCH  57  81
BRANCH  69  92
ATOM     92  C   UNL A   1      45.209  28.030  34.065  1.00  0.00     0.023 A 
ATOM     93  C   UNL A   1      45.175  27.063  35.084  1.00  0.00     0.031 A 
ATOM     94  C   UNL A   1      46.421  28.713  33.846  1.00  0.00     0.131 A 
ATOM     95  C   UNL A   1      46.310  26.847  35.883  1.00  0.00     0.055 A 
ATOM     96  C   UNL A   1      47.566  28.442  34.595  1.00  0.00     0.041 A 
ATOM     97  F   UNL A   1      46.513  29.652  32.891  1.00  0.00    -0.206 F 
ATOM     98  C   UNL A   1      47.511  27.514  35.631  1.00  0.00     0.022 A 
BRANCH  95  99
ATOM     99  S   UNL A   1      46.164  25.759  37.327  1.00  0.00     0.124 S 
ATOM    100  O   UNL A   1      46.768  26.570  38.379  1.00  0.00    -0.237 OA
ATOM    101  O   UNL A   1      44.723  25.559  37.425  1.00  0.00    -0.237 OA
ATOM    102  O   UNL A   1      46.930  24.574  36.942  1.00  0.00    -0.744 OA
ENDBRANCH  95  99
ENDBRANCH  69  92
ENDBRANCH  43  44
ENDBRANCH  36  38
ENDBRANCH  35  36
ENDBRANCH  34  35
ENDBRANCH  33  34
ENDBRANCH  32  33
ENDBRANCH  31  32
ENDBRANCH  30  31
ENDBRANCH  29  30
ENDBRANCH   1  29
TORSDOF 27
ENDMDL
MODEL 2
REMARK VINA RESULT:      -8.8      1.783      2.179
REMARK SMILES COc1ncccc1NS(=O)(=O)c1ccc(Br)c(C(=O)OCCOCCOCCOCCOC(=O)c2ccc(-c3c4nc(c(-c5cc(S(=O)(=O)[O-])ccc5F)c5ccc([nH]5)c(-c5cc(S(=O)(=O)[O-])ccc5F)c5nc(c(-c6cc(S(=O)(=O)[O-])ccc6F)c6ccc3[nH]6)C=C5)C=C4)cc2)c1
REMARK SMILES IDX 26 1 25 2 24 3 23 4 22 5 21 6 19 7 20 8 18 9 13 10 14 11
REMARK SMILES IDX 99 12 15 13 16 14 17 15 10 16 11 17 12 18 9 19 8 21 3 22
REMARK SMILES IDX 4 23 5 24 7 25 6 26 2 27 1 28 27 29 28 30 29 31 30 32 31 33
REMARK SMILES IDX 32 34 33 35 34 36 35 37 36 38 37 39 98 40 38 41 97 42 39 43
REMARK SMILES IDX 40 44 41 45 91 46 42 47 96 48 90 49 92 50 43 51 95 52 89 53
REMARK SMILES IDX 88 54 44 56 76 57 56 58 75 59 57 60 60 61 74 62 93 63 58 64
REMARK SMILES IDX 59 65 73 67 94 68 61 69 45 70 46 71 54 72 47 73 53 74 55 75
REMARK SMILES IDX 52 76 48 77 49 78 50 79 51 80 77 81 78 82 86 83 79 84 85 85
REMARK SMILES IDX 87 86 84 87 80 88 81 89 82 90 83 91 62 92 63 93 71 94 64 95
REMARK SMILES IDX 70 96 72 97 69 98 65 99 66 100 67 101 68 102
REMARK H PARENT 9 20 92 55 60 66
REMARK Flexibility Score: inf
ROOT
ATOM      1  C   UNL A   1      30.175  26.615  23.409  1.00  0.00     0.188 C 
ENDROOT
BRANCH   1   2
ATOM      2  C   UNL A   1      31.372  27.009  22.501  1.00  0.00     0.188 C 
BRANCH   2   3
ATOM      3  O   UNL A   1      32.011  25.944  21.824  1.00  0.00    -0.376 OA
BRANCH   3   4
ATOM      4  C   UNL A   1      33.302  25.505  22.190  1.00  0.00     0.202 C 
BRANCH   4   5
ATOM      5  C   UNL A   1      33.697  25.537  23.667  1.00  0.00     0.261 C 
BRANCH   5   6
ATOM      6  O   UNL A   1      35.084  25.291  23.911  1.00  0.00    -0.460 OA
BRANCH   6   7
ATOM      7  C   UNL A   1      35.562  24.080  23.573  1.00  0.00     0.339 C 
ATOM      8  O   UNL A   1      36.347  23.828  22.675  1.00  0.00    -0.246 OA
BRANCH   7   9
ATOM      9  C   UNL A   1      35.163  23.105  24.612  1.00  0.00     0.075 A 
ATOM     10  C   UNL A   1      33.607  21.354  25.250  1.00  0.00     0.088 A 
ATOM     11  C   UNL A   1      34.189  21.330  26.525  1.00  0.00     0.023 A 
ATOM     12  C   UNL A   1      34.056  22.284  24.311  1.00  0.00     0.039 A 
ATOM     13  C   UNL A   1      35.326  22.089  26.798  1.00  0.00     0.018 A 
ATOM     14  C   UNL A   1      35.831  22.970  25.838  1.00  0.00     0.032 A 
ATOM     15  Br  UNL A   1      37.386  23.946  26.322  1.00  0.00    -0.050 Br
BRANCH  10  16
ATOM     16  S   UNL A   1      32.164  20.377  24.933  1.00  0.00     0.262 S 
ATOM     17  O   UNL A   1      32.080  20.211  23.497  1.00  0.00    -0.201 OA
ATOM     18  O   UNL A   1      31.057  20.999  25.637  1.00  0.00    -0.201 OA
BRANCH  16  19
ATOM     19  N   UNL A   1      32.220  18.822  25.579  1.00  0.00    -0.274 N 
ATOM     20  H   UNL A   1      31.449  18.565  26.135  1.00  0.00     0.180 HD
BRANCH  19  21
ATOM     21  C   UNL A   1      33.239  17.820  25.428  1.00  0.00     0.111 A 
ATOM     22  C   UNL A   1      33.115  16.440  25.570  1.00  0.00     0.238 A 
ATOM     23  N   UNL A   1      34.072  15.536  25.247  1.00  0.00    -0.220 NA
ATOM     24  C   UNL A   1      35.187  16.008  24.660  1.00  0.00     0.115 A 
ATOM     25  C   UNL A   1      34.376  18.246  24.729  1.00  0.00     0.034 A 
ATOM     26  C   UNL A   1      35.366  17.341  24.345  1.00  0.00     0.023 A 
BRANCH  22  27
ATOM     27  O   UNL A   1      31.940  15.899  25.995  1.00  0.00    -0.480 OA
ATOM     28  C   UNL A   1      32.052  14.483  26.064  1.00  0.00     0.280 C 
ENDBRANCH  22  27
ENDBRANCH  19  21
ENDBRANCH  16  19
ENDBRANCH  10  16
ENDBRANCH   7   9
ENDBRANCH   6   7
ENDBRANCH   5   6
ENDBRANCH   4   5
ENDBRANCH   3   4
ENDBRANCH   2   3
ENDBRANCH   1   2
BRANCH   1  29
ATOM     29  O   UNL A   1      30.118  25.419  24.182  1.00  0.00    -0.377 OA
BRANCH  29  30
ATOM     30  C   UNL A   1      30.276  25.488  25.590  1.00  0.00     0.188 C 
BRANCH  30  31
ATOM     31  C   UNL A   1      30.561  26.899  26.136  1.00  0.00     0.188 C 
BRANCH  31  32
ATOM     32  O   UNL A   1      31.949  27.182  26.247  1.00  0.00    -0.376 OA
BRANCH  32  33
ATOM     33  C   UNL A   1      32.360  28.188  27.156  1.00  0.00     0.202 C 
BRANCH  33  34
ATOM     34  C   UNL A   1      32.010  29.664  26.904  1.00  0.00     0.261 C 
BRANCH  34  35
ATOM     35  O   UNL A   1      33.055  30.522  26.434  1.00  0.00    -0.460 OA
BRANCH  35  36
ATOM     36  C   UNL A   1      33.431  31.558  27.209  1.00  0.00     0.338 C 
ATOM     37  O   UNL A   1      32.778  32.554  27.476  1.00  0.00    -0.246 OA
BRANCH  36  38
ATOM     38  C   UNL A   1      34.705  31.158  27.840  1.00  0.00     0.060 A 
ATOM     39  C   UNL A   1      34.833  29.876  28.391  1.00  0.00     0.016 A 
ATOM     40  C   UNL A   1      35.791  32.039  27.826  1.00  0.00     0.016 A 
ATOM     41  C   UNL A   1      36.047  29.481  28.953  1.00  0.00     0.010 A 
ATOM     42  C   UNL A   1      36.996  31.650  28.409  1.00  0.00     0.010 A 
ATOM     43  C   UNL A   1      37.118  30.381  29.003  1.00  0.00    -0.014 A 
BRANCH  43  44
ATOM     44  C   UNL A   1      38.284  30.087  29.867  1.00  0.00     0.031 A 
ATOM     45  C   UNL A   1      39.301  29.104  29.358  1.00  0.00     0.074 A 
ATOM     46  C   UNL A   1      38.443  30.685  31.060  1.00  0.00     0.049 A 
ATOM     47  N   UNL A   1      40.374  28.637  29.940  1.00  0.00    -0.248 NA
ATOM     48  C   UNL A   1      39.064  28.569  28.008  1.00  0.00     0.031 C 
ATOM     49  C   UNL A   1      37.544  31.688  31.627  1.00  0.00     0.029 A 
ATOM     50  N   UNL A   1      39.420  30.529  32.010  1.00  0.00    -0.354 N 
ATOM     51  C   UNL A   1      40.936  27.747  29.030  1.00  0.00     0.074 A 
ATOM     52  C   UNL A   1      40.058  27.707  27.880  1.00  0.00     0.031 C 
ATOM     53  C   UNL A   1      38.012  32.057  32.832  1.00  0.00     0.029 A 
ATOM     54  C   UNL A   1      39.216  31.285  33.139  1.00  0.00     0.049 A 
ATOM     55  H   UNL A   1      40.194  29.933  31.894  1.00  0.00     0.167 HD
ATOM     56  C   UNL A   1      42.087  27.038  29.140  1.00  0.00     0.034 A 
ATOM     57  C   UNL A   1      39.909  31.323  34.296  1.00  0.00     0.034 A 
ATOM     58  C   UNL A   1      42.931  27.078  30.308  1.00  0.00     0.049 A 
ATOM     59  C   UNL A   1      41.130  30.445  34.442  1.00  0.00     0.074 A 
ATOM     60  C   UNL A   1      44.123  26.412  30.532  1.00  0.00     0.029 A 
ATOM     61  N   UNL A   1      42.663  27.810  31.459  1.00  0.00    -0.354 N 
ATOM     62  N   UNL A   1      41.662  29.615  33.574  1.00  0.00    -0.248 NA
ATOM     63  C   UNL A   1      41.845  30.515  35.723  1.00  0.00     0.031 C 
ATOM     64  C   UNL A   1      44.527  26.670  31.847  1.00  0.00     0.029 A 
ATOM     65  C   UNL A   1      43.643  27.577  32.413  1.00  0.00     0.049 A 
ATOM     66  H   UNL A   1      41.890  28.407  31.580  1.00  0.00     0.167 HD
ATOM     67  C   UNL A   1      42.797  29.091  34.193  1.00  0.00     0.074 A 
ATOM     68  C   UNL A   1      42.873  29.709  35.502  1.00  0.00     0.031 C 
ATOM     69  C   UNL A   1      43.698  28.190  33.721  1.00  0.00     0.034 A 
BRANCH  56  70
ATOM     70  C   UNL A   1      42.442  26.118  27.996  1.00  0.00     0.023 A 
ATOM     71  C   UNL A   1      41.941  24.805  27.916  1.00  0.00     0.031 A 
ATOM     72  C   UNL A   1      43.346  26.535  27.004  1.00  0.00     0.131 A 
ATOM     73  C   UNL A   1      42.417  23.933  26.925  1.00  0.00     0.055 A 
ATOM     74  C   UNL A   1      43.741  25.692  25.964  1.00  0.00     0.041 A 
ATOM     75  F   UNL A   1      43.882  27.766  27.041  1.00  0.00    -0.206 F 
ATOM     76  C   UNL A   1      43.291  24.376  25.931  1.00  0.00     0.022 A 
BRANCH  73  77
ATOM     77  S   UNL A   1      42.020  22.168  27.063  1.00  0.00     0.124 S 
ATOM     78  O   UNL A   1      40.614  22.212  27.463  1.00  0.00    -0.237 OA
ATOM     79  O   UNL A   1      42.285  21.678  25.715  1.00  0.00    -0.237 OA
ATOM     80  O   UNL A   1      42.938  21.689  28.094  1.00  0.00    -0.744 OA
ENDBRANCH  73  77
ENDBRANCH  56  70
BRANCH  57  81
ATOM     81  C   UNL A   1      39.455  32.196  35.418  1.00  0.00     0.023 A 
ATOM     82  C   UNL A   1      39.854  33.539  35.499  1.00  0.00     0.031 A 
ATOM     83  C   UNL A   1      38.645  31.685  36.449  1.00  0.00     0.131 A 
ATOM     84  C   UNL A   1      39.474  34.316  36.605  1.00  0.00     0.055 A 
ATOM     85  C   UNL A   1      38.223  32.478  37.518  1.00  0.00     0.041 A 
ATOM     86  F   UNL A   1      38.240  30.406  36.424  1.00  0.00    -0.206 F 
ATOM     87  C   UNL A   1      38.647  33.800  37.606  1.00  0.00     0.022 A 
BRANCH  84  88
ATOM     88  S   UNL A   1      40.142  35.996  36.760  1.00  0.00     0.124 S 
ATOM     89  O   UNL A   1      39.785  36.576  35.470  1.00  0.00    -0.237 OA
ATOM     90  O   UNL A   1      39.414  36.506  37.916  1.00  0.00    -0.237 OA
ATOM     91  O   UNL A   1      41.571  35.776  36.973  1.00  0.00    -0.744 OA
ENDBRANCH  84  88
ENDBRANCH  57  81
BRANCH  69  92
ATOM     92  C   UNL A   1      44.875  27.859  34.608  1.00  0.00     0.023 A 
ATOM     93  C   UNL A   1      45.909  28.779  34.851  1.00  0.00     0.031 A 
ATOM     94  C   UNL A   1      44.961  26.595  35.221  1.00  0.00     0.131 A 
ATOM     95  C   UNL A   1      47.012  28.402  35.634  1.00  0.00     0.055 A 
ATOM     96  C   UNL A   1      46.023  26.252  36.058  1.00  0.00     0.041 A 
ATOM     97  F   UNL A   1      44.006  25.672  35.022  1.00  0.00    -0.206 F 
ATOM     98  C   UNL A   1      47.065  27.153  36.257  1.00  0.00     0.022 A 
BRANCH  95  99
ATOM     99  S   UNL A   1      48.429  29.529  35.742  1.00  0.00     0.124 S 
ATOM    100  O   UNL A   1      48.703  29.535  37.175  1.00  0.00    -0.237 OA
ATOM    101  O   UNL A   1      49.422  28.864  34.906  1.00  0.00    -0.237 OA
ATOM    102  O   UNL A   1      47.909  30.786  35.206  1.00  0.00    -0.744 OA
ENDBRANCH  95  99
ENDBRANCH  69  92
ENDBRANCH  43  44
ENDBRANCH  36  38
ENDBRANCH  35  36
ENDBRANCH  34  35
ENDBRANCH  33  34
ENDBRANCH  32  33
ENDBRANCH  31  32
ENDBRANCH  30  31
ENDBRANCH  29  30
ENDBRANCH   1  29
TORSDOF 27
ENDMDL
MODEL 3
REMARK VINA RESULT:      -8.7      4.422      9.774
REMARK SMILES COc1ncccc1NS(=O)(=O)c1ccc(Br)c(C(=O)OCCOCCOCCOCCOC(=O)c2ccc(-c3c4nc(c(-c5cc(S(=O)(=O)[O-])ccc5F)c5ccc([nH]5)c(-c5cc(S(=O)(=O)[O-])ccc5F)c5nc(c(-c6cc(S(=O)(=O)[O-])ccc6F)c6ccc3[nH]6)C=C5)C=C4)cc2)c1
REMARK SMILES IDX 26 1 25 2 24 3 23 4 22 5 21 6 19 7 20 8 18 9 13 10 14 11
REMARK SMILES IDX 99 12 15 13 16 14 17 15 10 16 11 17 12 18 9 19 8 21 3 22
REMARK SMILES IDX 4 23 5 24 7 25 6 26 2 27 1 28 27 29 28 30 29 31 30 32 31 33
REMARK SMILES IDX 32 34 33 35 34 36 35 37 36 38 37 39 98 40 38 41 97 42 39 43
REMARK SMILES IDX 40 44 41 45 91 46 42 47 96 48 90 49 92 50 43 51 95 52 89 53
REMARK SMILES IDX 88 54 44 56 76 57 56 58 75 59 57 60 60 61 74 62 93 63 58 64
REMARK SMILES IDX 59 65 73 67 94 68 61 69 45 70 46 71 54 72 47 73 53 74 55 75
REMARK SMILES IDX 52 76 48 77 49 78 50 79 51 80 77 81 78 82 86 83 79 84 85 85
REMARK SMILES IDX 87 86 84 87 80 88 81 89 82 90 83 91 62 92 63 93 71 94 64 95
REMARK SMILES IDX 70 96 72 97 69 98 65 99 66 100 67 101 68 102
REMARK H PARENT 9 20 92 55 60 66
REMARK Flexibility Score: inf
ROOT
ATOM      1  C   UNL A   1      40.770  21.960  27.610  1.00  0.00     0.188 C 
ENDROOT
BRANCH   1   2
ATOM      2  C   UNL A   1      40.237  21.973  26.151  1.00  0.00     0.188 C 
BRANCH   2   3
ATOM      3  O   UNL A   1      38.947  21.428  25.960  1.00  0.00    -0.376 OA
BRANCH   3   4
ATOM      4  C   UNL A   1      37.885  22.205  25.446  1.00  0.00     0.202 C 
BRANCH   4   5
ATOM      5  C   UNL A   1      37.555  23.536  26.124  1.00  0.00     0.261 C 
BRANCH   5   6
ATOM      6  O   UNL A   1      36.286  24.083  25.761  1.00  0.00    -0.460 OA
BRANCH   6   7
ATOM      7  C   UNL A   1      35.195  23.348  26.047  1.00  0.00     0.339 C 
ATOM      8  O   UNL A   1      34.874  22.912  27.139  1.00  0.00    -0.246 OA
BRANCH   7   9
ATOM      9  C   UNL A   1      34.308  23.334  24.864  1.00  0.00     0.075 A 
ATOM     10  C   UNL A   1      33.031  24.658  23.280  1.00  0.00     0.088 A 
ATOM     11  C   UNL A   1      32.509  23.474  22.742  1.00  0.00     0.023 A 
ATOM     12  C   UNL A   1      33.886  24.591  24.381  1.00  0.00     0.039 A 
ATOM     13  C   UNL A   1      32.981  22.233  23.171  1.00  0.00     0.018 A 
ATOM     14  C   UNL A   1      33.895  22.156  24.224  1.00  0.00     0.032 A 
ATOM     15  Br  UNL A   1      34.469  20.414  24.718  1.00  0.00    -0.050 Br
BRANCH  10  16
ATOM     16  S   UNL A   1      32.414  26.218  22.711  1.00  0.00     0.262 S 
ATOM     17  O   UNL A   1      31.670  25.954  21.496  1.00  0.00    -0.201 OA
ATOM     18  O   UNL A   1      33.536  27.137  22.664  1.00  0.00    -0.201 OA
BRANCH  16  19
ATOM     19  N   UNL A   1      31.334  26.966  23.765  1.00  0.00    -0.274 N 
ATOM     20  H   UNL A   1      30.653  26.378  24.165  1.00  0.00     0.180 HD
BRANCH  19  21
ATOM     21  C   UNL A   1      31.272  28.346  24.162  1.00  0.00     0.111 A 
ATOM     22  C   UNL A   1      30.398  29.332  23.711  1.00  0.00     0.238 A 
ATOM     23  N   UNL A   1      30.278  30.570  24.249  1.00  0.00    -0.220 NA
ATOM     24  C   UNL A   1      30.996  30.828  25.359  1.00  0.00     0.115 A 
ATOM     25  C   UNL A   1      31.921  28.634  25.370  1.00  0.00     0.034 A 
ATOM     26  C   UNL A   1      31.793  29.884  25.976  1.00  0.00     0.023 A 
BRANCH  22  27
ATOM     27  O   UNL A   1      29.525  29.062  22.702  1.00  0.00    -0.480 OA
ATOM     28  C   UNL A   1      29.503  30.141  21.775  1.00  0.00     0.280 C 
ENDBRANCH  22  27
ENDBRANCH  19  21
ENDBRANCH  16  19
ENDBRANCH  10  16
ENDBRANCH   7   9
ENDBRANCH   6   7
ENDBRANCH   5   6
ENDBRANCH   4   5
ENDBRANCH   3   4
ENDBRANCH   2   3
ENDBRANCH   1   2
BRANCH   1  29
ATOM     29  O   UNL A   1      42.096  21.587  27.974  1.00  0.00    -0.377 OA
BRANCH  29  30
ATOM     30  C   UNL A   1      43.039  22.592  28.306  1.00  0.00     0.188 C 
BRANCH  30  31
ATOM     31  C   UNL A   1      43.546  23.419  27.109  1.00  0.00     0.188 C 
BRANCH  31  32
ATOM     32  O   UNL A   1      44.073  22.615  26.062  1.00  0.00    -0.376 OA
BRANCH  32  33
ATOM     33  C   UNL A   1      44.370  23.234  24.824  1.00  0.00     0.202 C 
BRANCH  33  34
ATOM     34  C   UNL A   1      45.799  23.700  24.501  1.00  0.00     0.261 C 
BRANCH  34  35
ATOM     35  O   UNL A   1      46.444  24.563  25.444  1.00  0.00    -0.460 OA
BRANCH  35  36
ATOM     36  C   UNL A   1      46.658  25.847  25.095  1.00  0.00     0.338 C 
ATOM     37  O   UNL A   1      47.121  26.258  24.043  1.00  0.00    -0.246 OA
BRANCH  36  38
ATOM     38  C   UNL A   1      46.031  26.669  26.149  1.00  0.00     0.060 A 
ATOM     39  C   UNL A   1      46.840  27.396  27.034  1.00  0.00     0.016 A 
ATOM     40  C   UNL A   1      44.639  26.765  26.216  1.00  0.00     0.016 A 
ATOM     41  C   UNL A   1      46.252  28.204  28.007  1.00  0.00     0.010 A 
ATOM     42  C   UNL A   1      44.052  27.555  27.204  1.00  0.00     0.010 A 
ATOM     43  C   UNL A   1      44.857  28.253  28.123  1.00  0.00    -0.014 A 
BRANCH  43  44
ATOM     44  C   UNL A   1      44.241  28.845  29.332  1.00  0.00     0.031 A 
ATOM     45  C   UNL A   1      43.836  30.292  29.273  1.00  0.00     0.074 A 
ATOM     46  C   UNL A   1      44.036  28.119  30.443  1.00  0.00     0.049 A 
ATOM     47  N   UNL A   1      43.331  31.056  30.206  1.00  0.00    -0.248 NA
ATOM     48  C   UNL A   1      44.039  30.967  27.982  1.00  0.00     0.031 C 
ATOM     49  C   UNL A   1      44.347  26.698  30.591  1.00  0.00     0.029 A 
ATOM     50  N   UNL A   1      43.519  28.481  31.660  1.00  0.00    -0.354 N 
ATOM     51  C   UNL A   1      43.163  32.305  29.617  1.00  0.00     0.074 A 
ATOM     52  C   UNL A   1      43.665  32.204  28.263  1.00  0.00     0.031 C 
ATOM     53  C   UNL A   1      44.015  26.310  31.835  1.00  0.00     0.029 A 
ATOM     54  C   UNL A   1      43.511  27.462  32.582  1.00  0.00     0.049 A 
ATOM     55  H   UNL A   1      43.183  29.386  31.855  1.00  0.00     0.167 HD
ATOM     56  C   UNL A   1      42.629  33.428  30.154  1.00  0.00     0.034 A 
ATOM     57  C   UNL A   1      43.163  27.471  33.885  1.00  0.00     0.034 A 
ATOM     58  C   UNL A   1      42.159  33.507  31.515  1.00  0.00     0.049 A 
ATOM     59  C   UNL A   1      42.669  28.762  34.497  1.00  0.00     0.074 A 
ATOM     60  C   UNL A   1      41.590  34.586  32.169  1.00  0.00     0.029 A 
ATOM     61  N   UNL A   1      42.220  32.472  32.440  1.00  0.00    -0.354 N 
ATOM     62  N   UNL A   1      42.502  29.936  33.932  1.00  0.00    -0.248 NA
ATOM     63  C   UNL A   1      42.312  28.724  35.921  1.00  0.00     0.031 C 
ATOM     64  C   UNL A   1      41.393  34.231  33.508  1.00  0.00     0.029 A 
ATOM     65  C   UNL A   1      41.743  32.899  33.670  1.00  0.00     0.049 A 
ATOM     66  H   UNL A   1      42.556  31.566  32.250  1.00  0.00     0.167 HD
ATOM     67  C   UNL A   1      41.986  30.768  34.925  1.00  0.00     0.074 A 
ATOM     68  C   UNL A   1      41.860  29.954  36.118  1.00  0.00     0.031 C 
ATOM     69  C   UNL A   1      41.637  32.079  34.856  1.00  0.00     0.034 A 
BRANCH  56  70
ATOM     70  C   UNL A   1      42.598  34.662  29.284  1.00  0.00     0.023 A 
ATOM     71  C   UNL A   1      43.757  35.418  29.026  1.00  0.00     0.031 A 
ATOM     72  C   UNL A   1      41.381  35.128  28.755  1.00  0.00     0.131 A 
ATOM     73  C   UNL A   1      43.658  36.641  28.345  1.00  0.00     0.055 A 
ATOM     74  C   UNL A   1      41.307  36.295  27.994  1.00  0.00     0.041 A 
ATOM     75  F   UNL A   1      40.236  34.467  28.990  1.00  0.00    -0.206 F 
ATOM     76  C   UNL A   1      42.446  37.071  27.801  1.00  0.00     0.022 A 
BRANCH  73  77
ATOM     77  S   UNL A   1      45.098  37.746  28.338  1.00  0.00     0.124 S 
ATOM     78  O   UNL A   1      45.125  38.185  26.943  1.00  0.00    -0.237 OA
ATOM     79  O   UNL A   1      44.723  38.758  29.319  1.00  0.00    -0.237 OA
ATOM     80  O   UNL A   1      46.203  36.873  28.729  1.00  0.00    -0.744 OA
ENDBRANCH  73  77
ENDBRANCH  56  70
BRANCH  57  81
ATOM     81  C   UNL A   1      43.295  26.235  34.710  1.00  0.00     0.023 A 
ATOM     82  C   UNL A   1      44.555  25.732  35.068  1.00  0.00     0.031 A 
ATOM     83  C   UNL A   1      42.157  25.514  35.118  1.00  0.00     0.131 A 
ATOM     84  C   UNL A   1      44.651  24.526  35.780  1.00  0.00     0.055 A 
ATOM     85  C   UNL A   1      42.256  24.345  35.875  1.00  0.00     0.041 A 
ATOM     86  F   UNL A   1      40.928  25.946  34.797  1.00  0.00    -0.206 F 
ATOM     87  C   UNL A   1      43.510  23.838  36.201  1.00  0.00     0.022 A 
BRANCH  84  88
ATOM     88  S   UNL A   1      46.296  23.822  36.084  1.00  0.00     0.124 S 
ATOM     89  O   UNL A   1      46.522  24.190  37.477  1.00  0.00    -0.237 OA
ATOM     90  O   UNL A   1      46.071  22.405  35.823  1.00  0.00    -0.237 OA
ATOM     91  O   UNL A   1      47.144  24.506  35.111  1.00  0.00    -0.744 OA
ENDBRANCH  84  88
ENDBRANCH  57  81
BRANCH  69  92
ATOM     92  C   UNL A   1      41.038  32.702  36.095  1.00  0.00     0.023 A 
ATOM     93  C   UNL A   1      39.757  32.356  36.559  1.00  0.00     0.031 A 
ATOM     94  C   UNL A   1      41.766  33.661  36.824  1.00  0.00     0.131 A 
ATOM     95  C   UNL A   1      39.220  33.008  37.681  1.00  0.00     0.055 A 
ATOM     96  C   UNL A   1      41.255  34.252  37.980  1.00  0.00     0.041 A 
ATOM     97  F   UNL A   1      42.993  34.036  36.427  1.00  0.00    -0.206 F 
ATOM     98  C   UNL A   1      39.969  33.937  38.407  1.00  0.00     0.022 A 
BRANCH  95  99
ATOM     99  S   UNL A   1      37.486  32.703  38.117  1.00  0.00     0.124 S 
ATOM    100  O   UNL A   1      37.395  31.251  38.003  1.00  0.00    -0.237 OA
ATOM    101  O   UNL A   1      37.403  33.243  39.470  1.00  0.00    -0.237 OA
ATOM    102  O   UNL A   1      36.741  33.451  37.105  1.00  0.00    -0.744 OA
ENDBRANCH  95  99
ENDBRANCH  69  92
ENDBRANCH  43  44
ENDBRANCH  36  38
ENDBRANCH  35  36
ENDBRANCH  34  35
ENDBRANCH  33  34
ENDBRANCH  32  33
ENDBRANCH  31  32
ENDBRANCH  30  31
ENDBRANCH  29  30
ENDBRANCH   1  29
TORSDOF 27
ENDMDL
