MODEL 1
REMARK VINA RESULT:      -9.8      0.000      0.000
REMARK SMILES CC(C)[C@@H](NC(=O)[C@H]1CCCO1)C(=O)OCCOCCOCCOCCOC(=O)c1ccc(-c2c3nc(c(-c4cc(S(=O)(=O)[O-])ccc4F)c4ccc([nH]4)c(-c4cc(S(=O)(=O)[O-])ccc4F)c4nc(c(-c5cc(S(=O)(=O)[O-])ccc5F)c5ccc2[nH]5)C=C4)C=C3)cc1
REMARK SMILES IDX 22 1 21 2 20 3 19 4 18 5 17 6 16 7 15 8 13 9 14 10 4 11 2 12
REMARK SMILES IDX 1 13 3 14 5 15 6 16 7 18 8 19 9 20 12 21 10 22 11 23 23 24
REMARK SMILES IDX 24 25 25 26 26 27 27 28 28 29 29 30 30 31 31 32 92 33 32 34
REMARK SMILES IDX 91 35 33 36 34 37 35 38 85 39 36 40 90 41 84 42 86 43 37 44
REMARK SMILES IDX 89 45 83 46 82 47 38 49 70 50 50 51 69 52 51 53 54 54 68 55
REMARK SMILES IDX 87 56 52 57 53 58 67 60 88 61 55 62 39 63 40 64 48 65 41 66
REMARK SMILES IDX 47 67 49 68 46 69 42 70 43 71 44 72 45 73 71 74 72 75 80 76
REMARK SMILES IDX 73 77 79 78 81 79 78 80 74 81 75 82 76 83 77 84 56 85 57 86
REMARK SMILES IDX 65 87 58 88 64 89 66 90 63 91 59 92 60 93 61 94 62 95
REMARK H PARENT 5 17 86 48 54 59
REMARK Flexibility Score: inf
ROOT
ATOM      1  C   UNL A   1      35.978  22.618  25.804  1.00  0.00     0.188 C 
ENDROOT
BRANCH   1   2
ATOM      2  O   UNL A   1      36.105  24.037  25.759  1.00  0.00    -0.377 OA
BRANCH   2   3
ATOM      3  C   UNL A   1      35.065  24.863  25.268  1.00  0.00     0.188 C 
BRANCH   3   4
ATOM      4  C   UNL A   1      33.682  24.218  25.323  1.00  0.00     0.188 C 
BRANCH   4   5
ATOM      5  O   UNL A   1      32.662  24.964  25.967  1.00  0.00    -0.376 OA
BRANCH   5   6
ATOM      6  C   UNL A   1      31.512  25.310  25.197  1.00  0.00     0.202 C 
BRANCH   6   7
ATOM      7  C   UNL A   1      31.415  24.831  23.740  1.00  0.00     0.261 C 
BRANCH   7   8
ATOM      8  O   UNL A   1      31.442  25.867  22.720  1.00  0.00    -0.462 OA
BRANCH   8   9
ATOM      9  C   UNL A   1      32.386  26.829  22.855  1.00  0.00     0.328 C 
ATOM     10  O   UNL A   1      33.587  26.620  22.662  1.00  0.00    -0.250 OA
BRANCH   9  11
ATOM     11  C   UNL A   1      31.934  28.175  23.472  1.00  0.00     0.194 C 
BRANCH  11  12
ATOM     12  C   UNL A   1      32.610  28.967  24.625  1.00  0.00     0.017 C 
ATOM     13  C   UNL A   1      31.699  28.925  25.879  1.00  0.00     0.010 C 
ATOM     14  C   UNL A   1      33.961  28.414  25.085  1.00  0.00     0.010 C 
ENDBRANCH  11  12
BRANCH  11  15
ATOM     15  N   UNL A   1      31.498  29.082  22.380  1.00  0.00    -0.340 N 
ATOM     16  C   UNL A   1      30.294  29.698  22.157  1.00  0.00     0.249 C 
ATOM     17  H   UNL A   1      32.189  29.273  21.706  1.00  0.00     0.164 HD
ATOM     18  O   UNL A   1      30.109  30.190  21.042  1.00  0.00    -0.272 OA
BRANCH  16  19
ATOM     19  C   UNL A   1      29.300  29.871  23.319  1.00  0.00     0.207 C 
ATOM     20  C   UNL A   1      29.087  31.304  23.796  1.00  0.00     0.044 C 
ATOM     21  O   UNL A   1      28.007  29.346  22.989  1.00  0.00    -0.368 OA
ATOM     22  C   UNL A   1      27.670  31.611  23.376  1.00  0.00     0.032 C 
ATOM     23  C   UNL A   1      27.018  30.257  23.474  1.00  0.00     0.161 C 
ENDBRANCH  16  19
ENDBRANCH  11  15
ENDBRANCH   9  11
ENDBRANCH   8   9
ENDBRANCH   7   8
ENDBRANCH   6   7
ENDBRANCH   5   6
ENDBRANCH   4   5
ENDBRANCH   3   4
ENDBRANCH   2   3
ENDBRANCH   1   2
BRANCH   1  24
ATOM     24  C   UNL A   1      37.166  21.788  25.327  1.00  0.00     0.188 C 
BRANCH  24  25
ATOM     25  O   UNL A   1      36.985  20.369  25.260  1.00  0.00    -0.376 OA
BRANCH  25  26
ATOM     26  C   UNL A   1      38.038  19.567  24.730  1.00  0.00     0.202 C 
BRANCH  26  27
ATOM     27  C   UNL A   1      39.184  19.271  25.694  1.00  0.00     0.261 C 
BRANCH  27  28
ATOM     28  O   UNL A   1      40.195  20.287  25.682  1.00  0.00    -0.460 OA
BRANCH  28  29
ATOM     29  C   UNL A   1      40.913  20.383  26.823  1.00  0.00     0.338 C 
ATOM     30  O   UNL A   1      41.542  19.489  27.380  1.00  0.00    -0.246 OA
BRANCH  29  31
ATOM     31  C   UNL A   1      40.936  21.780  27.274  1.00  0.00     0.060 A 
ATOM     32  C   UNL A   1      40.222  22.735  26.541  1.00  0.00     0.016 A 
ATOM     33  C   UNL A   1      41.750  22.157  28.345  1.00  0.00     0.016 A 
ATOM     34  C   UNL A   1      40.367  24.087  26.841  1.00  0.00     0.010 A 
ATOM     35  C   UNL A   1      41.902  23.511  28.638  1.00  0.00     0.010 A 
ATOM     36  C   UNL A   1      41.247  24.480  27.856  1.00  0.00    -0.014 A 
BRANCH  36  37
ATOM     37  C   UNL A   1      41.643  25.900  27.978  1.00  0.00     0.031 A 
ATOM     38  C   UNL A   1      42.974  26.317  27.419  1.00  0.00     0.074 A 
ATOM     39  C   UNL A   1      40.834  26.788  28.578  1.00  0.00     0.049 A 
ATOM     40  N   UNL A   1      43.588  27.468  27.503  1.00  0.00    -0.248 NA
ATOM     41  C   UNL A   1      43.719  25.289  26.674  1.00  0.00     0.031 C 
ATOM     42  C   UNL A   1      39.502  26.494  29.102  1.00  0.00     0.029 A 
ATOM     43  N   UNL A   1      41.024  28.116  28.857  1.00  0.00    -0.354 N 
ATOM     44  C   UNL A   1      44.796  27.300  26.833  1.00  0.00     0.074 A 
ATOM     45  C   UNL A   1      44.842  25.926  26.383  1.00  0.00     0.031 C 
ATOM     46  C   UNL A   1      39.000  27.609  29.659  1.00  0.00     0.029 A 
ATOM     47  C   UNL A   1      39.994  28.677  29.572  1.00  0.00     0.049 A 
ATOM     48  H   UNL A   1      41.821  28.619  28.573  1.00  0.00     0.167 HD
ATOM     49  C   UNL A   1      45.772  28.215  26.614  1.00  0.00     0.034 A 
ATOM     50  C   UNL A   1      39.888  29.903  30.124  1.00  0.00     0.034 A 
ATOM     51  C   UNL A   1      45.704  29.575  27.089  1.00  0.00     0.049 A 
ATOM     52  C   UNL A   1      41.028  30.878  29.948  1.00  0.00     0.074 A 
ATOM     53  C   UNL A   1      46.623  30.595  26.919  1.00  0.00     0.029 A 
ATOM     54  N   UNL A   1      44.661  30.101  27.842  1.00  0.00    -0.354 N 
ATOM     55  N   UNL A   1      42.167  30.714  29.313  1.00  0.00    -0.248 NA
ATOM     56  C   UNL A   1      40.864  32.203  30.557  1.00  0.00     0.031 C 
ATOM     57  C   UNL A   1      46.177  31.709  27.638  1.00  0.00     0.029 A 
ATOM     58  C   UNL A   1      44.933  31.419  28.177  1.00  0.00     0.049 A 
ATOM     59  H   UNL A   1      43.848  29.611  28.100  1.00  0.00     0.167 HD
ATOM     60  C   UNL A   1      42.838  31.930  29.417  1.00  0.00     0.074 A 
ATOM     61  C   UNL A   1      41.971  32.817  30.165  1.00  0.00     0.031 C 
ATOM     62  C   UNL A   1      44.056  32.286  28.932  1.00  0.00     0.034 A 
BRANCH  49  63
ATOM     63  C   UNL A   1      47.011  27.750  25.884  1.00  0.00     0.023 A 
ATOM     64  C   UNL A   1      47.220  28.029  24.522  1.00  0.00     0.031 A 
ATOM     65  C   UNL A   1      47.981  26.984  26.553  1.00  0.00     0.131 A 
ATOM     66  C   UNL A   1      48.330  27.485  23.858  1.00  0.00     0.055 A 
ATOM     67  C   UNL A   1      49.128  26.517  25.908  1.00  0.00     0.041 A 
ATOM     68  F   UNL A   1      47.824  26.661  27.847  1.00  0.00    -0.206 F 
ATOM     69  C   UNL A   1      49.300  26.753  24.547  1.00  0.00     0.022 A 
BRANCH  66  70
ATOM     70  S   UNL A   1      48.409  27.614  22.050  1.00  0.00     0.124 S 
ATOM     71  O   UNL A   1      49.546  28.513  21.867  1.00  0.00    -0.237 OA
ATOM     72  O   UNL A   1      48.619  26.228  21.644  1.00  0.00    -0.237 OA
ATOM     73  O   UNL A   1      47.111  28.181  21.689  1.00  0.00    -0.744 OA
ENDBRANCH  66  70
ENDBRANCH  49  63
BRANCH  50  74
ATOM     74  C   UNL A   1      38.685  30.266  30.925  1.00  0.00     0.023 A 
ATOM     75  C   UNL A   1      37.624  30.984  30.353  1.00  0.00     0.031 A 
ATOM     76  C   UNL A   1      38.598  29.939  32.291  1.00  0.00     0.131 A 
ATOM     77  C   UNL A   1      36.545  31.392  31.153  1.00  0.00     0.055 A 
ATOM     78  C   UNL A   1      37.495  30.297  33.069  1.00  0.00     0.041 A 
ATOM     79  F   UNL A   1      39.584  29.252  32.890  1.00  0.00    -0.206 F 
ATOM     80  C   UNL A   1      36.466  31.041  32.502  1.00  0.00     0.022 A 
BRANCH  77  81
ATOM     81  S   UNL A   1      35.284  32.470  30.420  1.00  0.00     0.124 S 
ATOM     82  O   UNL A   1      34.317  32.575  31.506  1.00  0.00    -0.237 OA
ATOM     83  O   UNL A   1      36.052  33.676  30.126  1.00  0.00    -0.237 OA
ATOM     84  O   UNL A   1      34.834  31.720  29.251  1.00  0.00    -0.744 OA
ENDBRANCH  77  81
ENDBRANCH  50  74
BRANCH  62  85
ATOM     85  C   UNL A   1      44.495  33.715  29.151  1.00  0.00     0.023 A 
ATOM     86  C   UNL A   1      44.000  34.774  28.371  1.00  0.00     0.031 A 
ATOM     87  C   UNL A   1      45.430  34.019  30.158  1.00  0.00     0.131 A 
ATOM     88  C   UNL A   1      44.486  36.075  28.570  1.00  0.00     0.055 A 
ATOM     89  C   UNL A   1      45.856  35.324  30.398  1.00  0.00     0.041 A 
ATOM     90  F   UNL A   1      45.940  33.047  30.932  1.00  0.00    -0.206 F 
ATOM     91  C   UNL A   1      45.395  36.360  29.592  1.00  0.00     0.022 A 
BRANCH  88  92
ATOM     92  S   UNL A   1      43.993  37.376  27.405  1.00  0.00     0.124 S 
ATOM     93  O   UNL A   1      43.400  38.369  28.295  1.00  0.00    -0.237 OA
ATOM     94  O   UNL A   1      45.265  37.746  26.792  1.00  0.00    -0.237 OA
ATOM     95  O   UNL A   1      43.051  36.699  26.516  1.00  0.00    -0.744 OA
ENDBRANCH  88  92
ENDBRANCH  62  85
ENDBRANCH  36  37
ENDBRANCH  29  31
ENDBRANCH  28  29
ENDBRANCH  27  28
ENDBRANCH  26  27
ENDBRANCH  25  26
ENDBRANCH  24  25
ENDBRANCH   1  24
TORSDOF 26
ENDMDL
MODEL 2
REMARK VINA RESULT:      -9.2      5.369      9.222
REMARK SMILES CC(C)[C@@H](NC(=O)[C@H]1CCCO1)C(=O)OCCOCCOCCOCCOC(=O)c1ccc(-c2c3nc(c(-c4cc(S(=O)(=O)[O-])ccc4F)c4ccc([nH]4)c(-c4cc(S(=O)(=O)[O-])ccc4F)c4nc(c(-c5cc(S(=O)(=O)[O-])ccc5F)c5ccc2[nH]5)C=C4)C=C3)cc1
REMARK SMILES IDX 22 1 21 2 20 3 19 4 18 5 17 6 16 7 15 8 13 9 14 10 4 11 2 12
REMARK SMILES IDX 1 13 3 14 5 15 6 16 7 18 8 19 9 20 12 21 10 22 11 23 23 24
REMARK SMILES IDX 24 25 25 26 26 27 27 28 28 29 29 30 30 31 31 32 92 33 32 34
REMARK SMILES IDX 91 35 33 36 34 37 35 38 85 39 36 40 90 41 84 42 86 43 37 44
REMARK SMILES IDX 89 45 83 46 82 47 38 49 70 50 50 51 69 52 51 53 54 54 68 55
REMARK SMILES IDX 87 56 52 57 53 58 67 60 88 61 55 62 39 63 40 64 48 65 41 66
REMARK SMILES IDX 47 67 49 68 46 69 42 70 43 71 44 72 45 73 71 74 72 75 80 76
REMARK SMILES IDX 73 77 79 78 81 79 78 80 74 81 75 82 76 83 77 84 56 85 57 86
REMARK SMILES IDX 65 87 58 88 64 89 66 90 63 91 59 92 60 93 61 94 62 95
REMARK H PARENT 5 17 86 48 54 59
REMARK Flexibility Score: inf
ROOT
ATOM      1  C   UNL A   1      30.638  28.593  24.241  1.00  0.00     0.188 C 
ENDROOT
BRANCH   1   2
ATOM      2  O   UNL A   1      30.865  28.126  22.913  1.00  0.00    -0.377 OA
BRANCH   2   3
ATOM      3  C   UNL A   1      31.445  26.860  22.657  1.00  0.00     0.188 C 
BRANCH   3   4
ATOM      4  C   UNL A   1      31.692  26.025  23.912  1.00  0.00     0.188 C 
BRANCH   4   5
ATOM      5  O   UNL A   1      32.655  24.990  23.803  1.00  0.00    -0.376 OA
BRANCH   5   6
ATOM      6  C   UNL A   1      32.264  23.793  23.134  1.00  0.00     0.202 C 
BRANCH   6   7
ATOM      7  C   UNL A   1      31.717  22.619  23.962  1.00  0.00     0.261 C 
BRANCH   7   8
ATOM      8  O   UNL A   1      31.271  22.936  25.309  1.00  0.00    -0.462 OA
BRANCH   8   9
ATOM      9  C   UNL A   1      32.001  22.418  26.327  1.00  0.00     0.328 C 
ATOM     10  O   UNL A   1      31.814  22.724  27.508  1.00  0.00    -0.250 OA
BRANCH   9  11
ATOM     11  C   UNL A   1      33.237  21.568  25.944  1.00  0.00     0.194 C 
BRANCH  11  12
ATOM     12  C   UNL A   1      34.734  21.979  26.023  1.00  0.00     0.017 C 
ATOM     13  C   UNL A   1      35.368  21.883  24.611  1.00  0.00     0.010 C 
ATOM     14  C   UNL A   1      34.988  23.415  26.487  1.00  0.00     0.010 C 
ENDBRANCH  11  12
BRANCH  11  15
ATOM     15  N   UNL A   1      33.035  20.179  26.426  1.00  0.00    -0.340 N 
ATOM     16  C   UNL A   1      32.916  19.002  25.734  1.00  0.00     0.249 C 
ATOM     17  H   UNL A   1      32.976  20.089  27.404  1.00  0.00     0.164 HD
ATOM     18  O   UNL A   1      32.493  18.023  26.353  1.00  0.00    -0.272 OA
BRANCH  16  19
ATOM     19  C   UNL A   1      33.433  18.912  24.287  1.00  0.00     0.207 C 
ATOM     20  C   UNL A   1      34.436  17.796  24.013  1.00  0.00     0.044 C 
ATOM     21  O   UNL A   1      32.359  18.745  23.353  1.00  0.00    -0.368 OA
ATOM     22  C   UNL A   1      33.672  16.843  23.126  1.00  0.00     0.032 C 
ATOM     23  C   UNL A   1      32.761  17.780  22.378  1.00  0.00     0.161 C 
ENDBRANCH  16  19
ENDBRANCH  11  15
ENDBRANCH   9  11
ENDBRANCH   8   9
ENDBRANCH   7   8
ENDBRANCH   6   7
ENDBRANCH   5   6
ENDBRANCH   4   5
ENDBRANCH   3   4
ENDBRANCH   2   3
ENDBRANCH   1   2
BRANCH   1  24
ATOM     24  C   UNL A   1      31.584  29.659  24.785  1.00  0.00     0.188 C 
BRANCH  24  25
ATOM     25  O   UNL A   1      30.995  30.746  25.508  1.00  0.00    -0.376 OA
BRANCH  25  26
ATOM     26  C   UNL A   1      31.669  31.251  26.658  1.00  0.00     0.202 C 
BRANCH  26  27
ATOM     27  C   UNL A   1      31.827  32.768  26.711  1.00  0.00     0.261 C 
BRANCH  27  28
ATOM     28  O   UNL A   1      33.196  33.179  26.822  1.00  0.00    -0.460 OA
BRANCH  28  29
ATOM     29  C   UNL A   1      33.561  33.598  28.054  1.00  0.00     0.338 C 
ATOM     30  O   UNL A   1      32.932  34.340  28.801  1.00  0.00    -0.246 OA
BRANCH  29  31
ATOM     31  C   UNL A   1      34.811  32.935  28.450  1.00  0.00     0.060 A 
ATOM     32  C   UNL A   1      34.739  31.682  29.071  1.00  0.00     0.016 A 
ATOM     33  C   UNL A   1      36.031  33.599  28.309  1.00  0.00     0.016 A 
ATOM     34  C   UNL A   1      35.889  31.112  29.611  1.00  0.00     0.010 A 
ATOM     35  C   UNL A   1      37.179  33.032  28.860  1.00  0.00     0.010 A 
ATOM     36  C   UNL A   1      37.101  31.810  29.552  1.00  0.00    -0.014 A 
BRANCH  36  37
ATOM     37  C   UNL A   1      38.245  31.370  30.379  1.00  0.00     0.031 A 
ATOM     38  C   UNL A   1      39.193  30.358  29.801  1.00  0.00     0.074 A 
ATOM     39  C   UNL A   1      38.426  31.861  31.616  1.00  0.00     0.049 A 
ATOM     40  N   UNL A   1      40.195  29.738  30.366  1.00  0.00    -0.248 NA
ATOM     41  C   UNL A   1      38.970  29.986  28.394  1.00  0.00     0.031 C 
ATOM     42  C   UNL A   1      37.595  32.886  32.245  1.00  0.00     0.029 A 
ATOM     43  N   UNL A   1      39.362  31.551  32.568  1.00  0.00    -0.354 N 
ATOM     44  C   UNL A   1      40.715  28.893  29.390  1.00  0.00     0.074 A 
ATOM     45  C   UNL A   1      39.894  29.055  28.211  1.00  0.00     0.031 C 
ATOM     46  C   UNL A   1      38.048  33.107  33.490  1.00  0.00     0.029 A 
ATOM     47  C   UNL A   1      39.167  32.206  33.759  1.00  0.00     0.049 A 
ATOM     48  H   UNL A   1      40.100  30.920  32.412  1.00  0.00     0.167 HD
ATOM     49  C   UNL A   1      41.784  28.064  29.475  1.00  0.00     0.034 A 
ATOM     50  C   UNL A   1      39.800  32.063  34.941  1.00  0.00     0.034 A 
ATOM     51  C   UNL A   1      42.576  27.914  30.672  1.00  0.00     0.049 A 
ATOM     52  C   UNL A   1      40.929  31.064  35.042  1.00  0.00     0.074 A 
ATOM     53  C   UNL A   1      43.687  27.115  30.876  1.00  0.00     0.029 A 
ATOM     54  N   UNL A   1      42.330  28.566  31.874  1.00  0.00    -0.354 N 
ATOM     55  N   UNL A   1      41.417  30.270  34.115  1.00  0.00    -0.248 NA
ATOM     56  C   UNL A   1      41.596  30.949  36.345  1.00  0.00     0.031 C 
ATOM     57  C   UNL A   1      44.060  27.221  32.220  1.00  0.00     0.029 A 
ATOM     58  C   UNL A   1      43.244  28.159  32.834  1.00  0.00     0.049 A 
ATOM     59  H   UNL A   1      41.612  29.222  32.023  1.00  0.00     0.167 HD
ATOM     60  C   UNL A   1      42.473  29.588  34.717  1.00  0.00     0.074 A 
ATOM     61  C   UNL A   1      42.554  30.074  36.079  1.00  0.00     0.031 C 
ATOM     62  C   UNL A   1      43.304  28.651  34.191  1.00  0.00     0.034 A 
BRANCH  49  63
ATOM     63  C   UNL A   1      42.110  27.221  28.265  1.00  0.00     0.023 A 
ATOM     64  C   UNL A   1      41.897  25.832  28.247  1.00  0.00     0.031 A 
ATOM     65  C   UNL A   1      42.677  27.812  27.122  1.00  0.00     0.131 A 
ATOM     66  C   UNL A   1      42.315  25.073  27.143  1.00  0.00     0.055 A 
ATOM     67  C   UNL A   1      43.012  27.064  25.992  1.00  0.00     0.041 A 
ATOM     68  F   UNL A   1      42.930  29.131  27.089  1.00  0.00    -0.206 F 
ATOM     69  C   UNL A   1      42.847  25.682  26.005  1.00  0.00     0.022 A 
BRANCH  66  70
ATOM     70  S   UNL A   1      42.300  23.264  27.278  1.00  0.00     0.124 S 
ATOM     71  O   UNL A   1      41.718  22.876  25.995  1.00  0.00    -0.237 OA
ATOM     72  O   UNL A   1      43.713  22.949  27.459  1.00  0.00    -0.237 OA
ATOM     73  O   UNL A   1      41.451  23.013  28.441  1.00  0.00    -0.744 OA
ENDBRANCH  66  70
ENDBRANCH  49  63
BRANCH  50  74
ATOM     74  C   UNL A   1      39.362  32.846  36.130  1.00  0.00     0.023 A 
ATOM     75  C   UNL A   1      39.963  34.073  36.451  1.00  0.00     0.031 A 
ATOM     76  C   UNL A   1      38.362  32.358  36.992  1.00  0.00     0.131 A 
ATOM     77  C   UNL A   1      39.595  34.746  37.626  1.00  0.00     0.055 A 
ATOM     78  C   UNL A   1      37.958  33.061  38.129  1.00  0.00     0.041 A 
ATOM     79  F   UNL A   1      37.752  31.191  36.733  1.00  0.00    -0.206 F 
ATOM     80  C   UNL A   1      38.586  34.257  38.458  1.00  0.00     0.022 A 
BRANCH  77  81
ATOM     81  S   UNL A   1      40.521  36.232  38.098  1.00  0.00     0.124 S 
ATOM     82  O   UNL A   1      39.451  37.117  38.547  1.00  0.00    -0.237 OA
ATOM     83  O   UNL A   1      41.406  35.718  39.138  1.00  0.00    -0.237 OA
ATOM     84  O   UNL A   1      41.182  36.629  36.858  1.00  0.00    -0.744 OA
ENDBRANCH  77  81
ENDBRANCH  50  74
BRANCH  62  85
ATOM     85  C   UNL A   1      44.410  28.134  35.081  1.00  0.00     0.023 A 
ATOM     86  C   UNL A   1      44.167  27.211  36.113  1.00  0.00     0.031 A 
ATOM     87  C   UNL A   1      45.732  28.580  34.894  1.00  0.00     0.131 A 
ATOM     88  C   UNL A   1      45.216  26.810  36.953  1.00  0.00     0.055 A 
ATOM     89  C   UNL A   1      46.783  28.124  35.687  1.00  0.00     0.041 A 
ATOM     90  F   UNL A   1      46.023  29.465  33.927  1.00  0.00    -0.206 F 
ATOM     91  C   UNL A   1      46.526  27.244  36.735  1.00  0.00     0.022 A 
BRANCH  88  92
ATOM     92  S   UNL A   1      44.828  25.793  38.404  1.00  0.00     0.124 S 
ATOM     93  O   UNL A   1      43.623  26.440  38.913  1.00  0.00    -0.237 OA
ATOM     94  O   UNL A   1      44.644  24.469  37.819  1.00  0.00    -0.237 OA
ATOM     95  O   UNL A   1      46.012  25.937  39.250  1.00  0.00    -0.744 OA
ENDBRANCH  88  92
ENDBRANCH  62  85
ENDBRANCH  36  37
ENDBRANCH  29  31
ENDBRANCH  28  29
ENDBRANCH  27  28
ENDBRANCH  26  27
ENDBRANCH  25  26
ENDBRANCH  24  25
ENDBRANCH   1  24
TORSDOF 26
ENDMDL
MODEL 3
REMARK VINA RESULT:      -9.1      2.312      2.710
REMARK SMILES CC(C)[C@@H](NC(=O)[C@H]1CCCO1)C(=O)OCCOCCOCCOCCOC(=O)c1ccc(-c2c3nc(c(-c4cc(S(=O)(=O)[O-])ccc4F)c4ccc([nH]4)c(-c4cc(S(=O)(=O)[O-])ccc4F)c4nc(c(-c5cc(S(=O)(=O)[O-])ccc5F)c5ccc2[nH]5)C=C4)C=C3)cc1
REMARK SMILES IDX 22 1 21 2 20 3 19 4 18 5 17 6 16 7 15 8 13 9 14 10 4 11 2 12
REMARK SMILES IDX 1 13 3 14 5 15 6 16 7 18 8 19 9 20 12 21 10 22 11 23 23 24
REMARK SMILES IDX 24 25 25 26 26 27 27 28 28 29 29 30 30 31 31 32 92 33 32 34
REMARK SMILES IDX 91 35 33 36 34 37 35 38 85 39 36 40 90 41 84 42 86 43 37 44
REMARK SMILES IDX 89 45 83 46 82 47 38 49 70 50 50 51 69 52 51 53 54 54 68 55
REMARK SMILES IDX 87 56 52 57 53 58 67 60 88 61 55 62 39 63 40 64 48 65 41 66
REMARK SMILES IDX 47 67 49 68 46 69 42 70 43 71 44 72 45 73 71 74 72 75 80 76
REMARK SMILES IDX 73 77 79 78 81 79 78 80 74 81 75 82 76 83 77 84 56 85 57 86
REMARK SMILES IDX 65 87 58 88 64 89 66 90 63 91 59 92 60 93 61 94 62 95
REMARK H PARENT 5 17 86 48 54 59
REMARK Flexibility Score: inf
ROOT
ATOM      1  C   UNL A   1      33.723  22.577  25.368  1.00  0.00     0.188 C 
ENDROOT
BRANCH   1   2
ATOM      2  O   UNL A   1      33.717  23.688  24.475  1.00  0.00    -0.377 OA
BRANCH   2   3
ATOM      3  C   UNL A   1      34.135  23.565  23.128  1.00  0.00     0.188 C 
BRANCH   3   4
ATOM      4  C   UNL A   1      33.068  23.958  22.108  1.00  0.00     0.188 C 
BRANCH   4   5
ATOM      5  O   UNL A   1      31.740  24.064  22.593  1.00  0.00    -0.376 OA
BRANCH   5   6
ATOM      6  C   UNL A   1      31.433  25.171  23.439  1.00  0.00     0.202 C 
BRANCH   6   7
ATOM      7  C   UNL A   1      31.171  26.547  22.805  1.00  0.00     0.261 C 
BRANCH   7   8
ATOM      8  O   UNL A   1      32.338  27.386  22.587  1.00  0.00    -0.462 OA
BRANCH   8   9
ATOM      9  C   UNL A   1      32.500  28.432  23.433  1.00  0.00     0.328 C 
ATOM     10  O   UNL A   1      33.319  29.334  23.235  1.00  0.00    -0.250 OA
BRANCH   9  11
ATOM     11  C   UNL A   1      31.756  28.360  24.790  1.00  0.00     0.194 C 
BRANCH  11  12
ATOM     12  C   UNL A   1      32.221  27.648  26.090  1.00  0.00     0.017 C 
ATOM     13  C   UNL A   1      33.761  27.777  26.224  1.00  0.00     0.010 C 
ATOM     14  C   UNL A   1      31.650  28.228  27.387  1.00  0.00     0.010 C 
ENDBRANCH  11  12
BRANCH  11  15
ATOM     15  N   UNL A   1      31.164  29.688  25.086  1.00  0.00    -0.340 N 
ATOM     16  C   UNL A   1      30.307  30.468  24.354  1.00  0.00     0.249 C 
ATOM     17  H   UNL A   1      31.433  30.073  25.952  1.00  0.00     0.164 HD
ATOM     18  O   UNL A   1      30.171  31.642  24.705  1.00  0.00    -0.272 OA
BRANCH  16  19
ATOM     19  C   UNL A   1      29.459  29.829  23.240  1.00  0.00     0.207 C 
ATOM     20  C   UNL A   1      27.950  30.007  23.374  1.00  0.00     0.044 C 
ATOM     21  O   UNL A   1      29.824  30.330  21.948  1.00  0.00    -0.368 OA
ATOM     22  C   UNL A   1      27.600  30.934  22.235  1.00  0.00     0.032 C 
ATOM     23  C   UNL A   1      28.626  30.554  21.200  1.00  0.00     0.161 C 
ENDBRANCH  16  19
ENDBRANCH  11  15
ENDBRANCH   9  11
ENDBRANCH   8   9
ENDBRANCH   7   8
ENDBRANCH   6   7
ENDBRANCH   5   6
ENDBRANCH   4   5
ENDBRANCH   3   4
ENDBRANCH   2   3
ENDBRANCH   1   2
BRANCH   1  24
ATOM     24  C   UNL A   1      35.016  22.287  26.124  1.00  0.00     0.188 C 
BRANCH  24  25
ATOM     25  O   UNL A   1      35.508  20.942  26.081  1.00  0.00    -0.376 OA
BRANCH  25  26
ATOM     26  C   UNL A   1      36.056  20.450  24.861  1.00  0.00     0.202 C 
BRANCH  26  27
ATOM     27  C   UNL A   1      37.552  20.148  24.890  1.00  0.00     0.261 C 
BRANCH  27  28
ATOM     28  O   UNL A   1      38.346  21.307  25.177  1.00  0.00    -0.460 OA
BRANCH  28  29
ATOM     29  C   UNL A   1      39.377  21.090  26.022  1.00  0.00     0.338 C 
ATOM     30  O   UNL A   1      40.007  20.048  26.170  1.00  0.00    -0.246 OA
BRANCH  29  31
ATOM     31  C   UNL A   1      39.738  22.346  26.693  1.00  0.00     0.060 A 
ATOM     32  C   UNL A   1      38.945  23.478  26.469  1.00  0.00     0.016 A 
ATOM     33  C   UNL A   1      40.913  22.428  27.443  1.00  0.00     0.016 A 
ATOM     34  C   UNL A   1      39.360  24.718  26.949  1.00  0.00     0.010 A 
ATOM     35  C   UNL A   1      41.331  23.670  27.914  1.00  0.00     0.010 A 
ATOM     36  C   UNL A   1      40.580  24.824  27.627  1.00  0.00    -0.014 A 
BRANCH  36  37
ATOM     37  C   UNL A   1      41.176  26.156  27.866  1.00  0.00     0.031 A 
ATOM     38  C   UNL A   1      42.590  26.394  27.418  1.00  0.00     0.074 A 
ATOM     39  C   UNL A   1      40.469  27.125  28.472  1.00  0.00     0.049 A 
ATOM     40  N   UNL A   1      43.363  27.429  27.614  1.00  0.00    -0.248 NA
ATOM     41  C   UNL A   1      43.222  25.306  26.654  1.00  0.00     0.031 C 
ATOM     42  C   UNL A   1      39.074  27.011  28.893  1.00  0.00     0.029 A 
ATOM     43  N   UNL A   1      40.837  28.390  28.849  1.00  0.00    -0.354 N 
ATOM     44  C   UNL A   1      44.576  27.115  27.010  1.00  0.00     0.074 A 
ATOM     45  C   UNL A   1      44.446  25.777  26.474  1.00  0.00     0.031 C 
ATOM     46  C   UNL A   1      38.708  28.158  29.491  1.00  0.00     0.029 A 
ATOM     47  C   UNL A   1      39.855  29.062  29.535  1.00  0.00     0.049 A 
ATOM     48  H   UNL A   1      41.718  28.778  28.648  1.00  0.00     0.167 HD
ATOM     49  C   UNL A   1      45.692  27.878  26.911  1.00  0.00     0.034 A 
ATOM     50  C   UNL A   1      39.896  30.257  30.159  1.00  0.00     0.034 A 
ATOM     51  C   UNL A   1      45.796  29.204  27.469  1.00  0.00     0.049 A 
ATOM     52  C   UNL A   1      41.179  31.053  30.117  1.00  0.00     0.074 A 
ATOM     53  C   UNL A   1      46.867  30.078  27.423  1.00  0.00     0.029 A 
ATOM     54  N   UNL A   1      44.794  29.842  28.190  1.00  0.00    -0.354 N 
ATOM     55  N   UNL A   1      42.323  30.750  29.543  1.00  0.00    -0.248 NA
ATOM     56  C   UNL A   1      41.175  32.352  30.801  1.00  0.00     0.031 C 
ATOM     57  C   UNL A   1      46.545  31.206  28.186  1.00  0.00     0.029 A 
ATOM     58  C   UNL A   1      45.236  31.082  28.627  1.00  0.00     0.049 A 
ATOM     59  H   UNL A   1      43.900  29.470  28.366  1.00  0.00     0.167 HD
ATOM     60  C   UNL A   1      43.160  31.841  29.767  1.00  0.00     0.074 A 
ATOM     61  C   UNL A   1      42.386  32.808  30.518  1.00  0.00     0.031 C 
ATOM     62  C   UNL A   1      44.449  32.030  29.383  1.00  0.00     0.034 A 
BRANCH  49  63
ATOM     63  C   UNL A   1      46.895  27.269  26.229  1.00  0.00     0.023 A 
ATOM     64  C   UNL A   1      47.854  26.526  26.939  1.00  0.00     0.031 A 
ATOM     65  C   UNL A   1      47.104  27.465  24.853  1.00  0.00     0.131 A 
ATOM     66  C   UNL A   1      49.011  26.072  26.287  1.00  0.00     0.055 A 
ATOM     67  C   UNL A   1      48.214  26.937  24.191  1.00  0.00     0.041 A 
ATOM     68  F   UNL A   1      46.237  28.189  24.127  1.00  0.00    -0.206 F 
ATOM     69  C   UNL A   1      49.185  26.249  24.913  1.00  0.00     0.022 A 
BRANCH  66  70
ATOM     70  S   UNL A   1      50.358  25.385  27.288  1.00  0.00     0.124 S 
ATOM     71  O   UNL A   1      50.781  26.553  28.057  1.00  0.00    -0.237 OA
ATOM     72  O   UNL A   1      49.686  24.333  28.043  1.00  0.00    -0.237 OA
ATOM     73  O   UNL A   1      51.324  24.920  26.294  1.00  0.00    -0.744 OA
ENDBRANCH  66  70
ENDBRANCH  49  63
BRANCH  50  74
ATOM     74  C   UNL A   1      38.708  30.757  30.907  1.00  0.00     0.023 A 
ATOM     75  C   UNL A   1      37.642  31.379  30.241  1.00  0.00     0.031 A 
ATOM     76  C   UNL A   1      38.642  30.660  32.309  1.00  0.00     0.131 A 
ATOM     77  C   UNL A   1      36.578  31.922  30.978  1.00  0.00     0.055 A 
ATOM     78  C   UNL A   1      37.553  31.150  33.034  1.00  0.00     0.041 A 
ATOM     79  F   UNL A   1      39.634  30.074  32.998  1.00  0.00    -0.206 F 
ATOM     80  C   UNL A   1      36.519  31.798  32.367  1.00  0.00     0.022 A 
BRANCH  77  81
ATOM     81  S   UNL A   1      35.311  32.875  30.097  1.00  0.00     0.124 S 
ATOM     82  O   UNL A   1      34.784  31.879  29.171  1.00  0.00    -0.237 OA
ATOM     83  O   UNL A   1      34.424  33.274  31.183  1.00  0.00    -0.237 OA
ATOM     84  O   UNL A   1      36.070  33.961  29.482  1.00  0.00    -0.744 OA
ENDBRANCH  77  81
ENDBRANCH  50  74
BRANCH  62  85
ATOM     85  C   UNL A   1      45.081  33.360  29.721  1.00  0.00     0.023 A 
ATOM     86  C   UNL A   1      45.806  33.560  30.908  1.00  0.00     0.031 A 
ATOM     87  C   UNL A   1      44.948  34.448  28.838  1.00  0.00     0.131 A 
ATOM     88  C   UNL A   1      46.319  34.832  31.208  1.00  0.00     0.055 A 
ATOM     89  C   UNL A   1      45.521  35.690  29.108  1.00  0.00     0.041 A 
ATOM     90  F   UNL A   1      44.263  34.318  27.691  1.00  0.00    -0.206 F 
ATOM     91  C   UNL A   1      46.199  35.892  30.307  1.00  0.00     0.022 A 
BRANCH  88  92
ATOM     92  S   UNL A   1      47.056  35.109  32.842  1.00  0.00     0.124 S 
ATOM     93  O   UNL A   1      48.465  34.823  32.591  1.00  0.00    -0.237 OA
ATOM     94  O   UNL A   1      46.725  36.506  33.103  1.00  0.00    -0.237 OA
ATOM     95  O   UNL A   1      46.369  34.141  33.696  1.00  0.00    -0.744 OA
ENDBRANCH  88  92
ENDBRANCH  62  85
ENDBRANCH  36  37
ENDBRANCH  29  31
ENDBRANCH  28  29
ENDBRANCH  27  28
ENDBRANCH  26  27
ENDBRANCH  25  26
ENDBRANCH  24  25
ENDBRANCH   1  24
TORSDOF 26
ENDMDL
