MODEL 1
REMARK VINA RESULT:      -8.0      0.000      0.000
REMARK SMILES CCN(c1ccnc(C(=O)OCCOCCOCCOCCOC(=O)c2ccc(-c3c4nc(c(-c5cc(S(=O)(=O)[O-])ccc5F)c5ccc([nH]5)c(-c5cc(S(=O)(=O)[O-])ccc5F)c5nc(c(-c6cc(S(=O)(=O)[O-])ccc6F)c6ccc3[nH]6)C=C5)C=C4)cc2)c1)S(=O)(=O)c1ccccc1
REMARK SMILES IDX 17 1 16 2 15 3 14 4 13 5 12 6 11 7 9 8 10 9 8 10 4 11 5 12
REMARK SMILES IDX 89 13 6 14 7 15 3 16 2 17 1 18 90 19 91 20 92 21 93 22 94 23
REMARK SMILES IDX 98 24 95 25 97 26 96 27 18 28 19 29 20 30 21 31 22 32 23 33
REMARK SMILES IDX 24 34 25 35 26 36 27 37 88 38 28 39 87 40 29 41 30 42 31 43
REMARK SMILES IDX 81 44 32 45 86 46 80 47 82 48 33 49 85 50 79 51 78 52 34 54
REMARK SMILES IDX 66 55 46 56 65 57 47 58 50 59 64 60 83 61 48 62 49 63 63 65
REMARK SMILES IDX 84 66 51 67 35 68 36 69 44 70 37 71 43 72 45 73 42 74 38 75
REMARK SMILES IDX 39 76 40 77 41 78 67 79 68 80 76 81 69 82 75 83 77 84 74 85
REMARK SMILES IDX 70 86 71 87 72 88 73 89 52 90 53 91 61 92 54 93 60 94 62 95
REMARK SMILES IDX 59 96 55 97 56 98 57 99 58 100
REMARK H PARENT 82 53 50 64
REMARK Flexibility Score: inf
ROOT
ATOM      1  O   UNL A   1      44.210  21.510  25.100  1.00  0.00    -0.377 OA
ENDROOT
BRANCH   1   2
ATOM      2  C   UNL A   1      43.595  21.604  26.372  1.00  0.00     0.188 C 
BRANCH   2   3
ATOM      3  C   UNL A   1      42.908  22.956  26.646  1.00  0.00     0.188 C 
BRANCH   3   4
ATOM      4  O   UNL A   1      43.732  23.943  27.232  1.00  0.00    -0.376 OA
BRANCH   4   5
ATOM      5  C   UNL A   1      44.164  23.902  28.582  1.00  0.00     0.202 C 
BRANCH   5   6
ATOM      6  C   UNL A   1      43.298  23.587  29.816  1.00  0.00     0.261 C 
BRANCH   6   7
ATOM      7  O   UNL A   1      43.972  23.269  31.024  1.00  0.00    -0.459 OA
BRANCH   7   8
ATOM      8  C   UNL A   1      44.379  24.299  31.796  1.00  0.00     0.357 C 
ATOM      9  O   UNL A   1      44.607  25.436  31.418  1.00  0.00    -0.244 OA
BRANCH   8  10
ATOM     10  C   UNL A   1      44.366  23.831  33.219  1.00  0.00     0.150 A 
ATOM     11  C   UNL A   1      45.266  22.470  34.962  1.00  0.00     0.056 A 
ATOM     12  C   UNL A   1      44.551  23.241  35.876  1.00  0.00     0.047 A 
ATOM     13  C   UNL A   1      45.094  22.713  33.604  1.00  0.00     0.063 A 
ATOM     14  C   UNL A   1      43.716  24.234  35.389  1.00  0.00     0.114 A 
ATOM     15  N   UNL A   1      43.642  24.577  34.090  1.00  0.00    -0.249 NA
BRANCH  11  16
ATOM     16  N   UNL A   1      46.293  21.520  35.347  1.00  0.00    -0.266 N 
BRANCH  16  17
ATOM     17  C   UNL A   1      45.843  20.388  36.228  1.00  0.00     0.132 C 
ATOM     18  C   UNL A   1      45.645  19.103  35.449  1.00  0.00     0.028 C 
ENDBRANCH  16  17
BRANCH  16  19
ATOM     19  S   UNL A   1      47.801  22.224  35.916  1.00  0.00     0.264 S 
ATOM     20  O   UNL A   1      47.995  23.465  35.189  1.00  0.00    -0.201 OA
ATOM     21  O   UNL A   1      47.755  22.225  37.363  1.00  0.00    -0.201 OA
BRANCH  19  22
ATOM     22  C   UNL A   1      49.119  21.125  35.417  1.00  0.00     0.088 A 
ATOM     23  C   UNL A   1      49.622  21.147  34.113  1.00  0.00     0.022 A 
ATOM     24  C   UNL A   1      49.663  20.255  36.375  1.00  0.00     0.022 A 
ATOM     25  C   UNL A   1      50.730  20.352  33.796  1.00  0.00     0.001 A 
ATOM     26  C   UNL A   1      50.781  19.486  36.056  1.00  0.00     0.001 A 
ATOM     27  C   UNL A   1      51.319  19.542  34.770  1.00  0.00     0.000 A 
ENDBRANCH  19  22
ENDBRANCH  16  19
ENDBRANCH  11  16
ENDBRANCH   8  10
ENDBRANCH   7   8
ENDBRANCH   6   7
ENDBRANCH   5   6
ENDBRANCH   4   5
ENDBRANCH   3   4
ENDBRANCH   2   3
ENDBRANCH   1   2
BRANCH   1  28
ATOM     28  C   UNL A   1      45.618  21.732  25.010  1.00  0.00     0.188 C 
BRANCH  28  29
ATOM     29  C   UNL A   1      46.231  23.154  25.073  1.00  0.00     0.188 C 
BRANCH  29  30
ATOM     30  O   UNL A   1      47.018  23.416  26.226  1.00  0.00    -0.376 OA
BRANCH  30  31
ATOM     31  C   UNL A   1      47.199  24.759  26.635  1.00  0.00     0.202 C 
BRANCH  31  32
ATOM     32  C   UNL A   1      47.318  25.814  25.526  1.00  0.00     0.261 C 
BRANCH  32  33
ATOM     33  O   UNL A   1      46.086  26.385  25.064  1.00  0.00    -0.460 OA
BRANCH  33  34
ATOM     34  C   UNL A   1      46.015  27.737  25.018  1.00  0.00     0.338 C 
ATOM     35  O   UNL A   1      46.465  28.461  24.159  1.00  0.00    -0.246 OA
BRANCH  34  36
ATOM     36  C   UNL A   1      45.115  28.168  26.113  1.00  0.00     0.060 A 
ATOM     37  C   UNL A   1      45.089  29.519  26.481  1.00  0.00     0.016 A 
ATOM     38  C   UNL A   1      44.295  27.242  26.761  1.00  0.00     0.016 A 
ATOM     39  C   UNL A   1      44.260  29.944  27.521  1.00  0.00     0.010 A 
ATOM     40  C   UNL A   1      43.482  27.666  27.817  1.00  0.00     0.010 A 
ATOM     41  C   UNL A   1      43.482  29.013  28.221  1.00  0.00    -0.014 A 
BRANCH  41  42
ATOM     42  C   UNL A   1      42.807  29.409  29.483  1.00  0.00     0.031 A 
ATOM     43  C   UNL A   1      41.336  29.731  29.435  1.00  0.00     0.074 A 
ATOM     44  C   UNL A   1      43.480  29.477  30.647  1.00  0.00     0.049 A 
ATOM     45  N   UNL A   1      40.552  30.175  30.381  1.00  0.00    -0.248 NA
ATOM     46  C   UNL A   1      40.664  29.526  28.141  1.00  0.00     0.031 C 
ATOM     47  C   UNL A   1      44.893  29.145  30.825  1.00  0.00     0.029 A 
ATOM     48  N   UNL A   1      43.067  29.865  31.898  1.00  0.00    -0.354 N 
ATOM     49  C   UNL A   1      39.299  30.323  29.795  1.00  0.00     0.074 A 
ATOM     50  C   UNL A   1      39.433  29.938  28.407  1.00  0.00     0.031 C 
ATOM     51  C   UNL A   1      45.234  29.365  32.107  1.00  0.00     0.029 A 
ATOM     52  C   UNL A   1      44.080  29.899  32.830  1.00  0.00     0.049 A 
ATOM     53  H   UNL A   1      42.134  30.098  32.109  1.00  0.00     0.167 HD
ATOM     54  C   UNL A   1      38.144  30.743  30.366  1.00  0.00     0.034 A 
ATOM     55  C   UNL A   1      44.083  30.345  34.104  1.00  0.00     0.034 A 
ATOM     56  C   UNL A   1      38.028  31.122  31.752  1.00  0.00     0.049 A 
ATOM     57  C   UNL A   1      42.797  30.883  34.695  1.00  0.00     0.074 A 
ATOM     58  C   UNL A   1      36.895  31.520  32.439  1.00  0.00     0.029 A 
ATOM     59  N   UNL A   1      39.080  31.174  32.656  1.00  0.00    -0.354 N 
ATOM     60  N   UNL A   1      41.611  30.987  34.138  1.00  0.00    -0.248 NA
ATOM     61  C   UNL A   1      42.848  31.358  36.084  1.00  0.00     0.031 C 
ATOM     62  C   UNL A   1      37.278  31.902  33.728  1.00  0.00     0.029 A 
ATOM     63  C   UNL A   1      38.631  31.644  33.881  1.00  0.00     0.049 A 
ATOM     64  H   UNL A   1      40.009  30.914  32.458  1.00  0.00     0.167 HD
ATOM     65  C   UNL A   1      40.771  31.506  35.125  1.00  0.00     0.074 A 
ATOM     66  C   UNL A   1      41.582  31.674  36.311  1.00  0.00     0.031 C 
ATOM     67  C   UNL A   1      39.451  31.813  35.057  1.00  0.00     0.034 A 
BRANCH  54  68
ATOM     68  C   UNL A   1      36.929  30.880  29.482  1.00  0.00     0.023 A 
ATOM     69  C   UNL A   1      36.347  32.126  29.195  1.00  0.00     0.031 A 
ATOM     70  C   UNL A   1      36.356  29.734  28.901  1.00  0.00     0.131 A 
ATOM     71  C   UNL A   1      35.201  32.191  28.386  1.00  0.00     0.055 A 
ATOM     72  C   UNL A   1      35.263  29.812  28.039  1.00  0.00     0.041 A 
ATOM     73  F   UNL A   1      36.854  28.515  29.164  1.00  0.00    -0.206 F 
ATOM     74  C   UNL A   1      34.673  31.046  27.783  1.00  0.00     0.022 A 
BRANCH  71  75
ATOM     75  S   UNL A   1      34.340  33.779  28.221  1.00  0.00     0.124 S 
ATOM     76  O   UNL A   1      35.208  34.491  27.287  1.00  0.00    -0.237 OA
ATOM     77  O   UNL A   1      33.036  33.379  27.704  1.00  0.00    -0.237 OA
ATOM     78  O   UNL A   1      34.335  34.309  29.584  1.00  0.00    -0.744 OA
ENDBRANCH  71  75
ENDBRANCH  54  68
BRANCH  55  79
ATOM     79  C   UNL A   1      45.349  30.380  34.900  1.00  0.00     0.023 A 
ATOM     80  C   UNL A   1      46.212  31.486  34.854  1.00  0.00     0.031 A 
ATOM     81  C   UNL A   1      45.760  29.260  35.646  1.00  0.00     0.131 A 
ATOM     82  C   UNL A   1      47.466  31.424  35.484  1.00  0.00     0.055 A 
ATOM     83  C   UNL A   1      46.977  29.230  36.330  1.00  0.00     0.041 A 
ATOM     84  F   UNL A   1      44.981  28.168  35.720  1.00  0.00    -0.206 F 
ATOM     85  C   UNL A   1      47.847  30.310  36.235  1.00  0.00     0.022 A 
BRANCH  82  86
ATOM     86  S   UNL A   1      48.648  32.770  35.199  1.00  0.00     0.124 S 
ATOM     87  O   UNL A   1      48.584  33.493  36.464  1.00  0.00    -0.237 OA
ATOM     88  O   UNL A   1      49.884  32.038  34.942  1.00  0.00    -0.237 OA
ATOM     89  O   UNL A   1      48.091  33.475  34.047  1.00  0.00    -0.744 OA
ENDBRANCH  82  86
ENDBRANCH  55  79
BRANCH  67  90
ATOM     90  C   UNL A   1      38.786  32.310  36.321  1.00  0.00     0.023 A 
ATOM     91  C   UNL A   1      38.154  31.436  37.222  1.00  0.00     0.031 A 
ATOM     92  C   UNL A   1      38.790  33.684  36.627  1.00  0.00     0.131 A 
ATOM     93  C   UNL A   1      37.503  31.951  38.354  1.00  0.00     0.055 A 
ATOM     94  C   UNL A   1      38.203  34.181  37.790  1.00  0.00     0.041 A 
ATOM     95  F   UNL A   1      39.375  34.566  35.801  1.00  0.00    -0.206 F 
ATOM     96  C   UNL A   1      37.542  33.315  38.655  1.00  0.00     0.022 A 
BRANCH  93  97
ATOM     97  S   UNL A   1      36.515  30.826  39.379  1.00  0.00     0.124 S 
ATOM     98  O   UNL A   1      36.389  29.659  38.512  1.00  0.00    -0.237 OA
ATOM     99  O   UNL A   1      37.358  30.657  40.559  1.00  0.00    -0.237 OA
ATOM    100  O   UNL A   1      35.276  31.567  39.605  1.00  0.00    -0.744 OA
ENDBRANCH  93  97
ENDBRANCH  67  90
ENDBRANCH  41  42
ENDBRANCH  34  36
ENDBRANCH  33  34
ENDBRANCH  32  33
ENDBRANCH  31  32
ENDBRANCH  30  31
ENDBRANCH  29  30
ENDBRANCH  28  29
ENDBRANCH   1  28
TORSDOF 27
ENDMDL
MODEL 2
REMARK VINA RESULT:      -7.8      4.535      9.890
REMARK SMILES CCN(c1ccnc(C(=O)OCCOCCOCCOCCOC(=O)c2ccc(-c3c4nc(c(-c5cc(S(=O)(=O)[O-])ccc5F)c5ccc([nH]5)c(-c5cc(S(=O)(=O)[O-])ccc5F)c5nc(c(-c6cc(S(=O)(=O)[O-])ccc6F)c6ccc3[nH]6)C=C5)C=C4)cc2)c1)S(=O)(=O)c1ccccc1
REMARK SMILES IDX 17 1 16 2 15 3 14 4 13 5 12 6 11 7 9 8 10 9 8 10 4 11 5 12
REMARK SMILES IDX 89 13 6 14 7 15 3 16 2 17 1 18 90 19 91 20 92 21 93 22 94 23
REMARK SMILES IDX 98 24 95 25 97 26 96 27 18 28 19 29 20 30 21 31 22 32 23 33
REMARK SMILES IDX 24 34 25 35 26 36 27 37 88 38 28 39 87 40 29 41 30 42 31 43
REMARK SMILES IDX 81 44 32 45 86 46 80 47 82 48 33 49 85 50 79 51 78 52 34 54
REMARK SMILES IDX 66 55 46 56 65 57 47 58 50 59 64 60 83 61 48 62 49 63 63 65
REMARK SMILES IDX 84 66 51 67 35 68 36 69 44 70 37 71 43 72 45 73 42 74 38 75
REMARK SMILES IDX 39 76 40 77 41 78 67 79 68 80 76 81 69 82 75 83 77 84 74 85
REMARK SMILES IDX 70 86 71 87 72 88 73 89 52 90 53 91 61 92 54 93 60 94 62 95
REMARK SMILES IDX 59 96 55 97 56 98 57 99 58 100
REMARK H PARENT 82 53 50 64
REMARK Flexibility Score: inf
ROOT
ATOM      1  O   UNL A   1      44.887  21.804  35.879  1.00  0.00    -0.377 OA
ENDROOT
BRANCH   1   2
ATOM      2  C   UNL A   1      45.824  20.891  35.338  1.00  0.00     0.188 C 
BRANCH   2   3
ATOM      3  C   UNL A   1      47.216  20.947  35.997  1.00  0.00     0.188 C 
BRANCH   3   4
ATOM      4  O   UNL A   1      47.538  19.844  36.820  1.00  0.00    -0.376 OA
BRANCH   4   5
ATOM      5  C   UNL A   1      47.148  19.741  38.180  1.00  0.00     0.202 C 
BRANCH   5   6
ATOM      6  C   UNL A   1      46.549  18.505  38.875  1.00  0.00     0.261 C 
BRANCH   6   7
ATOM      7  O   UNL A   1      45.513  18.723  39.820  1.00  0.00    -0.459 OA
BRANCH   7   8
ATOM      8  C   UNL A   1      45.785  19.543  40.858  1.00  0.00     0.357 C 
ATOM      9  O   UNL A   1      45.640  20.754  40.877  1.00  0.00    -0.244 OA
BRANCH   8  10
ATOM     10  C   UNL A   1      46.162  18.684  42.026  1.00  0.00     0.150 A 
ATOM     11  C   UNL A   1      45.540  17.258  43.837  1.00  0.00     0.056 A 
ATOM     12  C   UNL A   1      46.873  16.864  43.929  1.00  0.00     0.047 A 
ATOM     13  C   UNL A   1      45.200  18.255  42.931  1.00  0.00     0.063 A 
ATOM     14  C   UNL A   1      47.799  17.470  43.094  1.00  0.00     0.114 A 
ATOM     15  N   UNL A   1      47.469  18.334  42.116  1.00  0.00    -0.249 NA
BRANCH  11  16
ATOM     16  N   UNL A   1      44.458  16.587  44.532  1.00  0.00    -0.266 N 
BRANCH  16  17
ATOM     17  C   UNL A   1      44.211  17.029  45.948  1.00  0.00     0.132 C 
ATOM     18  C   UNL A   1      45.466  17.571  46.603  1.00  0.00     0.028 C 
ENDBRANCH  16  17
BRANCH  16  19
ATOM     19  S   UNL A   1      44.436  14.834  44.387  1.00  0.00     0.264 S 
ATOM     20  O   UNL A   1      45.752  14.426  43.933  1.00  0.00    -0.201 OA
ATOM     21  O   UNL A   1      43.894  14.308  45.622  1.00  0.00    -0.201 OA
BRANCH  19  22
ATOM     22  C   UNL A   1      43.291  14.425  43.078  1.00  0.00     0.088 A 
ATOM     23  C   UNL A   1      42.590  13.215  43.083  1.00  0.00     0.022 A 
ATOM     24  C   UNL A   1      43.085  15.361  42.051  1.00  0.00     0.022 A 
ATOM     25  C   UNL A   1      41.620  12.984  42.101  1.00  0.00     0.001 A 
ATOM     26  C   UNL A   1      42.099  15.132  41.093  1.00  0.00     0.001 A 
ATOM     27  C   UNL A   1      41.362  13.949  41.124  1.00  0.00     0.000 A 
ENDBRANCH  19  22
ENDBRANCH  16  19
ENDBRANCH  11  16
ENDBRANCH   8  10
ENDBRANCH   7   8
ENDBRANCH   6   7
ENDBRANCH   5   6
ENDBRANCH   4   5
ENDBRANCH   3   4
ENDBRANCH   2   3
ENDBRANCH   1   2
BRANCH   1  28
ATOM     28  C   UNL A   1      45.308  23.150  36.110  1.00  0.00     0.188 C 
BRANCH  28  29
ATOM     29  C   UNL A   1      45.528  23.707  37.539  1.00  0.00     0.188 C 
BRANCH  29  30
ATOM     30  O   UNL A   1      46.883  23.746  37.964  1.00  0.00    -0.376 OA
BRANCH  30  31
ATOM     31  C   UNL A   1      47.360  24.912  38.610  1.00  0.00     0.202 C 
BRANCH  31  32
ATOM     32  C   UNL A   1      47.667  26.124  37.719  1.00  0.00     0.261 C 
BRANCH  32  33
ATOM     33  O   UNL A   1      47.538  25.917  36.306  1.00  0.00    -0.460 OA
BRANCH  33  34
ATOM     34  C   UNL A   1      47.895  26.947  35.500  1.00  0.00     0.338 C 
ATOM     35  O   UNL A   1      49.015  27.246  35.153  1.00  0.00    -0.246 OA
BRANCH  34  36
ATOM     36  C   UNL A   1      46.647  27.532  34.956  1.00  0.00     0.060 A 
ATOM     37  C   UNL A   1      45.468  26.776  34.996  1.00  0.00     0.016 A 
ATOM     38  C   UNL A   1      46.644  28.821  34.421  1.00  0.00     0.016 A 
ATOM     39  C   UNL A   1      44.284  27.302  34.475  1.00  0.00     0.010 A 
ATOM     40  C   UNL A   1      45.462  29.337  33.880  1.00  0.00     0.010 A 
ATOM     41  C   UNL A   1      44.284  28.570  33.878  1.00  0.00    -0.014 A 
BRANCH  41  42
ATOM     42  C   UNL A   1      43.105  29.021  33.095  1.00  0.00     0.031 A 
ATOM     43  C   UNL A   1      42.053  29.838  33.797  1.00  0.00     0.074 A 
ATOM     44  C   UNL A   1      42.973  28.719  31.790  1.00  0.00     0.049 A 
ATOM     45  N   UNL A   1      40.905  30.274  33.351  1.00  0.00    -0.248 NA
ATOM     46  C   UNL A   1      42.336  30.207  35.194  1.00  0.00     0.031 C 
ATOM     47  C   UNL A   1      43.948  27.976  30.993  1.00  0.00     0.029 A 
ATOM     48  N   UNL A   1      41.955  28.989  30.908  1.00  0.00    -0.354 N 
ATOM     49  C   UNL A   1      40.317  30.951  34.414  1.00  0.00     0.074 A 
ATOM     50  C   UNL A   1      41.229  30.851  35.534  1.00  0.00     0.031 C 
ATOM     51  C   UNL A   1      43.470  27.830  29.745  1.00  0.00     0.029 A 
ATOM     52  C   UNL A   1      42.136  28.425  29.664  1.00  0.00     0.049 A 
ATOM     53  H   UNL A   1      41.169  29.533  31.143  1.00  0.00     0.167 HD
ATOM     54  C   UNL A   1      39.126  31.595  34.451  1.00  0.00     0.034 A 
ATOM     55  C   UNL A   1      41.305  28.363  28.602  1.00  0.00     0.034 A 
ATOM     56  C   UNL A   1      38.230  31.685  33.325  1.00  0.00     0.049 A 
ATOM     57  C   UNL A   1      39.946  29.024  28.696  1.00  0.00     0.074 A 
ATOM     58  C   UNL A   1      37.020  32.351  33.245  1.00  0.00     0.029 A 
ATOM     59  N   UNL A   1      38.431  31.076  32.094  1.00  0.00    -0.354 N 
ATOM     60  N   UNL A   1      39.417  29.690  29.698  1.00  0.00    -0.248 NA
ATOM     61  C   UNL A   1      39.077  28.931  27.515  1.00  0.00     0.031 C 
ATOM     62  C   UNL A   1      36.446  32.066  32.002  1.00  0.00     0.029 A 
ATOM     63  C   UNL A   1      37.345  31.310  31.266  1.00  0.00     0.049 A 
ATOM     64  H   UNL A   1      39.229  30.555  31.845  1.00  0.00     0.167 HD
ATOM     65  C   UNL A   1      38.168  30.122  29.251  1.00  0.00     0.074 A 
ATOM     66  C   UNL A   1      38.034  29.659  27.887  1.00  0.00     0.031 C 
ATOM     67  C   UNL A   1      37.219  30.838  29.907  1.00  0.00     0.034 A 
BRANCH  54  68
ATOM     68  C   UNL A   1      38.688  32.195  35.764  1.00  0.00     0.023 A 
ATOM     69  C   UNL A   1      38.104  31.425  36.784  1.00  0.00     0.031 A 
ATOM     70  C   UNL A   1      38.881  33.569  36.002  1.00  0.00     0.131 A 
ATOM     71  C   UNL A   1      37.693  32.043  37.976  1.00  0.00     0.055 A 
ATOM     72  C   UNL A   1      38.538  34.162  37.216  1.00  0.00     0.041 A 
ATOM     73  F   UNL A   1      39.408  34.358  35.052  1.00  0.00    -0.206 F 
ATOM     74  C   UNL A   1      37.933  33.400  38.210  1.00  0.00     0.022 A 
BRANCH  71  75
ATOM     75  S   UNL A   1      36.738  31.073  39.175  1.00  0.00     0.124 S 
ATOM     76  O   UNL A   1      35.444  31.750  39.139  1.00  0.00    -0.237 OA
ATOM     77  O   UNL A   1      36.775  29.734  38.599  1.00  0.00    -0.237 OA
ATOM     78  O   UNL A   1      37.484  31.237  40.421  1.00  0.00    -0.744 OA
ENDBRANCH  71  75
ENDBRANCH  54  68
BRANCH  55  79
ATOM     79  C   UNL A   1      41.685  27.593  27.378  1.00  0.00     0.023 A 
ATOM     80  C   UNL A   1      41.620  26.191  27.345  1.00  0.00     0.031 A 
ATOM     81  C   UNL A   1      42.211  28.250  26.250  1.00  0.00     0.131 A 
ATOM     82  C   UNL A   1      42.133  25.491  26.241  1.00  0.00     0.055 A 
ATOM     83  C   UNL A   1      42.655  27.552  25.125  1.00  0.00     0.041 A 
ATOM     84  F   UNL A   1      42.307  29.589  26.225  1.00  0.00    -0.206 F 
ATOM     85  C   UNL A   1      42.634  26.162  25.124  1.00  0.00     0.022 A 
BRANCH  82  86
ATOM     86  S   UNL A   1      42.255  23.683  26.340  1.00  0.00     0.124 S 
ATOM     87  O   UNL A   1      40.869  23.281  26.130  1.00  0.00    -0.237 OA
ATOM     88  O   UNL A   1      43.182  23.383  25.254  1.00  0.00    -0.237 OA
ATOM     89  O   UNL A   1      42.777  23.451  27.685  1.00  0.00    -0.744 OA
ENDBRANCH  82  86
ENDBRANCH  55  79
BRANCH  67  90
ATOM     90  C   UNL A   1      35.974  31.214  29.136  1.00  0.00     0.023 A 
ATOM     91  C   UNL A   1      35.477  32.529  29.121  1.00  0.00     0.031 A 
ATOM     92  C   UNL A   1      35.277  30.237  28.402  1.00  0.00     0.131 A 
ATOM     93  C   UNL A   1      34.287  32.818  28.436  1.00  0.00     0.055 A 
ATOM     94  C   UNL A   1      34.134  30.546  27.664  1.00  0.00     0.041 A 
ATOM     95  F   UNL A   1      35.702  28.964  28.382  1.00  0.00    -0.206 F 
ATOM     96  C   UNL A   1      33.624  31.840  27.690  1.00  0.00     0.022 A 
BRANCH  93  97
ATOM     97  S   UNL A   1      33.557  34.469  28.614  1.00  0.00     0.124 S 
ATOM     98  O   UNL A   1      32.313  34.333  27.863  1.00  0.00    -0.237 OA
ATOM     99  O   UNL A   1      33.417  34.594  30.062  1.00  0.00    -0.237 OA
ATOM    100  O   UNL A   1      34.552  35.352  28.011  1.00  0.00    -0.744 OA
ENDBRANCH  93  97
ENDBRANCH  67  90
ENDBRANCH  41  42
ENDBRANCH  34  36
ENDBRANCH  33  34
ENDBRANCH  32  33
ENDBRANCH  31  32
ENDBRANCH  30  31
ENDBRANCH  29  30
ENDBRANCH  28  29
ENDBRANCH   1  28
TORSDOF 27
ENDMDL
MODEL 3
REMARK VINA RESULT:      -7.4      4.785      9.527
REMARK SMILES CCN(c1ccnc(C(=O)OCCOCCOCCOCCOC(=O)c2ccc(-c3c4nc(c(-c5cc(S(=O)(=O)[O-])ccc5F)c5ccc([nH]5)c(-c5cc(S(=O)(=O)[O-])ccc5F)c5nc(c(-c6cc(S(=O)(=O)[O-])ccc6F)c6ccc3[nH]6)C=C5)C=C4)cc2)c1)S(=O)(=O)c1ccccc1
REMARK SMILES IDX 17 1 16 2 15 3 14 4 13 5 12 6 11 7 9 8 10 9 8 10 4 11 5 12
REMARK SMILES IDX 89 13 6 14 7 15 3 16 2 17 1 18 90 19 91 20 92 21 93 22 94 23
REMARK SMILES IDX 98 24 95 25 97 26 96 27 18 28 19 29 20 30 21 31 22 32 23 33
REMARK SMILES IDX 24 34 25 35 26 36 27 37 88 38 28 39 87 40 29 41 30 42 31 43
REMARK SMILES IDX 81 44 32 45 86 46 80 47 82 48 33 49 85 50 79 51 78 52 34 54
REMARK SMILES IDX 66 55 46 56 65 57 47 58 50 59 64 60 83 61 48 62 49 63 63 65
REMARK SMILES IDX 84 66 51 67 35 68 36 69 44 70 37 71 43 72 45 73 42 74 38 75
REMARK SMILES IDX 39 76 40 77 41 78 67 79 68 80 76 81 69 82 75 83 77 84 74 85
REMARK SMILES IDX 70 86 71 87 72 88 73 89 52 90 53 91 61 92 54 93 60 94 62 95
REMARK SMILES IDX 59 96 55 97 56 98 57 99 58 100
REMARK H PARENT 82 53 50 64
REMARK Flexibility Score: inf
ROOT
ATOM      1  O   UNL A   1      44.344  21.020  24.471  1.00  0.00    -0.377 OA
ENDROOT
BRANCH   1   2
ATOM      2  C   UNL A   1      43.472  21.310  25.548  1.00  0.00     0.188 C 
BRANCH   2   3
ATOM      3  C   UNL A   1      42.686  22.627  25.391  1.00  0.00     0.188 C 
BRANCH   3   4
ATOM      4  O   UNL A   1      42.456  23.338  26.592  1.00  0.00    -0.376 OA
BRANCH   4   5
ATOM      5  C   UNL A   1      41.236  23.284  27.312  1.00  0.00     0.202 C 
BRANCH   5   6
ATOM      6  C   UNL A   1      40.099  22.263  27.122  1.00  0.00     0.261 C 
BRANCH   6   7
ATOM      7  O   UNL A   1      38.767  22.748  27.187  1.00  0.00    -0.459 OA
BRANCH   7   8
ATOM      8  C   UNL A   1      38.468  23.838  26.449  1.00  0.00     0.357 C 
ATOM      9  O   UNL A   1      39.085  24.890  26.434  1.00  0.00    -0.244 OA
BRANCH   8  10
ATOM     10  C   UNL A   1      37.326  23.476  25.549  1.00  0.00     0.150 A 
ATOM     11  C   UNL A   1      35.203  23.988  24.585  1.00  0.00     0.056 A 
ATOM     12  C   UNL A   1      35.423  22.970  23.661  1.00  0.00     0.047 A 
ATOM     13  C   UNL A   1      36.130  24.179  25.603  1.00  0.00     0.063 A 
ATOM     14  C   UNL A   1      36.573  22.205  23.785  1.00  0.00     0.114 A 
ATOM     15  N   UNL A   1      37.548  22.462  24.676  1.00  0.00    -0.249 NA
BRANCH  11  16
ATOM     16  N   UNL A   1      34.132  24.959  24.465  1.00  0.00    -0.266 N 
BRANCH  16  17
ATOM     17  C   UNL A   1      33.460  25.359  25.750  1.00  0.00     0.132 C 
ATOM     18  C   UNL A   1      33.661  26.828  26.066  1.00  0.00     0.028 C 
ENDBRANCH  16  17
BRANCH  16  19
ATOM     19  S   UNL A   1      32.960  24.641  23.193  1.00  0.00     0.264 S 
ATOM     20  O   UNL A   1      33.636  24.852  21.926  1.00  0.00    -0.201 OA
ATOM     21  O   UNL A   1      32.343  23.365  23.487  1.00  0.00    -0.201 OA
BRANCH  19  22
ATOM     22  C   UNL A   1      31.693  25.895  23.314  1.00  0.00     0.088 A 
ATOM     23  C   UNL A   1      31.902  27.184  22.814  1.00  0.00     0.022 A 
ATOM     24  C   UNL A   1      30.464  25.550  23.898  1.00  0.00     0.022 A 
ATOM     25  C   UNL A   1      30.845  28.101  22.827  1.00  0.00     0.001 A 
ATOM     26  C   UNL A   1      29.409  26.462  23.883  1.00  0.00     0.001 A 
ATOM     27  C   UNL A   1      29.598  27.732  23.339  1.00  0.00     0.000 A 
ENDBRANCH  19  22
ENDBRANCH  16  19
ENDBRANCH  11  16
ENDBRANCH   8  10
ENDBRANCH   7   8
ENDBRANCH   6   7
ENDBRANCH   5   6
ENDBRANCH   4   5
ENDBRANCH   3   4
ENDBRANCH   2   3
ENDBRANCH   1   2
BRANCH   1  28
ATOM     28  C   UNL A   1      45.728  21.345  24.615  1.00  0.00     0.188 C 
BRANCH  28  29
ATOM     29  C   UNL A   1      46.200  22.757  25.045  1.00  0.00     0.188 C 
BRANCH  29  30
ATOM     30  O   UNL A   1      46.375  22.929  26.444  1.00  0.00    -0.376 OA
BRANCH  30  31
ATOM     31  C   UNL A   1      46.738  24.207  26.932  1.00  0.00     0.202 C 
BRANCH  31  32
ATOM     32  C   UNL A   1      47.691  25.039  26.062  1.00  0.00     0.261 C 
BRANCH  32  33
ATOM     33  O   UNL A   1      47.073  25.881  25.079  1.00  0.00    -0.460 OA
BRANCH  33  34
ATOM     34  C   UNL A   1      47.443  27.185  25.068  1.00  0.00     0.338 C 
ATOM     35  O   UNL A   1      48.174  27.727  24.269  1.00  0.00    -0.246 OA
BRANCH  34  36
ATOM     36  C   UNL A   1      46.638  27.880  26.099  1.00  0.00     0.060 A 
ATOM     37  C   UNL A   1      47.297  28.593  27.110  1.00  0.00     0.016 A 
ATOM     38  C   UNL A   1      45.244  27.835  26.058  1.00  0.00     0.016 A 
ATOM     39  C   UNL A   1      46.558  29.242  28.101  1.00  0.00     0.010 A 
ATOM     40  C   UNL A   1      44.507  28.467  27.064  1.00  0.00     0.010 A 
ATOM     41  C   UNL A   1      45.160  29.149  28.106  1.00  0.00    -0.014 A 
BRANCH  41  42
ATOM     42  C   UNL A   1      44.390  29.609  29.290  1.00  0.00     0.031 A 
ATOM     43  C   UNL A   1      43.921  31.039  29.324  1.00  0.00     0.074 A 
ATOM     44  C   UNL A   1      44.108  28.776  30.309  1.00  0.00     0.049 A 
ATOM     45  N   UNL A   1      43.309  31.690  30.278  1.00  0.00    -0.248 NA
ATOM     46  C   UNL A   1      44.186  31.843  28.120  1.00  0.00     0.031 C 
ATOM     47  C   UNL A   1      44.468  27.360  30.367  1.00  0.00     0.029 A 
ATOM     48  N   UNL A   1      43.465  29.006  31.501  1.00  0.00    -0.354 N 
ATOM     49  C   UNL A   1      43.131  32.984  29.799  1.00  0.00     0.074 A 
ATOM     50  C   UNL A   1      43.718  33.030  28.477  1.00  0.00     0.031 C 
ATOM     51  C   UNL A   1      44.060  26.854  31.543  1.00  0.00     0.029 A 
ATOM     52  C   UNL A   1      43.454  27.918  32.344  1.00  0.00     0.049 A 
ATOM     53  H   UNL A   1      43.051  29.870  31.731  1.00  0.00     0.167 HD
ATOM     54  C   UNL A   1      42.534  34.036  30.410  1.00  0.00     0.034 A 
ATOM     55  C   UNL A   1      43.039  27.805  33.624  1.00  0.00     0.034 A 
ATOM     56  C   UNL A   1      41.953  33.972  31.728  1.00  0.00     0.049 A 
ATOM     57  C   UNL A   1      42.446  29.018  34.310  1.00  0.00     0.074 A 
ATOM     58  C   UNL A   1      41.285  34.967  32.419  1.00  0.00     0.029 A 
ATOM     59  N   UNL A   1      41.988  32.863  32.562  1.00  0.00    -0.354 N 
ATOM     60  N   UNL A   1      42.254  30.227  33.833  1.00  0.00    -0.248 NA
ATOM     61  C   UNL A   1      42.008  28.848  35.702  1.00  0.00     0.031 C 
ATOM     62  C   UNL A   1      41.002  34.493  33.703  1.00  0.00     0.029 A 
ATOM     63  C   UNL A   1      41.398  33.167  33.780  1.00  0.00     0.049 A 
ATOM     64  H   UNL A   1      42.374  31.989  32.325  1.00  0.00     0.167 HD
ATOM     65  C   UNL A   1      41.642  30.948  34.859  1.00  0.00     0.074 A 
ATOM     66  C   UNL A   1      41.480  30.033  35.969  1.00  0.00     0.031 C 
ATOM     67  C   UNL A   1      41.247  32.247  34.882  1.00  0.00     0.034 A 
BRANCH  54  68
ATOM     68  C   UNL A   1      42.534  35.362  29.691  1.00  0.00     0.023 A 
ATOM     69  C   UNL A   1      43.518  36.340  29.921  1.00  0.00     0.031 A 
ATOM     70  C   UNL A   1      41.535  35.642  28.741  1.00  0.00     0.131 A 
ATOM     71  C   UNL A   1      43.454  37.567  29.241  1.00  0.00     0.055 A 
ATOM     72  C   UNL A   1      41.519  36.833  28.016  1.00  0.00     0.041 A 
ATOM     73  F   UNL A   1      40.554  34.757  28.503  1.00  0.00    -0.206 F 
ATOM     74  C   UNL A   1      42.478  37.808  28.270  1.00  0.00     0.022 A 
BRANCH  71  75
ATOM     75  S   UNL A   1      44.597  38.890  29.724  1.00  0.00     0.124 S 
ATOM     76  O   UNL A   1      45.656  38.137  30.392  1.00  0.00    -0.237 OA
ATOM     77  O   UNL A   1      44.948  39.488  28.441  1.00  0.00    -0.237 OA
ATOM     78  O   UNL A   1      43.791  39.734  30.606  1.00  0.00    -0.744 OA
ENDBRANCH  71  75
ENDBRANCH  54  68
BRANCH  55  79
ATOM     79  C   UNL A   1      43.227  26.529  34.380  1.00  0.00     0.023 A 
ATOM     80  C   UNL A   1      44.508  26.023  34.654  1.00  0.00     0.031 A 
ATOM     81  C   UNL A   1      42.120  25.747  34.757  1.00  0.00     0.131 A 
ATOM     82  C   UNL A   1      44.650  24.747  35.224  1.00  0.00     0.055 A 
ATOM     83  C   UNL A   1      42.266  24.509  35.387  1.00  0.00     0.041 A 
ATOM     84  F   UNL A   1      40.871  26.173  34.512  1.00  0.00    -0.206 F 
ATOM     85  C   UNL A   1      43.539  23.994  35.607  1.00  0.00     0.022 A 
BRANCH  82  86
ATOM     86  S   UNL A   1      46.313  24.028  35.338  1.00  0.00     0.124 S 
ATOM     87  O   UNL A   1      46.011  22.631  35.628  1.00  0.00    -0.237 OA
ATOM     88  O   UNL A   1      46.853  24.305  34.011  1.00  0.00    -0.237 OA
ATOM     89  O   UNL A   1      46.933  24.775  36.430  1.00  0.00    -0.744 OA
ENDBRANCH  82  86
ENDBRANCH  55  79
BRANCH  67  90
ATOM     90  C   UNL A   1      40.550  32.740  36.129  1.00  0.00     0.023 A 
ATOM     91  C   UNL A   1      41.257  33.313  37.201  1.00  0.00     0.031 A 
ATOM     92  C   UNL A   1      39.151  32.638  36.242  1.00  0.00     0.131 A 
ATOM     93  C   UNL A   1      40.571  33.706  38.361  1.00  0.00     0.055 A 
ATOM     94  C   UNL A   1      38.467  33.097  37.368  1.00  0.00     0.041 A 
ATOM     95  F   UNL A   1      38.423  32.097  35.252  1.00  0.00    -0.206 F 
ATOM     96  C   UNL A   1      39.178  33.622  38.442  1.00  0.00     0.022 A 
BRANCH  93  97
ATOM     97  S   UNL A   1      41.531  34.237  39.805  1.00  0.00     0.124 S 
ATOM     98  O   UNL A   1      41.748  32.975  40.504  1.00  0.00    -0.237 OA
ATOM     99  O   UNL A   1      42.712  34.838  39.191  1.00  0.00    -0.237 OA
ATOM    100  O   UNL A   1      40.641  35.177  40.483  1.00  0.00    -0.744 OA
ENDBRANCH  93  97
ENDBRANCH  67  90
ENDBRANCH  41  42
ENDBRANCH  34  36
ENDBRANCH  33  34
ENDBRANCH  32  33
ENDBRANCH  31  32
ENDBRANCH  30  31
ENDBRANCH  29  30
ENDBRANCH  28  29
ENDBRANCH   1  28
TORSDOF 27
ENDMDL
