MODEL 1
REMARK VINA RESULT:     -10.4      0.000      0.000
REMARK SMILES O=C(OCCOCCOCCOCCOC(=O)c1ccc(N2C(=O)[C@@H]3N=NC(c4ccccc4)=C3[C@H]2c2cccc(Br)c2)cc1)c1ccc(-c2c3nc(c(-c4cc(S(=O)(=O)[O-])ccc4F)c4ccc([nH]4)c(-c4cc(S(=O)(=O)[O-])ccc4F)c4nc(c(-c5cc(S(=O)(=O)[O-])ccc5F)c5ccc2[nH]5)C=C4)C=C3)cc1
REMARK SMILES IDX 8 1 7 2 6 3 5 4 4 5 3 6 2 7 1 8 46 9 47 10 108 11 48 12
REMARK SMILES IDX 107 13 49 14 50 15 51 16 101 17 52 18 106 19 100 20 102 21
REMARK SMILES IDX 53 22 105 23 99 24 98 25 54 27 86 28 66 29 85 30 67 31 70 32
REMARK SMILES IDX 84 33 103 34 68 35 69 36 83 38 104 39 71 40 55 41 56 42
REMARK SMILES IDX 64 43 57 44 63 45 65 46 62 47 58 48 59 49 60 50 61 51 87 52
REMARK SMILES IDX 88 53 96 54 89 55 95 56 97 57 94 58 90 59 91 60 92 61 93 62
REMARK SMILES IDX 72 63 73 64 81 65 74 66 80 67 82 68 79 69 75 70 76 71 77 72
REMARK SMILES IDX 78 73 9 74 10 75 11 76 12 77 13 78 14 79 15 80 16 81 17 82
REMARK SMILES IDX 18 83 19 84 45 85 20 86 44 87 21 88 22 89 23 90 36 91 25 92
REMARK SMILES IDX 24 93 35 94 26 95 28 96 27 97 37 98 38 99 43 100 39 101
REMARK SMILES IDX 41 102 40 103 42 104 29 105 30 106 34 107 31 108 33 109
REMARK SMILES IDX 32 110
REMARK H PARENT 102 26 70 37
REMARK Flexibility Score: inf
ROOT
ATOM      1  C   UNL A   1      43.543  23.686  24.622  1.00  0.00     0.188 C 
ENDROOT
BRANCH   1   2
ATOM      2  C   UNL A   1      44.576  24.274  25.608  1.00  0.00     0.188 C 
BRANCH   2   3
ATOM      3  O   UNL A   1      44.483  24.229  27.024  1.00  0.00    -0.376 OA
BRANCH   3   4
ATOM      4  C   UNL A   1      45.096  23.361  27.956  1.00  0.00     0.202 C 
BRANCH   4   5
ATOM      5  C   UNL A   1      44.431  22.746  29.189  1.00  0.00     0.261 C 
BRANCH   5   6
ATOM      6  O   UNL A   1      43.582  23.612  29.920  1.00  0.00    -0.460 OA
BRANCH   6   7
ATOM      7  C   UNL A   1      43.915  24.489  30.887  1.00  0.00     0.338 C 
ATOM      8  O   UNL A   1      44.248  24.031  31.982  1.00  0.00    -0.246 OA
BRANCH   7   9
ATOM      9  C   UNL A   1      43.860  25.967  30.741  1.00  0.00     0.060 A 
ATOM     10  C   UNL A   1      44.355  26.921  31.633  1.00  0.00     0.016 A 
ATOM     11  C   UNL A   1      43.192  26.406  29.583  1.00  0.00     0.016 A 
ATOM     12  C   UNL A   1      43.952  28.236  31.528  1.00  0.00     0.010 A 
ATOM     13  C   UNL A   1      42.827  27.725  29.444  1.00  0.00     0.010 A 
ATOM     14  C   UNL A   1      43.122  28.602  30.477  1.00  0.00    -0.014 A 
BRANCH  14  15
ATOM     15  C   UNL A   1      42.687  29.979  30.406  1.00  0.00     0.031 A 
ATOM     16  C   UNL A   1      43.726  30.860  29.825  1.00  0.00     0.074 A 
ATOM     17  C   UNL A   1      41.439  30.333  30.764  1.00  0.00     0.049 A 
ATOM     18  N   UNL A   1      44.424  31.755  30.440  1.00  0.00    -0.248 NA
ATOM     19  C   UNL A   1      44.230  30.538  28.478  1.00  0.00     0.031 C 
ATOM     20  C   UNL A   1      40.340  29.447  31.156  1.00  0.00     0.029 A 
ATOM     21  N   UNL A   1      40.843  31.554  30.754  1.00  0.00    -0.354 N 
ATOM     22  C   UNL A   1      45.218  32.330  29.454  1.00  0.00     0.074 A 
ATOM     23  C   UNL A   1      45.264  31.375  28.384  1.00  0.00     0.031 C 
ATOM     24  C   UNL A   1      39.172  30.126  31.091  1.00  0.00     0.029 A 
ATOM     25  C   UNL A   1      39.450  31.515  30.765  1.00  0.00     0.049 A 
ATOM     26  H   UNL A   1      41.353  32.395  30.739  1.00  0.00     0.167 HD
ATOM     27  C   UNL A   1      45.429  33.675  29.460  1.00  0.00     0.034 A 
ATOM     28  C   UNL A   1      38.597  32.530  30.445  1.00  0.00     0.034 A 
ATOM     29  C   UNL A   1      45.208  34.216  30.791  1.00  0.00     0.049 A 
ATOM     30  C   UNL A   1      39.372  33.793  30.585  1.00  0.00     0.074 A 
ATOM     31  C   UNL A   1      45.702  33.911  32.047  1.00  0.00     0.029 A 
ATOM     32  N   UNL A   1      44.064  34.952  31.020  1.00  0.00    -0.354 N 
ATOM     33  N   UNL A   1      39.812  34.227  31.735  1.00  0.00    -0.248 NA
ATOM     34  C   UNL A   1      40.110  34.271  29.424  1.00  0.00     0.031 C 
ATOM     35  C   UNL A   1      44.584  34.031  32.925  1.00  0.00     0.029 A 
ATOM     36  C   UNL A   1      43.498  34.510  32.190  1.00  0.00     0.049 A 
ATOM     37  H   UNL A   1      43.713  35.671  30.445  1.00  0.00     0.167 HD
ATOM     38  C   UNL A   1      41.114  34.638  31.490  1.00  0.00     0.074 A 
ATOM     39  C   UNL A   1      41.212  34.725  30.031  1.00  0.00     0.031 C 
ATOM     40  C   UNL A   1      42.074  34.567  32.462  1.00  0.00     0.034 A 
BRANCH  27  41
ATOM     41  C   UNL A   1      45.322  34.533  28.207  1.00  0.00     0.023 A 
ATOM     42  C   UNL A   1      44.579  35.717  28.339  1.00  0.00     0.031 A 
ATOM     43  C   UNL A   1      45.575  34.121  26.876  1.00  0.00     0.131 A 
ATOM     44  C   UNL A   1      43.951  36.299  27.228  1.00  0.00     0.055 A 
ATOM     45  C   UNL A   1      45.005  34.747  25.765  1.00  0.00     0.041 A 
ATOM     46  F   UNL A   1      46.328  33.063  26.560  1.00  0.00    -0.206 F 
ATOM     47  C   UNL A   1      44.143  35.814  25.941  1.00  0.00     0.022 A 
BRANCH  44  48
ATOM     48  S   UNL A   1      42.693  37.557  27.546  1.00  0.00     0.124 S 
ATOM     49  O   UNL A   1      43.006  37.915  28.926  1.00  0.00    -0.237 OA
ATOM     50  O   UNL A   1      43.010  38.556  26.532  1.00  0.00    -0.237 OA
ATOM     51  O   UNL A   1      41.439  36.838  27.345  1.00  0.00    -0.744 OA
ENDBRANCH  44  48
ENDBRANCH  27  41
BRANCH  28  52
ATOM     52  C   UNL A   1      37.303  32.426  29.697  1.00  0.00     0.023 A 
ATOM     53  C   UNL A   1      36.237  33.344  29.853  1.00  0.00     0.031 A 
ATOM     54  C   UNL A   1      37.189  31.520  28.617  1.00  0.00     0.131 A 
ATOM     55  C   UNL A   1      35.133  33.323  28.960  1.00  0.00     0.055 A 
ATOM     56  C   UNL A   1      36.099  31.501  27.744  1.00  0.00     0.041 A 
ATOM     57  F   UNL A   1      38.179  30.667  28.311  1.00  0.00    -0.206 F 
ATOM     58  C   UNL A   1      35.071  32.410  27.905  1.00  0.00     0.022 A 
BRANCH  55  59
ATOM     59  S   UNL A   1      33.783  34.545  29.095  1.00  0.00     0.124 S 
ATOM     60  O   UNL A   1      32.770  33.992  28.205  1.00  0.00    -0.237 OA
ATOM     61  O   UNL A   1      33.479  34.525  30.520  1.00  0.00    -0.237 OA
ATOM     62  O   UNL A   1      34.397  35.788  28.623  1.00  0.00    -0.744 OA
ENDBRANCH  55  59
ENDBRANCH  28  52
BRANCH  40  63
ATOM     63  C   UNL A   1      41.637  34.353  33.899  1.00  0.00     0.023 A 
ATOM     64  C   UNL A   1      41.242  33.117  34.462  1.00  0.00     0.031 A 
ATOM     65  C   UNL A   1      41.722  35.461  34.761  1.00  0.00     0.131 A 
ATOM     66  C   UNL A   1      40.927  33.036  35.835  1.00  0.00     0.055 A 
ATOM     67  C   UNL A   1      41.432  35.373  36.120  1.00  0.00     0.041 A 
ATOM     68  F   UNL A   1      42.120  36.657  34.296  1.00  0.00    -0.206 F 
ATOM     69  C   UNL A   1      41.023  34.161  36.661  1.00  0.00     0.022 A 
BRANCH  66  70
ATOM     70  S   UNL A   1      40.351  31.473  36.576  1.00  0.00     0.124 S 
ATOM     71  O   UNL A   1      39.626  30.824  35.492  1.00  0.00    -0.237 OA
ATOM     72  O   UNL A   1      41.605  30.838  36.978  1.00  0.00    -0.237 OA
ATOM     73  O   UNL A   1      39.513  31.917  37.692  1.00  0.00    -0.744 OA
ENDBRANCH  66  70
ENDBRANCH  40  63
ENDBRANCH  14  15
ENDBRANCH   7   9
ENDBRANCH   6   7
ENDBRANCH   5   6
ENDBRANCH   4   5
ENDBRANCH   3   4
ENDBRANCH   2   3
ENDBRANCH   1   2
BRANCH   1  74
ATOM     74  O   UNL A   1      43.753  22.369  24.143  1.00  0.00    -0.377 OA
BRANCH  74  75
ATOM     75  C   UNL A   1      44.575  21.585  24.978  1.00  0.00     0.188 C 
BRANCH  75  76
ATOM     76  C   UNL A   1      44.412  20.073  24.739  1.00  0.00     0.188 C 
BRANCH  76  77
ATOM     77  O   UNL A   1      43.156  19.435  24.900  1.00  0.00    -0.376 OA
BRANCH  77  78
ATOM     78  C   UNL A   1      42.598  19.273  26.193  1.00  0.00     0.202 C 
BRANCH  78  79
ATOM     79  C   UNL A   1      41.413  20.135  26.680  1.00  0.00     0.261 C 
BRANCH  79  80
ATOM     80  O   UNL A   1      40.975  21.227  25.847  1.00  0.00    -0.460 OA
BRANCH  80  81
ATOM     81  C   UNL A   1      40.552  22.342  26.482  1.00  0.00     0.338 C 
ATOM     82  O   UNL A   1      41.244  23.144  27.103  1.00  0.00    -0.246 OA
BRANCH  81  83
ATOM     83  C   UNL A   1      39.113  22.582  26.217  1.00  0.00     0.060 A 
ATOM     84  C   UNL A   1      38.581  23.840  26.513  1.00  0.00     0.018 A 
ATOM     85  C   UNL A   1      38.263  21.572  25.751  1.00  0.00     0.018 A 
ATOM     86  C   UNL A   1      37.227  24.099  26.302  1.00  0.00     0.027 A 
ATOM     87  C   UNL A   1      36.877  21.819  25.604  1.00  0.00     0.027 A 
ATOM     88  C   UNL A   1      36.353  23.088  25.869  1.00  0.00     0.045 A 
BRANCH  88  89
ATOM     89  N   UNL A   1      34.957  23.391  25.722  1.00  0.00    -0.299 N 
ATOM     90  C   UNL A   1      34.132  23.019  26.838  1.00  0.00     0.259 C 
ATOM     91  C   UNL A   1      34.296  23.039  24.448  1.00  0.00     0.152 C 
ATOM     92  C   UNL A   1      32.845  22.454  26.315  1.00  0.00     0.248 C 
ATOM     93  O   UNL A   1      34.437  23.095  28.021  1.00  0.00    -0.271 OA
ATOM     94  C   UNL A   1      33.310  22.050  24.966  1.00  0.00     0.021 C 
ATOM     95  N   UNL A   1      32.400  21.188  26.899  1.00  0.00    -0.170 NA
ATOM     96  C   UNL A   1      32.931  20.780  24.824  1.00  0.00     0.097 C 
ATOM     97  N   UNL A   1      32.283  20.345  25.970  1.00  0.00    -0.154 NA
BRANCH  91  98
ATOM     98  C   UNL A   1      33.532  24.137  23.668  1.00  0.00    -0.020 A 
ATOM     99  C   UNL A   1      32.886  23.872  22.441  1.00  0.00     0.006 A 
ATOM    100  C   UNL A   1      33.767  25.488  23.969  1.00  0.00     0.022 A 
ATOM    101  C   UNL A   1      32.820  24.827  21.426  1.00  0.00     0.002 A 
ATOM    102  C   UNL A   1      33.603  26.469  22.978  1.00  0.00     0.018 A 
ATOM    103  C   UNL A   1      33.222  26.126  21.683  1.00  0.00     0.016 A 
ATOM    104  Br  UNL A   1      33.984  28.281  23.362  1.00  0.00    -0.051 Br
ENDBRANCH  91  98
BRANCH  96 105
ATOM    105  C   UNL A   1      33.313  19.710  23.897  1.00  0.00     0.002 A 
ATOM    106  C   UNL A   1      32.450  19.275  22.885  1.00  0.00     0.010 A 
ATOM    107  C   UNL A   1      34.315  18.844  24.368  1.00  0.00     0.010 A 
ATOM    108  C   UNL A   1      32.498  17.940  22.465  1.00  0.00     0.001 A 
ATOM    109  C   UNL A   1      34.339  17.512  23.970  1.00  0.00     0.001 A 
ATOM    110  C   UNL A   1      33.408  17.051  23.045  1.00  0.00     0.000 A 
ENDBRANCH  96 105
ENDBRANCH  88  89
ENDBRANCH  81  83
ENDBRANCH  80  81
ENDBRANCH  79  80
ENDBRANCH  78  79
ENDBRANCH  77  78
ENDBRANCH  76  77
ENDBRANCH  75  76
ENDBRANCH  74  75
ENDBRANCH   1  74
TORSDOF 26
ENDMDL
MODEL 2
REMARK VINA RESULT:     -10.3      3.874      9.701
REMARK SMILES O=C(OCCOCCOCCOCCOC(=O)c1ccc(N2C(=O)[C@@H]3N=NC(c4ccccc4)=C3[C@H]2c2cccc(Br)c2)cc1)c1ccc(-c2c3nc(c(-c4cc(S(=O)(=O)[O-])ccc4F)c4ccc([nH]4)c(-c4cc(S(=O)(=O)[O-])ccc4F)c4nc(c(-c5cc(S(=O)(=O)[O-])ccc5F)c5ccc2[nH]5)C=C4)C=C3)cc1
REMARK SMILES IDX 8 1 7 2 6 3 5 4 4 5 3 6 2 7 1 8 46 9 47 10 108 11 48 12
REMARK SMILES IDX 107 13 49 14 50 15 51 16 101 17 52 18 106 19 100 20 102 21
REMARK SMILES IDX 53 22 105 23 99 24 98 25 54 27 86 28 66 29 85 30 67 31 70 32
REMARK SMILES IDX 84 33 103 34 68 35 69 36 83 38 104 39 71 40 55 41 56 42
REMARK SMILES IDX 64 43 57 44 63 45 65 46 62 47 58 48 59 49 60 50 61 51 87 52
REMARK SMILES IDX 88 53 96 54 89 55 95 56 97 57 94 58 90 59 91 60 92 61 93 62
REMARK SMILES IDX 72 63 73 64 81 65 74 66 80 67 82 68 79 69 75 70 76 71 77 72
REMARK SMILES IDX 78 73 9 74 10 75 11 76 12 77 13 78 14 79 15 80 16 81 17 82
REMARK SMILES IDX 18 83 19 84 45 85 20 86 44 87 21 88 22 89 23 90 36 91 25 92
REMARK SMILES IDX 24 93 35 94 26 95 28 96 27 97 37 98 38 99 43 100 39 101
REMARK SMILES IDX 41 102 40 103 42 104 29 105 30 106 34 107 31 108 33 109
REMARK SMILES IDX 32 110
REMARK H PARENT 102 26 70 37
REMARK Flexibility Score: inf
ROOT
ATOM      1  C   UNL A   1      41.814  34.117  32.212  1.00  0.00     0.188 C 
ENDROOT
BRANCH   1   2
ATOM      2  C   UNL A   1      41.274  33.045  33.184  1.00  0.00     0.188 C 
BRANCH   2   3
ATOM      3  O   UNL A   1      40.352  33.277  34.238  1.00  0.00    -0.376 OA
BRANCH   3   4
ATOM      4  C   UNL A   1      39.003  32.884  34.379  1.00  0.00     0.202 C 
BRANCH   4   5
ATOM      5  C   UNL A   1      38.460  31.862  35.380  1.00  0.00     0.261 C 
BRANCH   5   6
ATOM      6  O   UNL A   1      37.994  30.648  34.820  1.00  0.00    -0.460 OA
BRANCH   6   7
ATOM      7  C   UNL A   1      37.880  30.317  33.519  1.00  0.00     0.338 C 
ATOM      8  O   UNL A   1      36.795  30.521  32.971  1.00  0.00    -0.246 OA
BRANCH   7   9
ATOM      9  C   UNL A   1      38.954  29.677  32.715  1.00  0.00     0.060 A 
ATOM     10  C   UNL A   1      39.929  28.785  33.168  1.00  0.00     0.016 A 
ATOM     11  C   UNL A   1      38.976  30.072  31.365  1.00  0.00     0.016 A 
ATOM     12  C   UNL A   1      41.041  28.528  32.394  1.00  0.00     0.010 A 
ATOM     13  C   UNL A   1      40.058  29.780  30.567  1.00  0.00     0.010 A 
ATOM     14  C   UNL A   1      41.127  29.100  31.132  1.00  0.00    -0.014 A 
BRANCH  14  15
ATOM     15  C   UNL A   1      42.316  28.842  30.352  1.00  0.00     0.031 A 
ATOM     16  C   UNL A   1      42.259  27.529  29.671  1.00  0.00     0.074 A 
ATOM     17  C   UNL A   1      43.285  29.770  30.233  1.00  0.00     0.049 A 
ATOM     18  N   UNL A   1      42.955  26.476  29.945  1.00  0.00    -0.248 NA
ATOM     19  C   UNL A   1      41.129  27.270  28.761  1.00  0.00     0.031 C 
ATOM     20  C   UNL A   1      43.268  31.144  30.739  1.00  0.00     0.029 A 
ATOM     21  N   UNL A   1      44.453  29.725  29.542  1.00  0.00    -0.354 N 
ATOM     22  C   UNL A   1      42.565  25.533  29.001  1.00  0.00     0.074 A 
ATOM     23  C   UNL A   1      41.286  25.968  28.520  1.00  0.00     0.031 C 
ATOM     24  C   UNL A   1      44.237  31.860  30.125  1.00  0.00     0.029 A 
ATOM     25  C   UNL A   1      45.011  30.974  29.271  1.00  0.00     0.049 A 
ATOM     26  H   UNL A   1      44.871  28.881  29.255  1.00  0.00     0.167 HD
ATOM     27  C   UNL A   1      43.499  24.717  28.440  1.00  0.00     0.034 A 
ATOM     28  C   UNL A   1      45.974  31.261  28.350  1.00  0.00     0.034 A 
ATOM     29  C   UNL A   1      44.670  24.622  29.297  1.00  0.00     0.049 A 
ATOM     30  C   UNL A   1      46.679  29.982  28.063  1.00  0.00     0.074 A 
ATOM     31  C   UNL A   1      44.863  24.294  30.628  1.00  0.00     0.029 A 
ATOM     32  N   UNL A   1      45.820  25.282  28.916  1.00  0.00    -0.354 N 
ATOM     33  N   UNL A   1      47.401  29.358  28.954  1.00  0.00    -0.248 NA
ATOM     34  C   UNL A   1      46.151  29.138  27.000  1.00  0.00     0.031 C 
ATOM     35  C   UNL A   1      45.861  25.202  31.093  1.00  0.00     0.029 A 
ATOM     36  C   UNL A   1      46.308  25.957  30.007  1.00  0.00     0.049 A 
ATOM     37  H   UNL A   1      46.222  25.272  28.017  1.00  0.00     0.167 HD
ATOM     38  C   UNL A   1      47.047  28.023  28.834  1.00  0.00     0.074 A 
ATOM     39  C   UNL A   1      46.340  27.935  27.554  1.00  0.00     0.031 C 
ATOM     40  C   UNL A   1      47.081  27.182  29.912  1.00  0.00     0.034 A 
BRANCH  27  41
ATOM     41  C   UNL A   1      43.566  24.444  26.943  1.00  0.00     0.023 A 
ATOM     42  C   UNL A   1      43.645  23.092  26.572  1.00  0.00     0.031 A 
ATOM     43  C   UNL A   1      43.901  25.372  25.929  1.00  0.00     0.131 A 
ATOM     44  C   UNL A   1      44.239  22.714  25.358  1.00  0.00     0.055 A 
ATOM     45  C   UNL A   1      44.425  24.990  24.692  1.00  0.00     0.041 A 
ATOM     46  F   UNL A   1      43.809  26.697  26.079  1.00  0.00    -0.206 F 
ATOM     47  C   UNL A   1      44.646  23.654  24.419  1.00  0.00     0.022 A 
BRANCH  44  48
ATOM     48  S   UNL A   1      44.675  20.973  25.150  1.00  0.00     0.124 S 
ATOM     49  O   UNL A   1      46.049  20.974  25.641  1.00  0.00    -0.237 OA
ATOM     50  O   UNL A   1      43.687  20.317  26.000  1.00  0.00    -0.237 OA
ATOM     51  O   UNL A   1      44.512  20.754  23.717  1.00  0.00    -0.744 OA
ENDBRANCH  44  48
ENDBRANCH  27  41
BRANCH  28  52
ATOM     52  C   UNL A   1      46.060  32.473  27.474  1.00  0.00     0.023 A 
ATOM     53  C   UNL A   1      47.227  33.264  27.350  1.00  0.00     0.031 A 
ATOM     54  C   UNL A   1      45.027  32.740  26.545  1.00  0.00     0.131 A 
ATOM     55  C   UNL A   1      47.317  34.260  26.342  1.00  0.00     0.055 A 
ATOM     56  C   UNL A   1      45.119  33.724  25.558  1.00  0.00     0.041 A 
ATOM     57  F   UNL A   1      43.913  31.993  26.502  1.00  0.00    -0.206 F 
ATOM     58  C   UNL A   1      46.270  34.482  25.445  1.00  0.00     0.022 A 
BRANCH  55  59
ATOM     59  S   UNL A   1      48.841  35.241  26.114  1.00  0.00     0.124 S 
ATOM     60  O   UNL A   1      48.319  36.590  25.927  1.00  0.00    -0.237 OA
ATOM     61  O   UNL A   1      49.567  34.991  27.353  1.00  0.00    -0.237 OA
ATOM     62  O   UNL A   1      49.453  34.653  24.921  1.00  0.00    -0.744 OA
ENDBRANCH  55  59
ENDBRANCH  28  52
BRANCH  40  63
ATOM     63  C   UNL A   1      47.822  27.628  31.158  1.00  0.00     0.023 A 
ATOM     64  C   UNL A   1      47.295  28.461  32.173  1.00  0.00     0.031 A 
ATOM     65  C   UNL A   1      49.106  27.092  31.360  1.00  0.00     0.131 A 
ATOM     66  C   UNL A   1      48.063  28.745  33.321  1.00  0.00     0.055 A 
ATOM     67  C   UNL A   1      49.853  27.356  32.506  1.00  0.00     0.041 A 
ATOM     68  F   UNL A   1      49.653  26.269  30.450  1.00  0.00    -0.206 F 
ATOM     69  C   UNL A   1      49.338  28.193  33.487  1.00  0.00     0.022 A 
BRANCH  66  70
ATOM     70  S   UNL A   1      47.439  29.867  34.615  1.00  0.00     0.124 S 
ATOM     71  O   UNL A   1      46.821  28.969  35.581  1.00  0.00    -0.237 OA
ATOM     72  O   UNL A   1      48.656  30.544  35.056  1.00  0.00    -0.237 OA
ATOM     73  O   UNL A   1      46.498  30.727  33.891  1.00  0.00    -0.744 OA
ENDBRANCH  66  70
ENDBRANCH  40  63
ENDBRANCH  14  15
ENDBRANCH   7   9
ENDBRANCH   6   7
ENDBRANCH   5   6
ENDBRANCH   4   5
ENDBRANCH   3   4
ENDBRANCH   2   3
ENDBRANCH   1   2
BRANCH   1  74
ATOM     74  O   UNL A   1      40.943  34.605  31.205  1.00  0.00    -0.377 OA
BRANCH  74  75
ATOM     75  C   UNL A   1      40.348  33.589  30.429  1.00  0.00     0.188 C 
BRANCH  75  76
ATOM     76  C   UNL A   1      38.815  33.549  30.559  1.00  0.00     0.188 C 
BRANCH  76  77
ATOM     77  O   UNL A   1      37.980  34.199  29.614  1.00  0.00    -0.376 OA
BRANCH  77  78
ATOM     78  C   UNL A   1      36.575  34.221  29.800  1.00  0.00     0.202 C 
BRANCH  78  79
ATOM     79  C   UNL A   1      35.603  33.764  28.691  1.00  0.00     0.261 C 
BRANCH  79  80
ATOM     80  O   UNL A   1      36.084  32.832  27.701  1.00  0.00    -0.460 OA
BRANCH  80  81
ATOM     81  C   UNL A   1      36.172  31.538  28.078  1.00  0.00     0.338 C 
ATOM     82  O   UNL A   1      37.019  31.041  28.815  1.00  0.00    -0.246 OA
BRANCH  81  83
ATOM     83  C   UNL A   1      34.998  30.771  27.597  1.00  0.00     0.060 A 
ATOM     84  C   UNL A   1      35.197  29.471  27.126  1.00  0.00     0.018 A 
ATOM     85  C   UNL A   1      33.716  31.331  27.536  1.00  0.00     0.018 A 
ATOM     86  C   UNL A   1      34.123  28.724  26.642  1.00  0.00     0.027 A 
ATOM     87  C   UNL A   1      32.642  30.596  26.981  1.00  0.00     0.027 A 
ATOM     88  C   UNL A   1      32.839  29.283  26.540  1.00  0.00     0.045 A 
BRANCH  88  89
ATOM     89  N   UNL A   1      31.778  28.493  25.982  1.00  0.00    -0.299 N 
ATOM     90  C   UNL A   1      31.166  27.564  26.892  1.00  0.00     0.259 C 
ATOM     91  C   UNL A   1      31.995  27.861  24.664  1.00  0.00     0.152 C 
ATOM     92  C   UNL A   1      30.901  26.281  26.162  1.00  0.00     0.248 C 
ATOM     93  O   UNL A   1      30.942  27.755  28.080  1.00  0.00    -0.271 OA
ATOM     94  C   UNL A   1      31.899  26.433  25.075  1.00  0.00     0.021 C 
ATOM     95  N   UNL A   1      31.326  25.048  26.826  1.00  0.00    -0.170 NA
ATOM     96  C   UNL A   1      32.594  25.295  25.069  1.00  0.00     0.097 C 
ATOM     97  N   UNL A   1      32.131  24.448  26.065  1.00  0.00    -0.154 NA
BRANCH  91  98
ATOM     98  C   UNL A   1      30.974  28.118  23.528  1.00  0.00    -0.020 A 
ATOM     99  C   UNL A   1      31.290  28.913  22.405  1.00  0.00     0.006 A 
ATOM    100  C   UNL A   1      29.611  27.876  23.757  1.00  0.00     0.022 A 
ATOM    101  C   UNL A   1      30.332  29.713  21.782  1.00  0.00     0.002 A 
ATOM    102  C   UNL A   1      28.638  28.608  23.058  1.00  0.00     0.018 A 
ATOM    103  C   UNL A   1      29.001  29.592  22.141  1.00  0.00     0.016 A 
ATOM    104  Br  UNL A   1      26.802  28.331  23.413  1.00  0.00    -0.051 Br
ENDBRANCH  91  98
BRANCH  96 105
ATOM    105  C   UNL A   1      33.878  24.898  24.481  1.00  0.00     0.002 A 
ATOM    106  C   UNL A   1      33.943  24.182  23.281  1.00  0.00     0.010 A 
ATOM    107  C   UNL A   1      34.950  24.828  25.386  1.00  0.00     0.010 A 
ATOM    108  C   UNL A   1      35.001  23.288  23.070  1.00  0.00     0.001 A 
ATOM    109  C   UNL A   1      35.983  23.918  25.185  1.00  0.00     0.001 A 
ATOM    110  C   UNL A   1      35.989  23.122  24.044  1.00  0.00     0.000 A 
ENDBRANCH  96 105
ENDBRANCH  88  89
ENDBRANCH  81  83
ENDBRANCH  80  81
ENDBRANCH  79  80
ENDBRANCH  78  79
ENDBRANCH  77  78
ENDBRANCH  76  77
ENDBRANCH  75  76
ENDBRANCH  74  75
ENDBRANCH   1  74
TORSDOF 26
ENDMDL
MODEL 3
REMARK VINA RESULT:     -10.1      4.000      9.668
REMARK SMILES O=C(OCCOCCOCCOCCOC(=O)c1ccc(N2C(=O)[C@@H]3N=NC(c4ccccc4)=C3[C@H]2c2cccc(Br)c2)cc1)c1ccc(-c2c3nc(c(-c4cc(S(=O)(=O)[O-])ccc4F)c4ccc([nH]4)c(-c4cc(S(=O)(=O)[O-])ccc4F)c4nc(c(-c5cc(S(=O)(=O)[O-])ccc5F)c5ccc2[nH]5)C=C4)C=C3)cc1
REMARK SMILES IDX 8 1 7 2 6 3 5 4 4 5 3 6 2 7 1 8 46 9 47 10 108 11 48 12
REMARK SMILES IDX 107 13 49 14 50 15 51 16 101 17 52 18 106 19 100 20 102 21
REMARK SMILES IDX 53 22 105 23 99 24 98 25 54 27 86 28 66 29 85 30 67 31 70 32
REMARK SMILES IDX 84 33 103 34 68 35 69 36 83 38 104 39 71 40 55 41 56 42
REMARK SMILES IDX 64 43 57 44 63 45 65 46 62 47 58 48 59 49 60 50 61 51 87 52
REMARK SMILES IDX 88 53 96 54 89 55 95 56 97 57 94 58 90 59 91 60 92 61 93 62
REMARK SMILES IDX 72 63 73 64 81 65 74 66 80 67 82 68 79 69 75 70 76 71 77 72
REMARK SMILES IDX 78 73 9 74 10 75 11 76 12 77 13 78 14 79 15 80 16 81 17 82
REMARK SMILES IDX 18 83 19 84 45 85 20 86 44 87 21 88 22 89 23 90 36 91 25 92
REMARK SMILES IDX 24 93 35 94 26 95 28 96 27 97 37 98 38 99 43 100 39 101
REMARK SMILES IDX 41 102 40 103 42 104 29 105 30 106 34 107 31 108 33 109
REMARK SMILES IDX 32 110
REMARK H PARENT 102 26 70 37
REMARK Flexibility Score: inf
ROOT
ATOM      1  C   UNL A   1      35.921  23.348  26.143  1.00  0.00     0.188 C 
ENDROOT
BRANCH   1   2
ATOM      2  C   UNL A   1      34.814  24.091  25.364  1.00  0.00     0.188 C 
BRANCH   2   3
ATOM      3  O   UNL A   1      34.675  25.501  25.273  1.00  0.00    -0.376 OA
BRANCH   3   4
ATOM      4  C   UNL A   1      33.808  26.383  25.956  1.00  0.00     0.202 C 
BRANCH   4   5
ATOM      5  C   UNL A   1      33.849  27.911  25.902  1.00  0.00     0.261 C 
BRANCH   5   6
ATOM      6  O   UNL A   1      33.776  28.568  27.154  1.00  0.00    -0.460 OA
BRANCH   6   7
ATOM      7  C   UNL A   1      34.382  29.709  27.537  1.00  0.00     0.338 C 
ATOM      8  O   UNL A   1      33.859  30.773  27.198  1.00  0.00    -0.246 OA
BRANCH   7   9
ATOM      9  C   UNL A   1      35.659  29.773  28.294  1.00  0.00     0.060 A 
ATOM     10  C   UNL A   1      35.823  29.694  29.679  1.00  0.00     0.016 A 
ATOM     11  C   UNL A   1      36.795  29.975  27.489  1.00  0.00     0.016 A 
ATOM     12  C   UNL A   1      37.013  30.087  30.254  1.00  0.00     0.010 A 
ATOM     13  C   UNL A   1      38.001  30.320  28.054  1.00  0.00     0.010 A 
ATOM     14  C   UNL A   1      38.061  30.476  29.431  1.00  0.00    -0.014 A 
BRANCH  14  15
ATOM     15  C   UNL A   1      39.287  30.915  30.059  1.00  0.00     0.031 A 
ATOM     16  C   UNL A   1      40.120  29.775  30.506  1.00  0.00     0.074 A 
ATOM     17  C   UNL A   1      39.611  32.220  30.116  1.00  0.00     0.049 A 
ATOM     18  N   UNL A   1      40.352  29.407  31.722  1.00  0.00    -0.248 NA
ATOM     19  C   UNL A   1      40.529  28.780  29.499  1.00  0.00     0.031 C 
ATOM     20  C   UNL A   1      38.893  33.343  29.507  1.00  0.00     0.029 A 
ATOM     21  N   UNL A   1      40.709  32.823  30.642  1.00  0.00    -0.354 N 
ATOM     22  C   UNL A   1      41.216  28.325  31.611  1.00  0.00     0.074 A 
ATOM     23  C   UNL A   1      41.051  27.829  30.275  1.00  0.00     0.031 C 
ATOM     24  C   UNL A   1      39.700  34.427  29.478  1.00  0.00     0.029 A 
ATOM     25  C   UNL A   1      40.943  34.112  30.164  1.00  0.00     0.049 A 
ATOM     26  H   UNL A   1      41.291  32.386  31.303  1.00  0.00     0.167 HD
ATOM     27  C   UNL A   1      42.248  28.195  32.490  1.00  0.00     0.034 A 
ATOM     28  C   UNL A   1      42.102  34.824  30.253  1.00  0.00     0.034 A 
ATOM     29  C   UNL A   1      41.969  28.933  33.711  1.00  0.00     0.049 A 
ATOM     30  C   UNL A   1      42.882  34.221  31.369  1.00  0.00     0.074 A 
ATOM     31  C   UNL A   1      40.916  28.943  34.609  1.00  0.00     0.029 A 
ATOM     32  N   UNL A   1      42.650  30.111  33.938  1.00  0.00    -0.354 N 
ATOM     33  N   UNL A   1      42.492  34.274  32.613  1.00  0.00    -0.248 NA
ATOM     34  C   UNL A   1      43.780  33.118  31.053  1.00  0.00     0.031 C 
ATOM     35  C   UNL A   1      40.732  30.316  34.949  1.00  0.00     0.029 A 
ATOM     36  C   UNL A   1      41.743  31.059  34.339  1.00  0.00     0.049 A 
ATOM     37  H   UNL A   1      43.620  30.248  33.832  1.00  0.00     0.167 HD
ATOM     38  C   UNL A   1      42.706  32.998  33.113  1.00  0.00     0.074 A 
ATOM     39  C   UNL A   1      43.584  32.354  32.133  1.00  0.00     0.031 C 
ATOM     40  C   UNL A   1      41.911  32.481  34.098  1.00  0.00     0.034 A 
BRANCH  27  41
ATOM     41  C   UNL A   1      43.667  27.855  32.054  1.00  0.00     0.023 A 
ATOM     42  C   UNL A   1      44.279  26.794  32.740  1.00  0.00     0.031 A 
ATOM     43  C   UNL A   1      44.542  28.679  31.307  1.00  0.00     0.131 A 
ATOM     44  C   UNL A   1      45.675  26.720  32.849  1.00  0.00     0.055 A 
ATOM     45  C   UNL A   1      45.933  28.558  31.361  1.00  0.00     0.041 A 
ATOM     46  F   UNL A   1      44.128  29.688  30.533  1.00  0.00    -0.206 F 
ATOM     47  C   UNL A   1      46.510  27.604  32.178  1.00  0.00     0.022 A 
BRANCH  44  48
ATOM     48  S   UNL A   1      46.356  25.584  34.079  1.00  0.00     0.124 S 
ATOM     49  O   UNL A   1      47.313  24.840  33.266  1.00  0.00    -0.237 OA
ATOM     50  O   UNL A   1      46.920  26.509  35.056  1.00  0.00    -0.237 OA
ATOM     51  O   UNL A   1      45.187  24.835  34.530  1.00  0.00    -0.744 OA
ENDBRANCH  44  48
ENDBRANCH  27  41
BRANCH  28  52
ATOM     52  C   UNL A   1      42.695  35.728  29.216  1.00  0.00     0.023 A 
ATOM     53  C   UNL A   1      42.831  37.126  29.387  1.00  0.00     0.031 A 
ATOM     54  C   UNL A   1      43.363  35.170  28.101  1.00  0.00     0.131 A 
ATOM     55  C   UNL A   1      43.599  37.891  28.470  1.00  0.00     0.055 A 
ATOM     56  C   UNL A   1      44.114  35.928  27.200  1.00  0.00     0.041 A 
ATOM     57  F   UNL A   1      43.386  33.845  27.889  1.00  0.00    -0.206 F 
ATOM     58  C   UNL A   1      44.244  37.292  27.386  1.00  0.00     0.022 A 
BRANCH  55  59
ATOM     59  S   UNL A   1      43.851  39.684  28.712  1.00  0.00     0.124 S 
ATOM     60  O   UNL A   1      45.241  39.861  28.308  1.00  0.00    -0.237 OA
ATOM     61  O   UNL A   1      42.840  40.267  27.839  1.00  0.00    -0.237 OA
ATOM     62  O   UNL A   1      43.603  39.875  30.142  1.00  0.00    -0.744 OA
ENDBRANCH  55  59
ENDBRANCH  28  52
BRANCH  40  63
ATOM     63  C   UNL A   1      41.009  33.423  34.873  1.00  0.00     0.023 A 
ATOM     64  C   UNL A   1      41.366  34.117  36.053  1.00  0.00     0.031 A 
ATOM     65  C   UNL A   1      39.746  33.694  34.318  1.00  0.00     0.131 A 
ATOM     66  C   UNL A   1      40.458  35.022  36.641  1.00  0.00     0.055 A 
ATOM     67  C   UNL A   1      38.861  34.606  34.888  1.00  0.00     0.041 A 
ATOM     68  F   UNL A   1      39.357  33.092  33.182  1.00  0.00    -0.206 F 
ATOM     69  C   UNL A   1      39.210  35.267  36.059  1.00  0.00     0.022 A 
BRANCH  66  70
ATOM     70  S   UNL A   1      40.864  35.883  38.196  1.00  0.00     0.124 S 
ATOM     71  O   UNL A   1      40.197  37.171  38.061  1.00  0.00    -0.237 OA
ATOM     72  O   UNL A   1      40.313  34.980  39.205  1.00  0.00    -0.237 OA
ATOM     73  O   UNL A   1      42.327  35.947  38.176  1.00  0.00    -0.744 OA
ENDBRANCH  66  70
ENDBRANCH  40  63
ENDBRANCH  14  15
ENDBRANCH   7   9
ENDBRANCH   6   7
ENDBRANCH   5   6
ENDBRANCH   4   5
ENDBRANCH   3   4
ENDBRANCH   2   3
ENDBRANCH   1   2
BRANCH   1  74
ATOM     74  O   UNL A   1      37.271  23.672  25.857  1.00  0.00    -0.377 OA
BRANCH  74  75
ATOM     75  C   UNL A   1      38.108  22.546  25.720  1.00  0.00     0.188 C 
BRANCH  75  76
ATOM     76  C   UNL A   1      39.446  22.693  26.467  1.00  0.00     0.188 C 
BRANCH  76  77
ATOM     77  O   UNL A   1      40.063  21.580  27.094  1.00  0.00    -0.376 OA
BRANCH  77  78
ATOM     78  C   UNL A   1      40.418  20.439  26.333  1.00  0.00     0.202 C 
BRANCH  78  79
ATOM     79  C   UNL A   1      41.893  20.037  26.111  1.00  0.00     0.261 C 
BRANCH  79  80
ATOM     80  O   UNL A   1      42.797  21.025  25.575  1.00  0.00    -0.460 OA
BRANCH  80  81
ATOM     81  C   UNL A   1      44.050  20.609  25.290  1.00  0.00     0.338 C 
ATOM     82  O   UNL A   1      44.390  19.483  24.937  1.00  0.00    -0.246 OA
BRANCH  81  83
ATOM     83  C   UNL A   1      44.999  21.748  25.315  1.00  0.00     0.060 A 
ATOM     84  C   UNL A   1      45.047  22.552  26.457  1.00  0.00     0.018 A 
ATOM     85  C   UNL A   1      45.792  22.081  24.210  1.00  0.00     0.018 A 
ATOM     86  C   UNL A   1      45.908  23.648  26.511  1.00  0.00     0.027 A 
ATOM     87  C   UNL A   1      46.613  23.233  24.244  1.00  0.00     0.027 A 
ATOM     88  C   UNL A   1      46.683  24.017  25.400  1.00  0.00     0.045 A 
BRANCH  88  89
ATOM     89  N   UNL A   1      47.511  25.187  25.486  1.00  0.00    -0.299 N 
ATOM     90  C   UNL A   1      48.274  25.305  26.698  1.00  0.00     0.259 C 
ATOM     91  C   UNL A   1      46.922  26.490  25.115  1.00  0.00     0.152 C 
ATOM     92  C   UNL A   1      48.259  26.739  27.136  1.00  0.00     0.248 C 
ATOM     93  O   UNL A   1      48.808  24.389  27.311  1.00  0.00    -0.271 OA
ATOM     94  C   UNL A   1      47.027  27.174  26.434  1.00  0.00     0.021 C 
ATOM     95  N   UNL A   1      47.940  26.992  28.542  1.00  0.00    -0.170 NA
ATOM     96  C   UNL A   1      46.282  27.775  27.361  1.00  0.00     0.097 C 
ATOM     97  N   UNL A   1      46.929  27.743  28.587  1.00  0.00    -0.154 NA
BRANCH  91  98
ATOM     98  C   UNL A   1      47.632  27.361  24.048  1.00  0.00    -0.020 A 
ATOM     99  C   UNL A   1      46.923  28.267  23.230  1.00  0.00     0.006 A 
ATOM    100  C   UNL A   1      48.922  27.012  23.620  1.00  0.00     0.022 A 
ATOM    101  C   UNL A   1      47.302  28.513  21.911  1.00  0.00     0.002 A 
ATOM    102  C   UNL A   1      49.349  27.348  22.325  1.00  0.00     0.018 A 
ATOM    103  C   UNL A   1      48.504  28.014  21.440  1.00  0.00     0.016 A 
ATOM    104  Br  UNL A   1      51.062  26.821  21.722  1.00  0.00    -0.051 Br
ENDBRANCH  91  98
BRANCH  96 105
ATOM    105  C   UNL A   1      44.867  28.156  27.430  1.00  0.00     0.002 A 
ATOM    106  C   UNL A   1      43.850  27.258  27.088  1.00  0.00     0.010 A 
ATOM    107  C   UNL A   1      44.619  29.537  27.364  1.00  0.00     0.010 A 
ATOM    108  C   UNL A   1      42.657  27.745  26.540  1.00  0.00     0.001 A 
ATOM    109  C   UNL A   1      43.444  30.015  26.793  1.00  0.00     0.001 A 
ATOM    110  C   UNL A   1      42.478  29.118  26.348  1.00  0.00     0.000 A 
ENDBRANCH  96 105
ENDBRANCH  88  89
ENDBRANCH  81  83
ENDBRANCH  80  81
ENDBRANCH  79  80
ENDBRANCH  78  79
ENDBRANCH  77  78
ENDBRANCH  76  77
ENDBRANCH  75  76
ENDBRANCH  74  75
ENDBRANCH   1  74
TORSDOF 26
ENDMDL
