MODEL 1
REMARK VINA RESULT:      -9.7      0.000      0.000
REMARK SMILES CC(C)[C@H](C)CNC(=O)N1CC(n2cc(C(=O)OCCOCCOCCOCCOC(=O)c3ccc(-c4c5nc(c(-c6cc(S(=O)(=O)[O-])ccc6F)c6ccc([nH]6)c(-c6cc(S(=O)(=O)[O-])ccc6F)c6nc(c(-c7cc(S(=O)(=O)[O-])ccc7F)c7ccc4[nH]7)C=C6)C=C5)cc3)nn2)C1
REMARK SMILES IDX 23 1 22 2 21 3 20 4 19 5 18 6 16 7 17 8 15 9 13 10 14 11
REMARK SMILES IDX 97 12 96 13 12 14 7 15 8 16 9 18 10 19 11 20 98 21 6 22 4 23
REMARK SMILES IDX 5 24 2 25 1 26 3 27 24 28 25 29 26 30 27 31 28 32 29 33
REMARK SMILES IDX 30 34 31 35 32 36 33 37 34 38 95 39 35 40 94 41 36 42 37 43
REMARK SMILES IDX 38 44 88 45 39 46 93 47 87 48 89 49 40 50 92 51 86 52 85 53
REMARK SMILES IDX 41 55 73 56 53 57 72 58 54 59 57 60 71 61 90 62 55 63 56 64
REMARK SMILES IDX 70 66 91 67 58 68 42 69 43 70 51 71 44 72 50 73 52 74 49 75
REMARK SMILES IDX 45 76 46 77 47 78 48 79 74 80 75 81 83 82 76 83 82 84 84 85
REMARK SMILES IDX 81 86 77 87 78 88 79 89 80 90 59 91 60 92 68 93 61 94 67 95
REMARK SMILES IDX 69 96 66 97 62 98 63 99 64 100 65 101
REMARK H PARENT 7 17 89 54 57 65
REMARK Flexibility Score: inf
ROOT
ATOM      1  C   UNL A   1      43.148  20.013  25.960  1.00  0.00     0.188 C 
ENDROOT
BRANCH   1   2
ATOM      2  C   UNL A   1      42.044  21.029  26.337  1.00  0.00     0.188 C 
BRANCH   2   3
ATOM      3  O   UNL A   1      40.886  21.241  25.536  1.00  0.00    -0.376 OA
BRANCH   3   4
ATOM      4  C   UNL A   1      39.569  21.117  26.043  1.00  0.00     0.202 C 
BRANCH   4   5
ATOM      5  C   UNL A   1      38.377  21.819  25.378  1.00  0.00     0.261 C 
BRANCH   5   6
ATOM      6  O   UNL A   1      37.107  21.620  26.000  1.00  0.00    -0.458 OA
BRANCH   6   7
ATOM      7  C   UNL A   1      36.270  20.772  25.340  1.00  0.00     0.360 C 
ATOM      8  O   UNL A   1      36.635  19.784  24.716  1.00  0.00    -0.244 OA
BRANCH   7   9
ATOM      9  C   UNL A   1      34.873  21.125  25.534  1.00  0.00     0.190 A 
ATOM     10  N   UNL A   1      32.953  21.838  26.237  1.00  0.00    -0.245 N 
ATOM     11  C   UNL A   1      34.263  21.732  26.617  1.00  0.00     0.147 A 
ATOM     12  N   UNL A   1      32.744  21.258  25.047  1.00  0.00    -0.066 NA
ATOM     13  N   UNL A   1      33.911  20.823  24.601  1.00  0.00    -0.123 NA
BRANCH  10  14
ATOM     14  C   UNL A   1      31.997  22.665  26.905  1.00  0.00     0.148 C 
ATOM     15  N   UNL A   1      30.578  26.644  26.493  1.00  0.00    -0.338 N 
ATOM     16  C   UNL A   1      30.105  25.372  26.463  1.00  0.00     0.317 C 
ATOM     17  H   UNL A   1      29.988  27.293  26.941  1.00  0.00     0.165 HD
ATOM     18  O   UNL A   1      28.893  25.200  26.587  1.00  0.00    -0.249 OA
ATOM     19  N   UNL A   1      30.966  24.342  26.303  1.00  0.00    -0.320 N 
ATOM     20  C   UNL A   1      30.676  22.918  26.167  1.00  0.00     0.150 C 
ATOM     21  C   UNL A   1      32.352  24.143  26.657  1.00  0.00     0.150 C 
BRANCH  15  22
ATOM     22  C   UNL A   1      31.818  27.204  25.971  1.00  0.00     0.121 C 
BRANCH  22  23
ATOM     23  C   UNL A   1      31.562  28.484  25.143  1.00  0.00     0.008 C 
ATOM     24  C   UNL A   1      32.796  29.401  25.199  1.00  0.00     0.010 C 
BRANCH  23  25
ATOM     25  C   UNL A   1      31.093  28.228  23.677  1.00  0.00    -0.013 C 
ATOM     26  C   UNL A   1      29.704  28.780  23.347  1.00  0.00     0.008 C 
ATOM     27  C   UNL A   1      32.100  28.716  22.630  1.00  0.00     0.008 C 
ENDBRANCH  23  25
ENDBRANCH  22  23
ENDBRANCH  15  22
ENDBRANCH  10  14
ENDBRANCH   7   9
ENDBRANCH   6   7
ENDBRANCH   5   6
ENDBRANCH   4   5
ENDBRANCH   3   4
ENDBRANCH   2   3
ENDBRANCH   1   2
BRANCH   1  28
ATOM     28  O   UNL A   1      44.100  20.497  25.028  1.00  0.00    -0.377 OA
BRANCH  28  29
ATOM     29  C   UNL A   1      44.286  21.914  25.018  1.00  0.00     0.188 C 
BRANCH  29  30
ATOM     30  C   UNL A   1      45.295  22.527  26.026  1.00  0.00     0.188 C 
BRANCH  30  31
ATOM     31  O   UNL A   1      44.979  23.854  26.430  1.00  0.00    -0.376 OA
BRANCH  31  32
ATOM     32  C   UNL A   1      43.745  24.454  26.072  1.00  0.00     0.202 C 
BRANCH  32  33
ATOM     33  C   UNL A   1      42.752  24.716  27.200  1.00  0.00     0.261 C 
BRANCH  33  34
ATOM     34  O   UNL A   1      41.929  25.844  26.980  1.00  0.00    -0.460 OA
BRANCH  34  35
ATOM     35  C   UNL A   1      40.610  25.592  26.958  1.00  0.00     0.338 C 
ATOM     36  O   UNL A   1      40.046  24.661  26.394  1.00  0.00    -0.246 OA
BRANCH  35  37
ATOM     37  C   UNL A   1      39.932  26.688  27.643  1.00  0.00     0.060 A 
ATOM     38  C   UNL A   1      40.238  27.971  27.198  1.00  0.00     0.016 A 
ATOM     39  C   UNL A   1      39.347  26.437  28.897  1.00  0.00     0.016 A 
ATOM     40  C   UNL A   1      40.251  28.972  28.135  1.00  0.00     0.010 A 
ATOM     41  C   UNL A   1      39.381  27.431  29.834  1.00  0.00     0.010 A 
ATOM     42  C   UNL A   1      39.942  28.645  29.460  1.00  0.00    -0.014 A 
BRANCH  42  43
ATOM     43  C   UNL A   1      40.177  29.648  30.466  1.00  0.00     0.031 A 
ATOM     44  C   UNL A   1      38.993  30.494  30.681  1.00  0.00     0.074 A 
ATOM     45  C   UNL A   1      41.331  29.723  31.151  1.00  0.00     0.049 A 
ATOM     46  N   UNL A   1      38.826  31.713  30.301  1.00  0.00    -0.248 NA
ATOM     47  C   UNL A   1      37.766  29.834  31.155  1.00  0.00     0.031 C 
ATOM     48  C   UNL A   1      42.445  28.773  31.185  1.00  0.00     0.029 A 
ATOM     49  N   UNL A   1      41.704  30.659  32.058  1.00  0.00    -0.354 N 
ATOM     50  C   UNL A   1      37.552  32.054  30.727  1.00  0.00     0.074 A 
ATOM     51  C   UNL A   1      36.877  30.814  30.999  1.00  0.00     0.031 C 
ATOM     52  C   UNL A   1      43.242  29.064  32.242  1.00  0.00     0.029 A 
ATOM     53  C   UNL A   1      42.765  30.287  32.873  1.00  0.00     0.049 A 
ATOM     54  H   UNL A   1      41.257  31.533  32.135  1.00  0.00     0.167 HD
ATOM     55  C   UNL A   1      37.263  33.327  31.098  1.00  0.00     0.034 A 
ATOM     56  C   UNL A   1      43.141  30.900  34.028  1.00  0.00     0.034 A 
ATOM     57  C   UNL A   1      38.239  34.255  30.565  1.00  0.00     0.049 A 
ATOM     58  C   UNL A   1      42.586  32.283  33.971  1.00  0.00     0.074 A 
ATOM     59  C   UNL A   1      38.671  34.556  29.286  1.00  0.00     0.029 A 
ATOM     60  N   UNL A   1      39.226  34.724  31.406  1.00  0.00    -0.354 N 
ATOM     61  N   UNL A   1      42.973  33.170  33.091  1.00  0.00    -0.248 NA
ATOM     62  C   UNL A   1      41.255  32.509  34.522  1.00  0.00     0.031 C 
ATOM     63  C   UNL A   1      40.084  34.713  29.401  1.00  0.00     0.029 A 
ATOM     64  C   UNL A   1      40.428  34.590  30.750  1.00  0.00     0.049 A 
ATOM     65  H   UNL A   1      39.095  35.087  32.311  1.00  0.00     0.167 HD
ATOM     66  C   UNL A   1      41.808  33.795  32.665  1.00  0.00     0.074 A 
ATOM     67  C   UNL A   1      40.791  33.403  33.642  1.00  0.00     0.031 C 
ATOM     68  C   UNL A   1      41.698  34.326  31.409  1.00  0.00     0.034 A 
BRANCH  55  69
ATOM     69  C   UNL A   1      36.333  33.672  32.237  1.00  0.00     0.023 A 
ATOM     70  C   UNL A   1      35.268  34.541  31.950  1.00  0.00     0.031 A 
ATOM     71  C   UNL A   1      36.578  33.433  33.612  1.00  0.00     0.131 A 
ATOM     72  C   UNL A   1      34.573  35.192  32.982  1.00  0.00     0.055 A 
ATOM     73  C   UNL A   1      35.836  34.027  34.635  1.00  0.00     0.041 A 
ATOM     74  F   UNL A   1      37.598  32.692  34.060  1.00  0.00    -0.206 F 
ATOM     75  C   UNL A   1      34.846  34.939  34.323  1.00  0.00     0.022 A 
BRANCH  72  76
ATOM     76  S   UNL A   1      33.424  36.513  32.533  1.00  0.00     0.124 S 
ATOM     77  O   UNL A   1      32.142  35.928  32.911  1.00  0.00    -0.237 OA
ATOM     78  O   UNL A   1      33.900  37.615  33.363  1.00  0.00    -0.237 OA
ATOM     79  O   UNL A   1      33.639  36.674  31.097  1.00  0.00    -0.744 OA
ENDBRANCH  72  76
ENDBRANCH  55  69
BRANCH  56  80
ATOM     80  C   UNL A   1      43.559  30.219  35.291  1.00  0.00     0.023 A 
ATOM     81  C   UNL A   1      43.112  28.930  35.658  1.00  0.00     0.031 A 
ATOM     82  C   UNL A   1      44.613  30.761  36.063  1.00  0.00     0.131 A 
ATOM     83  C   UNL A   1      43.705  28.254  36.754  1.00  0.00     0.055 A 
ATOM     84  C   UNL A   1      45.190  30.092  37.145  1.00  0.00     0.041 A 
ATOM     85  F   UNL A   1      45.182  31.933  35.741  1.00  0.00    -0.206 F 
ATOM     86  C   UNL A   1      44.743  28.830  37.491  1.00  0.00     0.022 A 
BRANCH  83  87
ATOM     87  S   UNL A   1      43.189  26.562  37.197  1.00  0.00     0.124 S 
ATOM     88  O   UNL A   1      41.781  26.557  36.817  1.00  0.00    -0.237 OA
ATOM     89  O   UNL A   1      44.083  25.740  36.390  1.00  0.00    -0.237 OA
ATOM     90  O   UNL A   1      43.434  26.494  38.639  1.00  0.00    -0.744 OA
ENDBRANCH  83  87
ENDBRANCH  56  80
BRANCH  68  91
ATOM     91  C   UNL A   1      42.952  34.464  30.562  1.00  0.00     0.023 A 
ATOM     92  C   UNL A   1      43.433  33.493  29.651  1.00  0.00     0.031 A 
ATOM     93  C   UNL A   1      43.613  35.707  30.590  1.00  0.00     0.131 A 
ATOM     94  C   UNL A   1      44.538  33.785  28.823  1.00  0.00     0.055 A 
ATOM     95  C   UNL A   1      44.690  35.999  29.754  1.00  0.00     0.041 A 
ATOM     96  F   UNL A   1      43.193  36.682  31.413  1.00  0.00    -0.206 F 
ATOM     97  C   UNL A   1      45.160  35.037  28.869  1.00  0.00     0.022 A 
BRANCH  94  98
ATOM     98  S   UNL A   1      45.204  32.535  27.674  1.00  0.00     0.124 S 
ATOM     99  O   UNL A   1      46.643  32.596  27.899  1.00  0.00    -0.237 OA
ATOM    100  O   UNL A   1      44.538  31.313  28.116  1.00  0.00    -0.237 OA
ATOM    101  O   UNL A   1      44.772  33.017  26.359  1.00  0.00    -0.744 OA
ENDBRANCH  94  98
ENDBRANCH  68  91
ENDBRANCH  42  43
ENDBRANCH  35  37
ENDBRANCH  34  35
ENDBRANCH  33  34
ENDBRANCH  32  33
ENDBRANCH  31  32
ENDBRANCH  30  31
ENDBRANCH  29  30
ENDBRANCH  28  29
ENDBRANCH   1  28
TORSDOF 27
ENDMDL
MODEL 2
REMARK VINA RESULT:      -9.5      2.877      8.998
REMARK SMILES CC(C)[C@H](C)CNC(=O)N1CC(n2cc(C(=O)OCCOCCOCCOCCOC(=O)c3ccc(-c4c5nc(c(-c6cc(S(=O)(=O)[O-])ccc6F)c6ccc([nH]6)c(-c6cc(S(=O)(=O)[O-])ccc6F)c6nc(c(-c7cc(S(=O)(=O)[O-])ccc7F)c7ccc4[nH]7)C=C6)C=C5)cc3)nn2)C1
REMARK SMILES IDX 23 1 22 2 21 3 20 4 19 5 18 6 16 7 17 8 15 9 13 10 14 11
REMARK SMILES IDX 97 12 96 13 12 14 7 15 8 16 9 18 10 19 11 20 98 21 6 22 4 23
REMARK SMILES IDX 5 24 2 25 1 26 3 27 24 28 25 29 26 30 27 31 28 32 29 33
REMARK SMILES IDX 30 34 31 35 32 36 33 37 34 38 95 39 35 40 94 41 36 42 37 43
REMARK SMILES IDX 38 44 88 45 39 46 93 47 87 48 89 49 40 50 92 51 86 52 85 53
REMARK SMILES IDX 41 55 73 56 53 57 72 58 54 59 57 60 71 61 90 62 55 63 56 64
REMARK SMILES IDX 70 66 91 67 58 68 42 69 43 70 51 71 44 72 50 73 52 74 49 75
REMARK SMILES IDX 45 76 46 77 47 78 48 79 74 80 75 81 83 82 76 83 82 84 84 85
REMARK SMILES IDX 81 86 77 87 78 88 79 89 80 90 59 91 60 92 68 93 61 94 67 95
REMARK SMILES IDX 69 96 66 97 62 98 63 99 64 100 65 101
REMARK H PARENT 7 17 89 54 57 65
REMARK Flexibility Score: inf
ROOT
ATOM      1  C   UNL A   1      33.721  26.824  24.062  1.00  0.00     0.188 C 
ENDROOT
BRANCH   1   2
ATOM      2  C   UNL A   1      32.937  27.430  22.874  1.00  0.00     0.188 C 
BRANCH   2   3
ATOM      3  O   UNL A   1      32.461  28.772  22.868  1.00  0.00    -0.376 OA
BRANCH   3   4
ATOM      4  C   UNL A   1      31.343  29.193  23.629  1.00  0.00     0.202 C 
BRANCH   4   5
ATOM      5  C   UNL A   1      29.916  29.142  23.067  1.00  0.00     0.261 C 
BRANCH   5   6
ATOM      6  O   UNL A   1      29.475  27.868  22.594  1.00  0.00    -0.458 OA
BRANCH   6   7
ATOM      7  C   UNL A   1      28.855  27.093  23.526  1.00  0.00     0.360 C 
ATOM      8  O   UNL A   1      27.713  27.275  23.931  1.00  0.00    -0.244 OA
BRANCH   7   9
ATOM      9  C   UNL A   1      29.676  25.962  23.928  1.00  0.00     0.190 A 
ATOM     10  N   UNL A   1      30.783  24.422  24.971  1.00  0.00    -0.245 N 
ATOM     11  C   UNL A   1      30.033  25.544  25.196  1.00  0.00     0.147 A 
ATOM     12  N   UNL A   1      30.958  24.209  23.659  1.00  0.00    -0.066 NA
ATOM     13  N   UNL A   1      30.280  25.140  23.007  1.00  0.00    -0.123 NA
BRANCH  10  14
ATOM     14  C   UNL A   1      31.125  23.477  25.989  1.00  0.00     0.148 C 
ATOM     15  N   UNL A   1      34.032  20.422  26.471  1.00  0.00    -0.338 N 
ATOM     16  C   UNL A   1      33.641  21.578  27.067  1.00  0.00     0.317 C 
ATOM     17  H   UNL A   1      34.284  19.702  27.094  1.00  0.00     0.165 HD
ATOM     18  O   UNL A   1      34.011  21.790  28.221  1.00  0.00    -0.249 OA
ATOM     19  N   UNL A   1      32.864  22.451  26.388  1.00  0.00    -0.320 N 
ATOM     20  C   UNL A   1      32.395  23.770  26.797  1.00  0.00     0.150 C 
ATOM     21  C   UNL A   1      31.877  22.298  25.344  1.00  0.00     0.150 C 
BRANCH  15  22
ATOM     22  C   UNL A   1      34.136  20.074  25.060  1.00  0.00     0.121 C 
BRANCH  22  23
ATOM     23  C   UNL A   1      33.785  18.590  24.810  1.00  0.00     0.008 C 
ATOM     24  C   UNL A   1      32.627  18.163  25.729  1.00  0.00     0.010 C 
BRANCH  23  25
ATOM     25  C   UNL A   1      33.507  18.229  23.318  1.00  0.00    -0.013 C 
ATOM     26  C   UNL A   1      34.133  16.911  22.855  1.00  0.00     0.008 C 
ATOM     27  C   UNL A   1      32.017  18.241  22.964  1.00  0.00     0.008 C 
ENDBRANCH  23  25
ENDBRANCH  22  23
ENDBRANCH  15  22
ENDBRANCH  10  14
ENDBRANCH   7   9
ENDBRANCH   6   7
ENDBRANCH   5   6
ENDBRANCH   4   5
ENDBRANCH   3   4
ENDBRANCH   2   3
ENDBRANCH   1   2
BRANCH   1  28
ATOM     28  O   UNL A   1      34.384  25.606  23.770  1.00  0.00    -0.377 OA
BRANCH  28  29
ATOM     29  C   UNL A   1      34.520  24.701  24.868  1.00  0.00     0.188 C 
BRANCH  29  30
ATOM     30  C   UNL A   1      35.911  24.059  25.120  1.00  0.00     0.188 C 
BRANCH  30  31
ATOM     31  O   UNL A   1      36.301  23.112  24.133  1.00  0.00    -0.376 OA
BRANCH  31  32
ATOM     32  C   UNL A   1      37.329  22.169  24.389  1.00  0.00     0.202 C 
BRANCH  32  33
ATOM     33  C   UNL A   1      37.740  21.977  25.846  1.00  0.00     0.261 C 
BRANCH  33  34
ATOM     34  O   UNL A   1      38.487  23.056  26.371  1.00  0.00    -0.460 OA
BRANCH  34  35
ATOM     35  C   UNL A   1      39.670  22.720  26.912  1.00  0.00     0.338 C 
ATOM     36  O   UNL A   1      39.973  21.643  27.414  1.00  0.00    -0.246 OA
BRANCH  35  37
ATOM     37  C   UNL A   1      40.522  23.905  26.897  1.00  0.00     0.060 A 
ATOM     38  C   UNL A   1      41.582  23.909  27.800  1.00  0.00     0.016 A 
ATOM     39  C   UNL A   1      40.034  25.077  26.291  1.00  0.00     0.016 A 
ATOM     40  C   UNL A   1      41.941  25.118  28.337  1.00  0.00     0.010 A 
ATOM     41  C   UNL A   1      40.379  26.278  26.842  1.00  0.00     0.010 A 
ATOM     42  C   UNL A   1      41.239  26.260  27.933  1.00  0.00    -0.014 A 
BRANCH  42  43
ATOM     43  C   UNL A   1      41.470  27.478  28.664  1.00  0.00     0.031 A 
ATOM     44  C   UNL A   1      42.581  28.256  28.092  1.00  0.00     0.074 A 
ATOM     45  C   UNL A   1      40.698  27.855  29.697  1.00  0.00     0.049 A 
ATOM     46  N   UNL A   1      43.765  28.397  28.576  1.00  0.00    -0.248 NA
ATOM     47  C   UNL A   1      42.434  28.727  26.705  1.00  0.00     0.031 C 
ATOM     48  C   UNL A   1      39.432  27.281  30.157  1.00  0.00     0.029 A 
ATOM     49  N   UNL A   1      40.856  28.928  30.509  1.00  0.00    -0.354 N 
ATOM     50  C   UNL A   1      44.435  29.201  27.667  1.00  0.00     0.074 A 
ATOM     51  C   UNL A   1      43.671  29.150  26.451  1.00  0.00     0.031 C 
ATOM     52  C   UNL A   1      38.830  28.155  31.000  1.00  0.00     0.029 A 
ATOM     53  C   UNL A   1      39.724  29.280  31.233  1.00  0.00     0.049 A 
ATOM     54  H   UNL A   1      41.706  29.420  30.581  1.00  0.00     0.167 HD
ATOM     55  C   UNL A   1      45.393  30.068  28.084  1.00  0.00     0.034 A 
ATOM     56  C   UNL A   1      39.525  30.459  31.884  1.00  0.00     0.034 A 
ATOM     57  C   UNL A   1      45.889  29.700  29.394  1.00  0.00     0.049 A 
ATOM     58  C   UNL A   1      40.876  31.041  32.125  1.00  0.00     0.074 A 
ATOM     59  C   UNL A   1      46.475  28.556  29.907  1.00  0.00     0.029 A 
ATOM     60  N   UNL A   1      45.430  30.400  30.489  1.00  0.00    -0.354 N 
ATOM     61  N   UNL A   1      41.764  30.483  32.906  1.00  0.00    -0.248 NA
ATOM     62  C   UNL A   1      41.429  31.929  31.109  1.00  0.00     0.031 C 
ATOM     63  C   UNL A   1      45.891  28.389  31.197  1.00  0.00     0.029 A 
ATOM     64  C   UNL A   1      45.053  29.481  31.442  1.00  0.00     0.049 A 
ATOM     65  H   UNL A   1      45.381  31.379  30.575  1.00  0.00     0.167 HD
ATOM     66  C   UNL A   1      42.971  30.597  32.230  1.00  0.00     0.074 A 
ATOM     67  C   UNL A   1      42.716  31.570  31.167  1.00  0.00     0.031 C 
ATOM     68  C   UNL A   1      43.976  29.684  32.398  1.00  0.00     0.034 A 
BRANCH  55  69
ATOM     69  C   UNL A   1      45.598  31.436  27.480  1.00  0.00     0.023 A 
ATOM     70  C   UNL A   1      46.890  31.747  27.027  1.00  0.00     0.031 A 
ATOM     71  C   UNL A   1      44.699  32.529  27.568  1.00  0.00     0.131 A 
ATOM     72  C   UNL A   1      47.267  33.077  26.782  1.00  0.00     0.055 A 
ATOM     73  C   UNL A   1      45.058  33.840  27.254  1.00  0.00     0.041 A 
ATOM     74  F   UNL A   1      43.456  32.420  28.050  1.00  0.00    -0.206 F 
ATOM     75  C   UNL A   1      46.359  34.127  26.889  1.00  0.00     0.022 A 
BRANCH  72  76
ATOM     76  S   UNL A   1      49.016  33.428  26.495  1.00  0.00     0.124 S 
ATOM     77  O   UNL A   1      48.952  34.318  25.341  1.00  0.00    -0.237 OA
ATOM     78  O   UNL A   1      49.408  34.040  27.760  1.00  0.00    -0.237 OA
ATOM     79  O   UNL A   1      49.588  32.109  26.236  1.00  0.00    -0.744 OA
ENDBRANCH  72  76
ENDBRANCH  55  69
BRANCH  56  80
ATOM     80  C   UNL A   1      38.258  31.251  31.901  1.00  0.00     0.023 A 
ATOM     81  C   UNL A   1      37.597  31.678  30.728  1.00  0.00     0.031 A 
ATOM     82  C   UNL A   1      37.547  31.409  33.114  1.00  0.00     0.131 A 
ATOM     83  C   UNL A   1      36.296  32.239  30.804  1.00  0.00     0.055 A 
ATOM     84  C   UNL A   1      36.268  31.965  33.183  1.00  0.00     0.041 A 
ATOM     85  F   UNL A   1      38.036  30.946  34.274  1.00  0.00    -0.206 F 
ATOM     86  C   UNL A   1      35.633  32.377  32.025  1.00  0.00     0.022 A 
BRANCH  83  87
ATOM     87  S   UNL A   1      35.401  32.729  29.292  1.00  0.00     0.124 S 
ATOM     88  O   UNL A   1      36.466  33.286  28.467  1.00  0.00    -0.237 OA
ATOM     89  O   UNL A   1      34.825  31.466  28.846  1.00  0.00    -0.237 OA
ATOM     90  O   UNL A   1      34.425  33.708  29.774  1.00  0.00    -0.744 OA
ENDBRANCH  83  87
ENDBRANCH  56  80
BRANCH  68  91
ATOM     91  C   UNL A   1      43.868  28.680  33.533  1.00  0.00     0.023 A 
ATOM     92  C   UNL A   1      44.322  28.893  34.857  1.00  0.00     0.031 A 
ATOM     93  C   UNL A   1      43.146  27.498  33.280  1.00  0.00     0.131 A 
ATOM     94  C   UNL A   1      44.052  27.937  35.860  1.00  0.00     0.055 A 
ATOM     95  C   UNL A   1      42.861  26.568  34.279  1.00  0.00     0.041 A 
ATOM     96  F   UNL A   1      42.665  27.245  32.051  1.00  0.00    -0.206 F 
ATOM     97  C   UNL A   1      43.318  26.782  35.573  1.00  0.00     0.022 A 
BRANCH  94  98
ATOM     98  S   UNL A   1      44.664  28.168  37.563  1.00  0.00     0.124 S 
ATOM     99  O   UNL A   1      44.272  29.535  37.885  1.00  0.00    -0.237 OA
ATOM    100  O   UNL A   1      43.966  27.113  38.294  1.00  0.00    -0.237 OA
ATOM    101  O   UNL A   1      46.108  27.962  37.436  1.00  0.00    -0.744 OA
ENDBRANCH  94  98
ENDBRANCH  68  91
ENDBRANCH  42  43
ENDBRANCH  35  37
ENDBRANCH  34  35
ENDBRANCH  33  34
ENDBRANCH  32  33
ENDBRANCH  31  32
ENDBRANCH  30  31
ENDBRANCH  29  30
ENDBRANCH  28  29
ENDBRANCH   1  28
TORSDOF 27
ENDMDL
MODEL 3
REMARK VINA RESULT:      -9.3      1.744      2.029
REMARK SMILES CC(C)[C@H](C)CNC(=O)N1CC(n2cc(C(=O)OCCOCCOCCOCCOC(=O)c3ccc(-c4c5nc(c(-c6cc(S(=O)(=O)[O-])ccc6F)c6ccc([nH]6)c(-c6cc(S(=O)(=O)[O-])ccc6F)c6nc(c(-c7cc(S(=O)(=O)[O-])ccc7F)c7ccc4[nH]7)C=C6)C=C5)cc3)nn2)C1
REMARK SMILES IDX 23 1 22 2 21 3 20 4 19 5 18 6 16 7 17 8 15 9 13 10 14 11
REMARK SMILES IDX 97 12 96 13 12 14 7 15 8 16 9 18 10 19 11 20 98 21 6 22 4 23
REMARK SMILES IDX 5 24 2 25 1 26 3 27 24 28 25 29 26 30 27 31 28 32 29 33
REMARK SMILES IDX 30 34 31 35 32 36 33 37 34 38 95 39 35 40 94 41 36 42 37 43
REMARK SMILES IDX 38 44 88 45 39 46 93 47 87 48 89 49 40 50 92 51 86 52 85 53
REMARK SMILES IDX 41 55 73 56 53 57 72 58 54 59 57 60 71 61 90 62 55 63 56 64
REMARK SMILES IDX 70 66 91 67 58 68 42 69 43 70 51 71 44 72 50 73 52 74 49 75
REMARK SMILES IDX 45 76 46 77 47 78 48 79 74 80 75 81 83 82 76 83 82 84 84 85
REMARK SMILES IDX 81 86 77 87 78 88 79 89 80 90 59 91 60 92 68 93 61 94 67 95
REMARK SMILES IDX 69 96 66 97 62 98 63 99 64 100 65 101
REMARK H PARENT 7 17 89 54 57 65
REMARK Flexibility Score: inf
ROOT
ATOM      1  C   UNL A   1      42.462  20.097  26.445  1.00  0.00     0.188 C 
ENDROOT
BRANCH   1   2
ATOM      2  C   UNL A   1      41.225  21.020  26.347  1.00  0.00     0.188 C 
BRANCH   2   3
ATOM      3  O   UNL A   1      40.074  20.689  25.576  1.00  0.00    -0.376 OA
BRANCH   3   4
ATOM      4  C   UNL A   1      38.756  21.001  25.991  1.00  0.00     0.202 C 
BRANCH   4   5
ATOM      5  C   UNL A   1      37.808  21.831  25.114  1.00  0.00     0.261 C 
BRANCH   5   6
ATOM      6  O   UNL A   1      36.455  21.917  25.564  1.00  0.00    -0.458 OA
BRANCH   6   7
ATOM      7  C   UNL A   1      35.640  20.916  25.130  1.00  0.00     0.360 C 
ATOM      8  O   UNL A   1      35.972  19.741  25.043  1.00  0.00    -0.244 OA
BRANCH   7   9
ATOM      9  C   UNL A   1      34.291  21.389  24.863  1.00  0.00     0.190 A 
ATOM     10  N   UNL A   1      32.512  22.459  24.250  1.00  0.00    -0.245 N 
ATOM     11  C   UNL A   1      33.876  22.558  24.252  1.00  0.00     0.147 A 
ATOM     12  N   UNL A   1      32.103  21.356  24.893  1.00  0.00    -0.066 NA
ATOM     13  N   UNL A   1      33.182  20.687  25.269  1.00  0.00    -0.123 NA
BRANCH  10  14
ATOM     14  C   UNL A   1      31.656  23.289  23.460  1.00  0.00     0.148 C 
ATOM     15  N   UNL A   1      30.773  27.435  23.239  1.00  0.00    -0.338 N 
ATOM     16  C   UNL A   1      31.257  26.440  22.453  1.00  0.00     0.317 C 
ATOM     17  H   UNL A   1      30.164  28.061  22.784  1.00  0.00     0.165 HD
ATOM     18  O   UNL A   1      31.264  26.614  21.235  1.00  0.00    -0.249 OA
ATOM     19  N   UNL A   1      31.710  25.299  23.020  1.00  0.00    -0.320 N 
ATOM     20  C   UNL A   1      32.334  24.144  22.383  1.00  0.00     0.150 C 
ATOM     21  C   UNL A   1      31.370  24.590  24.232  1.00  0.00     0.150 C 
BRANCH  15  22
ATOM     22  C   UNL A   1      31.007  27.725  24.648  1.00  0.00     0.121 C 
BRANCH  22  23
ATOM     23  C   UNL A   1      32.171  28.724  24.839  1.00  0.00     0.008 C 
ATOM     24  C   UNL A   1      31.644  30.029  25.461  1.00  0.00     0.010 C 
BRANCH  23  25
ATOM     25  C   UNL A   1      33.393  28.157  25.626  1.00  0.00    -0.013 C 
ATOM     26  C   UNL A   1      33.086  27.746  27.068  1.00  0.00     0.008 C 
ATOM     27  C   UNL A   1      34.090  27.001  24.901  1.00  0.00     0.008 C 
ENDBRANCH  23  25
ENDBRANCH  22  23
ENDBRANCH  15  22
ENDBRANCH  10  14
ENDBRANCH   7   9
ENDBRANCH   6   7
ENDBRANCH   5   6
ENDBRANCH   4   5
ENDBRANCH   3   4
ENDBRANCH   2   3
ENDBRANCH   1   2
BRANCH   1  28
ATOM     28  O   UNL A   1      43.502  20.408  25.535  1.00  0.00    -0.377 OA
BRANCH  28  29
ATOM     29  C   UNL A   1      43.736  21.801  25.320  1.00  0.00     0.188 C 
BRANCH  29  30
ATOM     30  C   UNL A   1      44.859  22.491  26.140  1.00  0.00     0.188 C 
BRANCH  30  31
ATOM     31  O   UNL A   1      44.562  23.830  26.520  1.00  0.00    -0.376 OA
BRANCH  31  32
ATOM     32  C   UNL A   1      43.260  24.365  26.356  1.00  0.00     0.202 C 
BRANCH  32  33
ATOM     33  C   UNL A   1      42.386  24.445  27.604  1.00  0.00     0.261 C 
BRANCH  33  34
ATOM     34  O   UNL A   1      41.442  25.497  27.569  1.00  0.00    -0.460 OA
BRANCH  34  35
ATOM     35  C   UNL A   1      40.179  25.140  27.851  1.00  0.00     0.338 C 
ATOM     36  O   UNL A   1      39.650  24.057  27.624  1.00  0.00    -0.246 OA
BRANCH  35  37
ATOM     37  C   UNL A   1      39.492  26.309  28.392  1.00  0.00     0.060 A 
ATOM     38  C   UNL A   1      39.777  27.525  27.777  1.00  0.00     0.016 A 
ATOM     39  C   UNL A   1      38.921  26.220  29.674  1.00  0.00     0.016 A 
ATOM     40  C   UNL A   1      39.784  28.642  28.572  1.00  0.00     0.010 A 
ATOM     41  C   UNL A   1      38.949  27.330  30.470  1.00  0.00     0.010 A 
ATOM     42  C   UNL A   1      39.491  28.491  29.933  1.00  0.00    -0.014 A 
BRANCH  42  43
ATOM     43  C   UNL A   1      39.720  29.621  30.794  1.00  0.00     0.031 A 
ATOM     44  C   UNL A   1      38.518  30.458  30.930  1.00  0.00     0.074 A 
ATOM     45  C   UNL A   1      40.887  29.814  31.432  1.00  0.00     0.049 A 
ATOM     46  N   UNL A   1      38.307  31.612  30.399  1.00  0.00    -0.248 NA
ATOM     47  C   UNL A   1      37.321  29.834  31.518  1.00  0.00     0.031 C 
ATOM     48  C   UNL A   1      42.028  28.904  31.559  1.00  0.00     0.029 A 
ATOM     49  N   UNL A   1      41.254  30.868  32.200  1.00  0.00    -0.354 N 
ATOM     50  C   UNL A   1      37.034  31.973  30.813  1.00  0.00     0.074 A 
ATOM     51  C   UNL A   1      36.402  30.763  31.261  1.00  0.00     0.031 C 
ATOM     52  C   UNL A   1      42.841  29.350  32.548  1.00  0.00     0.029 A 
ATOM     53  C   UNL A   1      42.345  30.632  33.027  1.00  0.00     0.049 A 
ATOM     54  H   UNL A   1      40.785  31.733  32.175  1.00  0.00     0.167 HD
ATOM     55  C   UNL A   1      36.718  33.277  31.024  1.00  0.00     0.034 A 
ATOM     56  C   UNL A   1      42.730  31.400  34.084  1.00  0.00     0.034 A 
ATOM     57  C   UNL A   1      37.654  34.151  30.349  1.00  0.00     0.049 A 
ATOM     58  C   UNL A   1      42.134  32.748  33.863  1.00  0.00     0.074 A 
ATOM     59  C   UNL A   1      38.048  34.295  29.031  1.00  0.00     0.029 A 
ATOM     60  N   UNL A   1      38.646  34.750  31.096  1.00  0.00    -0.354 N 
ATOM     61  N   UNL A   1      42.475  33.524  32.866  1.00  0.00    -0.248 NA
ATOM     62  C   UNL A   1      40.811  33.011  34.416  1.00  0.00     0.031 C 
ATOM     63  C   UNL A   1      39.458  34.500  29.087  1.00  0.00     0.029 A 
ATOM     64  C   UNL A   1      39.837  34.563  30.431  1.00  0.00     0.049 A 
ATOM     65  H   UNL A   1      38.526  35.225  31.949  1.00  0.00     0.167 HD
ATOM     66  C   UNL A   1      41.283  34.058  32.394  1.00  0.00     0.074 A 
ATOM     67  C   UNL A   1      40.301  33.771  33.441  1.00  0.00     0.031 C 
ATOM     68  C   UNL A   1      41.128  34.419  31.084  1.00  0.00     0.034 A 
BRANCH  55  69
ATOM     69  C   UNL A   1      35.806  33.743  32.133  1.00  0.00     0.023 A 
ATOM     70  C   UNL A   1      34.782  34.638  31.783  1.00  0.00     0.031 A 
ATOM     71  C   UNL A   1      36.038  33.588  33.522  1.00  0.00     0.131 A 
ATOM     72  C   UNL A   1      34.118  35.391  32.765  1.00  0.00     0.055 A 
ATOM     73  C   UNL A   1      35.326  34.286  34.499  1.00  0.00     0.041 A 
ATOM     74  F   UNL A   1      37.023  32.833  34.023  1.00  0.00    -0.206 F 
ATOM     75  C   UNL A   1      34.380  35.219  34.122  1.00  0.00     0.022 A 
BRANCH  72  76
ATOM     76  S   UNL A   1      33.032  36.730  32.222  1.00  0.00     0.124 S 
ATOM     77  O   UNL A   1      32.176  36.905  33.390  1.00  0.00    -0.237 OA
ATOM     78  O   UNL A   1      33.990  37.800  31.958  1.00  0.00    -0.237 OA
ATOM     79  O   UNL A   1      32.375  36.174  31.042  1.00  0.00    -0.744 OA
ENDBRANCH  72  76
ENDBRANCH  55  69
BRANCH  56  80
ATOM     80  C   UNL A   1      43.196  30.899  35.412  1.00  0.00     0.023 A 
ATOM     81  C   UNL A   1      43.471  29.538  35.672  1.00  0.00     0.031 A 
ATOM     82  C   UNL A   1      43.602  31.821  36.405  1.00  0.00     0.131 A 
ATOM     83  C   UNL A   1      44.109  29.155  36.879  1.00  0.00     0.055 A 
ATOM     84  C   UNL A   1      44.226  31.438  37.594  1.00  0.00     0.041 A 
ATOM     85  F   UNL A   1      43.482  33.144  36.218  1.00  0.00    -0.206 F 
ATOM     86  C   UNL A   1      44.490  30.101  37.833  1.00  0.00     0.022 A 
BRANCH  83  87
ATOM     87  S   UNL A   1      44.534  27.410  37.198  1.00  0.00     0.124 S 
ATOM     88  O   UNL A   1      44.062  26.749  35.988  1.00  0.00    -0.237 OA
ATOM     89  O   UNL A   1      45.979  27.469  37.385  1.00  0.00    -0.237 OA
ATOM     90  O   UNL A   1      43.775  27.088  38.408  1.00  0.00    -0.744 OA
ENDBRANCH  83  87
ENDBRANCH  56  80
BRANCH  68  91
ATOM     91  C   UNL A   1      42.358  34.477  30.192  1.00  0.00     0.023 A 
ATOM     92  C   UNL A   1      43.218  35.594  30.061  1.00  0.00     0.031 A 
ATOM     93  C   UNL A   1      42.743  33.286  29.549  1.00  0.00     0.131 A 
ATOM     94  C   UNL A   1      44.403  35.489  29.301  1.00  0.00     0.055 A 
ATOM     95  C   UNL A   1      43.926  33.180  28.819  1.00  0.00     0.041 A 
ATOM     96  F   UNL A   1      41.985  32.182  29.653  1.00  0.00    -0.206 F 
ATOM     97  C   UNL A   1      44.759  34.283  28.688  1.00  0.00     0.022 A 
BRANCH  94  98
ATOM     98  S   UNL A   1      45.505  36.926  29.079  1.00  0.00     0.124 S 
ATOM     99  O   UNL A   1      45.426  37.617  30.361  1.00  0.00    -0.237 OA
ATOM    100  O   UNL A   1      46.785  36.297  28.769  1.00  0.00    -0.237 OA
ATOM    101  O   UNL A   1      44.898  37.649  27.959  1.00  0.00    -0.744 OA
ENDBRANCH  94  98
ENDBRANCH  68  91
ENDBRANCH  42  43
ENDBRANCH  35  37
ENDBRANCH  34  35
ENDBRANCH  33  34
ENDBRANCH  32  33
ENDBRANCH  31  32
ENDBRANCH  30  31
ENDBRANCH  29  30
ENDBRANCH  28  29
ENDBRANCH   1  28
TORSDOF 27
ENDMDL
