MODEL 1
REMARK VINA RESULT:     -10.2      0.000      0.000
REMARK SMILES Cn1ncc(C(=O)OCCOCCOCCOCCOC(=O)c2ccc(-c3c4nc(c(-c5cc(S(=O)(=O)[O-])ccc5F)c5ccc([nH]5)c(-c5cc(S(=O)(=O)[O-])ccc5F)c5nc(c(-c6cc(S(=O)(=O)[O-])ccc6F)c6ccc3[nH]6)C=C5)C=C4)cc2)c1C(=O)Nc1ccccn1
REMARK SMILES IDX 15 1 14 2 13 3 12 4 11 5 10 6 9 7 8 8 6 9 7 10 5 11 1 12
REMARK SMILES IDX 2 13 3 14 86 15 4 16 87 17 88 18 89 19 90 21 91 22 95 23
REMARK SMILES IDX 92 24 94 25 93 26 16 27 17 28 18 29 19 30 20 31 21 32 22 33
REMARK SMILES IDX 23 34 24 35 85 36 25 37 84 38 26 39 27 40 28 41 78 42 29 43
REMARK SMILES IDX 83 44 77 45 79 46 30 47 82 48 76 49 75 50 31 52 63 53 43 54
REMARK SMILES IDX 62 55 44 56 47 57 61 58 80 59 45 60 46 61 60 63 81 64 48 65
REMARK SMILES IDX 32 66 33 67 41 68 34 69 40 70 42 71 39 72 35 73 36 74 37 75
REMARK SMILES IDX 38 76 64 77 65 78 73 79 66 80 72 81 74 82 71 83 67 84 68 85
REMARK SMILES IDX 69 86 70 87 49 88 50 89 58 90 51 91 57 92 59 93 56 94 52 95
REMARK SMILES IDX 53 96 54 97 55 98
REMARK H PARENT 89 20 79 51 47 62
REMARK Flexibility Score: inf
ROOT
ATOM      1  C   UNL A   1      32.260  28.601  26.286  1.00  0.00     0.188 C 
ENDROOT
BRANCH   1   2
ATOM      2  O   UNL A   1      31.321  28.616  25.221  1.00  0.00    -0.377 OA
BRANCH   2   3
ATOM      3  C   UNL A   1      31.759  28.857  23.895  1.00  0.00     0.188 C 
BRANCH   3   4
ATOM      4  C   UNL A   1      30.791  28.729  22.702  1.00  0.00     0.188 C 
BRANCH   4   5
ATOM      5  O   UNL A   1      30.663  27.426  22.141  1.00  0.00    -0.376 OA
BRANCH   5   6
ATOM      6  C   UNL A   1      30.620  26.345  23.065  1.00  0.00     0.202 C 
BRANCH   6   7
ATOM      7  C   UNL A   1      31.077  25.021  22.449  1.00  0.00     0.261 C 
BRANCH   7   8
ATOM      8  O   UNL A   1      30.584  23.885  23.172  1.00  0.00    -0.460 OA
BRANCH   8   9
ATOM      9  C   UNL A   1      31.518  22.992  23.579  1.00  0.00     0.342 C 
ATOM     10  O   UNL A   1      32.309  22.420  22.835  1.00  0.00    -0.246 OA
BRANCH   9  11
ATOM     11  C   UNL A   1      31.640  22.932  25.019  1.00  0.00     0.111 A 
ATOM     12  C   UNL A   1      33.231  22.386  28.116  1.00  0.00     0.174 C 
ATOM     13  N   UNL A   1      32.253  22.541  27.063  1.00  0.00    -0.262 N 
ATOM     14  N   UNL A   1      31.471  23.639  27.164  1.00  0.00    -0.180 NA
ATOM     15  C   UNL A   1      32.183  21.924  25.829  1.00  0.00     0.140 A 
ATOM     16  C   UNL A   1      31.202  23.937  25.898  1.00  0.00     0.151 A 
BRANCH  15  17
ATOM     17  C   UNL A   1      32.733  20.670  25.338  1.00  0.00     0.275 C 
ATOM     18  O   UNL A   1      31.983  19.717  25.105  1.00  0.00    -0.267 OA
ATOM     19  N   UNL A   1      34.038  20.438  25.006  1.00  0.00    -0.305 N 
ATOM     20  H   UNL A   1      34.206  19.505  24.742  1.00  0.00     0.171 HD
BRANCH  19  21
ATOM     21  C   UNL A   1      35.173  21.221  24.961  1.00  0.00     0.132 A 
ATOM     22  C   UNL A   1      36.464  20.724  25.029  1.00  0.00     0.047 A 
ATOM     23  N   UNL A   1      34.896  22.536  24.848  1.00  0.00    -0.239 NA
ATOM     24  C   UNL A   1      37.517  21.645  25.046  1.00  0.00     0.005 A 
ATOM     25  C   UNL A   1      35.923  23.404  24.904  1.00  0.00     0.113 A 
ATOM     26  C   UNL A   1      37.242  23.011  25.012  1.00  0.00     0.020 A 
ENDBRANCH  19  21
ENDBRANCH  15  17
ENDBRANCH   9  11
ENDBRANCH   8   9
ENDBRANCH   7   8
ENDBRANCH   6   7
ENDBRANCH   5   6
ENDBRANCH   4   5
ENDBRANCH   3   4
ENDBRANCH   2   3
ENDBRANCH   1   2
BRANCH   1  27
ATOM     27  C   UNL A   1      32.454  29.866  27.140  1.00  0.00     0.188 C 
BRANCH  27  28
ATOM     28  O   UNL A   1      32.415  31.086  26.404  1.00  0.00    -0.376 OA
BRANCH  28  29
ATOM     29  C   UNL A   1      31.478  32.049  26.872  1.00  0.00     0.202 C 
BRANCH  29  30
ATOM     30  C   UNL A   1      32.040  33.473  26.926  1.00  0.00     0.261 C 
BRANCH  30  31
ATOM     31  O   UNL A   1      32.396  33.931  28.240  1.00  0.00    -0.460 OA
BRANCH  31  32
ATOM     32  C   UNL A   1      33.516  34.681  28.345  1.00  0.00     0.338 C 
ATOM     33  O   UNL A   1      33.598  35.894  28.290  1.00  0.00    -0.246 OA
BRANCH  32  34
ATOM     34  C   UNL A   1      34.623  33.778  28.710  1.00  0.00     0.060 A 
ATOM     35  C   UNL A   1      34.326  32.556  29.326  1.00  0.00     0.016 A 
ATOM     36  C   UNL A   1      35.945  34.138  28.438  1.00  0.00     0.016 A 
ATOM     37  C   UNL A   1      35.363  31.701  29.701  1.00  0.00     0.010 A 
ATOM     38  C   UNL A   1      36.981  33.290  28.832  1.00  0.00     0.010 A 
ATOM     39  C   UNL A   1      36.694  32.083  29.491  1.00  0.00    -0.014 A 
BRANCH  39  40
ATOM     40  C   UNL A   1      37.792  31.333  30.146  1.00  0.00     0.031 A 
ATOM     41  C   UNL A   1      38.112  31.660  31.580  1.00  0.00     0.074 A 
ATOM     42  C   UNL A   1      38.493  30.395  29.486  1.00  0.00     0.049 A 
ATOM     43  N   UNL A   1      39.052  31.183  32.352  1.00  0.00    -0.248 NA
ATOM     44  C   UNL A   1      37.256  32.672  32.221  1.00  0.00     0.031 C 
ATOM     45  C   UNL A   1      38.255  29.975  28.106  1.00  0.00     0.029 A 
ATOM     46  N   UNL A   1      39.560  29.634  29.891  1.00  0.00    -0.354 N 
ATOM     47  C   UNL A   1      38.894  31.827  33.575  1.00  0.00     0.074 A 
ATOM     48  C   UNL A   1      37.795  32.757  33.425  1.00  0.00     0.031 C 
ATOM     49  C   UNL A   1      39.164  29.040  27.774  1.00  0.00     0.029 A 
ATOM     50  C   UNL A   1      40.063  28.819  28.905  1.00  0.00     0.049 A 
ATOM     51  H   UNL A   1      39.930  29.667  30.803  1.00  0.00     0.167 HD
ATOM     52  C   UNL A   1      39.596  31.653  34.721  1.00  0.00     0.034 A 
ATOM     53  C   UNL A   1      41.142  28.009  28.912  1.00  0.00     0.034 A 
ATOM     54  C   UNL A   1      40.711  30.750  34.846  1.00  0.00     0.049 A 
ATOM     55  C   UNL A   1      41.971  27.903  30.172  1.00  0.00     0.074 A 
ATOM     56  C   UNL A   1      41.492  30.491  35.960  1.00  0.00     0.029 A 
ATOM     57  N   UNL A   1      41.218  29.969  33.815  1.00  0.00    -0.354 N 
ATOM     58  N   UNL A   1      41.799  28.499  31.329  1.00  0.00    -0.248 NA
ATOM     59  C   UNL A   1      43.137  27.010  30.124  1.00  0.00     0.031 C 
ATOM     60  C   UNL A   1      42.508  29.604  35.584  1.00  0.00     0.029 A 
ATOM     61  C   UNL A   1      42.321  29.256  34.256  1.00  0.00     0.049 A 
ATOM     62  H   UNL A   1      40.848  29.930  32.904  1.00  0.00     0.167 HD
ATOM     63  C   UNL A   1      42.818  28.029  32.155  1.00  0.00     0.074 A 
ATOM     64  C   UNL A   1      43.593  27.094  31.366  1.00  0.00     0.031 C 
ATOM     65  C   UNL A   1      43.088  28.337  33.450  1.00  0.00     0.034 A 
BRANCH  52  66
ATOM     66  C   UNL A   1      39.200  32.503  35.900  1.00  0.00     0.023 A 
ATOM     67  C   UNL A   1      39.616  33.842  36.013  1.00  0.00     0.031 A 
ATOM     68  C   UNL A   1      38.441  31.956  36.948  1.00  0.00     0.131 A 
ATOM     69  C   UNL A   1      39.328  34.567  37.179  1.00  0.00     0.055 A 
ATOM     70  C   UNL A   1      38.095  32.705  38.074  1.00  0.00     0.041 A 
ATOM     71  F   UNL A   1      38.040  30.676  36.904  1.00  0.00    -0.206 F 
ATOM     72  C   UNL A   1      38.551  34.014  38.201  1.00  0.00     0.022 A 
BRANCH  69  73
ATOM     73  S   UNL A   1      40.095  36.196  37.401  1.00  0.00     0.124 S 
ATOM     74  O   UNL A   1      39.240  36.788  38.427  1.00  0.00    -0.237 OA
ATOM     75  O   UNL A   1      41.449  35.851  37.818  1.00  0.00    -0.237 OA
ATOM     76  O   UNL A   1      39.986  36.809  36.079  1.00  0.00    -0.744 OA
ENDBRANCH  69  73
ENDBRANCH  52  66
BRANCH  53  77
ATOM     77  C   UNL A   1      41.543  27.266  27.683  1.00  0.00     0.023 A 
ATOM     78  C   UNL A   1      41.396  25.872  27.595  1.00  0.00     0.031 A 
ATOM     79  C   UNL A   1      42.151  27.934  26.605  1.00  0.00     0.131 A 
ATOM     80  C   UNL A   1      41.892  25.186  26.475  1.00  0.00     0.055 A 
ATOM     81  C   UNL A   1      42.598  27.254  25.472  1.00  0.00     0.041 A 
ATOM     82  F   UNL A   1      42.320  29.265  26.641  1.00  0.00    -0.206 F 
ATOM     83  C   UNL A   1      42.482  25.869  25.408  1.00  0.00     0.022 A 
BRANCH  80  84
ATOM     84  S   UNL A   1      41.836  23.372  26.471  1.00  0.00     0.124 S 
ATOM     85  O   UNL A   1      42.592  23.049  27.676  1.00  0.00    -0.237 OA
ATOM     86  O   UNL A   1      40.401  23.113  26.526  1.00  0.00    -0.237 OA
ATOM     87  O   UNL A   1      42.486  23.013  25.212  1.00  0.00    -0.744 OA
ENDBRANCH  80  84
ENDBRANCH  53  77
BRANCH  65  88
ATOM     88  C   UNL A   1      44.245  27.618  34.099  1.00  0.00     0.023 A 
ATOM     89  C   UNL A   1      45.559  28.109  34.020  1.00  0.00     0.031 A 
ATOM     90  C   UNL A   1      44.024  26.423  34.806  1.00  0.00     0.131 A 
ATOM     91  C   UNL A   1      46.611  27.382  34.599  1.00  0.00     0.055 A 
ATOM     92  C   UNL A   1      45.066  25.732  35.425  1.00  0.00     0.041 A 
ATOM     93  F   UNL A   1      42.787  25.910  34.913  1.00  0.00    -0.206 F 
ATOM     94  C   UNL A   1      46.370  26.204  35.314  1.00  0.00     0.022 A 
BRANCH  91  95
ATOM     95  S   UNL A   1      48.313  27.956  34.345  1.00  0.00     0.124 S 
ATOM     96  O   UNL A   1      48.529  28.796  35.519  1.00  0.00    -0.237 OA
ATOM     97  O   UNL A   1      49.063  26.705  34.308  1.00  0.00    -0.237 OA
ATOM     98  O   UNL A   1      48.246  28.675  33.073  1.00  0.00    -0.744 OA
ENDBRANCH  91  95
ENDBRANCH  65  88
ENDBRANCH  39  40
ENDBRANCH  32  34
ENDBRANCH  31  32
ENDBRANCH  30  31
ENDBRANCH  29  30
ENDBRANCH  28  29
ENDBRANCH  27  28
ENDBRANCH   1  27
TORSDOF 25
ENDMDL
MODEL 2
REMARK VINA RESULT:     -10.1      1.608      2.232
REMARK SMILES Cn1ncc(C(=O)OCCOCCOCCOCCOC(=O)c2ccc(-c3c4nc(c(-c5cc(S(=O)(=O)[O-])ccc5F)c5ccc([nH]5)c(-c5cc(S(=O)(=O)[O-])ccc5F)c5nc(c(-c6cc(S(=O)(=O)[O-])ccc6F)c6ccc3[nH]6)C=C5)C=C4)cc2)c1C(=O)Nc1ccccn1
REMARK SMILES IDX 15 1 14 2 13 3 12 4 11 5 10 6 9 7 8 8 6 9 7 10 5 11 1 12
REMARK SMILES IDX 2 13 3 14 86 15 4 16 87 17 88 18 89 19 90 21 91 22 95 23
REMARK SMILES IDX 92 24 94 25 93 26 16 27 17 28 18 29 19 30 20 31 21 32 22 33
REMARK SMILES IDX 23 34 24 35 85 36 25 37 84 38 26 39 27 40 28 41 78 42 29 43
REMARK SMILES IDX 83 44 77 45 79 46 30 47 82 48 76 49 75 50 31 52 63 53 43 54
REMARK SMILES IDX 62 55 44 56 47 57 61 58 80 59 45 60 46 61 60 63 81 64 48 65
REMARK SMILES IDX 32 66 33 67 41 68 34 69 40 70 42 71 39 72 35 73 36 74 37 75
REMARK SMILES IDX 38 76 64 77 65 78 73 79 66 80 72 81 74 82 71 83 67 84 68 85
REMARK SMILES IDX 69 86 70 87 49 88 50 89 58 90 51 91 57 92 59 93 56 94 52 95
REMARK SMILES IDX 53 96 54 97 55 98
REMARK H PARENT 89 20 79 51 47 62
REMARK Flexibility Score: inf
ROOT
ATOM      1  C   UNL A   1      32.746  28.220  26.435  1.00  0.00     0.188 C 
ENDROOT
BRANCH   1   2
ATOM      2  O   UNL A   1      31.774  27.872  25.460  1.00  0.00    -0.377 OA
BRANCH   2   3
ATOM      3  C   UNL A   1      32.017  28.144  24.091  1.00  0.00     0.188 C 
BRANCH   3   4
ATOM      4  C   UNL A   1      31.044  27.657  22.999  1.00  0.00     0.188 C 
BRANCH   4   5
ATOM      5  O   UNL A   1      31.461  26.517  22.256  1.00  0.00    -0.376 OA
BRANCH   5   6
ATOM      6  C   UNL A   1      32.193  25.531  22.974  1.00  0.00     0.202 C 
BRANCH   6   7
ATOM      7  C   UNL A   1      33.118  24.708  22.075  1.00  0.00     0.261 C 
BRANCH   7   8
ATOM      8  O   UNL A   1      33.280  23.363  22.547  1.00  0.00    -0.460 OA
BRANCH   8   9
ATOM      9  C   UNL A   1      34.492  23.063  23.072  1.00  0.00     0.342 C 
ATOM     10  O   UNL A   1      35.540  23.026  22.435  1.00  0.00    -0.246 OA
BRANCH   9  11
ATOM     11  C   UNL A   1      34.471  22.995  24.517  1.00  0.00     0.111 A 
ATOM     12  C   UNL A   1      34.030  21.518  27.686  1.00  0.00     0.174 C 
ATOM     13  N   UNL A   1      34.142  22.456  26.593  1.00  0.00    -0.262 N 
ATOM     14  N   UNL A   1      35.230  23.259  26.635  1.00  0.00    -0.180 NA
ATOM     15  C   UNL A   1      33.493  22.468  25.373  1.00  0.00     0.140 A 
ATOM     16  C   UNL A   1      35.490  23.483  25.352  1.00  0.00     0.151 A 
BRANCH  15  17
ATOM     17  C   UNL A   1      32.236  21.881  24.937  1.00  0.00     0.275 C 
ATOM     18  O   UNL A   1      31.229  22.587  24.828  1.00  0.00    -0.267 OA
ATOM     19  N   UNL A   1      32.049  20.589  24.529  1.00  0.00    -0.305 N 
ATOM     20  H   UNL A   1      31.109  20.385  24.322  1.00  0.00     0.171 HD
BRANCH  19  21
ATOM     21  C   UNL A   1      32.886  19.508  24.345  1.00  0.00     0.132 A 
ATOM     22  C   UNL A   1      34.208  19.468  24.757  1.00  0.00     0.047 A 
ATOM     23  N   UNL A   1      32.282  18.482  23.710  1.00  0.00    -0.239 NA
ATOM     24  C   UNL A   1      34.957  18.332  24.436  1.00  0.00     0.005 A 
ATOM     25  C   UNL A   1      33.034  17.416  23.379  1.00  0.00     0.113 A 
ATOM     26  C   UNL A   1      34.369  17.298  23.708  1.00  0.00     0.020 A 
ENDBRANCH  19  21
ENDBRANCH  15  17
ENDBRANCH   9  11
ENDBRANCH   8   9
ENDBRANCH   7   8
ENDBRANCH   6   7
ENDBRANCH   5   6
ENDBRANCH   4   5
ENDBRANCH   3   4
ENDBRANCH   2   3
ENDBRANCH   1   2
BRANCH   1  27
ATOM     27  C   UNL A   1      32.601  29.542  27.209  1.00  0.00     0.188 C 
BRANCH  27  28
ATOM     28  O   UNL A   1      32.478  30.698  26.383  1.00  0.00    -0.376 OA
BRANCH  28  29
ATOM     29  C   UNL A   1      31.615  31.712  26.882  1.00  0.00     0.202 C 
BRANCH  29  30
ATOM     30  C   UNL A   1      32.228  33.115  26.835  1.00  0.00     0.261 C 
BRANCH  30  31
ATOM     31  O   UNL A   1      32.265  33.800  28.097  1.00  0.00    -0.460 OA
BRANCH  31  32
ATOM     32  C   UNL A   1      33.351  34.564  28.347  1.00  0.00     0.338 C 
ATOM     33  O   UNL A   1      33.401  35.778  28.402  1.00  0.00    -0.246 OA
BRANCH  32  34
ATOM     34  C   UNL A   1      34.456  33.659  28.716  1.00  0.00     0.060 A 
ATOM     35  C   UNL A   1      34.173  32.518  29.476  1.00  0.00     0.016 A 
ATOM     36  C   UNL A   1      35.762  33.938  28.306  1.00  0.00     0.016 A 
ATOM     37  C   UNL A   1      35.210  31.665  29.856  1.00  0.00     0.010 A 
ATOM     38  C   UNL A   1      36.800  33.094  28.703  1.00  0.00     0.010 A 
ATOM     39  C   UNL A   1      36.531  31.972  29.504  1.00  0.00    -0.014 A 
BRANCH  39  40
ATOM     40  C   UNL A   1      37.655  31.249  30.144  1.00  0.00     0.031 A 
ATOM     41  C   UNL A   1      38.013  31.614  31.559  1.00  0.00     0.074 A 
ATOM     42  C   UNL A   1      38.346  30.300  29.487  1.00  0.00     0.049 A 
ATOM     43  N   UNL A   1      38.979  31.166  32.316  1.00  0.00    -0.248 NA
ATOM     44  C   UNL A   1      37.165  32.633  32.200  1.00  0.00     0.031 C 
ATOM     45  C   UNL A   1      38.071  29.844  28.126  1.00  0.00     0.029 A 
ATOM     46  N   UNL A   1      39.432  29.560  29.880  1.00  0.00    -0.354 N 
ATOM     47  C   UNL A   1      38.850  31.839  33.526  1.00  0.00     0.074 A 
ATOM     48  C   UNL A   1      37.739  32.754  33.385  1.00  0.00     0.031 C 
ATOM     49  C   UNL A   1      38.980  28.910  27.790  1.00  0.00     0.029 A 
ATOM     50  C   UNL A   1      39.914  28.725  28.900  1.00  0.00     0.049 A 
ATOM     51  H   UNL A   1      39.828  29.620  30.779  1.00  0.00     0.167 HD
ATOM     52  C   UNL A   1      39.587  31.699  34.655  1.00  0.00     0.034 A 
ATOM     53  C   UNL A   1      41.000  27.926  28.895  1.00  0.00     0.034 A 
ATOM     54  C   UNL A   1      40.715  30.811  34.770  1.00  0.00     0.049 A 
ATOM     55  C   UNL A   1      41.867  27.860  30.133  1.00  0.00     0.074 A 
ATOM     56  C   UNL A   1      41.530  30.587  35.866  1.00  0.00     0.029 A 
ATOM     57  N   UNL A   1      41.199  30.009  33.744  1.00  0.00    -0.354 N 
ATOM     58  N   UNL A   1      41.722  28.483  31.280  1.00  0.00    -0.248 NA
ATOM     59  C   UNL A   1      43.040  26.976  30.073  1.00  0.00     0.031 C 
ATOM     60  C   UNL A   1      42.544  29.701  35.483  1.00  0.00     0.029 A 
ATOM     61  C   UNL A   1      42.321  29.317  34.170  1.00  0.00     0.049 A 
ATOM     62  H   UNL A   1      40.803  29.943  32.845  1.00  0.00     0.167 HD
ATOM     63  C   UNL A   1      42.770  28.043  32.086  1.00  0.00     0.074 A 
ATOM     64  C   UNL A   1      43.531  27.096  31.299  1.00  0.00     0.031 C 
ATOM     65  C   UNL A   1      43.074  28.385  33.365  1.00  0.00     0.034 A 
BRANCH  52  66
ATOM     66  C   UNL A   1      39.217  32.575  35.824  1.00  0.00     0.023 A 
ATOM     67  C   UNL A   1      39.644  33.914  35.904  1.00  0.00     0.031 A 
ATOM     68  C   UNL A   1      38.472  32.054  36.895  1.00  0.00     0.131 A 
ATOM     69  C   UNL A   1      39.380  34.663  37.060  1.00  0.00     0.055 A 
ATOM     70  C   UNL A   1      38.151  32.828  38.012  1.00  0.00     0.041 A 
ATOM     71  F   UNL A   1      38.063  30.776  36.883  1.00  0.00    -0.206 F 
ATOM     72  C   UNL A   1      38.617  34.135  38.105  1.00  0.00     0.022 A 
BRANCH  69  73
ATOM     73  S   UNL A   1      40.163  36.290  37.237  1.00  0.00     0.124 S 
ATOM     74  O   UNL A   1      41.541  35.922  37.552  1.00  0.00    -0.237 OA
ATOM     75  O   UNL A   1      39.944  36.889  35.926  1.00  0.00    -0.237 OA
ATOM     76  O   UNL A   1      39.423  36.907  38.337  1.00  0.00    -0.744 OA
ENDBRANCH  69  73
ENDBRANCH  52  66
BRANCH  53  77
ATOM     77  C   UNL A   1      41.373  27.156  27.674  1.00  0.00     0.023 A 
ATOM     78  C   UNL A   1      41.213  25.762  27.615  1.00  0.00     0.031 A 
ATOM     79  C   UNL A   1      41.967  27.798  26.573  1.00  0.00     0.131 A 
ATOM     80  C   UNL A   1      41.683  25.050  26.500  1.00  0.00     0.055 A 
ATOM     81  C   UNL A   1      42.388  27.093  25.445  1.00  0.00     0.041 A 
ATOM     82  F   UNL A   1      42.148  29.129  26.581  1.00  0.00    -0.206 F 
ATOM     83  C   UNL A   1      42.260  25.708  25.410  1.00  0.00     0.022 A 
BRANCH  80  84
ATOM     84  S   UNL A   1      41.612  23.238  26.532  1.00  0.00     0.124 S 
ATOM     85  O   UNL A   1      40.205  22.991  26.238  1.00  0.00    -0.237 OA
ATOM     86  O   UNL A   1      42.560  22.879  25.482  1.00  0.00    -0.237 OA
ATOM     87  O   UNL A   1      42.033  22.903  27.891  1.00  0.00    -0.744 OA
ENDBRANCH  80  84
ENDBRANCH  53  77
BRANCH  65  88
ATOM     88  C   UNL A   1      44.257  27.694  33.997  1.00  0.00     0.023 A 
ATOM     89  C   UNL A   1      44.209  26.342  34.375  1.00  0.00     0.031 A 
ATOM     90  C   UNL A   1      45.449  28.405  34.224  1.00  0.00     0.131 A 
ATOM     91  C   UNL A   1      45.318  25.753  35.004  1.00  0.00     0.055 A 
ATOM     92  C   UNL A   1      46.566  27.801  34.801  1.00  0.00     0.041 A 
ATOM     93  F   UNL A   1      45.549  29.700  33.880  1.00  0.00    -0.206 F 
ATOM     94  C   UNL A   1      46.501  26.471  35.205  1.00  0.00     0.022 A 
BRANCH  91  95
ATOM     95  S   UNL A   1      45.170  24.055  35.623  1.00  0.00     0.124 S 
ATOM     96  O   UNL A   1      46.211  24.012  36.645  1.00  0.00    -0.237 OA
ATOM     97  O   UNL A   1      43.795  24.017  36.109  1.00  0.00    -0.237 OA
ATOM     98  O   UNL A   1      45.430  23.235  34.440  1.00  0.00    -0.744 OA
ENDBRANCH  91  95
ENDBRANCH  65  88
ENDBRANCH  39  40
ENDBRANCH  32  34
ENDBRANCH  31  32
ENDBRANCH  30  31
ENDBRANCH  29  30
ENDBRANCH  28  29
ENDBRANCH  27  28
ENDBRANCH   1  27
TORSDOF 25
ENDMDL
MODEL 3
REMARK VINA RESULT:     -10.1      1.778      2.096
REMARK SMILES Cn1ncc(C(=O)OCCOCCOCCOCCOC(=O)c2ccc(-c3c4nc(c(-c5cc(S(=O)(=O)[O-])ccc5F)c5ccc([nH]5)c(-c5cc(S(=O)(=O)[O-])ccc5F)c5nc(c(-c6cc(S(=O)(=O)[O-])ccc6F)c6ccc3[nH]6)C=C5)C=C4)cc2)c1C(=O)Nc1ccccn1
REMARK SMILES IDX 15 1 14 2 13 3 12 4 11 5 10 6 9 7 8 8 6 9 7 10 5 11 1 12
REMARK SMILES IDX 2 13 3 14 86 15 4 16 87 17 88 18 89 19 90 21 91 22 95 23
REMARK SMILES IDX 92 24 94 25 93 26 16 27 17 28 18 29 19 30 20 31 21 32 22 33
REMARK SMILES IDX 23 34 24 35 85 36 25 37 84 38 26 39 27 40 28 41 78 42 29 43
REMARK SMILES IDX 83 44 77 45 79 46 30 47 82 48 76 49 75 50 31 52 63 53 43 54
REMARK SMILES IDX 62 55 44 56 47 57 61 58 80 59 45 60 46 61 60 63 81 64 48 65
REMARK SMILES IDX 32 66 33 67 41 68 34 69 40 70 42 71 39 72 35 73 36 74 37 75
REMARK SMILES IDX 38 76 64 77 65 78 73 79 66 80 72 81 74 82 71 83 67 84 68 85
REMARK SMILES IDX 69 86 70 87 49 88 50 89 58 90 51 91 57 92 59 93 56 94 52 95
REMARK SMILES IDX 53 96 54 97 55 98
REMARK H PARENT 89 20 79 51 47 62
REMARK Flexibility Score: inf
ROOT
ATOM      1  C   UNL A   1      32.140  28.715  26.346  1.00  0.00     0.188 C 
ENDROOT
BRANCH   1   2
ATOM      2  O   UNL A   1      31.237  28.935  25.272  1.00  0.00    -0.377 OA
BRANCH   2   3
ATOM      3  C   UNL A   1      31.726  29.029  23.945  1.00  0.00     0.188 C 
BRANCH   3   4
ATOM      4  C   UNL A   1      30.767  28.978  22.739  1.00  0.00     0.188 C 
BRANCH   4   5
ATOM      5  O   UNL A   1      30.481  27.682  22.224  1.00  0.00    -0.376 OA
BRANCH   5   6
ATOM      6  C   UNL A   1      30.948  26.581  22.994  1.00  0.00     0.202 C 
BRANCH   6   7
ATOM      7  C   UNL A   1      31.218  25.337  22.146  1.00  0.00     0.261 C 
BRANCH   7   8
ATOM      8  O   UNL A   1      30.998  24.122  22.877  1.00  0.00    -0.460 OA
BRANCH   8   9
ATOM      9  C   UNL A   1      32.065  23.641  23.558  1.00  0.00     0.342 C 
ATOM     10  O   UNL A   1      33.204  23.560  23.107  1.00  0.00    -0.246 OA
BRANCH   9  11
ATOM     11  C   UNL A   1      31.779  23.425  24.960  1.00  0.00     0.111 A 
ATOM     12  C   UNL A   1      32.440  22.510  28.298  1.00  0.00     0.174 C 
ATOM     13  N   UNL A   1      31.796  22.802  27.038  1.00  0.00    -0.262 N 
ATOM     14  N   UNL A   1      31.012  23.904  27.036  1.00  0.00    -0.180 NA
ATOM     15  C   UNL A   1      32.078  22.322  25.773  1.00  0.00     0.140 A 
ATOM     16  C   UNL A   1      31.108  24.342  25.786  1.00  0.00     0.151 A 
BRANCH  15  17
ATOM     17  C   UNL A   1      32.748  21.113  25.321  1.00  0.00     0.275 C 
ATOM     18  O   UNL A   1      32.085  20.117  25.014  1.00  0.00    -0.267 OA
ATOM     19  N   UNL A   1      34.090  20.969  25.103  1.00  0.00    -0.305 N 
ATOM     20  H   UNL A   1      34.341  20.053  24.846  1.00  0.00     0.171 HD
BRANCH  19  21
ATOM     21  C   UNL A   1      35.172  21.824  25.165  1.00  0.00     0.132 A 
ATOM     22  C   UNL A   1      35.362  22.767  26.161  1.00  0.00     0.047 A 
ATOM     23  N   UNL A   1      36.033  21.651  24.141  1.00  0.00    -0.239 NA
ATOM     24  C   UNL A   1      36.468  23.616  26.052  1.00  0.00     0.005 A 
ATOM     25  C   UNL A   1      37.069  22.504  24.038  1.00  0.00     0.113 A 
ATOM     26  C   UNL A   1      37.322  23.503  24.957  1.00  0.00     0.020 A 
ENDBRANCH  19  21
ENDBRANCH  15  17
ENDBRANCH   9  11
ENDBRANCH   8   9
ENDBRANCH   7   8
ENDBRANCH   6   7
ENDBRANCH   5   6
ENDBRANCH   4   5
ENDBRANCH   3   4
ENDBRANCH   2   3
ENDBRANCH   1   2
BRANCH   1  27
ATOM     27  C   UNL A   1      32.555  29.897  27.239  1.00  0.00     0.188 C 
BRANCH  27  28
ATOM     28  O   UNL A   1      32.634  31.149  26.562  1.00  0.00    -0.376 OA
BRANCH  28  29
ATOM     29  C   UNL A   1      31.625  32.090  26.907  1.00  0.00     0.202 C 
BRANCH  29  30
ATOM     30  C   UNL A   1      32.157  33.515  27.093  1.00  0.00     0.261 C 
BRANCH  30  31
ATOM     31  O   UNL A   1      32.465  33.871  28.450  1.00  0.00    -0.460 OA
BRANCH  31  32
ATOM     32  C   UNL A   1      33.554  34.648  28.647  1.00  0.00     0.338 C 
ATOM     33  O   UNL A   1      33.593  35.863  28.694  1.00  0.00    -0.246 OA
BRANCH  32  34
ATOM     34  C   UNL A   1      34.684  33.756  28.968  1.00  0.00     0.060 A 
ATOM     35  C   UNL A   1      34.418  32.491  29.506  1.00  0.00     0.016 A 
ATOM     36  C   UNL A   1      35.997  34.169  28.729  1.00  0.00     0.016 A 
ATOM     37  C   UNL A   1      35.476  31.645  29.839  1.00  0.00     0.010 A 
ATOM     38  C   UNL A   1      37.054  33.329  29.081  1.00  0.00     0.010 A 
ATOM     39  C   UNL A   1      36.798  32.077  29.665  1.00  0.00    -0.014 A 
BRANCH  39  40
ATOM     40  C   UNL A   1      37.912  31.320  30.283  1.00  0.00     0.031 A 
ATOM     41  C   UNL A   1      38.299  31.665  31.696  1.00  0.00     0.074 A 
ATOM     42  C   UNL A   1      38.569  30.361  29.608  1.00  0.00     0.049 A 
ATOM     43  N   UNL A   1      39.264  31.186  32.435  1.00  0.00    -0.248 NA
ATOM     44  C   UNL A   1      37.486  32.699  32.357  1.00  0.00     0.031 C 
ATOM     45  C   UNL A   1      38.265  29.924  28.247  1.00  0.00     0.029 A 
ATOM     46  N   UNL A   1      39.642  29.590  29.979  1.00  0.00    -0.354 N 
ATOM     47  C   UNL A   1      39.169  31.851  33.652  1.00  0.00     0.074 A 
ATOM     48  C   UNL A   1      38.079  32.795  33.535  1.00  0.00     0.031 C 
ATOM     49  C   UNL A   1      39.145  28.970  27.891  1.00  0.00     0.029 A 
ATOM     50  C   UNL A   1      40.089  28.752  28.985  1.00  0.00     0.049 A 
ATOM     51  H   UNL A   1      40.052  29.632  30.873  1.00  0.00     0.167 HD
ATOM     52  C   UNL A   1      39.918  31.683  34.769  1.00  0.00     0.034 A 
ATOM     53  C   UNL A   1      41.155  27.926  28.959  1.00  0.00     0.034 A 
ATOM     54  C   UNL A   1      41.024  30.766  34.861  1.00  0.00     0.049 A 
ATOM     55  C   UNL A   1      42.037  27.827  30.183  1.00  0.00     0.074 A 
ATOM     56  C   UNL A   1      41.849  30.512  35.943  1.00  0.00     0.029 A 
ATOM     57  N   UNL A   1      41.474  29.961  33.821  1.00  0.00    -0.354 N 
ATOM     58  N   UNL A   1      41.924  28.444  31.337  1.00  0.00    -0.248 NA
ATOM     59  C   UNL A   1      43.187  26.915  30.100  1.00  0.00     0.031 C 
ATOM     60  C   UNL A   1      42.835  29.604  35.538  1.00  0.00     0.029 A 
ATOM     61  C   UNL A   1      42.584  29.238  34.226  1.00  0.00     0.049 A 
ATOM     62  H   UNL A   1      41.064  29.913  32.928  1.00  0.00     0.167 HD
ATOM     63  C   UNL A   1      42.972  27.971  32.125  1.00  0.00     0.074 A 
ATOM     64  C   UNL A   1      43.698  27.012  31.319  1.00  0.00     0.031 C 
ATOM     65  C   UNL A   1      43.302  28.295  33.402  1.00  0.00     0.034 A 
BRANCH  52  66
ATOM     66  C   UNL A   1      39.587  32.558  35.951  1.00  0.00     0.023 A 
ATOM     67  C   UNL A   1      38.736  32.114  36.979  1.00  0.00     0.031 A 
ATOM     68  C   UNL A   1      40.087  33.869  36.028  1.00  0.00     0.131 A 
ATOM     69  C   UNL A   1      38.356  32.995  38.002  1.00  0.00     0.055 A 
ATOM     70  C   UNL A   1      39.763  34.718  37.087  1.00  0.00     0.041 A 
ATOM     71  F   UNL A   1      40.882  34.353  35.061  1.00  0.00    -0.206 F 
ATOM     72  C   UNL A   1      38.882  34.287  38.075  1.00  0.00     0.022 A 
BRANCH  69  73
ATOM     73  S   UNL A   1      37.061  32.474  39.161  1.00  0.00     0.124 S 
ATOM     74  O   UNL A   1      35.849  32.745  38.390  1.00  0.00    -0.237 OA
ATOM     75  O   UNL A   1      37.380  31.068  39.378  1.00  0.00    -0.237 OA
ATOM     76  O   UNL A   1      37.265  33.346  40.316  1.00  0.00    -0.744 OA
ENDBRANCH  69  73
ENDBRANCH  52  66
BRANCH  53  77
ATOM     77  C   UNL A   1      41.492  27.158  27.726  1.00  0.00     0.023 A 
ATOM     78  C   UNL A   1      41.354  25.761  27.679  1.00  0.00     0.031 A 
ATOM     79  C   UNL A   1      42.027  27.806  26.599  1.00  0.00     0.131 A 
ATOM     80  C   UNL A   1      41.791  25.053  26.548  1.00  0.00     0.055 A 
ATOM     81  C   UNL A   1      42.414  27.103  25.457  1.00  0.00     0.041 A 
ATOM     82  F   UNL A   1      42.184  29.139  26.594  1.00  0.00    -0.206 F 
ATOM     83  C   UNL A   1      42.310  25.716  25.433  1.00  0.00     0.022 A 
BRANCH  80  84
ATOM     84  S   UNL A   1      41.755  23.239  26.590  1.00  0.00     0.124 S 
ATOM     85  O   UNL A   1      40.322  22.971  26.615  1.00  0.00    -0.237 OA
ATOM     86  O   UNL A   1      42.451  22.894  25.354  1.00  0.00    -0.237 OA
ATOM     87  O   UNL A   1      42.473  22.911  27.820  1.00  0.00    -0.744 OA
ENDBRANCH  80  84
ENDBRANCH  53  77
BRANCH  65  88
ATOM     88  C   UNL A   1      44.476  27.569  34.012  1.00  0.00     0.023 A 
ATOM     89  C   UNL A   1      44.306  26.420  34.803  1.00  0.00     0.031 A 
ATOM     90  C   UNL A   1      45.783  28.038  33.795  1.00  0.00     0.131 A 
ATOM     91  C   UNL A   1      45.424  25.805  35.389  1.00  0.00     0.055 A 
ATOM     92  C   UNL A   1      46.895  27.393  34.337  1.00  0.00     0.041 A 
ATOM     93  F   UNL A   1      46.002  29.132  33.046  1.00  0.00    -0.206 F 
ATOM     94  C   UNL A   1      46.718  26.276  35.148  1.00  0.00     0.022 A 
BRANCH  91  95
ATOM     95  S   UNL A   1      45.160  24.422  36.532  1.00  0.00     0.124 S 
ATOM     96  O   UNL A   1      44.039  23.723  35.911  1.00  0.00    -0.237 OA
ATOM     97  O   UNL A   1      46.445  23.731  36.490  1.00  0.00    -0.237 OA
ATOM     98  O   UNL A   1      44.853  25.080  37.802  1.00  0.00    -0.744 OA
ENDBRANCH  91  95
ENDBRANCH  65  88
ENDBRANCH  39  40
ENDBRANCH  32  34
ENDBRANCH  31  32
ENDBRANCH  30  31
ENDBRANCH  29  30
ENDBRANCH  28  29
ENDBRANCH  27  28
ENDBRANCH   1  27
TORSDOF 25
ENDMDL
