MODEL 1
REMARK VINA RESULT:      -6.8      0.000      0.000
REMARK SMILES CCc1ccc(-c2cc(Cl)cc3c2O[C@@H](C(F)(F)F)C(C(=O)OCCOCCOCCOCCOC(=O)c2ccc(-c4c5nc(c(-c6cc(S(=O)(=O)[O-])ccc6F)c6ccc([nH]6)c(-c6cc(S(=O)(=O)[O-])ccc6F)c6nc(c(-c7cc(S(=O)(=O)[O-])ccc7F)c7ccc4[nH]7)C=C6)C=C5)cc2)=C3)cc1
REMARK SMILES IDX 30 1 29 2 28 3 27 4 26 5 25 6 24 7 23 8 21 9 22 10 20 11
REMARK SMILES IDX 7 12 8 13 13 14 9 15 12 16 14 17 10 18 11 19 101 20 15 21
REMARK SMILES IDX 6 22 3 23 4 24 103 25 5 26 102 27 2 28 1 29 16 30 17 31
REMARK SMILES IDX 18 32 19 33 31 34 32 35 33 36 34 37 35 38 36 39 37 40 38 41
REMARK SMILES IDX 39 42 100 43 40 44 99 45 41 46 42 47 43 48 93 49 44 50 98 51
REMARK SMILES IDX 92 52 94 53 45 54 97 55 91 56 90 57 46 59 78 60 58 61 77 62
REMARK SMILES IDX 59 63 62 64 76 65 95 66 60 67 61 68 75 70 96 71 63 72 47 73
REMARK SMILES IDX 48 74 56 75 49 76 55 77 57 78 54 79 50 80 51 81 52 82 53 83
REMARK SMILES IDX 79 84 80 85 88 86 81 87 87 88 89 89 86 90 82 91 83 92 84 93
REMARK SMILES IDX 85 94 64 95 65 96 73 97 66 98 72 99 74 100 71 101 67 102
REMARK SMILES IDX 68 103 69 104 70 105
REMARK H PARENT 94 58 62 69
REMARK Flexibility Score: inf
ROOT
ATOM      1  C   UNL A   1      39.695  35.172  38.871  1.00  0.00     0.188 C 
ENDROOT
BRANCH   1   2
ATOM      2  O   UNL A   1      38.577  34.638  38.169  1.00  0.00    -0.377 OA
BRANCH   2   3
ATOM      3  C   UNL A   1      38.855  33.986  36.946  1.00  0.00     0.188 C 
BRANCH   3   4
ATOM      4  C   UNL A   1      40.036  33.012  37.061  1.00  0.00     0.188 C 
BRANCH   4   5
ATOM      5  O   UNL A   1      39.751  31.695  36.604  1.00  0.00    -0.376 OA
BRANCH   5   6
ATOM      6  C   UNL A   1      38.386  31.293  36.500  1.00  0.00     0.202 C 
BRANCH   6   7
ATOM      7  C   UNL A   1      37.882  30.691  35.180  1.00  0.00     0.261 C 
BRANCH   7   8
ATOM      8  O   UNL A   1      38.151  31.586  34.077  1.00  0.00    -0.460 OA
BRANCH   8   9
ATOM      9  C   UNL A   1      38.046  31.058  32.847  1.00  0.00     0.338 C 
ATOM     10  O   UNL A   1      37.592  31.640  31.870  1.00  0.00    -0.246 OA
BRANCH   9  11
ATOM     11  C   UNL A   1      38.715  29.738  32.734  1.00  0.00     0.087 C 
ATOM     12  C   UNL A   1      39.176  28.360  28.847  1.00  0.00     0.026 A 
ATOM     13  C   UNL A   1      38.103  28.885  28.086  1.00  0.00     0.033 A 
ATOM     14  C   UNL A   1      39.138  28.625  30.231  1.00  0.00     0.135 A 
ATOM     15  C   UNL A   1      36.944  29.359  28.698  1.00  0.00     0.042 A 
ATOM     16  C   UNL A   1      37.893  28.873  30.833  1.00  0.00     0.019 A 
ATOM     17  O   UNL A   1      40.303  28.872  30.955  1.00  0.00    -0.475 OA
ATOM     18  Cl  UNL A   1      35.658  29.967  27.735  1.00  0.00    -0.084 Cl
ATOM     19  C   UNL A   1      36.795  29.257  30.071  1.00  0.00     0.032 A 
ATOM     20  C   UNL A   1      37.813  28.834  32.309  1.00  0.00     0.027 C 
ATOM     21  C   UNL A   1      40.147  29.421  32.341  1.00  0.00     0.316 C 
BRANCH  12  22
ATOM     22  C   UNL A   1      39.862  27.182  28.217  1.00  0.00    -0.015 A 
ATOM     23  C   UNL A   1      40.690  24.455  27.834  1.00  0.00    -0.048 A 
ATOM     24  C   UNL A   1      39.591  24.986  27.145  1.00  0.00     0.004 A 
ATOM     25  C   UNL A   1      41.444  25.333  28.616  1.00  0.00     0.004 A 
ATOM     26  C   UNL A   1      39.190  26.325  27.326  1.00  0.00     0.009 A 
ATOM     27  C   UNL A   1      41.037  26.670  28.804  1.00  0.00     0.009 A 
BRANCH  23  28
ATOM     28  C   UNL A   1      41.031  22.987  27.671  1.00  0.00     0.032 C 
ATOM     29  C   UNL A   1      42.456  22.568  28.025  1.00  0.00     0.009 C 
ENDBRANCH  23  28
ENDBRANCH  12  22
BRANCH  21  30
ATOM     30  C   UNL A   1      41.265  30.385  32.815  1.00  0.00     0.430 C 
ATOM     31  F   UNL A   1      40.848  31.670  32.649  1.00  0.00    -0.167 F 
ATOM     32  F   UNL A   1      41.516  30.235  34.138  1.00  0.00    -0.167 F 
ATOM     33  F   UNL A   1      42.437  30.289  32.177  1.00  0.00    -0.167 F 
ENDBRANCH  21  30
ENDBRANCH   9  11
ENDBRANCH   8   9
ENDBRANCH   7   8
ENDBRANCH   6   7
ENDBRANCH   5   6
ENDBRANCH   4   5
ENDBRANCH   3   4
ENDBRANCH   2   3
ENDBRANCH   1   2
BRANCH   1  34
ATOM     34  C   UNL A   1      40.154  36.617  38.585  1.00  0.00     0.188 C 
BRANCH  34  35
ATOM     35  O   UNL A   1      41.533  36.857  38.878  1.00  0.00    -0.376 OA
BRANCH  35  36
ATOM     36  C   UNL A   1      41.920  36.805  40.244  1.00  0.00     0.202 C 
BRANCH  36  37
ATOM     37  C   UNL A   1      43.317  36.209  40.480  1.00  0.00     0.261 C 
BRANCH  37  38
ATOM     38  O   UNL A   1      43.440  34.814  40.171  1.00  0.00    -0.460 OA
BRANCH  38  39
ATOM     39  C   UNL A   1      44.691  34.348  39.958  1.00  0.00     0.338 C 
ATOM     40  O   UNL A   1      45.555  34.170  40.800  1.00  0.00    -0.246 OA
BRANCH  39  41
ATOM     41  C   UNL A   1      44.776  33.881  38.560  1.00  0.00     0.060 A 
ATOM     42  C   UNL A   1      43.598  33.824  37.806  1.00  0.00     0.016 A 
ATOM     43  C   UNL A   1      46.000  33.511  37.997  1.00  0.00     0.016 A 
ATOM     44  C   UNL A   1      43.632  33.336  36.501  1.00  0.00     0.010 A 
ATOM     45  C   UNL A   1      46.032  33.009  36.695  1.00  0.00     0.010 A 
ATOM     46  C   UNL A   1      44.840  32.876  35.961  1.00  0.00    -0.014 A 
BRANCH  46  47
ATOM     47  C   UNL A   1      44.809  32.038  34.740  1.00  0.00     0.031 A 
ATOM     48  C   UNL A   1      44.979  32.723  33.412  1.00  0.00     0.074 A 
ATOM     49  C   UNL A   1      44.659  30.704  34.806  1.00  0.00     0.049 A 
ATOM     50  N   UNL A   1      45.012  32.215  32.207  1.00  0.00    -0.248 NA
ATOM     51  C   UNL A   1      45.121  34.187  33.455  1.00  0.00     0.031 C 
ATOM     52  C   UNL A   1      44.493  29.932  36.035  1.00  0.00     0.029 A 
ATOM     53  N   UNL A   1      44.614  29.765  33.806  1.00  0.00    -0.354 N 
ATOM     54  C   UNL A   1      45.185  33.296  31.349  1.00  0.00     0.074 A 
ATOM     55  C   UNL A   1      45.191  34.489  32.169  1.00  0.00     0.031 C 
ATOM     56  C   UNL A   1      44.344  28.635  35.715  1.00  0.00     0.029 A 
ATOM     57  C   UNL A   1      44.384  28.489  34.259  1.00  0.00     0.049 A 
ATOM     58  H   UNL A   1      44.735  29.986  32.854  1.00  0.00     0.167 HD
ATOM     59  C   UNL A   1      45.341  33.294  30.003  1.00  0.00     0.034 A 
ATOM     60  C   UNL A   1      44.207  27.341  33.575  1.00  0.00     0.034 A 
ATOM     61  C   UNL A   1      45.299  32.097  29.199  1.00  0.00     0.049 A 
ATOM     62  C   UNL A   1      44.317  27.361  32.070  1.00  0.00     0.074 A 
ATOM     63  C   UNL A   1      45.472  31.967  27.834  1.00  0.00     0.029 A 
ATOM     64  N   UNL A   1      45.042  30.823  29.690  1.00  0.00    -0.354 N 
ATOM     65  N   UNL A   1      44.537  28.379  31.269  1.00  0.00    -0.248 NA
ATOM     66  C   UNL A   1      44.173  26.074  31.378  1.00  0.00     0.031 C 
ATOM     67  C   UNL A   1      45.240  30.629  27.489  1.00  0.00     0.029 A 
ATOM     68  C   UNL A   1      45.008  29.906  28.649  1.00  0.00     0.049 A 
ATOM     69  H   UNL A   1      44.904  30.601  30.640  1.00  0.00     0.167 HD
ATOM     70  C   UNL A   1      44.581  27.850  29.981  1.00  0.00     0.074 A 
ATOM     71  C   UNL A   1      44.377  26.422  30.115  1.00  0.00     0.031 C 
ATOM     72  C   UNL A   1      44.782  28.486  28.796  1.00  0.00     0.034 A 
BRANCH  59  73
ATOM     73  C   UNL A   1      45.506  34.638  29.332  1.00  0.00     0.023 A 
ATOM     74  C   UNL A   1      44.397  35.389  28.899  1.00  0.00     0.031 A 
ATOM     75  C   UNL A   1      46.788  35.137  29.044  1.00  0.00     0.131 A 
ATOM     76  C   UNL A   1      44.590  36.539  28.119  1.00  0.00     0.055 A 
ATOM     77  C   UNL A   1      46.974  36.333  28.346  1.00  0.00     0.041 A 
ATOM     78  F   UNL A   1      47.885  34.455  29.408  1.00  0.00    -0.206 F 
ATOM     79  C   UNL A   1      45.871  37.030  27.860  1.00  0.00     0.022 A 
BRANCH  76  80
ATOM     80  S   UNL A   1      43.153  37.273  27.288  1.00  0.00     0.124 S 
ATOM     81  O   UNL A   1      42.784  36.217  26.347  1.00  0.00    -0.237 OA
ATOM     82  O   UNL A   1      42.230  37.495  28.395  1.00  0.00    -0.237 OA
ATOM     83  O   UNL A   1      43.693  38.483  26.672  1.00  0.00    -0.744 OA
ENDBRANCH  76  80
ENDBRANCH  59  73
BRANCH  60  84
ATOM     84  C   UNL A   1      43.865  26.086  34.304  1.00  0.00     0.023 A 
ATOM     85  C   UNL A   1      44.827  25.097  34.561  1.00  0.00     0.031 A 
ATOM     86  C   UNL A   1      42.549  25.858  34.744  1.00  0.00     0.131 A 
ATOM     87  C   UNL A   1      44.451  23.911  35.214  1.00  0.00     0.055 A 
ATOM     88  C   UNL A   1      42.189  24.699  35.431  1.00  0.00     0.041 A 
ATOM     89  F   UNL A   1      41.592  26.776  34.526  1.00  0.00    -0.206 F 
ATOM     90  C   UNL A   1      43.142  23.712  35.661  1.00  0.00     0.022 A 
BRANCH  87  91
ATOM     91  S   UNL A   1      45.690  22.603  35.430  1.00  0.00     0.124 S 
ATOM     92  O   UNL A   1      45.589  22.331  36.860  1.00  0.00    -0.237 OA
ATOM     93  O   UNL A   1      45.189  21.561  34.542  1.00  0.00    -0.237 OA
ATOM     94  O   UNL A   1      46.935  23.239  35.001  1.00  0.00    -0.744 OA
ENDBRANCH  87  91
ENDBRANCH  60  84
BRANCH  72  95
ATOM     95  C   UNL A   1      44.826  27.630  27.553  1.00  0.00     0.023 A 
ATOM     96  C   UNL A   1      45.909  26.775  27.277  1.00  0.00     0.031 A 
ATOM     97  C   UNL A   1      43.763  27.667  26.631  1.00  0.00     0.131 A 
ATOM     98  C   UNL A   1      45.926  26.031  26.086  1.00  0.00     0.055 A 
ATOM     99  C   UNL A   1      43.759  26.880  25.479  1.00  0.00     0.041 A 
ATOM    100  F   UNL A   1      42.705  28.466  26.843  1.00  0.00    -0.206 F 
ATOM    101  C   UNL A   1      44.850  26.065  25.195  1.00  0.00     0.022 A 
BRANCH  98 102
ATOM    102  S   UNL A   1      47.415  25.081  25.671  1.00  0.00     0.124 S 
ATOM    103  O   UNL A   1      48.424  26.130  25.566  1.00  0.00    -0.237 OA
ATOM    104  O   UNL A   1      47.543  24.184  26.815  1.00  0.00    -0.237 OA
ATOM    105  O   UNL A   1      47.066  24.431  24.409  1.00  0.00    -0.744 OA
ENDBRANCH  98 102
ENDBRANCH  72  95
ENDBRANCH  46  47
ENDBRANCH  39  41
ENDBRANCH  38  39
ENDBRANCH  37  38
ENDBRANCH  36  37
ENDBRANCH  35  36
ENDBRANCH  34  35
ENDBRANCH   1  34
TORSDOF 26
ENDMDL
MODEL 2
REMARK VINA RESULT:      -6.5      2.692      4.123
REMARK SMILES CCc1ccc(-c2cc(Cl)cc3c2O[C@@H](C(F)(F)F)C(C(=O)OCCOCCOCCOCCOC(=O)c2ccc(-c4c5nc(c(-c6cc(S(=O)(=O)[O-])ccc6F)c6ccc([nH]6)c(-c6cc(S(=O)(=O)[O-])ccc6F)c6nc(c(-c7cc(S(=O)(=O)[O-])ccc7F)c7ccc4[nH]7)C=C6)C=C5)cc2)=C3)cc1
REMARK SMILES IDX 30 1 29 2 28 3 27 4 26 5 25 6 24 7 23 8 21 9 22 10 20 11
REMARK SMILES IDX 7 12 8 13 13 14 9 15 12 16 14 17 10 18 11 19 101 20 15 21
REMARK SMILES IDX 6 22 3 23 4 24 103 25 5 26 102 27 2 28 1 29 16 30 17 31
REMARK SMILES IDX 18 32 19 33 31 34 32 35 33 36 34 37 35 38 36 39 37 40 38 41
REMARK SMILES IDX 39 42 100 43 40 44 99 45 41 46 42 47 43 48 93 49 44 50 98 51
REMARK SMILES IDX 92 52 94 53 45 54 97 55 91 56 90 57 46 59 78 60 58 61 77 62
REMARK SMILES IDX 59 63 62 64 76 65 95 66 60 67 61 68 75 70 96 71 63 72 47 73
REMARK SMILES IDX 48 74 56 75 49 76 55 77 57 78 54 79 50 80 51 81 52 82 53 83
REMARK SMILES IDX 79 84 80 85 88 86 81 87 87 88 89 89 86 90 82 91 83 92 84 93
REMARK SMILES IDX 85 94 64 95 65 96 73 97 66 98 72 99 74 100 71 101 67 102
REMARK SMILES IDX 68 103 69 104 70 105
REMARK H PARENT 94 58 62 69
REMARK Flexibility Score: inf
ROOT
ATOM      1  C   UNL A   1      44.093  35.228  39.099  1.00  0.00     0.188 C 
ENDROOT
BRANCH   1   2
ATOM      2  O   UNL A   1      43.683  36.587  39.206  1.00  0.00    -0.377 OA
BRANCH   2   3
ATOM      3  C   UNL A   1      42.905  37.097  38.141  1.00  0.00     0.188 C 
BRANCH   3   4
ATOM      4  C   UNL A   1      41.424  36.718  38.270  1.00  0.00     0.188 C 
BRANCH   4   5
ATOM      5  O   UNL A   1      40.942  35.888  37.219  1.00  0.00    -0.376 OA
BRANCH   5   6
ATOM      6  C   UNL A   1      41.879  35.383  36.268  1.00  0.00     0.202 C 
BRANCH   6   7
ATOM      7  C   UNL A   1      41.521  35.415  34.775  1.00  0.00     0.261 C 
BRANCH   7   8
ATOM      8  O   UNL A   1      40.103  35.205  34.587  1.00  0.00    -0.460 OA
BRANCH   8   9
ATOM      9  C   UNL A   1      39.727  33.956  34.271  1.00  0.00     0.338 C 
ATOM     10  O   UNL A   1      39.460  33.077  35.081  1.00  0.00    -0.246 OA
BRANCH   9  11
ATOM     11  C   UNL A   1      39.479  33.786  32.817  1.00  0.00     0.087 C 
ATOM     12  C   UNL A   1      39.770  29.874  31.460  1.00  0.00     0.026 A 
ATOM     13  C   UNL A   1      40.708  29.212  32.288  1.00  0.00     0.033 A 
ATOM     14  C   UNL A   1      39.611  31.256  31.691  1.00  0.00     0.135 A 
ATOM     15  C   UNL A   1      41.624  29.924  33.061  1.00  0.00     0.042 A 
ATOM     16  C   UNL A   1      40.675  31.967  32.272  1.00  0.00     0.019 A 
ATOM     17  O   UNL A   1      38.367  31.872  31.575  1.00  0.00    -0.475 OA
ATOM     18  Cl  UNL A   1      42.759  29.080  34.035  1.00  0.00    -0.084 Cl
ATOM     19  C   UNL A   1      41.677  31.306  32.972  1.00  0.00     0.032 A 
ATOM     20  C   UNL A   1      40.636  33.444  32.221  1.00  0.00     0.027 C 
ATOM     21  C   UNL A   1      38.238  33.266  32.112  1.00  0.00     0.316 C 
BRANCH  12  22
ATOM     22  C   UNL A   1      39.510  29.188  30.150  1.00  0.00    -0.015 A 
ATOM     23  C   UNL A   1      39.989  27.517  27.859  1.00  0.00    -0.048 A 
ATOM     24  C   UNL A   1      39.279  27.043  28.971  1.00  0.00     0.004 A 
ATOM     25  C   UNL A   1      40.345  28.867  27.852  1.00  0.00     0.004 A 
ATOM     26  C   UNL A   1      39.036  27.864  30.090  1.00  0.00     0.009 A 
ATOM     27  C   UNL A   1      40.110  29.686  28.975  1.00  0.00     0.009 A 
BRANCH  23  28
ATOM     28  C   UNL A   1      40.299  26.570  26.716  1.00  0.00     0.032 C 
ATOM     29  C   UNL A   1      39.407  25.337  26.585  1.00  0.00     0.009 C 
ENDBRANCH  23  28
ENDBRANCH  12  22
BRANCH  21  30
ATOM     30  C   UNL A   1      36.853  33.637  32.703  1.00  0.00     0.430 C 
ATOM     31  F   UNL A   1      35.884  33.327  31.799  1.00  0.00    -0.167 F 
ATOM     32  F   UNL A   1      36.581  32.911  33.815  1.00  0.00    -0.167 F 
ATOM     33  F   UNL A   1      36.670  34.925  33.017  1.00  0.00    -0.167 F 
ENDBRANCH  21  30
ENDBRANCH   9  11
ENDBRANCH   8   9
ENDBRANCH   7   8
ENDBRANCH   6   7
ENDBRANCH   5   6
ENDBRANCH   4   5
ENDBRANCH   3   4
ENDBRANCH   2   3
ENDBRANCH   1   2
BRANCH   1  34
ATOM     34  C   UNL A   1      45.307  34.733  39.913  1.00  0.00     0.188 C 
BRANCH  34  35
ATOM     35  O   UNL A   1      46.249  35.760  40.234  1.00  0.00    -0.376 OA
BRANCH  35  36
ATOM     36  C   UNL A   1      47.623  35.464  40.018  1.00  0.00     0.202 C 
BRANCH  36  37
ATOM     37  C   UNL A   1      47.875  34.115  39.329  1.00  0.00     0.261 C 
BRANCH  37  38
ATOM     38  O   UNL A   1      48.642  34.187  38.118  1.00  0.00    -0.460 OA
BRANCH  38  39
ATOM     39  C   UNL A   1      47.969  34.508  36.991  1.00  0.00     0.338 C 
ATOM     40  O   UNL A   1      47.887  35.613  36.481  1.00  0.00    -0.246 OA
BRANCH  39  41
ATOM     41  C   UNL A   1      47.521  33.255  36.351  1.00  0.00     0.060 A 
ATOM     42  C   UNL A   1      48.474  32.465  35.697  1.00  0.00     0.016 A 
ATOM     43  C   UNL A   1      46.181  32.860  36.400  1.00  0.00     0.016 A 
ATOM     44  C   UNL A   1      48.078  31.305  35.035  1.00  0.00     0.010 A 
ATOM     45  C   UNL A   1      45.783  31.705  35.725  1.00  0.00     0.010 A 
ATOM     46  C   UNL A   1      46.723  30.951  35.001  1.00  0.00    -0.014 A 
BRANCH  46  47
ATOM     47  C   UNL A   1      46.267  29.946  34.012  1.00  0.00     0.031 A 
ATOM     48  C   UNL A   1      45.802  30.441  32.670  1.00  0.00     0.074 A 
ATOM     49  C   UNL A   1      46.287  28.630  34.285  1.00  0.00     0.049 A 
ATOM     50  N   UNL A   1      45.378  29.768  31.632  1.00  0.00    -0.248 NA
ATOM     51  C   UNL A   1      45.808  31.901  32.484  1.00  0.00     0.031 C 
ATOM     52  C   UNL A   1      46.724  28.036  35.547  1.00  0.00     0.029 A 
ATOM     53  N   UNL A   1      45.920  27.558  33.513  1.00  0.00    -0.354 N 
ATOM     54  C   UNL A   1      45.073  30.722  30.667  1.00  0.00     0.074 A 
ATOM     55  C   UNL A   1      45.306  32.018  31.266  1.00  0.00     0.031 C 
ATOM     56  C   UNL A   1      46.580  26.701  35.469  1.00  0.00     0.029 A 
ATOM     57  C   UNL A   1      46.023  26.351  34.162  1.00  0.00     0.049 A 
ATOM     58  H   UNL A   1      45.611  27.645  32.582  1.00  0.00     0.167 HD
ATOM     59  C   UNL A   1      44.653  30.534  29.392  1.00  0.00     0.034 A 
ATOM     60  C   UNL A   1      45.688  25.111  33.752  1.00  0.00     0.034 A 
ATOM     61  C   UNL A   1      44.396  29.234  28.823  1.00  0.00     0.049 A 
ATOM     62  C   UNL A   1      45.158  24.921  32.352  1.00  0.00     0.074 A 
ATOM     63  C   UNL A   1      43.995  28.917  27.538  1.00  0.00     0.029 A 
ATOM     64  N   UNL A   1      44.490  28.033  29.517  1.00  0.00    -0.354 N 
ATOM     65  N   UNL A   1      44.926  25.822  31.424  1.00  0.00    -0.248 NA
ATOM     66  C   UNL A   1      44.864  23.543  31.937  1.00  0.00     0.031 C 
ATOM     67  C   UNL A   1      43.770  27.536  27.478  1.00  0.00     0.029 A 
ATOM     68  C   UNL A   1      44.114  26.977  28.700  1.00  0.00     0.049 A 
ATOM     69  H   UNL A   1      44.782  27.944  30.453  1.00  0.00     0.167 HD
ATOM     70  C   UNL A   1      44.480  25.117  30.309  1.00  0.00     0.074 A 
ATOM     71  C   UNL A   1      44.488  23.716  30.677  1.00  0.00     0.031 C 
ATOM     72  C   UNL A   1      44.106  25.585  29.088  1.00  0.00     0.034 A 
BRANCH  59  73
ATOM     73  C   UNL A   1      44.394  31.774  28.567  1.00  0.00     0.023 A 
ATOM     74  C   UNL A   1      45.341  32.261  27.647  1.00  0.00     0.031 A 
ATOM     75  C   UNL A   1      43.223  32.525  28.763  1.00  0.00     0.131 A 
ATOM     76  C   UNL A   1      45.148  33.510  27.038  1.00  0.00     0.055 A 
ATOM     77  C   UNL A   1      42.994  33.723  28.081  1.00  0.00     0.041 A 
ATOM     78  F   UNL A   1      42.293  32.126  29.644  1.00  0.00    -0.206 F 
ATOM     79  C   UNL A   1      43.969  34.233  27.229  1.00  0.00     0.022 A 
BRANCH  76  80
ATOM     80  S   UNL A   1      46.539  34.262  26.146  1.00  0.00     0.124 S 
ATOM     81  O   UNL A   1      45.950  34.508  24.831  1.00  0.00    -0.237 OA
ATOM     82  O   UNL A   1      46.826  35.444  26.950  1.00  0.00    -0.237 OA
ATOM     83  O   UNL A   1      47.566  33.223  26.173  1.00  0.00    -0.744 OA
ENDBRANCH  76  80
ENDBRANCH  59  73
BRANCH  60  84
ATOM     84  C   UNL A   1      45.804  23.961  34.693  1.00  0.00     0.023 A 
ATOM     85  C   UNL A   1      46.961  23.169  34.752  1.00  0.00     0.031 A 
ATOM     86  C   UNL A   1      44.734  23.632  35.545  1.00  0.00     0.131 A 
ATOM     87  C   UNL A   1      47.010  22.069  35.624  1.00  0.00     0.055 A 
ATOM     88  C   UNL A   1      44.803  22.565  36.441  1.00  0.00     0.041 A 
ATOM     89  F   UNL A   1      43.606  24.361  35.530  1.00  0.00    -0.206 F 
ATOM     90  C   UNL A   1      45.944  21.770  36.477  1.00  0.00     0.022 A 
BRANCH  87  91
ATOM     91  S   UNL A   1      48.473  20.996  35.595  1.00  0.00     0.124 S 
ATOM     92  O   UNL A   1      49.557  21.968  35.696  1.00  0.00    -0.237 OA
ATOM     93  O   UNL A   1      48.256  20.154  36.766  1.00  0.00    -0.237 OA
ATOM     94  O   UNL A   1      48.368  20.310  34.309  1.00  0.00    -0.744 OA
ENDBRANCH  87  91
ENDBRANCH  60  84
BRANCH  72  95
ATOM     95  C   UNL A   1      43.711  24.562  28.049  1.00  0.00     0.023 A 
ATOM     96  C   UNL A   1      44.630  24.064  27.109  1.00  0.00     0.031 A 
ATOM     97  C   UNL A   1      42.391  24.075  28.004  1.00  0.00     0.131 A 
ATOM     98  C   UNL A   1      44.205  23.147  26.134  1.00  0.00     0.055 A 
ATOM     99  C   UNL A   1      41.990  23.119  27.071  1.00  0.00     0.041 A 
ATOM    100  F   UNL A   1      41.471  24.517  28.877  1.00  0.00    -0.206 F 
ATOM    101  C   UNL A   1      42.896  22.659  26.121  1.00  0.00     0.022 A 
BRANCH  98 102
ATOM    102  S   UNL A   1      45.363  22.663  24.824  1.00  0.00     0.124 S 
ATOM    103  O   UNL A   1      45.599  23.932  24.144  1.00  0.00    -0.237 OA
ATOM    104  O   UNL A   1      46.488  22.127  25.584  1.00  0.00    -0.237 OA
ATOM    105  O   UNL A   1      44.613  21.676  24.049  1.00  0.00    -0.744 OA
ENDBRANCH  98 102
ENDBRANCH  72  95
ENDBRANCH  46  47
ENDBRANCH  39  41
ENDBRANCH  38  39
ENDBRANCH  37  38
ENDBRANCH  36  37
ENDBRANCH  35  36
ENDBRANCH  34  35
ENDBRANCH   1  34
TORSDOF 26
ENDMDL
MODEL 3
REMARK VINA RESULT:      -6.5      6.707     14.083
REMARK SMILES CCc1ccc(-c2cc(Cl)cc3c2O[C@@H](C(F)(F)F)C(C(=O)OCCOCCOCCOCCOC(=O)c2ccc(-c4c5nc(c(-c6cc(S(=O)(=O)[O-])ccc6F)c6ccc([nH]6)c(-c6cc(S(=O)(=O)[O-])ccc6F)c6nc(c(-c7cc(S(=O)(=O)[O-])ccc7F)c7ccc4[nH]7)C=C6)C=C5)cc2)=C3)cc1
REMARK SMILES IDX 30 1 29 2 28 3 27 4 26 5 25 6 24 7 23 8 21 9 22 10 20 11
REMARK SMILES IDX 7 12 8 13 13 14 9 15 12 16 14 17 10 18 11 19 101 20 15 21
REMARK SMILES IDX 6 22 3 23 4 24 103 25 5 26 102 27 2 28 1 29 16 30 17 31
REMARK SMILES IDX 18 32 19 33 31 34 32 35 33 36 34 37 35 38 36 39 37 40 38 41
REMARK SMILES IDX 39 42 100 43 40 44 99 45 41 46 42 47 43 48 93 49 44 50 98 51
REMARK SMILES IDX 92 52 94 53 45 54 97 55 91 56 90 57 46 59 78 60 58 61 77 62
REMARK SMILES IDX 59 63 62 64 76 65 95 66 60 67 61 68 75 70 96 71 63 72 47 73
REMARK SMILES IDX 48 74 56 75 49 76 55 77 57 78 54 79 50 80 51 81 52 82 53 83
REMARK SMILES IDX 79 84 80 85 88 86 81 87 87 88 89 89 86 90 82 91 83 92 84 93
REMARK SMILES IDX 85 94 64 95 65 96 73 97 66 98 72 99 74 100 71 101 67 102
REMARK SMILES IDX 68 103 69 104 70 105
REMARK H PARENT 94 58 62 69
REMARK Flexibility Score: inf
ROOT
ATOM      1  C   UNL A   1      50.679  36.607  26.467  1.00  0.00     0.188 C 
ENDROOT
BRANCH   1   2
ATOM      2  O   UNL A   1      50.421  37.491  27.552  1.00  0.00    -0.377 OA
BRANCH   2   3
ATOM      3  C   UNL A   1      50.277  36.899  28.828  1.00  0.00     0.188 C 
BRANCH   3   4
ATOM      4  C   UNL A   1      49.300  37.675  29.722  1.00  0.00     0.188 C 
BRANCH   4   5
ATOM      5  O   UNL A   1      48.474  38.596  29.018  1.00  0.00    -0.376 OA
BRANCH   5   6
ATOM      6  C   UNL A   1      47.439  39.266  29.736  1.00  0.00     0.202 C 
BRANCH   6   7
ATOM      7  C   UNL A   1      47.255  40.779  29.547  1.00  0.00     0.261 C 
BRANCH   7   8
ATOM      8  O   UNL A   1      47.635  41.175  28.209  1.00  0.00    -0.460 OA
BRANCH   8   9
ATOM      9  C   UNL A   1      46.761  41.951  27.551  1.00  0.00     0.338 C 
ATOM     10  O   UNL A   1      45.975  42.727  28.079  1.00  0.00    -0.246 OA
BRANCH   9  11
ATOM     11  C   UNL A   1      46.965  41.919  26.080  1.00  0.00     0.087 C 
ATOM     12  C   UNL A   1      43.518  42.503  23.844  1.00  0.00     0.026 A 
ATOM     13  C   UNL A   1      42.434  42.002  24.606  1.00  0.00     0.033 A 
ATOM     14  C   UNL A   1      44.802  42.296  24.389  1.00  0.00     0.135 A 
ATOM     15  C   UNL A   1      42.637  41.106  25.654  1.00  0.00     0.042 A 
ATOM     16  C   UNL A   1      44.990  41.221  25.274  1.00  0.00     0.019 A 
ATOM     17  O   UNL A   1      45.809  43.249  24.254  1.00  0.00    -0.475 OA
ATOM     18  Cl  UNL A   1      41.291  40.507  26.537  1.00  0.00    -0.084 Cl
ATOM     19  C   UNL A   1      43.910  40.632  25.922  1.00  0.00     0.032 A 
ATOM     20  C   UNL A   1      46.376  40.813  25.589  1.00  0.00     0.027 C 
ATOM     21  C   UNL A   1      47.035  43.075  25.099  1.00  0.00     0.316 C 
BRANCH  12  22
ATOM     22  C   UNL A   1      43.222  42.665  22.381  1.00  0.00    -0.015 A 
ATOM     23  C   UNL A   1      42.414  43.948  19.937  1.00  0.00    -0.048 A 
ATOM     24  C   UNL A   1      43.765  43.858  20.301  1.00  0.00     0.004 A 
ATOM     25  C   UNL A   1      41.487  43.282  20.741  1.00  0.00     0.004 A 
ATOM     26  C   UNL A   1      44.162  43.222  21.494  1.00  0.00     0.009 A 
ATOM     27  C   UNL A   1      41.883  42.653  21.939  1.00  0.00     0.009 A 
BRANCH  23  28
ATOM     28  C   UNL A   1      42.031  44.715  18.688  1.00  0.00     0.032 C 
ATOM     29  C   UNL A   1      40.773  44.252  17.956  1.00  0.00     0.009 C 
ENDBRANCH  23  28
ENDBRANCH  12  22
BRANCH  21  30
ATOM     30  C   UNL A   1      47.728  44.384  25.560  1.00  0.00     0.430 C 
ATOM     31  F   UNL A   1      48.754  44.669  24.711  1.00  0.00    -0.167 F 
ATOM     32  F   UNL A   1      46.880  45.439  25.498  1.00  0.00    -0.167 F 
ATOM     33  F   UNL A   1      48.256  44.371  26.790  1.00  0.00    -0.167 F 
ENDBRANCH  21  30
ENDBRANCH   9  11
ENDBRANCH   8   9
ENDBRANCH   7   8
ENDBRANCH   6   7
ENDBRANCH   5   6
ENDBRANCH   4   5
ENDBRANCH   3   4
ENDBRANCH   2   3
ENDBRANCH   1   2
BRANCH   1  34
ATOM     34  C   UNL A   1      49.704  36.565  25.272  1.00  0.00     0.188 C 
BRANCH  34  35
ATOM     35  O   UNL A   1      48.361  36.224  25.629  1.00  0.00    -0.376 OA
BRANCH  35  36
ATOM     36  C   UNL A   1      47.428  37.293  25.717  1.00  0.00     0.202 C 
BRANCH  36  37
ATOM     37  C   UNL A   1      46.091  36.908  26.368  1.00  0.00     0.261 C 
BRANCH  37  38
ATOM     38  O   UNL A   1      45.667  35.558  26.129  1.00  0.00    -0.460 OA
BRANCH  38  39
ATOM     39  C   UNL A   1      44.364  35.281  26.355  1.00  0.00     0.338 C 
ATOM     40  O   UNL A   1      43.555  34.867  25.542  1.00  0.00    -0.246 OA
BRANCH  39  41
ATOM     41  C   UNL A   1      44.124  35.357  27.810  1.00  0.00     0.060 A 
ATOM     42  C   UNL A   1      44.455  34.248  28.597  1.00  0.00     0.016 A 
ATOM     43  C   UNL A   1      43.588  36.509  28.393  1.00  0.00     0.016 A 
ATOM     44  C   UNL A   1      44.192  34.264  29.965  1.00  0.00     0.010 A 
ATOM     45  C   UNL A   1      43.311  36.519  29.761  1.00  0.00     0.010 A 
ATOM     46  C   UNL A   1      43.569  35.378  30.542  1.00  0.00    -0.014 A 
BRANCH  46  47
ATOM     47  C   UNL A   1      42.969  35.250  31.890  1.00  0.00     0.031 A 
ATOM     48  C   UNL A   1      41.550  34.760  31.985  1.00  0.00     0.074 A 
ATOM     49  C   UNL A   1      43.668  35.536  33.002  1.00  0.00     0.049 A 
ATOM     50  N   UNL A   1      40.810  34.541  33.040  1.00  0.00    -0.248 NA
ATOM     51  C   UNL A   1      40.874  34.490  30.706  1.00  0.00     0.031 C 
ATOM     52  C   UNL A   1      45.050  36.011  33.032  1.00  0.00     0.029 A 
ATOM     53  N   UNL A   1      43.301  35.473  34.322  1.00  0.00    -0.354 N 
ATOM     54  C   UNL A   1      39.583  34.102  32.554  1.00  0.00     0.074 A 
ATOM     55  C   UNL A   1      39.664  34.142  31.109  1.00  0.00     0.031 C 
ATOM     56  C   UNL A   1      45.408  36.217  34.311  1.00  0.00     0.029 A 
ATOM     57  C   UNL A   1      44.277  35.908  35.186  1.00  0.00     0.049 A 
ATOM     58  H   UNL A   1      42.421  35.150  34.622  1.00  0.00     0.167 HD
ATOM     59  C   UNL A   1      38.495  33.687  33.247  1.00  0.00     0.034 A 
ATOM     60  C   UNL A   1      44.250  36.057  36.526  1.00  0.00     0.034 A 
ATOM     61  C   UNL A   1      38.423  33.685  34.687  1.00  0.00     0.049 A 
ATOM     62  C   UNL A   1      43.008  35.654  37.283  1.00  0.00     0.074 A 
ATOM     63  C   UNL A   1      37.387  33.263  35.499  1.00  0.00     0.029 A 
ATOM     64  N   UNL A   1      39.423  34.153  35.531  1.00  0.00    -0.354 N 
ATOM     65  N   UNL A   1      41.870  35.186  36.819  1.00  0.00    -0.248 NA
ATOM     66  C   UNL A   1      43.053  35.782  38.745  1.00  0.00     0.031 C 
ATOM     67  C   UNL A   1      37.728  33.548  36.828  1.00  0.00     0.029 A 
ATOM     68  C   UNL A   1      39.012  34.070  36.853  1.00  0.00     0.049 A 
ATOM     69  H   UNL A   1      40.298  34.494  35.234  1.00  0.00     0.167 HD
ATOM     70  C   UNL A   1      41.074  34.942  37.935  1.00  0.00     0.074 A 
ATOM     71  C   UNL A   1      41.866  35.303  39.094  1.00  0.00     0.031 C 
ATOM     72  C   UNL A   1      39.806  34.455  37.998  1.00  0.00     0.034 A 
BRANCH  59  73
ATOM     73  C   UNL A   1      37.289  33.267  32.438  1.00  0.00     0.023 A 
ATOM     74  C   UNL A   1      37.265  32.056  31.720  1.00  0.00     0.031 A 
ATOM     75  C   UNL A   1      36.182  34.124  32.315  1.00  0.00     0.131 A 
ATOM     76  C   UNL A   1      36.210  31.786  30.837  1.00  0.00     0.055 A 
ATOM     77  C   UNL A   1      35.090  33.805  31.504  1.00  0.00     0.041 A 
ATOM     78  F   UNL A   1      36.156  35.304  32.954  1.00  0.00    -0.206 F 
ATOM     79  C   UNL A   1      35.109  32.640  30.742  1.00  0.00     0.022 A 
BRANCH  76  80
ATOM     80  S   UNL A   1      36.386  30.402  29.675  1.00  0.00     0.124 S 
ATOM     81  O   UNL A   1      35.381  30.731  28.668  1.00  0.00    -0.237 OA
ATOM     82  O   UNL A   1      37.777  30.521  29.254  1.00  0.00    -0.237 OA
ATOM     83  O   UNL A   1      36.078  29.229  30.490  1.00  0.00    -0.744 OA
ENDBRANCH  76  80
ENDBRANCH  59  73
BRANCH  60  84
ATOM     84  C   UNL A   1      45.421  36.652  37.231  1.00  0.00     0.023 A 
ATOM     85  C   UNL A   1      45.584  38.041  37.349  1.00  0.00     0.031 A 
ATOM     86  C   UNL A   1      46.409  35.820  37.789  1.00  0.00     0.131 A 
ATOM     87  C   UNL A   1      46.725  38.558  37.984  1.00  0.00     0.055 A 
ATOM     88  C   UNL A   1      47.519  36.338  38.458  1.00  0.00     0.041 A 
ATOM     89  F   UNL A   1      46.299  34.484  37.705  1.00  0.00    -0.206 F 
ATOM     90  C   UNL A   1      47.685  37.715  38.550  1.00  0.00     0.022 A 
BRANCH  87  91
ATOM     91  S   UNL A   1      46.964  40.356  38.021  1.00  0.00     0.124 S 
ATOM     92  O   UNL A   1      48.378  40.476  37.680  1.00  0.00    -0.237 OA
ATOM     93  O   UNL A   1      46.019  40.809  37.007  1.00  0.00    -0.237 OA
ATOM     94  O   UNL A   1      46.620  40.718  39.395  1.00  0.00    -0.744 OA
ENDBRANCH  87  91
ENDBRANCH  60  84
BRANCH  72  95
ATOM     95  C   UNL A   1      39.213  34.250  39.372  1.00  0.00     0.023 A 
ATOM     96  C   UNL A   1      39.034  32.968  39.921  1.00  0.00     0.031 A 
ATOM     97  C   UNL A   1      38.825  35.359  40.146  1.00  0.00     0.131 A 
ATOM     98  C   UNL A   1      38.437  32.825  41.184  1.00  0.00     0.055 A 
ATOM     99  C   UNL A   1      38.288  35.214  41.426  1.00  0.00     0.041 A 
ATOM    100  F   UNL A   1      38.973  36.607  39.672  1.00  0.00    -0.206 F 
ATOM    101  C   UNL A   1      38.080  33.941  41.946  1.00  0.00     0.022 A 
BRANCH  98 102
ATOM    102  S   UNL A   1      38.052  31.158  41.786  1.00  0.00     0.124 S 
ATOM    103  O   UNL A   1      37.087  31.434  42.846  1.00  0.00    -0.237 OA
ATOM    104  O   UNL A   1      37.520  30.509  40.592  1.00  0.00    -0.237 OA
ATOM    105  O   UNL A   1      39.344  30.650  42.243  1.00  0.00    -0.744 OA
ENDBRANCH  98 102
ENDBRANCH  72  95
ENDBRANCH  46  47
ENDBRANCH  39  41
ENDBRANCH  38  39
ENDBRANCH  37  38
ENDBRANCH  36  37
ENDBRANCH  35  36
ENDBRANCH  34  35
ENDBRANCH   1  34
TORSDOF 26
ENDMDL
