MODEL 1
REMARK VINA RESULT:      -8.1      0.000      0.000
REMARK SMILES O=C(Nc1ccccc1C(=O)OCCOCCOCCOCCOC(=O)c1ccc(-c2c3nc(c(-c4cc(S(=O)(=O)[O-])ccc4F)c4ccc([nH]4)c(-c4cc(S(=O)(=O)[O-])ccc4F)c4nc(c(-c5cc(S(=O)(=O)[O-])ccc5F)c5ccc2[nH]5)C=C4)C=C3)cc1)c1ccc2c(c1)C(=O)N(Cc1ccccc1)C2=O
REMARK SMILES IDX 17 1 16 2 15 3 14 4 13 5 12 6 10 7 11 8 9 9 4 10 5 11 6 12
REMARK SMILES IDX 8 13 7 14 3 15 1 16 2 17 90 19 91 20 95 21 92 22 94 23 93 24
REMARK SMILES IDX 96 25 106 26 97 27 98 28 107 29 99 30 100 31 101 32 105 33
REMARK SMILES IDX 102 34 104 35 103 36 18 37 19 38 20 39 21 40 22 41 23 42
REMARK SMILES IDX 24 43 25 44 26 45 27 46 28 47 89 48 29 49 88 50 30 51 31 52
REMARK SMILES IDX 32 53 82 54 33 55 87 56 81 57 83 58 34 59 86 60 80 61 79 62
REMARK SMILES IDX 35 64 67 65 47 66 66 67 48 68 51 69 65 70 84 71 49 72 50 73
REMARK SMILES IDX 64 75 85 76 52 77 36 78 37 79 45 80 38 81 44 82 46 83 43 84
REMARK SMILES IDX 39 85 40 86 41 87 42 88 68 89 69 90 77 91 70 92 76 93 78 94
REMARK SMILES IDX 75 95 71 96 72 97 73 98 74 99 53 100 54 101 62 102 55 103
REMARK SMILES IDX 61 104 63 105 60 106 56 107 57 108 58 109 59 110
REMARK H PARENT 3 18 83 63 51 74
REMARK Flexibility Score: inf
ROOT
ATOM      1  C   UNL A   1      44.478  28.985  43.569  1.00  0.00     0.188 C 
ENDROOT
BRANCH   1   2
ATOM      2  C   UNL A   1      44.227  28.070  42.357  1.00  0.00     0.188 C 
BRANCH   2   3
ATOM      3  O   UNL A   1      45.368  27.472  41.777  1.00  0.00    -0.376 OA
BRANCH   3   4
ATOM      4  C   UNL A   1      45.817  27.818  40.475  1.00  0.00     0.202 C 
BRANCH   4   5
ATOM      5  C   UNL A   1      45.557  26.974  39.232  1.00  0.00     0.261 C 
BRANCH   5   6
ATOM      6  O   UNL A   1      44.393  27.242  38.439  1.00  0.00    -0.460 OA
BRANCH   6   7
ATOM      7  C   UNL A   1      44.466  27.633  37.154  1.00  0.00     0.340 C 
ATOM      8  O   UNL A   1      45.115  28.549  36.683  1.00  0.00    -0.246 OA
BRANCH   7   9
ATOM      9  C   UNL A   1      43.740  26.606  36.375  1.00  0.00     0.083 A 
ATOM     10  C   UNL A   1      42.343  26.601  36.223  1.00  0.00     0.056 A 
ATOM     11  C   UNL A   1      41.731  25.374  35.906  1.00  0.00     0.027 A 
ATOM     12  C   UNL A   1      42.482  24.227  35.626  1.00  0.00     0.002 A 
ATOM     13  C   UNL A   1      44.500  25.468  36.032  1.00  0.00     0.018 A 
ATOM     14  C   UNL A   1      43.870  24.285  35.651  1.00  0.00     0.001 A 
BRANCH  10  15
ATOM     15  N   UNL A   1      41.444  27.681  36.378  1.00  0.00    -0.321 N 
ATOM     16  O   UNL A   1      40.333  29.615  36.127  1.00  0.00    -0.269 OA
ATOM     17  C   UNL A   1      41.066  28.765  35.619  1.00  0.00     0.255 C 
ATOM     18  H   UNL A   1      40.973  27.651  37.242  1.00  0.00     0.170 HD
BRANCH  17  19
ATOM     19  C   UNL A   1      41.476  28.975  34.216  1.00  0.00     0.041 A 
ATOM     20  C   UNL A   1      42.525  29.838  33.834  1.00  0.00     0.015 A 
ATOM     21  C   UNL A   1      40.703  28.323  33.249  1.00  0.00     0.028 A 
ATOM     22  C   UNL A   1      42.732  30.143  32.472  1.00  0.00     0.015 A 
ATOM     23  C   UNL A   1      40.848  28.741  31.941  1.00  0.00     0.054 A 
ATOM     24  C   UNL A   1      41.837  29.620  31.550  1.00  0.00     0.053 A 
ATOM     25  C   UNL A   1      39.945  28.548  30.806  1.00  0.00     0.261 C 
ATOM     26  C   UNL A   1      41.628  29.891  30.120  1.00  0.00     0.261 C 
ATOM     27  O   UNL A   1      38.929  27.888  30.857  1.00  0.00    -0.269 OA
ATOM     28  N   UNL A   1      40.454  29.278  29.768  1.00  0.00    -0.270 N 
ATOM     29  O   UNL A   1      42.417  30.505  29.424  1.00  0.00    -0.269 OA
BRANCH  28  30
ATOM     30  C   UNL A   1      39.898  29.217  28.427  1.00  0.00     0.164 C 
BRANCH  30  31
ATOM     31  C   UNL A   1      40.531  28.278  27.414  1.00  0.00    -0.028 A 
ATOM     32  C   UNL A   1      41.252  28.864  26.354  1.00  0.00     0.005 A 
ATOM     33  C   UNL A   1      40.499  26.882  27.484  1.00  0.00     0.005 A 
ATOM     34  C   UNL A   1      41.929  28.085  25.412  1.00  0.00     0.000 A 
ATOM     35  C   UNL A   1      41.203  26.099  26.557  1.00  0.00     0.000 A 
ATOM     36  C   UNL A   1      41.916  26.699  25.521  1.00  0.00     0.000 A 
ENDBRANCH  30  31
ENDBRANCH  28  30
ENDBRANCH  17  19
ENDBRANCH  10  15
ENDBRANCH   7   9
ENDBRANCH   6   7
ENDBRANCH   5   6
ENDBRANCH   4   5
ENDBRANCH   3   4
ENDBRANCH   2   3
ENDBRANCH   1   2
BRANCH   1  37
ATOM     37  O   UNL A   1      43.704  30.167  43.577  1.00  0.00    -0.377 OA
BRANCH  37  38
ATOM     38  C   UNL A   1      42.292  30.071  43.414  1.00  0.00     0.188 C 
BRANCH  38  39
ATOM     39  C   UNL A   1      41.488  31.269  42.879  1.00  0.00     0.188 C 
BRANCH  39  40
ATOM     40  O   UNL A   1      40.117  30.949  42.666  1.00  0.00    -0.376 OA
BRANCH  40  41
ATOM     41  C   UNL A   1      39.244  31.178  43.763  1.00  0.00     0.202 C 
BRANCH  41  42
ATOM     42  C   UNL A   1      38.189  32.277  43.558  1.00  0.00     0.261 C 
BRANCH  42  43
ATOM     43  O   UNL A   1      37.575  32.377  42.255  1.00  0.00    -0.460 OA
BRANCH  43  44
ATOM     44  C   UNL A   1      37.311  33.595  41.729  1.00  0.00     0.338 C 
ATOM     45  O   UNL A   1      36.598  34.453  42.218  1.00  0.00    -0.246 OA
BRANCH  44  46
ATOM     46  C   UNL A   1      38.232  33.811  40.578  1.00  0.00     0.060 A 
ATOM     47  C   UNL A   1      38.537  35.123  40.184  1.00  0.00     0.016 A 
ATOM     48  C   UNL A   1      38.806  32.732  39.900  1.00  0.00     0.016 A 
ATOM     49  C   UNL A   1      39.363  35.356  39.076  1.00  0.00     0.010 A 
ATOM     50  C   UNL A   1      39.612  32.966  38.779  1.00  0.00     0.010 A 
ATOM     51  C   UNL A   1      39.856  34.277  38.330  1.00  0.00    -0.014 A 
BRANCH  51  52
ATOM     52  C   UNL A   1      40.353  34.495  36.942  1.00  0.00     0.031 A 
ATOM     53  C   UNL A   1      39.335  34.426  35.829  1.00  0.00     0.074 A 
ATOM     54  C   UNL A   1      41.643  34.750  36.654  1.00  0.00     0.049 A 
ATOM     55  N   UNL A   1      39.506  34.469  34.533  1.00  0.00    -0.248 NA
ATOM     56  C   UNL A   1      37.930  34.278  36.245  1.00  0.00     0.031 C 
ATOM     57  C   UNL A   1      42.717  34.905  37.631  1.00  0.00     0.029 A 
ATOM     58  N   UNL A   1      42.269  34.911  35.440  1.00  0.00    -0.354 N 
ATOM     59  C   UNL A   1      38.234  34.353  33.982  1.00  0.00     0.074 A 
ATOM     60  C   UNL A   1      37.308  34.199  35.081  1.00  0.00     0.031 C 
ATOM     61  C   UNL A   1      43.874  35.122  36.977  1.00  0.00     0.029 A 
ATOM     62  C   UNL A   1      43.633  35.079  35.533  1.00  0.00     0.049 A 
ATOM     63  H   UNL A   1      41.787  34.907  34.582  1.00  0.00     0.167 HD
ATOM     64  C   UNL A   1      37.865  34.381  32.677  1.00  0.00     0.034 A 
ATOM     65  C   UNL A   1      44.575  35.155  34.568  1.00  0.00     0.034 A 
ATOM     66  C   UNL A   1      38.792  34.516  31.584  1.00  0.00     0.049 A 
ATOM     67  C   UNL A   1      44.151  35.074  33.114  1.00  0.00     0.074 A 
ATOM     68  C   UNL A   1      38.525  34.541  30.227  1.00  0.00     0.029 A 
ATOM     69  N   UNL A   1      40.168  34.641  31.721  1.00  0.00    -0.354 N 
ATOM     70  N   UNL A   1      42.946  34.954  32.606  1.00  0.00    -0.248 NA
ATOM     71  C   UNL A   1      45.219  35.142  32.103  1.00  0.00     0.031 C 
ATOM     72  C   UNL A   1      39.741  34.612  29.542  1.00  0.00     0.029 A 
ATOM     73  C   UNL A   1      40.763  34.717  30.472  1.00  0.00     0.049 A 
ATOM     74  H   UNL A   1      40.650  34.673  32.579  1.00  0.00     0.167 HD
ATOM     75  C   UNL A   1      43.112  34.975  31.220  1.00  0.00     0.074 A 
ATOM     76  C   UNL A   1      44.529  35.133  30.974  1.00  0.00     0.031 C 
ATOM     77  C   UNL A   1      42.178  34.879  30.238  1.00  0.00     0.034 A 
BRANCH  64  78
ATOM     78  C   UNL A   1      36.399  34.208  32.370  1.00  0.00     0.023 A 
ATOM     79  C   UNL A   1      35.548  35.312  32.188  1.00  0.00     0.031 A 
ATOM     80  C   UNL A   1      35.841  32.920  32.278  1.00  0.00     0.131 A 
ATOM     81  C   UNL A   1      34.175  35.109  31.981  1.00  0.00     0.055 A 
ATOM     82  C   UNL A   1      34.488  32.724  31.996  1.00  0.00     0.041 A 
ATOM     83  F   UNL A   1      36.601  31.831  32.471  1.00  0.00    -0.206 F 
ATOM     84  C   UNL A   1      33.644  33.822  31.858  1.00  0.00     0.022 A 
BRANCH  81  85
ATOM     85  S   UNL A   1      33.072  36.548  32.001  1.00  0.00     0.124 S 
ATOM     86  O   UNL A   1      33.983  37.613  32.411  1.00  0.00    -0.237 OA
ATOM     87  O   UNL A   1      32.602  36.605  30.622  1.00  0.00    -0.237 OA
ATOM     88  O   UNL A   1      32.058  36.189  32.991  1.00  0.00    -0.744 OA
ENDBRANCH  81  85
ENDBRANCH  64  78
BRANCH  65  89
ATOM     89  C   UNL A   1      46.028  35.254  34.913  1.00  0.00     0.023 A 
ATOM     90  C   UNL A   1      46.800  34.106  35.158  1.00  0.00     0.031 A 
ATOM     91  C   UNL A   1      46.637  36.506  35.113  1.00  0.00     0.131 A 
ATOM     92  C   UNL A   1      48.112  34.232  35.650  1.00  0.00     0.055 A 
ATOM     93  C   UNL A   1      47.963  36.627  35.538  1.00  0.00     0.041 A 
ATOM     94  F   UNL A   1      45.945  37.639  34.910  1.00  0.00    -0.206 F 
ATOM     95  C   UNL A   1      48.702  35.485  35.827  1.00  0.00     0.022 A 
BRANCH  92  96
ATOM     96  S   UNL A   1      48.991  32.735  36.180  1.00  0.00     0.124 S 
ATOM     97  O   UNL A   1      49.585  32.281  34.927  1.00  0.00    -0.237 OA
ATOM     98  O   UNL A   1      49.919  33.263  37.174  1.00  0.00    -0.237 OA
ATOM     99  O   UNL A   1      47.927  31.884  36.709  1.00  0.00    -0.744 OA
ENDBRANCH  92  96
ENDBRANCH  65  89
BRANCH  77 100
ATOM    100  C   UNL A   1      42.651  35.009  28.810  1.00  0.00     0.023 A 
ATOM    101  C   UNL A   1      43.357  33.980  28.161  1.00  0.00     0.031 A 
ATOM    102  C   UNL A   1      42.385  36.185  28.084  1.00  0.00     0.131 A 
ATOM    103  C   UNL A   1      43.818  34.168  26.848  1.00  0.00     0.055 A 
ATOM    104  C   UNL A   1      42.792  36.342  26.758  1.00  0.00     0.041 A 
ATOM    105  F   UNL A   1      41.714  37.200  28.652  1.00  0.00    -0.206 F 
ATOM    106  C   UNL A   1      43.524  35.335  26.137  1.00  0.00     0.022 A 
BRANCH 103 107
ATOM    107  S   UNL A   1      44.883  32.900  26.106  1.00  0.00     0.124 S 
ATOM    108  O   UNL A   1      44.003  32.316  25.099  1.00  0.00    -0.237 OA
ATOM    109  O   UNL A   1      46.000  33.688  25.598  1.00  0.00    -0.237 OA
ATOM    110  O   UNL A   1      45.206  32.022  27.231  1.00  0.00    -0.744 OA
ENDBRANCH 103 107
ENDBRANCH  77 100
ENDBRANCH  51  52
ENDBRANCH  44  46
ENDBRANCH  43  44
ENDBRANCH  42  43
ENDBRANCH  41  42
ENDBRANCH  40  41
ENDBRANCH  39  40
ENDBRANCH  38  39
ENDBRANCH  37  38
ENDBRANCH   1  37
TORSDOF 27
ENDMDL
MODEL 2
REMARK VINA RESULT:      -7.7      4.715     10.347
REMARK SMILES O=C(Nc1ccccc1C(=O)OCCOCCOCCOCCOC(=O)c1ccc(-c2c3nc(c(-c4cc(S(=O)(=O)[O-])ccc4F)c4ccc([nH]4)c(-c4cc(S(=O)(=O)[O-])ccc4F)c4nc(c(-c5cc(S(=O)(=O)[O-])ccc5F)c5ccc2[nH]5)C=C4)C=C3)cc1)c1ccc2c(c1)C(=O)N(Cc1ccccc1)C2=O
REMARK SMILES IDX 17 1 16 2 15 3 14 4 13 5 12 6 10 7 11 8 9 9 4 10 5 11 6 12
REMARK SMILES IDX 8 13 7 14 3 15 1 16 2 17 90 19 91 20 95 21 92 22 94 23 93 24
REMARK SMILES IDX 96 25 106 26 97 27 98 28 107 29 99 30 100 31 101 32 105 33
REMARK SMILES IDX 102 34 104 35 103 36 18 37 19 38 20 39 21 40 22 41 23 42
REMARK SMILES IDX 24 43 25 44 26 45 27 46 28 47 89 48 29 49 88 50 30 51 31 52
REMARK SMILES IDX 32 53 82 54 33 55 87 56 81 57 83 58 34 59 86 60 80 61 79 62
REMARK SMILES IDX 35 64 67 65 47 66 66 67 48 68 51 69 65 70 84 71 49 72 50 73
REMARK SMILES IDX 64 75 85 76 52 77 36 78 37 79 45 80 38 81 44 82 46 83 43 84
REMARK SMILES IDX 39 85 40 86 41 87 42 88 68 89 69 90 77 91 70 92 76 93 78 94
REMARK SMILES IDX 75 95 71 96 72 97 73 98 74 99 53 100 54 101 62 102 55 103
REMARK SMILES IDX 61 104 63 105 60 106 56 107 57 108 58 109 59 110
REMARK H PARENT 3 18 83 63 51 74
REMARK Flexibility Score: inf
ROOT
ATOM      1  C   UNL A   1      48.464  40.343  28.338  1.00  0.00     0.188 C 
ENDROOT
BRANCH   1   2
ATOM      2  C   UNL A   1      47.703  41.366  27.476  1.00  0.00     0.188 C 
BRANCH   2   3
ATOM      3  O   UNL A   1      47.310  40.934  26.190  1.00  0.00    -0.376 OA
BRANCH   3   4
ATOM      4  C   UNL A   1      46.755  39.647  25.967  1.00  0.00     0.202 C 
BRANCH   4   5
ATOM      5  C   UNL A   1      47.584  38.374  25.825  1.00  0.00     0.261 C 
BRANCH   5   6
ATOM      6  O   UNL A   1      46.997  37.117  26.188  1.00  0.00    -0.460 OA
BRANCH   6   7
ATOM      7  C   UNL A   1      46.423  36.904  27.385  1.00  0.00     0.340 C 
ATOM      8  O   UNL A   1      46.762  37.340  28.469  1.00  0.00    -0.246 OA
BRANCH   7   9
ATOM      9  C   UNL A   1      45.166  36.174  27.108  1.00  0.00     0.083 A 
ATOM     10  C   UNL A   1      45.115  34.982  26.367  1.00  0.00     0.056 A 
ATOM     11  C   UNL A   1      43.890  34.648  25.760  1.00  0.00     0.027 A 
ATOM     12  C   UNL A   1      42.730  35.397  25.983  1.00  0.00     0.002 A 
ATOM     13  C   UNL A   1      43.984  36.894  27.385  1.00  0.00     0.018 A 
ATOM     14  C   UNL A   1      42.769  36.499  26.829  1.00  0.00     0.001 A 
BRANCH  10  15
ATOM     15  N   UNL A   1      46.162  34.065  26.117  1.00  0.00    -0.321 N 
ATOM     16  O   UNL A   1      47.609  32.355  26.253  1.00  0.00    -0.269 OA
ATOM     17  C   UNL A   1      46.530  32.832  26.605  1.00  0.00     0.255 C 
ATOM     18  H   UNL A   1      46.780  34.388  25.422  1.00  0.00     0.170 HD
BRANCH  17  19
ATOM     19  C   UNL A   1      45.702  32.028  27.526  1.00  0.00     0.041 A 
ATOM     20  C   UNL A   1      45.740  30.618  27.575  1.00  0.00     0.015 A 
ATOM     21  C   UNL A   1      44.792  32.742  28.313  1.00  0.00     0.028 A 
ATOM     22  C   UNL A   1      44.785  29.908  28.332  1.00  0.00     0.015 A 
ATOM     23  C   UNL A   1      43.795  32.018  28.937  1.00  0.00     0.054 A 
ATOM     24  C   UNL A   1      43.787  30.639  28.959  1.00  0.00     0.053 A 
ATOM     25  C   UNL A   1      42.519  32.484  29.479  1.00  0.00     0.261 C 
ATOM     26  C   UNL A   1      42.545  30.230  29.633  1.00  0.00     0.261 C 
ATOM     27  O   UNL A   1      42.190  33.651  29.521  1.00  0.00    -0.269 OA
ATOM     28  N   UNL A   1      41.818  31.370  29.850  1.00  0.00    -0.270 N 
ATOM     29  O   UNL A   1      42.297  29.082  29.960  1.00  0.00    -0.269 OA
BRANCH  28  30
ATOM     30  C   UNL A   1      40.554  31.448  30.563  1.00  0.00     0.164 C 
BRANCH  30  31
ATOM     31  C   UNL A   1      39.261  31.319  29.776  1.00  0.00    -0.028 A 
ATOM     32  C   UNL A   1      39.051  30.117  29.071  1.00  0.00     0.005 A 
ATOM     33  C   UNL A   1      38.242  32.277  29.743  1.00  0.00     0.005 A 
ATOM     34  C   UNL A   1      37.863  29.874  28.377  1.00  0.00     0.000 A 
ATOM     35  C   UNL A   1      37.037  32.023  29.071  1.00  0.00     0.000 A 
ATOM     36  C   UNL A   1      36.848  30.824  28.387  1.00  0.00     0.000 A 
ENDBRANCH  30  31
ENDBRANCH  28  30
ENDBRANCH  17  19
ENDBRANCH  10  15
ENDBRANCH   7   9
ENDBRANCH   6   7
ENDBRANCH   5   6
ENDBRANCH   4   5
ENDBRANCH   3   4
ENDBRANCH   2   3
ENDBRANCH   1   2
BRANCH   1  37
ATOM     37  O   UNL A   1      48.720  40.769  29.660  1.00  0.00    -0.377 OA
BRANCH  37  38
ATOM     38  C   UNL A   1      48.345  42.088  30.046  1.00  0.00     0.188 C 
BRANCH  38  39
ATOM     39  C   UNL A   1      47.524  42.320  31.327  1.00  0.00     0.188 C 
BRANCH  39  40
ATOM     40  O   UNL A   1      46.385  43.142  31.099  1.00  0.00    -0.376 OA
BRANCH  40  41
ATOM     41  C   UNL A   1      45.122  42.553  31.378  1.00  0.00     0.202 C 
BRANCH  41  42
ATOM     42  C   UNL A   1      44.720  42.509  32.862  1.00  0.00     0.261 C 
BRANCH  42  43
ATOM     43  O   UNL A   1      44.414  41.218  33.431  1.00  0.00    -0.460 OA
BRANCH  43  44
ATOM     44  C   UNL A   1      43.401  40.482  32.920  1.00  0.00     0.338 C 
ATOM     45  O   UNL A   1      42.342  40.909  32.496  1.00  0.00    -0.246 OA
BRANCH  44  46
ATOM     46  C   UNL A   1      43.891  39.088  32.731  1.00  0.00     0.060 A 
ATOM     47  C   UNL A   1      43.843  38.514  31.451  1.00  0.00     0.016 A 
ATOM     48  C   UNL A   1      44.411  38.354  33.801  1.00  0.00     0.016 A 
ATOM     49  C   UNL A   1      44.254  37.189  31.253  1.00  0.00     0.010 A 
ATOM     50  C   UNL A   1      44.799  37.023  33.606  1.00  0.00     0.010 A 
ATOM     51  C   UNL A   1      44.677  36.416  32.342  1.00  0.00    -0.014 A 
BRANCH  51  52
ATOM     52  C   UNL A   1      44.698  34.929  32.239  1.00  0.00     0.031 A 
ATOM     53  C   UNL A   1      43.514  34.184  32.807  1.00  0.00     0.074 A 
ATOM     54  C   UNL A   1      45.708  34.246  31.667  1.00  0.00     0.049 A 
ATOM     55  N   UNL A   1      43.323  32.899  32.948  1.00  0.00    -0.248 NA
ATOM     56  C   UNL A   1      42.398  35.015  33.289  1.00  0.00     0.031 C 
ATOM     57  C   UNL A   1      46.879  34.838  31.025  1.00  0.00     0.029 A 
ATOM     58  N   UNL A   1      45.910  32.891  31.547  1.00  0.00    -0.354 N 
ATOM     59  C   UNL A   1      42.068  32.767  33.535  1.00  0.00     0.074 A 
ATOM     60  C   UNL A   1      41.563  34.102  33.759  1.00  0.00     0.031 C 
ATOM     61  C   UNL A   1      47.686  33.850  30.595  1.00  0.00     0.029 A 
ATOM     62  C   UNL A   1      47.113  32.555  30.966  1.00  0.00     0.049 A 
ATOM     63  H   UNL A   1      45.254  32.221  31.848  1.00  0.00     0.167 HD
ATOM     64  C   UNL A   1      41.391  31.636  33.853  1.00  0.00     0.034 A 
ATOM     65  C   UNL A   1      47.693  31.348  30.787  1.00  0.00     0.034 A 
ATOM     66  C   UNL A   1      41.905  30.308  33.646  1.00  0.00     0.049 A 
ATOM     67  C   UNL A   1      46.964  30.101  31.250  1.00  0.00     0.074 A 
ATOM     68  C   UNL A   1      41.307  29.097  33.946  1.00  0.00     0.029 A 
ATOM     69  N   UNL A   1      43.144  30.013  33.093  1.00  0.00    -0.354 N 
ATOM     70  N   UNL A   1      45.783  29.991  31.813  1.00  0.00    -0.248 NA
ATOM     71  C   UNL A   1      47.649  28.815  31.049  1.00  0.00     0.031 C 
ATOM     72  C   UNL A   1      42.209  28.074  33.639  1.00  0.00     0.029 A 
ATOM     73  C   UNL A   1      43.338  28.641  33.069  1.00  0.00     0.049 A 
ATOM     74  H   UNL A   1      43.790  30.681  32.766  1.00  0.00     0.167 HD
ATOM     75  C   UNL A   1      45.571  28.624  31.992  1.00  0.00     0.074 A 
ATOM     76  C   UNL A   1      46.738  27.950  31.467  1.00  0.00     0.031 C 
ATOM     77  C   UNL A   1      44.505  27.980  32.537  1.00  0.00     0.034 A 
BRANCH  64  78
ATOM     78  C   UNL A   1      40.042  31.800  34.507  1.00  0.00     0.023 A 
ATOM     79  C   UNL A   1      38.879  32.036  33.752  1.00  0.00     0.031 A 
ATOM     80  C   UNL A   1      39.921  31.740  35.907  1.00  0.00     0.131 A 
ATOM     81  C   UNL A   1      37.658  32.260  34.404  1.00  0.00     0.055 A 
ATOM     82  C   UNL A   1      38.689  31.889  36.545  1.00  0.00     0.041 A 
ATOM     83  F   UNL A   1      41.003  31.546  36.678  1.00  0.00    -0.206 F 
ATOM     84  C   UNL A   1      37.550  32.162  35.794  1.00  0.00     0.022 A 
BRANCH  81  85
ATOM     85  S   UNL A   1      36.236  32.807  33.420  1.00  0.00     0.124 S 
ATOM     86  O   UNL A   1      35.899  31.589  32.687  1.00  0.00    -0.237 OA
ATOM     87  O   UNL A   1      35.283  33.221  34.444  1.00  0.00    -0.237 OA
ATOM     88  O   UNL A   1      36.781  33.888  32.602  1.00  0.00    -0.744 OA
ENDBRANCH  81  85
ENDBRANCH  64  78
BRANCH  65  89
ATOM     89  C   UNL A   1      49.064  31.231  30.199  1.00  0.00     0.023 A 
ATOM     90  C   UNL A   1      49.253  30.933  28.839  1.00  0.00     0.031 A 
ATOM     91  C   UNL A   1      50.206  31.304  31.017  1.00  0.00     0.131 A 
ATOM     92  C   UNL A   1      50.543  30.656  28.352  1.00  0.00     0.055 A 
ATOM     93  C   UNL A   1      51.493  31.093  30.514  1.00  0.00     0.041 A 
ATOM     94  F   UNL A   1      50.089  31.569  32.328  1.00  0.00    -0.206 F 
ATOM     95  C   UNL A   1      51.664  30.748  29.177  1.00  0.00     0.022 A 
BRANCH  92  96
ATOM     96  S   UNL A   1      50.719  30.043  26.651  1.00  0.00     0.124 S 
ATOM     97  O   UNL A   1      51.747  29.021  26.810  1.00  0.00    -0.237 OA
ATOM     98  O   UNL A   1      49.373  29.560  26.362  1.00  0.00    -0.237 OA
ATOM     99  O   UNL A   1      51.130  31.229  25.903  1.00  0.00    -0.744 OA
ENDBRANCH  92  96
ENDBRANCH  65  89
BRANCH  77 100
ATOM    100  C   UNL A   1      44.525  26.470  32.531  1.00  0.00     0.023 A 
ATOM    101  C   UNL A   1      44.862  25.723  33.673  1.00  0.00     0.031 A 
ATOM    102  C   UNL A   1      44.194  25.767  31.357  1.00  0.00     0.131 A 
ATOM    103  C   UNL A   1      44.912  24.322  33.603  1.00  0.00     0.055 A 
ATOM    104  C   UNL A   1      44.187  24.372  31.310  1.00  0.00     0.041 A 
ATOM    105  F   UNL A   1      43.863  26.428  30.235  1.00  0.00    -0.206 F 
ATOM    106  C   UNL A   1      44.560  23.642  32.434  1.00  0.00     0.022 A 
BRANCH 103 107
ATOM    107  S   UNL A   1      45.529  23.397  35.037  1.00  0.00     0.124 S 
ATOM    108  O   UNL A   1      45.219  24.302  36.139  1.00  0.00    -0.237 OA
ATOM    109  O   UNL A   1      44.741  22.170  34.980  1.00  0.00    -0.237 OA
ATOM    110  O   UNL A   1      46.954  23.231  34.752  1.00  0.00    -0.744 OA
ENDBRANCH 103 107
ENDBRANCH  77 100
ENDBRANCH  51  52
ENDBRANCH  44  46
ENDBRANCH  43  44
ENDBRANCH  42  43
ENDBRANCH  41  42
ENDBRANCH  40  41
ENDBRANCH  39  40
ENDBRANCH  38  39
ENDBRANCH  37  38
ENDBRANCH   1  37
TORSDOF 27
ENDMDL
MODEL 3
REMARK VINA RESULT:      -7.6      6.515     14.963
REMARK SMILES O=C(Nc1ccccc1C(=O)OCCOCCOCCOCCOC(=O)c1ccc(-c2c3nc(c(-c4cc(S(=O)(=O)[O-])ccc4F)c4ccc([nH]4)c(-c4cc(S(=O)(=O)[O-])ccc4F)c4nc(c(-c5cc(S(=O)(=O)[O-])ccc5F)c5ccc2[nH]5)C=C4)C=C3)cc1)c1ccc2c(c1)C(=O)N(Cc1ccccc1)C2=O
REMARK SMILES IDX 17 1 16 2 15 3 14 4 13 5 12 6 10 7 11 8 9 9 4 10 5 11 6 12
REMARK SMILES IDX 8 13 7 14 3 15 1 16 2 17 90 19 91 20 95 21 92 22 94 23 93 24
REMARK SMILES IDX 96 25 106 26 97 27 98 28 107 29 99 30 100 31 101 32 105 33
REMARK SMILES IDX 102 34 104 35 103 36 18 37 19 38 20 39 21 40 22 41 23 42
REMARK SMILES IDX 24 43 25 44 26 45 27 46 28 47 89 48 29 49 88 50 30 51 31 52
REMARK SMILES IDX 32 53 82 54 33 55 87 56 81 57 83 58 34 59 86 60 80 61 79 62
REMARK SMILES IDX 35 64 67 65 47 66 66 67 48 68 51 69 65 70 84 71 49 72 50 73
REMARK SMILES IDX 64 75 85 76 52 77 36 78 37 79 45 80 38 81 44 82 46 83 43 84
REMARK SMILES IDX 39 85 40 86 41 87 42 88 68 89 69 90 77 91 70 92 76 93 78 94
REMARK SMILES IDX 75 95 71 96 72 97 73 98 74 99 53 100 54 101 62 102 55 103
REMARK SMILES IDX 61 104 63 105 60 106 56 107 57 108 58 109 59 110
REMARK H PARENT 3 18 83 63 51 74
REMARK Flexibility Score: inf
ROOT
ATOM      1  C   UNL A   1      42.140  35.684  27.086  1.00  0.00     0.188 C 
ENDROOT
BRANCH   1   2
ATOM      2  C   UNL A   1      42.703  37.113  26.988  1.00  0.00     0.188 C 
BRANCH   2   3
ATOM      3  O   UNL A   1      42.802  37.831  28.200  1.00  0.00    -0.376 OA
BRANCH   3   4
ATOM      4  C   UNL A   1      42.095  39.044  28.415  1.00  0.00     0.202 C 
BRANCH   4   5
ATOM      5  C   UNL A   1      42.707  40.284  29.058  1.00  0.00     0.261 C 
BRANCH   5   6
ATOM      6  O   UNL A   1      43.113  41.375  28.220  1.00  0.00    -0.460 OA
BRANCH   6   7
ATOM      7  C   UNL A   1      44.240  42.075  28.438  1.00  0.00     0.340 C 
ATOM      8  O   UNL A   1      44.530  42.749  29.409  1.00  0.00    -0.246 OA
BRANCH   7   9
ATOM      9  C   UNL A   1      45.160  41.717  27.336  1.00  0.00     0.083 A 
ATOM     10  C   UNL A   1      44.720  41.231  26.093  1.00  0.00     0.056 A 
ATOM     11  C   UNL A   1      45.636  40.484  25.329  1.00  0.00     0.027 A 
ATOM     12  C   UNL A   1      46.970  40.331  25.722  1.00  0.00     0.002 A 
ATOM     13  C   UNL A   1      46.519  41.617  27.701  1.00  0.00     0.018 A 
ATOM     14  C   UNL A   1      47.422  40.933  26.890  1.00  0.00     0.001 A 
BRANCH  10  15
ATOM     15  N   UNL A   1      43.442  41.370  25.505  1.00  0.00    -0.321 N 
ATOM     16  O   UNL A   1      41.694  42.076  24.288  1.00  0.00    -0.269 OA
ATOM     17  C   UNL A   1      42.914  42.079  24.451  1.00  0.00     0.255 C 
ATOM     18  H   UNL A   1      42.762  40.825  25.963  1.00  0.00     0.170 HD
BRANCH  17  19
ATOM     19  C   UNL A   1      43.725  42.845  23.482  1.00  0.00     0.041 A 
ATOM     20  C   UNL A   1      44.612  43.876  23.855  1.00  0.00     0.015 A 
ATOM     21  C   UNL A   1      43.506  42.548  22.132  1.00  0.00     0.028 A 
ATOM     22  C   UNL A   1      45.202  44.695  22.870  1.00  0.00     0.015 A 
ATOM     23  C   UNL A   1      43.994  43.446  21.203  1.00  0.00     0.054 A 
ATOM     24  C   UNL A   1      44.827  44.489  21.550  1.00  0.00     0.053 A 
ATOM     25  C   UNL A   1      43.610  43.624  19.803  1.00  0.00     0.261 C 
ATOM     26  C   UNL A   1      45.069  45.268  20.326  1.00  0.00     0.261 C 
ATOM     27  O   UNL A   1      42.819  42.909  19.224  1.00  0.00    -0.269 OA
ATOM     28  N   UNL A   1      44.265  44.737  19.352  1.00  0.00    -0.270 N 
ATOM     29  O   UNL A   1      45.888  46.167  20.246  1.00  0.00    -0.269 OA
BRANCH  28  30
ATOM     30  C   UNL A   1      44.237  45.146  17.959  1.00  0.00     0.164 C 
BRANCH  30  31
ATOM     31  C   UNL A   1      43.340  46.304  17.554  1.00  0.00    -0.028 A 
ATOM     32  C   UNL A   1      43.644  47.572  18.087  1.00  0.00     0.005 A 
ATOM     33  C   UNL A   1      42.274  46.217  16.653  1.00  0.00     0.005 A 
ATOM     34  C   UNL A   1      42.924  48.712  17.719  1.00  0.00     0.000 A 
ATOM     35  C   UNL A   1      41.568  47.364  16.260  1.00  0.00     0.000 A 
ATOM     36  C   UNL A   1      41.891  48.610  16.794  1.00  0.00     0.000 A 
ENDBRANCH  30  31
ENDBRANCH  28  30
ENDBRANCH  17  19
ENDBRANCH  10  15
ENDBRANCH   7   9
ENDBRANCH   6   7
ENDBRANCH   5   6
ENDBRANCH   4   5
ENDBRANCH   3   4
ENDBRANCH   2   3
ENDBRANCH   1   2
BRANCH   1  37
ATOM     37  O   UNL A   1      43.125  34.672  27.139  1.00  0.00    -0.377 OA
BRANCH  37  38
ATOM     38  C   UNL A   1      44.499  35.039  27.065  1.00  0.00     0.188 C 
BRANCH  38  39
ATOM     39  C   UNL A   1      45.456  34.286  26.124  1.00  0.00     0.188 C 
BRANCH  39  40
ATOM     40  O   UNL A   1      46.823  34.570  26.401  1.00  0.00    -0.376 OA
BRANCH  40  41
ATOM     41  C   UNL A   1      47.366  35.717  25.762  1.00  0.00     0.202 C 
BRANCH  41  42
ATOM     42  C   UNL A   1      48.417  36.496  26.571  1.00  0.00     0.261 C 
BRANCH  42  43
ATOM     43  O   UNL A   1      48.426  36.312  28.003  1.00  0.00    -0.460 OA
BRANCH  43  44
ATOM     44  C   UNL A   1      48.078  37.337  28.814  1.00  0.00     0.338 C 
ATOM     45  O   UNL A   1      48.536  38.465  28.788  1.00  0.00    -0.246 OA
BRANCH  44  46
ATOM     46  C   UNL A   1      46.868  36.930  29.581  1.00  0.00     0.060 A 
ATOM     47  C   UNL A   1      45.867  37.881  29.833  1.00  0.00     0.016 A 
ATOM     48  C   UNL A   1      46.707  35.618  30.035  1.00  0.00     0.016 A 
ATOM     49  C   UNL A   1      44.739  37.539  30.592  1.00  0.00     0.010 A 
ATOM     50  C   UNL A   1      45.591  35.283  30.813  1.00  0.00     0.010 A 
ATOM     51  C   UNL A   1      44.625  36.254  31.137  1.00  0.00    -0.014 A 
BRANCH  51  52
ATOM     52  C   UNL A   1      43.690  36.005  32.271  1.00  0.00     0.031 A 
ATOM     53  C   UNL A   1      44.083  36.559  33.619  1.00  0.00     0.074 A 
ATOM     54  C   UNL A   1      42.536  35.325  32.136  1.00  0.00     0.049 A 
ATOM     55  N   UNL A   1      43.516  36.400  34.787  1.00  0.00    -0.248 NA
ATOM     56  C   UNL A   1      45.290  37.402  33.646  1.00  0.00     0.031 C 
ATOM     57  C   UNL A   1      42.005  34.790  30.886  1.00  0.00     0.029 A 
ATOM     58  N   UNL A   1      41.604  34.959  33.079  1.00  0.00    -0.354 N 
ATOM     59  C   UNL A   1      44.298  37.121  35.685  1.00  0.00     0.074 A 
ATOM     60  C   UNL A   1      45.397  37.684  34.934  1.00  0.00     0.031 C 
ATOM     61  C   UNL A   1      40.849  34.148  31.141  1.00  0.00     0.029 A 
ATOM     62  C   UNL A   1      40.577  34.188  32.579  1.00  0.00     0.049 A 
ATOM     63  H   UNL A   1      41.664  35.224  34.026  1.00  0.00     0.167 HD
ATOM     64  C   UNL A   1      44.114  37.307  37.015  1.00  0.00     0.034 A 
ATOM     65  C   UNL A   1      39.560  33.565  33.213  1.00  0.00     0.034 A 
ATOM     66  C   UNL A   1      43.028  36.730  37.764  1.00  0.00     0.049 A 
ATOM     67  C   UNL A   1      39.436  33.697  34.719  1.00  0.00     0.074 A 
ATOM     68  C   UNL A   1      42.759  36.844  39.116  1.00  0.00     0.029 A 
ATOM     69  N   UNL A   1      42.034  35.923  37.227  1.00  0.00    -0.354 N 
ATOM     70  N   UNL A   1      40.187  34.373  35.558  1.00  0.00    -0.248 NA
ATOM     71  C   UNL A   1      38.322  32.982  35.362  1.00  0.00     0.031 C 
ATOM     72  C   UNL A   1      41.644  36.052  39.410  1.00  0.00     0.029 A 
ATOM     73  C   UNL A   1      41.167  35.511  38.227  1.00  0.00     0.049 A 
ATOM     74  H   UNL A   1      41.957  35.679  36.276  1.00  0.00     0.167 HD
ATOM     75  C   UNL A   1      39.609  34.196  36.816  1.00  0.00     0.074 A 
ATOM     76  C   UNL A   1      38.443  33.363  36.624  1.00  0.00     0.031 C 
ATOM     77  C   UNL A   1      40.003  34.683  38.022  1.00  0.00     0.034 A 
BRANCH  64  78
ATOM     78  C   UNL A   1      45.146  38.129  37.747  1.00  0.00     0.023 A 
ATOM     79  C   UNL A   1      45.032  39.526  37.859  1.00  0.00     0.031 A 
ATOM     80  C   UNL A   1      46.268  37.508  38.323  1.00  0.00     0.131 A 
ATOM     81  C   UNL A   1      46.054  40.261  38.479  1.00  0.00     0.055 A 
ATOM     82  C   UNL A   1      47.242  38.237  39.006  1.00  0.00     0.041 A 
ATOM     83  F   UNL A   1      46.441  36.180  38.222  1.00  0.00    -0.206 F 
ATOM     84  C   UNL A   1      47.144  39.624  39.077  1.00  0.00     0.022 A 
BRANCH  81  85
ATOM     85  S   UNL A   1      46.000  42.071  38.386  1.00  0.00     0.124 S 
ATOM     86  O   UNL A   1      45.909  42.437  39.797  1.00  0.00    -0.237 OA
ATOM     87  O   UNL A   1      47.259  42.391  37.723  1.00  0.00    -0.237 OA
ATOM     88  O   UNL A   1      44.797  42.338  37.601  1.00  0.00    -0.744 OA
ENDBRANCH  81  85
ENDBRANCH  64  78
BRANCH  65  89
ATOM     89  C   UNL A   1      38.597  32.699  32.463  1.00  0.00     0.023 A 
ATOM     90  C   UNL A   1      37.388  33.213  31.965  1.00  0.00     0.031 A 
ATOM     91  C   UNL A   1      38.824  31.317  32.331  1.00  0.00     0.131 A 
ATOM     92  C   UNL A   1      36.426  32.344  31.420  1.00  0.00     0.055 A 
ATOM     93  C   UNL A   1      37.892  30.468  31.728  1.00  0.00     0.041 A 
ATOM     94  F   UNL A   1      39.953  30.765  32.802  1.00  0.00    -0.206 F 
ATOM     95  C   UNL A   1      36.677  30.978  31.286  1.00  0.00     0.022 A 
BRANCH  92  96
ATOM     96  S   UNL A   1      34.786  33.008  31.009  1.00  0.00     0.124 S 
ATOM     97  O   UNL A   1      34.437  32.225  29.828  1.00  0.00    -0.237 OA
ATOM     98  O   UNL A   1      34.027  32.714  32.219  1.00  0.00    -0.237 OA
ATOM     99  O   UNL A   1      35.044  34.425  30.763  1.00  0.00    -0.744 OA
ENDBRANCH  92  96
ENDBRANCH  65  89
BRANCH  77 100
ATOM    100  C   UNL A   1      39.128  34.381  39.216  1.00  0.00     0.023 A 
ATOM    101  C   UNL A   1      38.836  33.064  39.613  1.00  0.00     0.031 A 
ATOM    102  C   UNL A   1      38.581  35.434  39.972  1.00  0.00     0.131 A 
ATOM    103  C   UNL A   1      37.979  32.836  40.701  1.00  0.00     0.055 A 
ATOM    104  C   UNL A   1      37.778  35.201  41.089  1.00  0.00     0.041 A 
ATOM    105  F   UNL A   1      38.827  36.713  39.639  1.00  0.00    -0.206 F 
ATOM    106  C   UNL A   1      37.463  33.896  41.452  1.00  0.00     0.022 A 
BRANCH 103 107
ATOM    107  S   UNL A   1      37.474  31.133  41.073  1.00  0.00     0.124 S 
ATOM    108  O   UNL A   1      38.613  30.639  41.839  1.00  0.00    -0.237 OA
ATOM    109  O   UNL A   1      36.238  31.330  41.822  1.00  0.00    -0.237 OA
ATOM    110  O   UNL A   1      37.306  30.528  39.752  1.00  0.00    -0.744 OA
ENDBRANCH 103 107
ENDBRANCH  77 100
ENDBRANCH  51  52
ENDBRANCH  44  46
ENDBRANCH  43  44
ENDBRANCH  42  43
ENDBRANCH  41  42
ENDBRANCH  40  41
ENDBRANCH  39  40
ENDBRANCH  38  39
ENDBRANCH  37  38
ENDBRANCH   1  37
TORSDOF 27
ENDMDL
