MODEL 1
REMARK VINA RESULT:      -9.3      0.000      0.000
REMARK SMILES O=C(OCCOCCOCCOCCOC(=O)[C@]1([NH2+]C2CC2)CCC[C@H](SC2CCCCC2)C1)c1ccc(-c2c3nc(c(-c4cc(S(=O)(=O)[O-])ccc4F)c4ccc([nH]4)c(-c4cc(S(=O)(=O)[O-])ccc4F)c4nc(c(-c5cc(S(=O)(=O)[O-])ccc5F)c5ccc2[nH]5)C=C4)C=C3)cc1
REMARK SMILES IDX 8 1 7 2 6 3 5 4 4 5 3 6 2 7 1 8 35 9 36 10 97 11 37 12 96 13
REMARK SMILES IDX 38 14 39 15 40 16 90 17 41 18 95 19 89 20 91 21 42 22 94 23
REMARK SMILES IDX 88 24 87 25 43 27 75 28 55 29 74 30 56 31 59 32 73 33 92 34
REMARK SMILES IDX 57 35 58 36 72 38 93 39 60 40 44 41 45 42 53 43 46 44 52 45
REMARK SMILES IDX 54 46 51 47 47 48 48 49 49 50 50 51 76 52 77 53 85 54 78 55
REMARK SMILES IDX 84 56 86 57 83 58 79 59 80 60 81 61 82 62 61 63 62 64 70 65
REMARK SMILES IDX 63 66 69 67 71 68 68 69 64 70 65 71 66 72 67 73 9 74 10 75
REMARK SMILES IDX 11 76 12 77 13 78 14 79 15 80 16 81 17 82 18 83 23 84 34 85
REMARK SMILES IDX 24 86 26 87 25 88 19 89 20 92 21 93 22 94 27 95 28 96 29 97
REMARK SMILES IDX 33 98 30 99 32 100 31 101
REMARK H PARENT 91 26 59 37 19 90 19 91
REMARK Flexibility Score: inf
ROOT
ATOM      1  C   UNL A   1      34.569  32.848  29.130  1.00  0.00     0.188 C 
ENDROOT
BRANCH   1   2
ATOM      2  C   UNL A   1      33.801  33.711  28.142  1.00  0.00     0.188 C 
BRANCH   2   3
ATOM      3  O   UNL A   1      32.881  34.526  28.862  1.00  0.00    -0.376 OA
BRANCH   3   4
ATOM      4  C   UNL A   1      33.128  35.928  28.820  1.00  0.00     0.202 C 
BRANCH   4   5
ATOM      5  C   UNL A   1      32.776  36.616  30.132  1.00  0.00     0.261 C 
BRANCH   5   6
ATOM      6  O   UNL A   1      32.473  35.688  31.183  1.00  0.00    -0.460 OA
BRANCH   6   7
ATOM      7  C   UNL A   1      33.138  35.468  32.347  1.00  0.00     0.338 C 
ATOM      8  O   UNL A   1      32.745  36.089  33.338  1.00  0.00    -0.246 OA
BRANCH   7   9
ATOM      9  C   UNL A   1      34.337  34.574  32.528  1.00  0.00     0.060 A 
ATOM     10  C   UNL A   1      34.335  33.280  33.053  1.00  0.00     0.016 A 
ATOM     11  C   UNL A   1      35.567  35.070  32.054  1.00  0.00     0.016 A 
ATOM     12  C   UNL A   1      35.466  32.478  33.051  1.00  0.00     0.010 A 
ATOM     13  C   UNL A   1      36.734  34.300  32.111  1.00  0.00     0.010 A 
ATOM     14  C   UNL A   1      36.676  33.000  32.616  1.00  0.00    -0.014 A 
BRANCH  14  15
ATOM     15  C   UNL A   1      37.879  32.235  32.977  1.00  0.00     0.031 A 
ATOM     16  C   UNL A   1      38.480  32.527  34.319  1.00  0.00     0.074 A 
ATOM     17  C   UNL A   1      38.270  31.193  32.222  1.00  0.00     0.049 A 
ATOM     18  N   UNL A   1      39.557  32.045  34.870  1.00  0.00    -0.248 NA
ATOM     19  C   UNL A   1      37.739  33.474  35.174  1.00  0.00     0.031 C 
ATOM     20  C   UNL A   1      37.584  30.725  31.014  1.00  0.00     0.029 A 
ATOM     21  N   UNL A   1      39.311  30.321  32.375  1.00  0.00    -0.354 N 
ATOM     22  C   UNL A   1      39.642  32.655  36.116  1.00  0.00     0.074 A 
ATOM     23  C   UNL A   1      38.500  33.527  36.254  1.00  0.00     0.031 C 
ATOM     24  C   UNL A   1      38.237  29.654  30.531  1.00  0.00     0.029 A 
ATOM     25  C   UNL A   1      39.423  29.416  31.344  1.00  0.00     0.049 A 
ATOM     26  H   UNL A   1      39.922  30.340  33.147  1.00  0.00     0.167 HD
ATOM     27  C   UNL A   1      40.615  32.508  37.043  1.00  0.00     0.034 A 
ATOM     28  C   UNL A   1      40.419  28.548  31.076  1.00  0.00     0.034 A 
ATOM     29  C   UNL A   1      41.741  31.638  36.836  1.00  0.00     0.049 A 
ATOM     30  C   UNL A   1      41.577  28.518  32.050  1.00  0.00     0.074 A 
ATOM     31  C   UNL A   1      42.855  31.456  37.631  1.00  0.00     0.029 A 
ATOM     32  N   UNL A   1      41.893  30.809  35.729  1.00  0.00    -0.354 N 
ATOM     33  N   UNL A   1      41.716  29.171  33.186  1.00  0.00    -0.248 NA
ATOM     34  C   UNL A   1      42.714  27.658  31.708  1.00  0.00     0.031 C 
ATOM     35  C   UNL A   1      43.713  30.574  36.965  1.00  0.00     0.029 A 
ATOM     36  C   UNL A   1      43.098  30.139  35.798  1.00  0.00     0.049 A 
ATOM     37  H   UNL A   1      41.236  30.714  35.001  1.00  0.00     0.167 HD
ATOM     38  C   UNL A   1      42.948  28.781  33.701  1.00  0.00     0.074 A 
ATOM     39  C   UNL A   1      43.493  27.815  32.766  1.00  0.00     0.031 C 
ATOM     40  C   UNL A   1      43.585  29.182  34.833  1.00  0.00     0.034 A 
BRANCH  27  41
ATOM     41  C   UNL A   1      40.553  33.402  38.254  1.00  0.00     0.023 A 
ATOM     42  C   UNL A   1      39.853  33.047  39.420  1.00  0.00     0.031 A 
ATOM     43  C   UNL A   1      41.142  34.678  38.199  1.00  0.00     0.131 A 
ATOM     44  C   UNL A   1      39.711  33.982  40.459  1.00  0.00     0.055 A 
ATOM     45  C   UNL A   1      41.058  35.575  39.264  1.00  0.00     0.041 A 
ATOM     46  F   UNL A   1      41.786  35.086  37.094  1.00  0.00    -0.206 F 
ATOM     47  C   UNL A   1      40.330  35.234  40.399  1.00  0.00     0.022 A 
BRANCH  44  48
ATOM     48  S   UNL A   1      38.599  33.594  41.841  1.00  0.00     0.124 S 
ATOM     49  O   UNL A   1      38.967  34.620  42.814  1.00  0.00    -0.237 OA
ATOM     50  O   UNL A   1      37.279  33.735  41.236  1.00  0.00    -0.237 OA
ATOM     51  O   UNL A   1      38.973  32.230  42.210  1.00  0.00    -0.744 OA
ENDBRANCH  44  48
ENDBRANCH  27  41
BRANCH  28  52
ATOM     52  C   UNL A   1      40.441  27.744  29.814  1.00  0.00     0.023 A 
ATOM     53  C   UNL A   1      41.337  28.036  28.773  1.00  0.00     0.031 A 
ATOM     54  C   UNL A   1      39.487  26.733  29.584  1.00  0.00     0.131 A 
ATOM     55  C   UNL A   1      41.215  27.380  27.535  1.00  0.00     0.055 A 
ATOM     56  C   UNL A   1      39.417  26.033  28.377  1.00  0.00     0.041 A 
ATOM     57  F   UNL A   1      38.587  26.415  30.528  1.00  0.00    -0.206 F 
ATOM     58  C   UNL A   1      40.272  26.371  27.334  1.00  0.00     0.022 A 
BRANCH  55  59
ATOM     59  S   UNL A   1      42.214  27.973  26.139  1.00  0.00     0.124 S 
ATOM     60  O   UNL A   1      41.736  29.340  25.991  1.00  0.00    -0.237 OA
ATOM     61  O   UNL A   1      43.570  27.815  26.649  1.00  0.00    -0.237 OA
ATOM     62  O   UNL A   1      41.849  27.062  25.051  1.00  0.00    -0.744 OA
ENDBRANCH  55  59
ENDBRANCH  28  52
BRANCH  40  63
ATOM     63  C   UNL A   1      44.912  28.533  35.121  1.00  0.00     0.023 A 
ATOM     64  C   UNL A   1      45.004  27.368  35.899  1.00  0.00     0.031 A 
ATOM     65  C   UNL A   1      46.093  29.087  34.599  1.00  0.00     0.131 A 
ATOM     66  C   UNL A   1      46.262  26.825  36.183  1.00  0.00     0.055 A 
ATOM     67  C   UNL A   1      47.336  28.499  34.825  1.00  0.00     0.041 A 
ATOM     68  F   UNL A   1      46.054  30.201  33.850  1.00  0.00    -0.206 F 
ATOM     69  C   UNL A   1      47.426  27.369  35.633  1.00  0.00     0.022 A 
BRANCH  66  70
ATOM     70  S   UNL A   1      46.364  25.452  37.361  1.00  0.00     0.124 S 
ATOM     71  O   UNL A   1      45.604  24.410  36.676  1.00  0.00    -0.237 OA
ATOM     72  O   UNL A   1      47.803  25.231  37.460  1.00  0.00    -0.237 OA
ATOM     73  O   UNL A   1      45.734  25.989  38.566  1.00  0.00    -0.744 OA
ENDBRANCH  66  70
ENDBRANCH  40  63
ENDBRANCH  14  15
ENDBRANCH   7   9
ENDBRANCH   6   7
ENDBRANCH   5   6
ENDBRANCH   4   5
ENDBRANCH   3   4
ENDBRANCH   2   3
ENDBRANCH   1   2
BRANCH   1  74
ATOM     74  O   UNL A   1      35.293  31.813  28.484  1.00  0.00    -0.377 OA
BRANCH  74  75
ATOM     75  C   UNL A   1      34.522  30.837  27.796  1.00  0.00     0.188 C 
BRANCH  75  76
ATOM     76  C   UNL A   1      35.241  29.583  27.328  1.00  0.00     0.188 C 
BRANCH  76  77
ATOM     77  O   UNL A   1      34.343  28.618  26.800  1.00  0.00    -0.376 OA
BRANCH  77  78
ATOM     78  C   UNL A   1      32.965  28.836  27.078  1.00  0.00     0.202 C 
BRANCH  78  79
ATOM     79  C   UNL A   1      31.980  27.640  26.950  1.00  0.00     0.261 C 
BRANCH  79  80
ATOM     80  O   UNL A   1      32.414  26.255  26.861  1.00  0.00    -0.459 OA
BRANCH  80  81
ATOM     81  C   UNL A   1      31.689  25.374  26.137  1.00  0.00     0.368 C 
ATOM     82  O   UNL A   1      30.480  25.239  26.297  1.00  0.00    -0.245 OA
BRANCH  81  83
ATOM     83  C   UNL A   1      32.479  24.588  25.019  1.00  0.00     0.195 C 
ATOM     84  C   UNL A   1      33.756  25.375  24.599  1.00  0.00     0.081 C 
ATOM     85  C   UNL A   1      31.552  24.470  23.774  1.00  0.00     0.095 C 
ATOM     86  C   UNL A   1      33.484  26.705  23.900  1.00  0.00     0.008 C 
ATOM     87  C   UNL A   1      31.208  25.815  23.070  1.00  0.00     0.053 C 
ATOM     88  C   UNL A   1      32.515  26.539  22.739  1.00  0.00     0.015 C 
BRANCH  83  89
ATOM     89  N   UNL A   1      32.832  23.168  25.417  1.00  0.00    -0.330 N 
ATOM     90  H   UNL A   1      32.021  22.790  25.906  1.00  0.00     0.347 HD
ATOM     91  H   UNL A   1      33.690  23.281  25.955  1.00  0.00     0.347 HD
BRANCH  89  92
ATOM     92  C   UNL A   1      33.204  22.182  24.376  1.00  0.00     0.183 C 
ATOM     93  C   UNL A   1      34.638  21.729  24.277  1.00  0.00     0.071 C 
ATOM     94  C   UNL A   1      33.610  20.787  24.801  1.00  0.00     0.071 C 
ENDBRANCH  89  92
ENDBRANCH  83  89
BRANCH  87  95
ATOM     95  S   UNL A   1      29.765  26.526  23.986  1.00  0.00    -0.155 SA
BRANCH  95  96
ATOM     96  C   UNL A   1      29.187  28.110  23.241  1.00  0.00     0.047 C 
ATOM     97  C   UNL A   1      27.698  28.449  23.133  1.00  0.00     0.014 C 
ATOM     98  C   UNL A   1      30.051  29.228  23.831  1.00  0.00     0.014 C 
ATOM     99  C   UNL A   1      27.433  29.855  22.591  1.00  0.00     0.001 C 
ATOM    100  C   UNL A   1      29.737  30.584  23.211  1.00  0.00     0.001 C 
ATOM    101  C   UNL A   1      28.255  30.901  23.334  1.00  0.00     0.000 C 
ENDBRANCH  95  96
ENDBRANCH  87  95
ENDBRANCH  81  83
ENDBRANCH  80  81
ENDBRANCH  79  80
ENDBRANCH  78  79
ENDBRANCH  77  78
ENDBRANCH  76  77
ENDBRANCH  75  76
ENDBRANCH  74  75
ENDBRANCH   1  74
TORSDOF 27
ENDMDL
MODEL 2
REMARK VINA RESULT:      -9.2      1.136      3.376
REMARK SMILES O=C(OCCOCCOCCOCCOC(=O)[C@]1([NH2+]C2CC2)CCC[C@H](SC2CCCCC2)C1)c1ccc(-c2c3nc(c(-c4cc(S(=O)(=O)[O-])ccc4F)c4ccc([nH]4)c(-c4cc(S(=O)(=O)[O-])ccc4F)c4nc(c(-c5cc(S(=O)(=O)[O-])ccc5F)c5ccc2[nH]5)C=C4)C=C3)cc1
REMARK SMILES IDX 8 1 7 2 6 3 5 4 4 5 3 6 2 7 1 8 35 9 36 10 97 11 37 12 96 13
REMARK SMILES IDX 38 14 39 15 40 16 90 17 41 18 95 19 89 20 91 21 42 22 94 23
REMARK SMILES IDX 88 24 87 25 43 27 75 28 55 29 74 30 56 31 59 32 73 33 92 34
REMARK SMILES IDX 57 35 58 36 72 38 93 39 60 40 44 41 45 42 53 43 46 44 52 45
REMARK SMILES IDX 54 46 51 47 47 48 48 49 49 50 50 51 76 52 77 53 85 54 78 55
REMARK SMILES IDX 84 56 86 57 83 58 79 59 80 60 81 61 82 62 61 63 62 64 70 65
REMARK SMILES IDX 63 66 69 67 71 68 68 69 64 70 65 71 66 72 67 73 9 74 10 75
REMARK SMILES IDX 11 76 12 77 13 78 14 79 15 80 16 81 17 82 18 83 23 84 34 85
REMARK SMILES IDX 24 86 26 87 25 88 19 89 20 92 21 93 22 94 27 95 28 96 29 97
REMARK SMILES IDX 33 98 30 99 32 100 31 101
REMARK H PARENT 91 26 59 37 19 90 19 91
REMARK Flexibility Score: inf
ROOT
ATOM      1  C   UNL A   1      35.055  33.134  29.437  1.00  0.00     0.188 C 
ENDROOT
BRANCH   1   2
ATOM      2  C   UNL A   1      34.640  34.288  28.539  1.00  0.00     0.188 C 
BRANCH   2   3
ATOM      3  O   UNL A   1      33.433  34.853  29.045  1.00  0.00    -0.376 OA
BRANCH   3   4
ATOM      4  C   UNL A   1      33.374  36.275  29.064  1.00  0.00     0.202 C 
BRANCH   4   5
ATOM      5  C   UNL A   1      32.505  36.800  30.199  1.00  0.00     0.261 C 
BRANCH   5   6
ATOM      6  O   UNL A   1      32.432  35.895  31.309  1.00  0.00    -0.460 OA
BRANCH   6   7
ATOM      7  C   UNL A   1      33.196  35.854  32.432  1.00  0.00     0.338 C 
ATOM      8  O   UNL A   1      32.918  36.661  33.323  1.00  0.00    -0.246 OA
BRANCH   7   9
ATOM      9  C   UNL A   1      34.376  34.949  32.669  1.00  0.00     0.060 A 
ATOM     10  C   UNL A   1      34.340  33.664  33.214  1.00  0.00     0.016 A 
ATOM     11  C   UNL A   1      35.628  35.423  32.231  1.00  0.00     0.016 A 
ATOM     12  C   UNL A   1      35.461  32.849  33.264  1.00  0.00     0.010 A 
ATOM     13  C   UNL A   1      36.783  34.640  32.340  1.00  0.00     0.010 A 
ATOM     14  C   UNL A   1      36.691  33.349  32.864  1.00  0.00    -0.014 A 
BRANCH  14  15
ATOM     15  C   UNL A   1      37.872  32.576  33.279  1.00  0.00     0.031 A 
ATOM     16  C   UNL A   1      38.421  32.873  34.641  1.00  0.00     0.074 A 
ATOM     17  C   UNL A   1      38.283  31.525  32.548  1.00  0.00     0.049 A 
ATOM     18  N   UNL A   1      39.470  32.385  35.239  1.00  0.00    -0.248 NA
ATOM     19  C   UNL A   1      37.654  33.833  35.458  1.00  0.00     0.031 C 
ATOM     20  C   UNL A   1      37.642  31.054  31.316  1.00  0.00     0.029 A 
ATOM     21  N   UNL A   1      39.309  30.645  32.749  1.00  0.00    -0.354 N 
ATOM     22  C   UNL A   1      39.510  33.004  36.483  1.00  0.00     0.074 A 
ATOM     23  C   UNL A   1      38.372  33.887  36.568  1.00  0.00     0.031 C 
ATOM     24  C   UNL A   1      38.303  29.973  30.868  1.00  0.00     0.029 A 
ATOM     25  C   UNL A   1      39.454  29.731  31.730  1.00  0.00     0.049 A 
ATOM     26  H   UNL A   1      39.888  30.664  33.545  1.00  0.00     0.167 HD
ATOM     27  C   UNL A   1      40.444  32.855  37.450  1.00  0.00     0.034 A 
ATOM     28  C   UNL A   1      40.451  28.851  31.508  1.00  0.00     0.034 A 
ATOM     29  C   UNL A   1      41.569  31.974  37.295  1.00  0.00     0.049 A 
ATOM     30  C   UNL A   1      41.569  28.819  32.529  1.00  0.00     0.074 A 
ATOM     31  C   UNL A   1      42.648  31.787  38.135  1.00  0.00     0.029 A 
ATOM     32  N   UNL A   1      41.757  31.135  36.201  1.00  0.00    -0.354 N 
ATOM     33  N   UNL A   1      41.668  29.479  33.665  1.00  0.00    -0.248 NA
ATOM     34  C   UNL A   1      42.710  27.946  32.239  1.00  0.00     0.031 C 
ATOM     35  C   UNL A   1      43.524  30.893  37.511  1.00  0.00     0.029 A 
ATOM     36  C   UNL A   1      42.953  30.454  36.324  1.00  0.00     0.049 A 
ATOM     37  H   UNL A   1      41.129  31.040  35.448  1.00  0.00     0.167 HD
ATOM     38  C   UNL A   1      42.874  29.082  34.232  1.00  0.00     0.074 A 
ATOM     39  C   UNL A   1      43.447  28.103  33.327  1.00  0.00     0.031 C 
ATOM     40  C   UNL A   1      43.469  29.485  35.386  1.00  0.00     0.034 A 
BRANCH  27  41
ATOM     41  C   UNL A   1      40.341  33.759  38.651  1.00  0.00     0.023 A 
ATOM     42  C   UNL A   1      39.507  33.471  39.745  1.00  0.00     0.031 A 
ATOM     43  C   UNL A   1      41.035  34.982  38.653  1.00  0.00     0.131 A 
ATOM     44  C   UNL A   1      39.345  34.421  40.767  1.00  0.00     0.055 A 
ATOM     45  C   UNL A   1      40.925  35.890  39.706  1.00  0.00     0.041 A 
ATOM     46  F   UNL A   1      41.812  35.329  37.615  1.00  0.00    -0.206 F 
ATOM     47  C   UNL A   1      40.068  35.617  40.767  1.00  0.00     0.022 A 
BRANCH  44  48
ATOM     48  S   UNL A   1      38.079  34.134  42.037  1.00  0.00     0.124 S 
ATOM     49  O   UNL A   1      38.098  35.401  42.764  1.00  0.00    -0.237 OA
ATOM     50  O   UNL A   1      36.885  33.873  41.242  1.00  0.00    -0.237 OA
ATOM     51  O   UNL A   1      38.594  32.986  42.782  1.00  0.00    -0.744 OA
ENDBRANCH  44  48
ENDBRANCH  27  41
BRANCH  28  52
ATOM     52  C   UNL A   1      40.517  28.038  30.255  1.00  0.00     0.023 A 
ATOM     53  C   UNL A   1      41.450  28.319  29.245  1.00  0.00     0.031 A 
ATOM     54  C   UNL A   1      39.569  27.027  29.998  1.00  0.00     0.131 A 
ATOM     55  C   UNL A   1      41.372  27.655  28.008  1.00  0.00     0.055 A 
ATOM     56  C   UNL A   1      39.541  26.318  28.795  1.00  0.00     0.041 A 
ATOM     57  F   UNL A   1      38.634  26.719  30.911  1.00  0.00    -0.206 F 
ATOM     58  C   UNL A   1      40.433  26.646  27.781  1.00  0.00     0.022 A 
BRANCH  55  59
ATOM     59  S   UNL A   1      42.421  28.234  26.645  1.00  0.00     0.124 S 
ATOM     60  O   UNL A   1      43.025  26.993  26.185  1.00  0.00    -0.237 OA
ATOM     61  O   UNL A   1      41.446  28.848  25.751  1.00  0.00    -0.237 OA
ATOM     62  O   UNL A   1      43.340  29.171  27.299  1.00  0.00    -0.744 OA
ENDBRANCH  55  59
ENDBRANCH  28  52
BRANCH  40  63
ATOM     63  C   UNL A   1      44.777  28.827  35.732  1.00  0.00     0.023 A 
ATOM     64  C   UNL A   1      44.824  27.644  36.486  1.00  0.00     0.031 A 
ATOM     65  C   UNL A   1      45.986  29.389  35.290  1.00  0.00     0.131 A 
ATOM     66  C   UNL A   1      46.063  27.091  36.827  1.00  0.00     0.055 A 
ATOM     67  C   UNL A   1      47.214  28.794  35.571  1.00  0.00     0.041 A 
ATOM     68  F   UNL A   1      45.990  30.521  34.566  1.00  0.00    -0.206 F 
ATOM     69  C   UNL A   1      47.257  27.645  36.355  1.00  0.00     0.022 A 
BRANCH  66  70
ATOM     70  S   UNL A   1      46.098  25.691  37.977  1.00  0.00     0.124 S 
ATOM     71  O   UNL A   1      46.720  24.650  37.165  1.00  0.00    -0.237 OA
ATOM     72  O   UNL A   1      46.905  26.209  39.077  1.00  0.00    -0.237 OA
ATOM     73  O   UNL A   1      44.687  25.473  38.291  1.00  0.00    -0.744 OA
ENDBRANCH  66  70
ENDBRANCH  40  63
ENDBRANCH  14  15
ENDBRANCH   7   9
ENDBRANCH   6   7
ENDBRANCH   5   6
ENDBRANCH   4   5
ENDBRANCH   3   4
ENDBRANCH   2   3
ENDBRANCH   1   2
BRANCH   1  74
ATOM     74  O   UNL A   1      35.701  32.099  28.712  1.00  0.00    -0.377 OA
BRANCH  74  75
ATOM     75  C   UNL A   1      34.856  31.160  28.061  1.00  0.00     0.188 C 
BRANCH  75  76
ATOM     76  C   UNL A   1      35.522  29.978  27.378  1.00  0.00     0.188 C 
BRANCH  76  77
ATOM     77  O   UNL A   1      34.573  29.077  26.824  1.00  0.00    -0.376 OA
BRANCH  77  78
ATOM     78  C   UNL A   1      33.224  29.270  27.231  1.00  0.00     0.202 C 
BRANCH  78  79
ATOM     79  C   UNL A   1      32.247  28.064  27.168  1.00  0.00     0.261 C 
BRANCH  79  80
ATOM     80  O   UNL A   1      32.507  26.865  26.385  1.00  0.00    -0.459 OA
BRANCH  80  81
ATOM     81  C   UNL A   1      31.474  26.193  25.831  1.00  0.00     0.368 C 
ATOM     82  O   UNL A   1      30.843  25.343  26.452  1.00  0.00    -0.245 OA
BRANCH  81  83
ATOM     83  C   UNL A   1      31.079  26.624  24.365  1.00  0.00     0.195 C 
ATOM     84  C   UNL A   1      30.071  25.607  23.751  1.00  0.00     0.081 C 
ATOM     85  C   UNL A   1      32.373  26.606  23.499  1.00  0.00     0.095 C 
ATOM     86  C   UNL A   1      30.640  24.209  23.515  1.00  0.00     0.008 C 
ATOM     87  C   UNL A   1      33.011  25.202  23.285  1.00  0.00     0.053 C 
ATOM     88  C   UNL A   1      31.941  24.261  22.728  1.00  0.00     0.015 C 
BRANCH  83  89
ATOM     89  N   UNL A   1      30.535  28.036  24.278  1.00  0.00    -0.330 N 
ATOM     90  H   UNL A   1      31.328  28.665  24.398  1.00  0.00     0.347 HD
ATOM     91  H   UNL A   1      29.813  28.055  24.998  1.00  0.00     0.347 HD
BRANCH  89  92
ATOM     92  C   UNL A   1      29.818  28.476  23.059  1.00  0.00     0.183 C 
ATOM     93  C   UNL A   1      28.313  28.557  23.084  1.00  0.00     0.071 C 
ATOM     94  C   UNL A   1      29.111  29.814  23.068  1.00  0.00     0.071 C 
ENDBRANCH  89  92
ENDBRANCH  83  89
BRANCH  87  95
ATOM     95  S   UNL A   1      34.083  24.890  24.761  1.00  0.00    -0.155 SA
BRANCH  95  96
ATOM     96  C   UNL A   1      35.185  23.432  24.516  1.00  0.00     0.047 C 
ATOM     97  C   UNL A   1      36.659  23.464  24.929  1.00  0.00     0.014 C 
ATOM     98  C   UNL A   1      34.418  22.199  25.001  1.00  0.00     0.014 C 
ATOM     99  C   UNL A   1      37.371  22.121  24.747  1.00  0.00     0.001 C 
ATOM    100  C   UNL A   1      35.190  20.908  24.754  1.00  0.00     0.001 C 
ATOM    101  C   UNL A   1      36.575  20.983  25.376  1.00  0.00     0.000 C 
ENDBRANCH  95  96
ENDBRANCH  87  95
ENDBRANCH  81  83
ENDBRANCH  80  81
ENDBRANCH  79  80
ENDBRANCH  78  79
ENDBRANCH  77  78
ENDBRANCH  76  77
ENDBRANCH  75  76
ENDBRANCH  74  75
ENDBRANCH   1  74
TORSDOF 27
ENDMDL
MODEL 3
REMARK VINA RESULT:      -9.1      2.896      8.370
REMARK SMILES O=C(OCCOCCOCCOCCOC(=O)[C@]1([NH2+]C2CC2)CCC[C@H](SC2CCCCC2)C1)c1ccc(-c2c3nc(c(-c4cc(S(=O)(=O)[O-])ccc4F)c4ccc([nH]4)c(-c4cc(S(=O)(=O)[O-])ccc4F)c4nc(c(-c5cc(S(=O)(=O)[O-])ccc5F)c5ccc2[nH]5)C=C4)C=C3)cc1
REMARK SMILES IDX 8 1 7 2 6 3 5 4 4 5 3 6 2 7 1 8 35 9 36 10 97 11 37 12 96 13
REMARK SMILES IDX 38 14 39 15 40 16 90 17 41 18 95 19 89 20 91 21 42 22 94 23
REMARK SMILES IDX 88 24 87 25 43 27 75 28 55 29 74 30 56 31 59 32 73 33 92 34
REMARK SMILES IDX 57 35 58 36 72 38 93 39 60 40 44 41 45 42 53 43 46 44 52 45
REMARK SMILES IDX 54 46 51 47 47 48 48 49 49 50 50 51 76 52 77 53 85 54 78 55
REMARK SMILES IDX 84 56 86 57 83 58 79 59 80 60 81 61 82 62 61 63 62 64 70 65
REMARK SMILES IDX 63 66 69 67 71 68 68 69 64 70 65 71 66 72 67 73 9 74 10 75
REMARK SMILES IDX 11 76 12 77 13 78 14 79 15 80 16 81 17 82 18 83 23 84 34 85
REMARK SMILES IDX 24 86 26 87 25 88 19 89 20 92 21 93 22 94 27 95 28 96 29 97
REMARK SMILES IDX 33 98 30 99 32 100 31 101
REMARK H PARENT 91 26 59 37 19 90 19 91
REMARK Flexibility Score: inf
ROOT
ATOM      1  C   UNL A   1      31.561  26.897  26.709  1.00  0.00     0.188 C 
ENDROOT
BRANCH   1   2
ATOM      2  C   UNL A   1      31.859  28.331  27.117  1.00  0.00     0.188 C 
BRANCH   2   3
ATOM      3  O   UNL A   1      31.421  29.204  26.079  1.00  0.00    -0.376 OA
BRANCH   3   4
ATOM      4  C   UNL A   1      32.298  30.279  25.761  1.00  0.00     0.202 C 
BRANCH   4   5
ATOM      5  C   UNL A   1      33.320  30.535  26.861  1.00  0.00     0.261 C 
BRANCH   5   6
ATOM      6  O   UNL A   1      33.337  31.902  27.298  1.00  0.00    -0.460 OA
BRANCH   6   7
ATOM      7  C   UNL A   1      34.314  32.575  27.961  1.00  0.00     0.338 C 
ATOM      8  O   UNL A   1      34.225  33.805  27.982  1.00  0.00    -0.246 OA
BRANCH   7   9
ATOM      9  C   UNL A   1      35.515  31.961  28.630  1.00  0.00     0.060 A 
ATOM     10  C   UNL A   1      35.571  30.713  29.253  1.00  0.00     0.016 A 
ATOM     11  C   UNL A   1      36.716  32.693  28.556  1.00  0.00     0.016 A 
ATOM     12  C   UNL A   1      36.759  30.170  29.720  1.00  0.00     0.010 A 
ATOM     13  C   UNL A   1      37.910  32.191  29.087  1.00  0.00     0.010 A 
ATOM     14  C   UNL A   1      37.923  30.924  29.673  1.00  0.00    -0.014 A 
BRANCH  14  15
ATOM     15  C   UNL A   1      39.040  30.444  30.499  1.00  0.00     0.031 A 
ATOM     16  C   UNL A   1      39.978  29.467  29.855  1.00  0.00     0.074 A 
ATOM     17  C   UNL A   1      39.304  31.025  31.682  1.00  0.00     0.049 A 
ATOM     18  N   UNL A   1      41.007  28.849  30.358  1.00  0.00    -0.248 NA
ATOM     19  C   UNL A   1      39.736  29.174  28.429  1.00  0.00     0.031 C 
ATOM     20  C   UNL A   1      38.548  32.140  32.261  1.00  0.00     0.029 A 
ATOM     21  N   UNL A   1      40.295  30.786  32.593  1.00  0.00    -0.354 N 
ATOM     22  C   UNL A   1      41.512  28.068  29.325  1.00  0.00     0.074 A 
ATOM     23  C   UNL A   1      40.694  28.303  28.160  1.00  0.00     0.031 C 
ATOM     24  C   UNL A   1      39.102  32.478  33.437  1.00  0.00     0.029 A 
ATOM     25  C   UNL A   1      40.192  31.554  33.730  1.00  0.00     0.049 A 
ATOM     26  H   UNL A   1      41.013  30.126  32.449  1.00  0.00     0.167 HD
ATOM     27  C   UNL A   1      42.558  27.211  29.372  1.00  0.00     0.034 A 
ATOM     28  C   UNL A   1      40.871  31.458  34.890  1.00  0.00     0.034 A 
ATOM     29  C   UNL A   1      43.322  27.005  30.572  1.00  0.00     0.049 A 
ATOM     30  C   UNL A   1      41.931  30.380  34.970  1.00  0.00     0.074 A 
ATOM     31  C   UNL A   1      44.340  26.104  30.808  1.00  0.00     0.029 A 
ATOM     32  N   UNL A   1      43.128  27.716  31.752  1.00  0.00    -0.354 N 
ATOM     33  N   UNL A   1      42.349  29.562  34.025  1.00  0.00    -0.248 NA
ATOM     34  C   UNL A   1      42.597  30.195  36.262  1.00  0.00     0.031 C 
ATOM     35  C   UNL A   1      44.709  26.220  32.153  1.00  0.00     0.029 A 
ATOM     36  C   UNL A   1      43.982  27.252  32.733  1.00  0.00     0.049 A 
ATOM     37  H   UNL A   1      42.476  28.446  31.870  1.00  0.00     0.167 HD
ATOM     38  C   UNL A   1      43.342  28.782  34.607  1.00  0.00     0.074 A 
ATOM     39  C   UNL A   1      43.479  29.251  35.974  1.00  0.00     0.031 C 
ATOM     40  C   UNL A   1      44.073  27.766  34.079  1.00  0.00     0.034 A 
BRANCH  27  41
ATOM     41  C   UNL A   1      42.810  26.366  28.150  1.00  0.00     0.023 A 
ATOM     42  C   UNL A   1      42.233  25.095  27.979  1.00  0.00     0.031 A 
ATOM     43  C   UNL A   1      43.722  26.814  27.178  1.00  0.00     0.131 A 
ATOM     44  C   UNL A   1      42.619  24.296  26.890  1.00  0.00     0.055 A 
ATOM     45  C   UNL A   1      44.046  26.045  26.061  1.00  0.00     0.041 A 
ATOM     46  F   UNL A   1      44.336  28.000  27.313  1.00  0.00    -0.206 F 
ATOM     47  C   UNL A   1      43.502  24.772  25.917  1.00  0.00     0.022 A 
BRANCH  44  48
ATOM     48  S   UNL A   1      42.052  22.573  26.824  1.00  0.00     0.124 S 
ATOM     49  O   UNL A   1      42.905  22.021  25.773  1.00  0.00    -0.237 OA
ATOM     50  O   UNL A   1      42.320  22.098  28.176  1.00  0.00    -0.237 OA
ATOM     51  O   UNL A   1      40.638  22.689  26.474  1.00  0.00    -0.744 OA
ENDBRANCH  44  48
ENDBRANCH  27  41
BRANCH  28  52
ATOM     52  C   UNL A   1      40.513  32.288  36.082  1.00  0.00     0.023 A 
ATOM     53  C   UNL A   1      39.412  31.972  36.893  1.00  0.00     0.031 A 
ATOM     54  C   UNL A   1      41.207  33.481  36.367  1.00  0.00     0.131 A 
ATOM     55  C   UNL A   1      38.995  32.866  37.895  1.00  0.00     0.055 A 
ATOM     56  C   UNL A   1      40.834  34.330  37.412  1.00  0.00     0.041 A 
ATOM     57  F   UNL A   1      42.257  33.856  35.621  1.00  0.00    -0.206 F 
ATOM     58  C   UNL A   1      39.707  34.035  38.170  1.00  0.00     0.022 A 
BRANCH  55  59
ATOM     59  S   UNL A   1      37.419  32.549  38.738  1.00  0.00     0.124 S 
ATOM     60  O   UNL A   1      37.564  33.342  39.950  1.00  0.00    -0.237 OA
ATOM     61  O   UNL A   1      36.451  33.034  37.761  1.00  0.00    -0.237 OA
ATOM     62  O   UNL A   1      37.426  31.097  38.936  1.00  0.00    -0.744 OA
ENDBRANCH  55  59
ENDBRANCH  28  52
BRANCH  40  63
ATOM     63  C   UNL A   1      45.104  27.142  34.981  1.00  0.00     0.023 A 
ATOM     64  C   UNL A   1      46.400  27.670  35.087  1.00  0.00     0.031 A 
ATOM     65  C   UNL A   1      44.775  26.012  35.748  1.00  0.00     0.131 A 
ATOM     66  C   UNL A   1      47.342  27.031  35.901  1.00  0.00     0.055 A 
ATOM     67  C   UNL A   1      45.696  25.423  36.612  1.00  0.00     0.041 A 
ATOM     68  F   UNL A   1      43.547  25.470  35.678  1.00  0.00    -0.206 F 
ATOM     69  C   UNL A   1      46.993  25.925  36.681  1.00  0.00     0.022 A 
BRANCH  66  70
ATOM     70  S   UNL A   1      49.059  27.608  35.852  1.00  0.00     0.124 S 
ATOM     71  O   UNL A   1      49.234  28.147  37.197  1.00  0.00    -0.237 OA
ATOM     72  O   UNL A   1      49.793  26.381  35.556  1.00  0.00    -0.237 OA
ATOM     73  O   UNL A   1      49.055  28.601  34.780  1.00  0.00    -0.744 OA
ENDBRANCH  66  70
ENDBRANCH  40  63
ENDBRANCH  14  15
ENDBRANCH   7   9
ENDBRANCH   6   7
ENDBRANCH   5   6
ENDBRANCH   4   5
ENDBRANCH   3   4
ENDBRANCH   2   3
ENDBRANCH   1   2
BRANCH   1  74
ATOM     74  O   UNL A   1      30.611  26.829  25.657  1.00  0.00    -0.377 OA
BRANCH  74  75
ATOM     75  C   UNL A   1      29.802  25.661  25.610  1.00  0.00     0.188 C 
BRANCH  75  76
ATOM     76  C   UNL A   1      30.500  24.321  25.770  1.00  0.00     0.188 C 
BRANCH  76  77
ATOM     77  O   UNL A   1      30.433  23.841  27.105  1.00  0.00    -0.376 OA
BRANCH  77  78
ATOM     78  C   UNL A   1      31.625  23.255  27.614  1.00  0.00     0.202 C 
BRANCH  78  79
ATOM     79  C   UNL A   1      32.198  21.996  26.906  1.00  0.00     0.261 C 
BRANCH  79  80
ATOM     80  O   UNL A   1      33.219  22.057  25.871  1.00  0.00    -0.459 OA
BRANCH  80  81
ATOM     81  C   UNL A   1      34.480  21.663  26.154  1.00  0.00     0.368 C 
ATOM     82  O   UNL A   1      34.967  21.792  27.273  1.00  0.00    -0.245 OA
BRANCH  81  83
ATOM     83  C   UNL A   1      35.259  20.954  24.979  1.00  0.00     0.195 C 
ATOM     84  C   UNL A   1      36.794  20.981  25.248  1.00  0.00     0.081 C 
ATOM     85  C   UNL A   1      34.983  21.755  23.672  1.00  0.00     0.095 C 
ATOM     86  C   UNL A   1      37.419  22.374  25.231  1.00  0.00     0.008 C 
ATOM     87  C   UNL A   1      35.559  23.201  23.645  1.00  0.00     0.053 C 
ATOM     88  C   UNL A   1      37.054  23.136  23.966  1.00  0.00     0.015 C 
BRANCH  83  89
ATOM     89  N   UNL A   1      34.788  19.538  24.711  1.00  0.00    -0.330 N 
ATOM     90  H   UNL A   1      35.347  18.925  25.305  1.00  0.00     0.347 HD
ATOM     91  H   UNL A   1      34.900  19.439  23.703  1.00  0.00     0.347 HD
BRANCH  89  92
ATOM     92  C   UNL A   1      33.369  19.178  24.938  1.00  0.00     0.183 C 
ATOM     93  C   UNL A   1      32.446  19.058  23.753  1.00  0.00     0.071 C 
ATOM     94  C   UNL A   1      32.874  17.826  24.472  1.00  0.00     0.071 C 
ENDBRANCH  89  92
ENDBRANCH  83  89
BRANCH  87  95
ATOM     95  S   UNL A   1      34.305  24.275  24.482  1.00  0.00    -0.155 SA
BRANCH  95  96
ATOM     96  C   UNL A   1      33.543  25.483  23.315  1.00  0.00     0.047 C 
ATOM     97  C   UNL A   1      32.144  25.262  22.734  1.00  0.00     0.014 C 
ATOM     98  C   UNL A   1      33.775  26.881  23.896  1.00  0.00     0.014 C 
ATOM     99  C   UNL A   1      31.649  26.431  21.880  1.00  0.00     0.001 C 
ATOM    100  C   UNL A   1      33.278  27.979  22.964  1.00  0.00     0.001 C 
ATOM    101  C   UNL A   1      31.816  27.760  22.608  1.00  0.00     0.000 C 
ENDBRANCH  95  96
ENDBRANCH  87  95
ENDBRANCH  81  83
ENDBRANCH  80  81
ENDBRANCH  79  80
ENDBRANCH  78  79
ENDBRANCH  77  78
ENDBRANCH  76  77
ENDBRANCH  75  76
ENDBRANCH  74  75
ENDBRANCH   1  74
TORSDOF 27
ENDMDL
