MODEL 1
REMARK VINA RESULT:      -9.2      0.000      0.000
REMARK SMILES CC(C)[C@](C)(CC(=O)NC#N)C(=O)OCCOCCOCCOCCOC(=O)c1ccc(-c2c3nc(c(-c4cc(S(=O)(=O)[O-])ccc4F)c4ccc([nH]4)c(-c4cc(S(=O)(=O)[O-])ccc4F)c4nc(c(-c5cc(S(=O)(=O)[O-])ccc5F)c5ccc2[nH]5)C=C4)C=C3)cc1
REMARK SMILES IDX 20 1 19 2 18 3 17 4 16 5 15 6 14 7 12 8 13 9 4 10 5 11 2 12
REMARK SMILES IDX 1 13 3 14 6 15 7 16 8 17 9 18 10 20 11 21 21 22 22 23 23 24
REMARK SMILES IDX 24 25 25 26 26 27 27 28 28 29 29 30 30 31 91 32 31 33 90 34
REMARK SMILES IDX 32 35 33 36 34 37 84 38 35 39 89 40 83 41 85 42 36 43 88 44
REMARK SMILES IDX 82 45 81 46 37 48 69 49 49 50 68 51 50 52 53 53 67 54 86 55
REMARK SMILES IDX 51 56 52 57 66 59 87 60 54 61 38 62 39 63 47 64 40 65 46 66
REMARK SMILES IDX 48 67 45 68 41 69 42 70 43 71 44 72 70 73 71 74 79 75 72 76
REMARK SMILES IDX 78 77 80 78 77 79 73 80 74 81 75 82 76 83 55 84 56 85 64 86
REMARK SMILES IDX 57 87 63 88 65 89 62 90 58 91 59 92 60 93 61 94
REMARK H PARENT 9 19 85 47 53 58
REMARK Flexibility Score: inf
ROOT
ATOM      1  O   UNL A   1      31.347  29.655  24.078  1.00  0.00    -0.377 OA
ENDROOT
BRANCH   1   2
ATOM      2  C   UNL A   1      30.238  28.808  23.886  1.00  0.00     0.188 C 
BRANCH   2   3
ATOM      3  C   UNL A   1      29.878  28.045  22.615  1.00  0.00     0.188 C 
BRANCH   3   4
ATOM      4  O   UNL A   1      30.931  27.486  21.881  1.00  0.00    -0.376 OA
BRANCH   4   5
ATOM      5  C   UNL A   1      31.407  26.170  22.036  1.00  0.00     0.202 C 
BRANCH   5   6
ATOM      6  C   UNL A   1      32.257  25.625  23.203  1.00  0.00     0.261 C 
BRANCH   6   7
ATOM      7  O   UNL A   1      32.722  24.265  23.192  1.00  0.00    -0.463 OA
BRANCH   7   8
ATOM      8  C   UNL A   1      32.062  23.440  24.047  1.00  0.00     0.312 C 
ATOM      9  O   UNL A   1      30.836  23.438  24.147  1.00  0.00    -0.252 OA
BRANCH   8  10
ATOM     10  C   UNL A   1      32.955  22.522  24.936  1.00  0.00     0.076 C 
ATOM     11  C   UNL A   1      32.015  21.359  25.292  1.00  0.00     0.024 C 
BRANCH  10  12
ATOM     12  C   UNL A   1      33.346  23.414  26.205  1.00  0.00     0.000 C 
ATOM     13  C   UNL A   1      33.463  22.633  27.527  1.00  0.00     0.008 C 
ATOM     14  C   UNL A   1      34.597  24.270  26.012  1.00  0.00     0.008 C 
ENDBRANCH  10  12
BRANCH  10  15
ATOM     15  C   UNL A   1      34.320  21.941  24.404  1.00  0.00     0.119 C 
BRANCH  15  16
ATOM     16  C   UNL A   1      35.224  20.813  24.945  1.00  0.00     0.234 C 
ATOM     17  O   UNL A   1      36.222  21.125  25.611  1.00  0.00    -0.274 OA
ATOM     18  N   UNL A   1      34.982  19.483  24.909  1.00  0.00    -0.263 N 
ATOM     19  H   UNL A   1      35.741  18.994  25.301  1.00  0.00     0.182 HD
BRANCH  18  20
ATOM     20  C   UNL A   1      34.046  18.622  24.512  1.00  0.00     0.183 C 
ATOM     21  N   UNL A   1      33.285  17.816  24.166  1.00  0.00    -0.172 NA
ENDBRANCH  18  20
ENDBRANCH  15  16
ENDBRANCH  10  15
ENDBRANCH   8  10
ENDBRANCH   7   8
ENDBRANCH   6   7
ENDBRANCH   5   6
ENDBRANCH   4   5
ENDBRANCH   3   4
ENDBRANCH   2   3
ENDBRANCH   1   2
BRANCH   1  22
ATOM     22  C   UNL A   1      32.511  29.171  24.703  1.00  0.00     0.188 C 
BRANCH  22  23
ATOM     23  C   UNL A   1      32.297  28.703  26.146  1.00  0.00     0.188 C 
BRANCH  23  24
ATOM     24  O   UNL A   1      31.951  29.647  27.145  1.00  0.00    -0.376 OA
BRANCH  24  25
ATOM     25  C   UNL A   1      31.832  31.031  26.873  1.00  0.00     0.202 C 
BRANCH  25  26
ATOM     26  C   UNL A   1      32.870  32.115  27.219  1.00  0.00     0.261 C 
BRANCH  26  27
ATOM     27  O   UNL A   1      32.447  33.472  27.295  1.00  0.00    -0.460 OA
BRANCH  27  28
ATOM     28  C   UNL A   1      33.086  34.221  28.221  1.00  0.00     0.338 C 
ATOM     29  O   UNL A   1      32.696  35.261  28.718  1.00  0.00    -0.246 OA
BRANCH  28  30
ATOM     30  C   UNL A   1      34.278  33.473  28.663  1.00  0.00     0.060 A 
ATOM     31  C   UNL A   1      34.106  32.370  29.510  1.00  0.00     0.016 A 
ATOM     32  C   UNL A   1      35.554  33.876  28.266  1.00  0.00     0.016 A 
ATOM     33  C   UNL A   1      35.212  31.679  29.988  1.00  0.00     0.010 A 
ATOM     34  C   UNL A   1      36.666  33.205  28.778  1.00  0.00     0.010 A 
ATOM     35  C   UNL A   1      36.496  32.130  29.669  1.00  0.00    -0.014 A 
BRANCH  35  36
ATOM     36  C   UNL A   1      37.644  31.613  30.444  1.00  0.00     0.031 A 
ATOM     37  C   UNL A   1      38.543  30.603  29.787  1.00  0.00     0.074 A 
ATOM     38  C   UNL A   1      37.908  32.075  31.677  1.00  0.00     0.049 A 
ATOM     39  N   UNL A   1      39.568  29.962  30.278  1.00  0.00    -0.248 NA
ATOM     40  C   UNL A   1      38.234  30.270  28.386  1.00  0.00     0.031 C 
ATOM     41  C   UNL A   1      37.145  33.112  32.370  1.00  0.00     0.029 A 
ATOM     42  N   UNL A   1      38.891  31.729  32.566  1.00  0.00    -0.354 N 
ATOM     43  C   UNL A   1      40.019  29.136  29.255  1.00  0.00     0.074 A 
ATOM     44  C   UNL A   1      39.133  29.333  28.129  1.00  0.00     0.031 C 
ATOM     45  C   UNL A   1      37.687  33.313  33.583  1.00  0.00     0.029 A 
ATOM     46  C   UNL A   1      38.798  32.382  33.771  1.00  0.00     0.049 A 
ATOM     47  H   UNL A   1      39.597  31.074  32.360  1.00  0.00     0.167 HD
ATOM     48  C   UNL A   1      41.079  28.293  29.260  1.00  0.00     0.034 A 
ATOM     49  C   UNL A   1      39.507  32.216  34.905  1.00  0.00     0.034 A 
ATOM     50  C   UNL A   1      41.939  28.108  30.403  1.00  0.00     0.049 A 
ATOM     51  C   UNL A   1      40.613  31.187  34.924  1.00  0.00     0.074 A 
ATOM     52  C   UNL A   1      43.047  27.290  30.522  1.00  0.00     0.029 A 
ATOM     53  N   UNL A   1      41.774  28.736  31.633  1.00  0.00    -0.354 N 
ATOM     54  N   UNL A   1      41.031  30.404  33.955  1.00  0.00    -0.248 NA
ATOM     55  C   UNL A   1      41.346  31.023  36.185  1.00  0.00     0.031 C 
ATOM     56  C   UNL A   1      43.490  27.346  31.846  1.00  0.00     0.029 A 
ATOM     57  C   UNL A   1      42.732  28.286  32.527  1.00  0.00     0.049 A 
ATOM     58  H   UNL A   1      41.080  29.403  31.837  1.00  0.00     0.167 HD
ATOM     59  C   UNL A   1      42.103  29.685  34.481  1.00  0.00     0.074 A 
ATOM     60  C   UNL A   1      42.270  30.139  35.847  1.00  0.00     0.031 C 
ATOM     61  C   UNL A   1      42.882  28.743  33.890  1.00  0.00     0.034 A 
BRANCH  48  62
ATOM     62  C   UNL A   1      41.319  27.461  28.024  1.00  0.00     0.023 A 
ATOM     63  C   UNL A   1      40.974  26.100  27.961  1.00  0.00     0.031 A 
ATOM     64  C   UNL A   1      41.929  28.038  26.895  1.00  0.00     0.131 A 
ATOM     65  C   UNL A   1      41.306  25.347  26.824  1.00  0.00     0.055 A 
ATOM     66  C   UNL A   1      42.172  27.305  25.733  1.00  0.00     0.041 A 
ATOM     67  F   UNL A   1      42.311  29.324  26.908  1.00  0.00    -0.206 F 
ATOM     68  C   UNL A   1      41.874  25.947  25.698  1.00  0.00     0.022 A 
BRANCH  65  69
ATOM     69  S   UNL A   1      41.134  23.543  26.899  1.00  0.00     0.124 S 
ATOM     70  O   UNL A   1      41.822  23.233  28.150  1.00  0.00    -0.237 OA
ATOM     71  O   UNL A   1      39.687  23.365  26.904  1.00  0.00    -0.237 OA
ATOM     72  O   UNL A   1      41.816  23.083  25.691  1.00  0.00    -0.744 OA
ENDBRANCH  65  69
ENDBRANCH  48  62
BRANCH  49  73
ATOM     73  C   UNL A   1      39.174  33.001  36.129  1.00  0.00     0.023 A 
ATOM     74  C   UNL A   1      39.712  34.280  36.337  1.00  0.00     0.031 A 
ATOM     75  C   UNL A   1      38.361  32.456  37.141  1.00  0.00     0.131 A 
ATOM     76  C   UNL A   1      39.478  34.947  37.549  1.00  0.00     0.055 A 
ATOM     77  C   UNL A   1      38.074  33.155  38.315  1.00  0.00     0.041 A 
ATOM     78  F   UNL A   1      37.827  31.232  37.001  1.00  0.00    -0.206 F 
ATOM     79  C   UNL A   1      38.647  34.403  38.531  1.00  0.00     0.022 A 
BRANCH  76  80
ATOM     80  S   UNL A   1      40.375  36.491  37.873  1.00  0.00     0.124 S 
ATOM     81  O   UNL A   1      41.542  36.005  38.600  1.00  0.00    -0.237 OA
ATOM     82  O   UNL A   1      40.619  36.987  36.523  1.00  0.00    -0.237 OA
ATOM     83  O   UNL A   1      39.427  37.274  38.662  1.00  0.00    -0.744 OA
ENDBRANCH  76  80
ENDBRANCH  49  73
BRANCH  61  84
ATOM     84  C   UNL A   1      44.029  28.183  34.700  1.00  0.00     0.023 A 
ATOM     85  C   UNL A   1      43.852  27.139  35.623  1.00  0.00     0.031 A 
ATOM     86  C   UNL A   1      45.325  28.711  34.543  1.00  0.00     0.131 A 
ATOM     87  C   UNL A   1      44.935  26.702  36.399  1.00  0.00     0.055 A 
ATOM     88  C   UNL A   1      46.414  28.215  35.259  1.00  0.00     0.041 A 
ATOM     89  F   UNL A   1      45.555  29.716  33.683  1.00  0.00    -0.206 F 
ATOM     90  C   UNL A   1      46.220  27.215  36.205  1.00  0.00     0.022 A 
BRANCH  87  91
ATOM     91  S   UNL A   1      44.618  25.539  37.755  1.00  0.00     0.124 S 
ATOM     92  O   UNL A   1      44.057  26.415  38.778  1.00  0.00    -0.237 OA
ATOM     93  O   UNL A   1      43.690  24.593  37.146  1.00  0.00    -0.237 OA
ATOM     94  O   UNL A   1      45.942  24.999  38.060  1.00  0.00    -0.744 OA
ENDBRANCH  87  91
ENDBRANCH  61  84
ENDBRANCH  35  36
ENDBRANCH  28  30
ENDBRANCH  27  28
ENDBRANCH  26  27
ENDBRANCH  25  26
ENDBRANCH  24  25
ENDBRANCH  23  24
ENDBRANCH  22  23
ENDBRANCH   1  22
TORSDOF 27
ENDMDL
MODEL 2
REMARK VINA RESULT:      -9.2      5.446     10.883
REMARK SMILES CC(C)[C@](C)(CC(=O)NC#N)C(=O)OCCOCCOCCOCCOC(=O)c1ccc(-c2c3nc(c(-c4cc(S(=O)(=O)[O-])ccc4F)c4ccc([nH]4)c(-c4cc(S(=O)(=O)[O-])ccc4F)c4nc(c(-c5cc(S(=O)(=O)[O-])ccc5F)c5ccc2[nH]5)C=C4)C=C3)cc1
REMARK SMILES IDX 20 1 19 2 18 3 17 4 16 5 15 6 14 7 12 8 13 9 4 10 5 11 2 12
REMARK SMILES IDX 1 13 3 14 6 15 7 16 8 17 9 18 10 20 11 21 21 22 22 23 23 24
REMARK SMILES IDX 24 25 25 26 26 27 27 28 28 29 29 30 30 31 91 32 31 33 90 34
REMARK SMILES IDX 32 35 33 36 34 37 84 38 35 39 89 40 83 41 85 42 36 43 88 44
REMARK SMILES IDX 82 45 81 46 37 48 69 49 49 50 68 51 50 52 53 53 67 54 86 55
REMARK SMILES IDX 51 56 52 57 66 59 87 60 54 61 38 62 39 63 47 64 40 65 46 66
REMARK SMILES IDX 48 67 45 68 41 69 42 70 43 71 44 72 70 73 71 74 79 75 72 76
REMARK SMILES IDX 78 77 80 78 77 79 73 80 74 81 75 82 76 83 55 84 56 85 64 86
REMARK SMILES IDX 57 87 63 88 65 89 62 90 58 91 59 92 60 93 61 94
REMARK H PARENT 9 19 85 47 53 58
REMARK Flexibility Score: inf
ROOT
ATOM      1  O   UNL A   1      34.291  22.195  24.069  1.00  0.00    -0.377 OA
ENDROOT
BRANCH   1   2
ATOM      2  C   UNL A   1      33.027  21.915  23.513  1.00  0.00     0.188 C 
BRANCH   2   3
ATOM      3  C   UNL A   1      31.808  22.834  23.502  1.00  0.00     0.188 C 
BRANCH   3   4
ATOM      4  O   UNL A   1      31.979  24.120  22.976  1.00  0.00    -0.376 OA
BRANCH   4   5
ATOM      5  C   UNL A   1      30.984  25.117  22.956  1.00  0.00     0.202 C 
BRANCH   5   6
ATOM      6  C   UNL A   1      29.982  25.447  24.082  1.00  0.00     0.261 C 
BRANCH   6   7
ATOM      7  O   UNL A   1      30.334  26.379  25.118  1.00  0.00    -0.463 OA
BRANCH   7   8
ATOM      8  C   UNL A   1      31.414  26.014  25.856  1.00  0.00     0.312 C 
ATOM      9  O   UNL A   1      31.382  25.075  26.652  1.00  0.00    -0.252 OA
BRANCH   8  10
ATOM     10  C   UNL A   1      32.694  26.884  25.673  1.00  0.00     0.076 C 
ATOM     11  C   UNL A   1      33.781  25.846  25.355  1.00  0.00     0.024 C 
BRANCH  10  12
ATOM     12  C   UNL A   1      32.919  27.606  27.083  1.00  0.00     0.000 C 
ATOM     13  C   UNL A   1      33.994  28.709  27.075  1.00  0.00     0.008 C 
ATOM     14  C   UNL A   1      31.642  28.150  27.723  1.00  0.00     0.008 C 
ENDBRANCH  10  12
BRANCH  10  15
ATOM     15  C   UNL A   1      32.753  28.040  24.604  1.00  0.00     0.119 C 
BRANCH  15  16
ATOM     16  C   UNL A   1      31.655  28.982  24.062  1.00  0.00     0.234 C 
ATOM     17  O   UNL A   1      30.996  28.616  23.079  1.00  0.00    -0.274 OA
ATOM     18  N   UNL A   1      31.207  30.125  24.629  1.00  0.00    -0.263 N 
ATOM     19  H   UNL A   1      30.522  30.537  24.055  1.00  0.00     0.182 HD
BRANCH  18  20
ATOM     20  C   UNL A   1      31.396  30.873  25.715  1.00  0.00     0.183 C 
ATOM     21  N   UNL A   1      31.633  31.539  26.637  1.00  0.00    -0.172 NA
ENDBRANCH  18  20
ENDBRANCH  15  16
ENDBRANCH  10  15
ENDBRANCH   8  10
ENDBRANCH   7   8
ENDBRANCH   6   7
ENDBRANCH   5   6
ENDBRANCH   4   5
ENDBRANCH   3   4
ENDBRANCH   2   3
ENDBRANCH   1   2
BRANCH   1  22
ATOM     22  C   UNL A   1      34.869  21.313  24.999  1.00  0.00     0.188 C 
BRANCH  22  23
ATOM     23  C   UNL A   1      35.995  21.934  25.833  1.00  0.00     0.188 C 
BRANCH  23  24
ATOM     24  O   UNL A   1      37.333  21.856  25.373  1.00  0.00    -0.376 OA
BRANCH  24  25
ATOM     25  C   UNL A   1      37.911  20.644  24.923  1.00  0.00     0.202 C 
BRANCH  25  26
ATOM     26  C   UNL A   1      38.984  19.822  25.662  1.00  0.00     0.261 C 
BRANCH  26  27
ATOM     27  O   UNL A   1      40.357  20.104  25.414  1.00  0.00    -0.460 OA
BRANCH  27  28
ATOM     28  C   UNL A   1      41.148  20.112  26.508  1.00  0.00     0.338 C 
ATOM     29  O   UNL A   1      41.725  19.162  27.004  1.00  0.00    -0.246 OA
BRANCH  28  30
ATOM     30  C   UNL A   1      41.341  21.517  26.916  1.00  0.00     0.060 A 
ATOM     31  C   UNL A   1      41.197  22.525  25.954  1.00  0.00     0.016 A 
ATOM     32  C   UNL A   1      41.688  21.831  28.231  1.00  0.00     0.016 A 
ATOM     33  C   UNL A   1      41.426  23.852  26.293  1.00  0.00     0.010 A 
ATOM     34  C   UNL A   1      41.956  23.160  28.563  1.00  0.00     0.010 A 
ATOM     35  C   UNL A   1      41.862  24.166  27.584  1.00  0.00    -0.014 A 
BRANCH  35  36
ATOM     36  C   UNL A   1      42.425  25.509  27.836  1.00  0.00     0.031 A 
ATOM     37  C   UNL A   1      41.553  26.526  28.517  1.00  0.00     0.074 A 
ATOM     38  C   UNL A   1      43.699  25.794  27.518  1.00  0.00     0.049 A 
ATOM     39  N   UNL A   1      41.797  27.779  28.790  1.00  0.00    -0.248 NA
ATOM     40  C   UNL A   1      40.221  26.062  28.941  1.00  0.00     0.031 C 
ATOM     41  C   UNL A   1      44.651  24.852  26.929  1.00  0.00     0.029 A 
ATOM     42  N   UNL A   1      44.410  26.958  27.644  1.00  0.00    -0.354 N 
ATOM     43  C   UNL A   1      40.645  28.261  29.402  1.00  0.00     0.074 A 
ATOM     44  C   UNL A   1      39.692  27.174  29.427  1.00  0.00     0.031 C 
ATOM     45  C   UNL A   1      45.822  25.483  26.738  1.00  0.00     0.029 A 
ATOM     46  C   UNL A   1      45.685  26.881  27.139  1.00  0.00     0.049 A 
ATOM     47  H   UNL A   1      44.040  27.773  28.057  1.00  0.00     0.167 HD
ATOM     48  C   UNL A   1      40.412  29.500  29.898  1.00  0.00     0.034 A 
ATOM     49  C   UNL A   1      46.618  27.843  26.988  1.00  0.00     0.034 A 
ATOM     50  C   UNL A   1      41.379  30.568  29.847  1.00  0.00     0.049 A 
ATOM     51  C   UNL A   1      46.293  29.245  27.445  1.00  0.00     0.074 A 
ATOM     52  C   UNL A   1      41.258  31.860  30.326  1.00  0.00     0.029 A 
ATOM     53  N   UNL A   1      42.639  30.475  29.267  1.00  0.00    -0.354 N 
ATOM     54  N   UNL A   1      45.199  29.697  28.017  1.00  0.00    -0.248 NA
ATOM     55  C   UNL A   1      47.328  30.266  27.241  1.00  0.00     0.031 C 
ATOM     56  C   UNL A   1      42.399  32.573  29.948  1.00  0.00     0.029 A 
ATOM     57  C   UNL A   1      43.283  31.700  29.334  1.00  0.00     0.049 A 
ATOM     58  H   UNL A   1      43.017  29.659  28.868  1.00  0.00     0.167 HD
ATOM     59  C   UNL A   1      45.435  31.046  28.278  1.00  0.00     0.074 A 
ATOM     60  C   UNL A   1      46.777  31.326  27.810  1.00  0.00     0.031 C 
ATOM     61  C   UNL A   1      44.621  31.966  28.856  1.00  0.00     0.034 A 
BRANCH  48  62
ATOM     62  C   UNL A   1      39.042  29.780  30.466  1.00  0.00     0.023 A 
ATOM     63  C   UNL A   1      38.094  30.560  29.781  1.00  0.00     0.031 A 
ATOM     64  C   UNL A   1      38.689  29.277  31.731  1.00  0.00     0.131 A 
ATOM     65  C   UNL A   1      36.871  30.872  30.395  1.00  0.00     0.055 A 
ATOM     66  C   UNL A   1      37.435  29.514  32.296  1.00  0.00     0.041 A 
ATOM     67  F   UNL A   1      39.563  28.553  32.447  1.00  0.00    -0.206 F 
ATOM     68  C   UNL A   1      36.523  30.328  31.633  1.00  0.00     0.022 A 
BRANCH  65  69
ATOM     69  S   UNL A   1      35.811  32.127  29.626  1.00  0.00     0.124 S 
ATOM     70  O   UNL A   1      36.785  32.913  28.871  1.00  0.00    -0.237 OA
ATOM     71  O   UNL A   1      34.891  31.319  28.834  1.00  0.00    -0.237 OA
ATOM     72  O   UNL A   1      35.214  32.817  30.767  1.00  0.00    -0.744 OA
ENDBRANCH  65  69
ENDBRANCH  48  62
BRANCH  49  73
ATOM     73  C   UNL A   1      47.925  27.534  26.339  1.00  0.00     0.023 A 
ATOM     74  C   UNL A   1      48.084  27.639  24.949  1.00  0.00     0.031 A 
ATOM     75  C   UNL A   1      49.018  27.068  27.094  1.00  0.00     0.131 A 
ATOM     76  C   UNL A   1      49.287  27.230  24.351  1.00  0.00     0.055 A 
ATOM     77  C   UNL A   1      50.235  26.730  26.500  1.00  0.00     0.041 A 
ATOM     78  F   UNL A   1      48.919  26.939  28.426  1.00  0.00    -0.206 F 
ATOM     79  C   UNL A   1      50.370  26.796  25.118  1.00  0.00     0.022 A 
BRANCH  76  80
ATOM     80  S   UNL A   1      49.372  27.163  22.540  1.00  0.00     0.124 S 
ATOM     81  O   UNL A   1      48.962  28.515  22.177  1.00  0.00    -0.237 OA
ATOM     82  O   UNL A   1      50.776  26.836  22.316  1.00  0.00    -0.237 OA
ATOM     83  O   UNL A   1      48.425  26.107  22.195  1.00  0.00    -0.744 OA
ENDBRANCH  76  80
ENDBRANCH  49  73
BRANCH  61  84
ATOM     84  C   UNL A   1      45.185  33.351  29.073  1.00  0.00     0.023 A 
ATOM     85  C   UNL A   1      45.014  34.383  28.135  1.00  0.00     0.031 A 
ATOM     86  C   UNL A   1      45.910  33.641  30.245  1.00  0.00     0.131 A 
ATOM     87  C   UNL A   1      45.616  35.631  28.351  1.00  0.00     0.055 A 
ATOM     88  C   UNL A   1      46.435  34.909  30.493  1.00  0.00     0.041 A 
ATOM     89  F   UNL A   1      46.114  32.693  31.175  1.00  0.00    -0.206 F 
ATOM     90  C   UNL A   1      46.303  35.909  29.536  1.00  0.00     0.022 A 
BRANCH  87  91
ATOM     91  S   UNL A   1      45.594  36.851  27.009  1.00  0.00     0.124 S 
ATOM     92  O   UNL A   1      46.306  36.145  25.949  1.00  0.00    -0.237 OA
ATOM     93  O   UNL A   1      44.165  37.052  26.792  1.00  0.00    -0.237 OA
ATOM     94  O   UNL A   1      46.302  37.997  27.576  1.00  0.00    -0.744 OA
ENDBRANCH  87  91
ENDBRANCH  61  84
ENDBRANCH  35  36
ENDBRANCH  28  30
ENDBRANCH  27  28
ENDBRANCH  26  27
ENDBRANCH  25  26
ENDBRANCH  24  25
ENDBRANCH  23  24
ENDBRANCH  22  23
ENDBRANCH   1  22
TORSDOF 27
ENDMDL
MODEL 3
REMARK VINA RESULT:      -9.2      3.019      4.012
REMARK SMILES CC(C)[C@](C)(CC(=O)NC#N)C(=O)OCCOCCOCCOCCOC(=O)c1ccc(-c2c3nc(c(-c4cc(S(=O)(=O)[O-])ccc4F)c4ccc([nH]4)c(-c4cc(S(=O)(=O)[O-])ccc4F)c4nc(c(-c5cc(S(=O)(=O)[O-])ccc5F)c5ccc2[nH]5)C=C4)C=C3)cc1
REMARK SMILES IDX 20 1 19 2 18 3 17 4 16 5 15 6 14 7 12 8 13 9 4 10 5 11 2 12
REMARK SMILES IDX 1 13 3 14 6 15 7 16 8 17 9 18 10 20 11 21 21 22 22 23 23 24
REMARK SMILES IDX 24 25 25 26 26 27 27 28 28 29 29 30 30 31 91 32 31 33 90 34
REMARK SMILES IDX 32 35 33 36 34 37 84 38 35 39 89 40 83 41 85 42 36 43 88 44
REMARK SMILES IDX 82 45 81 46 37 48 69 49 49 50 68 51 50 52 53 53 67 54 86 55
REMARK SMILES IDX 51 56 52 57 66 59 87 60 54 61 38 62 39 63 47 64 40 65 46 66
REMARK SMILES IDX 48 67 45 68 41 69 42 70 43 71 44 72 70 73 71 74 79 75 72 76
REMARK SMILES IDX 78 77 80 78 77 79 73 80 74 81 75 82 76 83 55 84 56 85 64 86
REMARK SMILES IDX 57 87 63 88 65 89 62 90 58 91 59 92 60 93 61 94
REMARK H PARENT 9 19 85 47 53 58
REMARK Flexibility Score: inf
ROOT
ATOM      1  O   UNL A   1      30.650  26.881  23.330  1.00  0.00    -0.377 OA
ENDROOT
BRANCH   1   2
ATOM      2  C   UNL A   1      31.440  27.954  22.874  1.00  0.00     0.188 C 
BRANCH   2   3
ATOM      3  C   UNL A   1      32.916  27.905  22.490  1.00  0.00     0.188 C 
BRANCH   3   4
ATOM      4  O   UNL A   1      33.356  26.786  21.774  1.00  0.00    -0.376 OA
BRANCH   4   5
ATOM      5  C   UNL A   1      33.943  25.643  22.352  1.00  0.00     0.202 C 
BRANCH   5   6
ATOM      6  C   UNL A   1      33.472  24.903  23.622  1.00  0.00     0.261 C 
BRANCH   6   7
ATOM      7  O   UNL A   1      34.349  23.986  24.296  1.00  0.00    -0.463 OA
BRANCH   7   8
ATOM      8  C   UNL A   1      34.078  22.676  24.059  1.00  0.00     0.312 C 
ATOM      9  O   UNL A   1      33.360  22.309  23.129  1.00  0.00    -0.252 OA
BRANCH   8  10
ATOM     10  C   UNL A   1      34.694  21.658  25.065  1.00  0.00     0.076 C 
ATOM     11  C   UNL A   1      34.258  22.208  26.432  1.00  0.00     0.024 C 
BRANCH  10  12
ATOM     12  C   UNL A   1      36.276  21.744  24.838  1.00  0.00     0.000 C 
ATOM     13  C   UNL A   1      37.014  22.682  25.812  1.00  0.00     0.008 C 
ATOM     14  C   UNL A   1      36.983  20.389  24.809  1.00  0.00     0.008 C 
ENDBRANCH  10  12
BRANCH  10  15
ATOM     15  C   UNL A   1      34.351  20.121  24.991  1.00  0.00     0.119 C 
BRANCH  15  16
ATOM     16  C   UNL A   1      33.014  19.389  24.746  1.00  0.00     0.234 C 
ATOM     17  O   UNL A   1      31.963  19.943  25.101  1.00  0.00    -0.274 OA
ATOM     18  N   UNL A   1      32.823  18.252  24.040  1.00  0.00    -0.263 N 
ATOM     19  H   UNL A   1      31.873  17.995  24.070  1.00  0.00     0.182 HD
BRANCH  18  20
ATOM     20  C   UNL A   1      33.508  17.366  23.318  1.00  0.00     0.183 C 
ATOM     21  N   UNL A   1      34.051  16.541  22.707  1.00  0.00    -0.172 NA
ENDBRANCH  18  20
ENDBRANCH  15  16
ENDBRANCH  10  15
ENDBRANCH   8  10
ENDBRANCH   7   8
ENDBRANCH   6   7
ENDBRANCH   5   6
ENDBRANCH   4   5
ENDBRANCH   3   4
ENDBRANCH   2   3
ENDBRANCH   1   2
BRANCH   1  22
ATOM     22  C   UNL A   1      30.350  26.751  24.699  1.00  0.00     0.188 C 
BRANCH  22  23
ATOM     23  C   UNL A   1      31.189  27.652  25.611  1.00  0.00     0.188 C 
BRANCH  23  24
ATOM     24  O   UNL A   1      32.433  27.186  26.105  1.00  0.00    -0.376 OA
BRANCH  24  25
ATOM     25  C   UNL A   1      33.542  28.045  26.299  1.00  0.00     0.202 C 
BRANCH  25  26
ATOM     26  C   UNL A   1      33.496  29.582  26.371  1.00  0.00     0.261 C 
BRANCH  26  27
ATOM     27  O   UNL A   1      33.692  30.217  27.630  1.00  0.00    -0.460 OA
BRANCH  27  28
ATOM     28  C   UNL A   1      34.710  31.104  27.674  1.00  0.00     0.338 C 
ATOM     29  O   UNL A   1      34.636  32.313  27.557  1.00  0.00    -0.246 OA
BRANCH  28  30
ATOM     30  C   UNL A   1      35.931  30.371  28.062  1.00  0.00     0.060 A 
ATOM     31  C   UNL A   1      35.949  29.691  29.286  1.00  0.00     0.016 A 
ATOM     32  C   UNL A   1      37.055  30.379  27.234  1.00  0.00     0.016 A 
ATOM     33  C   UNL A   1      37.101  29.038  29.705  1.00  0.00     0.010 A 
ATOM     34  C   UNL A   1      38.224  29.757  27.672  1.00  0.00     0.010 A 
ATOM     35  C   UNL A   1      38.259  29.118  28.925  1.00  0.00    -0.014 A 
BRANCH  35  36
ATOM     36  C   UNL A   1      39.549  28.723  29.528  1.00  0.00     0.031 A 
ATOM     37  C   UNL A   1      40.320  27.606  28.881  1.00  0.00     0.074 A 
ATOM     38  C   UNL A   1      40.046  29.382  30.588  1.00  0.00     0.049 A 
ATOM     39  N   UNL A   1      41.437  27.044  29.256  1.00  0.00    -0.248 NA
ATOM     40  C   UNL A   1      39.744  27.047  27.647  1.00  0.00     0.031 C 
ATOM     41  C   UNL A   1      39.415  30.531  31.237  1.00  0.00     0.029 A 
ATOM     42  N   UNL A   1      41.195  29.178  31.306  1.00  0.00    -0.354 N 
ATOM     43  C   UNL A   1      41.691  26.052  28.314  1.00  0.00     0.074 A 
ATOM     44  C   UNL A   1      40.593  26.069  27.374  1.00  0.00     0.031 C 
ATOM     45  C   UNL A   1      40.186  30.925  32.265  1.00  0.00     0.029 A 
ATOM     46  C   UNL A   1      41.331  30.024  32.379  1.00  0.00     0.049 A 
ATOM     47  H   UNL A   1      41.859  28.489  31.074  1.00  0.00     0.167 HD
ATOM     48  C   UNL A   1      42.749  25.209  28.247  1.00  0.00     0.034 A 
ATOM     49  C   UNL A   1      42.257  30.042  33.358  1.00  0.00     0.034 A 
ATOM     50  C   UNL A   1      43.824  25.207  29.208  1.00  0.00     0.049 A 
ATOM     51  C   UNL A   1      43.366  29.017  33.324  1.00  0.00     0.074 A 
ATOM     52  C   UNL A   1      44.951  24.407  29.235  1.00  0.00     0.029 A 
ATOM     53  N   UNL A   1      43.896  26.035  30.322  1.00  0.00    -0.354 N 
ATOM     54  N   UNL A   1      43.598  28.078  32.435  1.00  0.00    -0.248 NA
ATOM     55  C   UNL A   1      44.341  29.058  34.422  1.00  0.00     0.031 C 
ATOM     56  C   UNL A   1      45.650  24.679  30.414  1.00  0.00     0.029 A 
ATOM     57  C   UNL A   1      45.024  25.729  31.068  1.00  0.00     0.049 A 
ATOM     58  H   UNL A   1      43.242  26.735  30.548  1.00  0.00     0.167 HD
ATOM     59  C   UNL A   1      44.770  27.444  32.847  1.00  0.00     0.074 A 
ATOM     60  C   UNL A   1      45.198  28.118  34.056  1.00  0.00     0.031 C 
ATOM     61  C   UNL A   1      45.434  26.406  32.277  1.00  0.00     0.034 A 
BRANCH  48  62
ATOM     62  C   UNL A   1      42.753  24.179  27.144  1.00  0.00     0.023 A 
ATOM     63  C   UNL A   1      42.067  22.957  27.260  1.00  0.00     0.031 A 
ATOM     64  C   UNL A   1      43.481  24.415  25.963  1.00  0.00     0.131 A 
ATOM     65  C   UNL A   1      42.183  21.993  26.247  1.00  0.00     0.055 A 
ATOM     66  C   UNL A   1      43.515  23.489  24.920  1.00  0.00     0.041 A 
ATOM     67  F   UNL A   1      44.183  25.548  25.809  1.00  0.00    -0.206 F 
ATOM     68  C   UNL A   1      42.875  22.262  25.065  1.00  0.00     0.022 A 
BRANCH  65  69
ATOM     69  S   UNL A   1      41.550  20.322  26.565  1.00  0.00     0.124 S 
ATOM     70  O   UNL A   1      40.113  20.567  26.669  1.00  0.00    -0.237 OA
ATOM     71  O   UNL A   1      41.990  19.588  25.385  1.00  0.00    -0.237 OA
ATOM     72  O   UNL A   1      42.202  19.943  27.817  1.00  0.00    -0.744 OA
ENDBRANCH  65  69
ENDBRANCH  48  62
BRANCH  49  73
ATOM     73  C   UNL A   1      42.159  31.025  34.476  1.00  0.00     0.023 A 
ATOM     74  C   UNL A   1      42.632  32.338  34.327  1.00  0.00     0.031 A 
ATOM     75  C   UNL A   1      41.649  30.647  35.731  1.00  0.00     0.131 A 
ATOM     76  C   UNL A   1      42.637  33.207  35.429  1.00  0.00     0.055 A 
ATOM     77  C   UNL A   1      41.591  31.538  36.804  1.00  0.00     0.041 A 
ATOM     78  F   UNL A   1      41.192  29.401  35.934  1.00  0.00    -0.206 F 
ATOM     79  C   UNL A   1      42.102  32.823  36.661  1.00  0.00     0.022 A 
BRANCH  76  80
ATOM     80  S   UNL A   1      43.464  34.813  35.260  1.00  0.00     0.124 S 
ATOM     81  O   UNL A   1      44.821  34.491  35.686  1.00  0.00    -0.237 OA
ATOM     82  O   UNL A   1      43.285  35.096  33.840  1.00  0.00    -0.237 OA
ATOM     83  O   UNL A   1      42.712  35.678  36.166  1.00  0.00    -0.744 OA
ENDBRANCH  76  80
ENDBRANCH  49  73
BRANCH  61  84
ATOM     84  C   UNL A   1      46.732  25.976  32.921  1.00  0.00     0.023 A 
ATOM     85  C   UNL A   1      47.968  26.536  32.557  1.00  0.00     0.031 A 
ATOM     86  C   UNL A   1      46.727  24.983  33.918  1.00  0.00     0.131 A 
ATOM     87  C   UNL A   1      49.151  26.053  33.136  1.00  0.00     0.055 A 
ATOM     88  C   UNL A   1      47.899  24.566  34.549  1.00  0.00     0.041 A 
ATOM     89  F   UNL A   1      45.577  24.404  34.302  1.00  0.00    -0.206 F 
ATOM     90  C   UNL A   1      49.122  25.091  34.148  1.00  0.00     0.022 A 
BRANCH  87  91
ATOM     91  S   UNL A   1      50.739  26.612  32.461  1.00  0.00     0.124 S 
ATOM     92  O   UNL A   1      50.504  26.524  31.024  1.00  0.00    -0.237 OA
ATOM     93  O   UNL A   1      50.854  27.960  33.006  1.00  0.00    -0.237 OA
ATOM     94  O   UNL A   1      51.697  25.644  32.993  1.00  0.00    -0.744 OA
ENDBRANCH  87  91
ENDBRANCH  61  84
ENDBRANCH  35  36
ENDBRANCH  28  30
ENDBRANCH  27  28
ENDBRANCH  26  27
ENDBRANCH  25  26
ENDBRANCH  24  25
ENDBRANCH  23  24
ENDBRANCH  22  23
ENDBRANCH   1  22
TORSDOF 27
ENDMDL
