MODEL 1
REMARK VINA RESULT:      -7.7      0.000      0.000
REMARK SMILES CC(C)CC[C@H](C(=O)OCCOCCOCCOCCOC(=O)c1ccc(-c2c3nc(c(-c4cc(S(=O)(=O)[O-])ccc4F)c4ccc([nH]4)c(-c4cc(S(=O)(=O)[O-])ccc4F)c4nc(c(-c5cc(S(=O)(=O)[O-])ccc5F)c5ccc2[nH]5)C=C4)C=C3)cc1)c1ccc(F)cc1
REMARK SMILES IDX 15 1 14 2 13 3 12 4 11 5 10 6 9 7 7 8 8 9 6 10 5 11 4 12
REMARK SMILES IDX 2 13 1 14 3 15 87 16 88 17 93 18 89 19 92 20 90 21 91 22
REMARK SMILES IDX 16 23 17 24 18 25 19 26 20 27 21 28 22 29 23 30 24 31 25 32
REMARK SMILES IDX 86 33 26 34 85 35 27 36 28 37 29 38 79 39 30 40 84 41 78 42
REMARK SMILES IDX 80 43 31 44 83 45 77 46 76 47 32 49 64 50 44 51 63 52 45 53
REMARK SMILES IDX 48 54 62 55 81 56 46 57 47 58 61 60 82 61 49 62 33 63 34 64
REMARK SMILES IDX 42 65 35 66 41 67 43 68 40 69 36 70 37 71 38 72 39 73 65 74
REMARK SMILES IDX 66 75 74 76 67 77 73 78 75 79 72 80 68 81 69 82 70 83 71 84
REMARK SMILES IDX 50 85 51 86 59 87 52 88 58 89 60 90 57 91 53 92 54 93 55 94
REMARK SMILES IDX 56 95
REMARK H PARENT 80 48 48 59
REMARK Flexibility Score: inf
ROOT
ATOM      1  O   UNL A   1      50.166  23.871  40.148  1.00  0.00    -0.377 OA
ENDROOT
BRANCH   1   2
ATOM      2  C   UNL A   1      49.751  23.273  38.933  1.00  0.00     0.188 C 
BRANCH   2   3
ATOM      3  C   UNL A   1      48.834  22.023  38.879  1.00  0.00     0.188 C 
BRANCH   3   4
ATOM      4  O   UNL A   1      47.496  22.272  39.242  1.00  0.00    -0.376 OA
BRANCH   4   5
ATOM      5  C   UNL A   1      46.597  21.183  39.268  1.00  0.00     0.202 C 
BRANCH   5   6
ATOM      6  C   UNL A   1      46.533  20.291  40.519  1.00  0.00     0.261 C 
BRANCH   6   7
ATOM      7  O   UNL A   1      47.239  19.027  40.541  1.00  0.00    -0.463 OA
BRANCH   7   8
ATOM      8  C   UNL A   1      47.147  18.214  41.626  1.00  0.00     0.313 C 
ATOM      9  O   UNL A   1      48.119  17.777  42.229  1.00  0.00    -0.252 OA
BRANCH   8  10
ATOM     10  C   UNL A   1      45.677  17.871  41.946  1.00  0.00     0.129 C 
BRANCH  10  11
ATOM     11  C   UNL A   1      45.578  16.354  41.602  1.00  0.00     0.020 C 
BRANCH  11  12
ATOM     12  C   UNL A   1      45.428  15.955  40.099  1.00  0.00     0.004 C 
BRANCH  12  13
ATOM     13  C   UNL A   1      44.397  16.766  39.293  1.00  0.00    -0.017 C 
ATOM     14  C   UNL A   1      45.101  17.626  38.243  1.00  0.00     0.007 C 
ATOM     15  C   UNL A   1      43.305  15.924  38.639  1.00  0.00     0.007 C 
ENDBRANCH  12  13
ENDBRANCH  11  12
ENDBRANCH  10  11
BRANCH  10  16
ATOM     16  C   UNL A   1      45.169  18.315  43.339  1.00  0.00    -0.034 A 
ATOM     17  C   UNL A   1      44.912  19.656  43.642  1.00  0.00     0.007 A 
ATOM     18  C   UNL A   1      44.923  17.426  44.390  1.00  0.00     0.007 A 
ATOM     19  C   UNL A   1      44.762  20.128  44.951  1.00  0.00     0.039 A 
ATOM     20  C   UNL A   1      44.811  17.868  45.716  1.00  0.00     0.039 A 
ATOM     21  C   UNL A   1      44.789  19.223  45.991  1.00  0.00     0.123 A 
ATOM     22  F   UNL A   1      44.755  19.654  47.258  1.00  0.00    -0.207 F 
ENDBRANCH  10  16
ENDBRANCH   8  10
ENDBRANCH   7   8
ENDBRANCH   6   7
ENDBRANCH   5   6
ENDBRANCH   4   5
ENDBRANCH   3   4
ENDBRANCH   2   3
ENDBRANCH   1   2
BRANCH   1  23
ATOM     23  C   UNL A   1      49.737  25.188  40.423  1.00  0.00     0.188 C 
BRANCH  23  24
ATOM     24  C   UNL A   1      48.333  25.604  39.930  1.00  0.00     0.188 C 
BRANCH  24  25
ATOM     25  O   UNL A   1      48.255  26.917  39.405  1.00  0.00    -0.376 OA
BRANCH  25  26
ATOM     26  C   UNL A   1      48.311  27.155  38.013  1.00  0.00     0.202 C 
BRANCH  26  27
ATOM     27  C   UNL A   1      48.705  26.012  37.064  1.00  0.00     0.261 C 
BRANCH  27  28
ATOM     28  O   UNL A   1      47.636  25.207  36.568  1.00  0.00    -0.460 OA
BRANCH  28  29
ATOM     29  C   UNL A   1      47.546  25.112  35.226  1.00  0.00     0.338 C 
ATOM     30  O   UNL A   1      48.119  24.300  34.514  1.00  0.00    -0.246 OA
BRANCH  29  31
ATOM     31  C   UNL A   1      46.462  26.006  34.784  1.00  0.00     0.060 A 
ATOM     32  C   UNL A   1      45.142  25.549  34.888  1.00  0.00     0.016 A 
ATOM     33  C   UNL A   1      46.737  27.289  34.302  1.00  0.00     0.016 A 
ATOM     34  C   UNL A   1      44.091  26.373  34.512  1.00  0.00     0.010 A 
ATOM     35  C   UNL A   1      45.682  28.096  33.871  1.00  0.00     0.010 A 
ATOM     36  C   UNL A   1      44.361  27.626  33.949  1.00  0.00    -0.014 A 
BRANCH  36  37
ATOM     37  C   UNL A   1      43.261  28.294  33.220  1.00  0.00     0.031 A 
ATOM     38  C   UNL A   1      43.033  27.892  31.790  1.00  0.00     0.074 A 
ATOM     39  C   UNL A   1      42.422  29.133  33.849  1.00  0.00     0.049 A 
ATOM     40  N   UNL A   1      42.088  28.257  30.964  1.00  0.00    -0.248 NA
ATOM     41  C   UNL A   1      44.001  26.942  31.218  1.00  0.00     0.031 C 
ATOM     42  C   UNL A   1      42.521  29.534  35.252  1.00  0.00     0.029 A 
ATOM     43  N   UNL A   1      41.306  29.783  33.389  1.00  0.00    -0.354 N 
ATOM     44  C   UNL A   1      42.342  27.573  29.781  1.00  0.00     0.074 A 
ATOM     45  C   UNL A   1      43.554  26.810  29.981  1.00  0.00     0.031 C 
ATOM     46  C   UNL A   1      41.501  30.362  35.539  1.00  0.00     0.029 A 
ATOM     47  C   UNL A   1      40.697  30.571  34.335  1.00  0.00     0.049 A 
ATOM     48  H   UNL A   1      40.972  29.693  32.467  1.00  0.00     0.167 HD
ATOM     49  C   UNL A   1      41.618  27.574  28.635  1.00  0.00     0.034 A 
ATOM     50  C   UNL A   1      39.621  31.376  34.231  1.00  0.00     0.034 A 
ATOM     51  C   UNL A   1      40.426  28.362  28.451  1.00  0.00     0.049 A 
ATOM     52  C   UNL A   1      38.888  31.436  32.912  1.00  0.00     0.074 A 
ATOM     53  C   UNL A   1      39.616  28.451  27.333  1.00  0.00     0.029 A 
ATOM     54  N   UNL A   1      39.878  29.211  29.407  1.00  0.00    -0.354 N 
ATOM     55  N   UNL A   1      39.131  30.782  31.796  1.00  0.00    -0.248 NA
ATOM     56  C   UNL A   1      37.725  32.328  32.844  1.00  0.00     0.031 C 
ATOM     57  C   UNL A   1      38.634  29.416  27.581  1.00  0.00     0.029 A 
ATOM     58  C   UNL A   1      38.766  29.857  28.889  1.00  0.00     0.049 A 
ATOM     59  H   UNL A   1      40.231  29.337  30.318  1.00  0.00     0.167 HD
ATOM     60  C   UNL A   1      38.127  31.161  30.907  1.00  0.00     0.074 A 
ATOM     61  C   UNL A   1      37.267  32.079  31.626  1.00  0.00     0.031 C 
ATOM     62  C   UNL A   1      37.928  30.784  29.616  1.00  0.00     0.034 A 
BRANCH  49  63
ATOM     63  C   UNL A   1      42.144  26.749  27.485  1.00  0.00     0.023 A 
ATOM     64  C   UNL A   1      41.794  25.396  27.316  1.00  0.00     0.031 A 
ATOM     65  C   UNL A   1      43.044  27.314  26.565  1.00  0.00     0.131 A 
ATOM     66  C   UNL A   1      42.393  24.641  26.296  1.00  0.00     0.055 A 
ATOM     67  C   UNL A   1      43.570  26.580  25.502  1.00  0.00     0.041 A 
ATOM     68  F   UNL A   1      43.441  28.590  26.694  1.00  0.00    -0.206 F 
ATOM     69  C   UNL A   1      43.257  25.230  25.371  1.00  0.00     0.022 A 
BRANCH  66  70
ATOM     70  S   UNL A   1      42.149  22.842  26.289  1.00  0.00     0.124 S 
ATOM     71  O   UNL A   1      42.887  22.438  27.483  1.00  0.00    -0.237 OA
ATOM     72  O   UNL A   1      40.697  22.722  26.363  1.00  0.00    -0.237 OA
ATOM     73  O   UNL A   1      42.746  22.421  25.023  1.00  0.00    -0.744 OA
ENDBRANCH  66  70
ENDBRANCH  49  63
BRANCH  50  74
ATOM     74  C   UNL A   1      39.187  32.216  35.385  1.00  0.00     0.023 A 
ATOM     75  C   UNL A   1      39.648  33.532  35.551  1.00  0.00     0.031 A 
ATOM     76  C   UNL A   1      38.349  31.684  36.383  1.00  0.00     0.131 A 
ATOM     77  C   UNL A   1      39.314  34.250  36.710  1.00  0.00     0.055 A 
ATOM     78  C   UNL A   1      37.970  32.424  37.504  1.00  0.00     0.041 A 
ATOM     79  F   UNL A   1      37.884  30.429  36.281  1.00  0.00    -0.206 F 
ATOM     80  C   UNL A   1      38.466  33.712  37.679  1.00  0.00     0.022 A 
BRANCH  77  81
ATOM     81  S   UNL A   1      40.087  35.869  36.984  1.00  0.00     0.124 S 
ATOM     82  O   UNL A   1      41.437  35.489  37.384  1.00  0.00    -0.237 OA
ATOM     83  O   UNL A   1      39.957  36.492  35.671  1.00  0.00    -0.237 OA
ATOM     84  O   UNL A   1      39.267  36.464  38.037  1.00  0.00    -0.744 OA
ENDBRANCH  77  81
ENDBRANCH  50  74
BRANCH  62  85
ATOM     85  C   UNL A   1      36.701  31.334  28.923  1.00  0.00     0.023 A 
ATOM     86  C   UNL A   1      35.628  30.506  28.546  1.00  0.00     0.031 A 
ATOM     87  C   UNL A   1      36.620  32.701  28.603  1.00  0.00     0.131 A 
ATOM     88  C   UNL A   1      34.568  31.036  27.794  1.00  0.00     0.055 A 
ATOM     89  C   UNL A   1      35.523  33.237  27.929  1.00  0.00     0.041 A 
ATOM     90  F   UNL A   1      37.614  33.542  28.935  1.00  0.00    -0.206 F 
ATOM     91  C   UNL A   1      34.497  32.400  27.501  1.00  0.00     0.022 A 
BRANCH  88  92
ATOM     92  S   UNL A   1      33.356  29.890  27.080  1.00  0.00     0.124 S 
ATOM     93  O   UNL A   1      33.503  28.721  27.941  1.00  0.00    -0.237 OA
ATOM     94  O   UNL A   1      32.107  30.631  27.218  1.00  0.00    -0.237 OA
ATOM     95  O   UNL A   1      33.822  29.712  25.706  1.00  0.00    -0.744 OA
ENDBRANCH  88  92
ENDBRANCH  62  85
ENDBRANCH  36  37
ENDBRANCH  29  31
ENDBRANCH  28  29
ENDBRANCH  27  28
ENDBRANCH  26  27
ENDBRANCH  25  26
ENDBRANCH  24  25
ENDBRANCH  23  24
ENDBRANCH   1  23
TORSDOF 27
ENDMDL
MODEL 2
REMARK VINA RESULT:      -7.6      6.973     11.493
REMARK SMILES CC(C)CC[C@H](C(=O)OCCOCCOCCOCCOC(=O)c1ccc(-c2c3nc(c(-c4cc(S(=O)(=O)[O-])ccc4F)c4ccc([nH]4)c(-c4cc(S(=O)(=O)[O-])ccc4F)c4nc(c(-c5cc(S(=O)(=O)[O-])ccc5F)c5ccc2[nH]5)C=C4)C=C3)cc1)c1ccc(F)cc1
REMARK SMILES IDX 15 1 14 2 13 3 12 4 11 5 10 6 9 7 7 8 8 9 6 10 5 11 4 12
REMARK SMILES IDX 2 13 1 14 3 15 87 16 88 17 93 18 89 19 92 20 90 21 91 22
REMARK SMILES IDX 16 23 17 24 18 25 19 26 20 27 21 28 22 29 23 30 24 31 25 32
REMARK SMILES IDX 86 33 26 34 85 35 27 36 28 37 29 38 79 39 30 40 84 41 78 42
REMARK SMILES IDX 80 43 31 44 83 45 77 46 76 47 32 49 64 50 44 51 63 52 45 53
REMARK SMILES IDX 48 54 62 55 81 56 46 57 47 58 61 60 82 61 49 62 33 63 34 64
REMARK SMILES IDX 42 65 35 66 41 67 43 68 40 69 36 70 37 71 38 72 39 73 65 74
REMARK SMILES IDX 66 75 74 76 67 77 73 78 75 79 72 80 68 81 69 82 70 83 71 84
REMARK SMILES IDX 50 85 51 86 59 87 52 88 58 89 60 90 57 91 53 92 54 93 55 94
REMARK SMILES IDX 56 95
REMARK H PARENT 80 48 48 59
REMARK Flexibility Score: inf
ROOT
ATOM      1  O   UNL A   1      50.327  22.014  39.000  1.00  0.00    -0.377 OA
ENDROOT
BRANCH   1   2
ATOM      2  C   UNL A   1      50.370  20.958  38.057  1.00  0.00     0.188 C 
BRANCH   2   3
ATOM      3  C   UNL A   1      50.472  19.466  38.468  1.00  0.00     0.188 C 
BRANCH   3   4
ATOM      4  O   UNL A   1      51.143  19.247  39.687  1.00  0.00    -0.376 OA
BRANCH   4   5
ATOM      5  C   UNL A   1      50.722  18.169  40.498  1.00  0.00     0.202 C 
BRANCH   5   6
ATOM      6  C   UNL A   1      49.320  18.205  41.127  1.00  0.00     0.261 C 
BRANCH   6   7
ATOM      7  O   UNL A   1      48.174  17.758  40.363  1.00  0.00    -0.463 OA
BRANCH   7   8
ATOM      8  C   UNL A   1      47.106  18.582  40.191  1.00  0.00     0.313 C 
ATOM      9  O   UNL A   1      46.936  19.611  40.833  1.00  0.00    -0.252 OA
BRANCH   8  10
ATOM     10  C   UNL A   1      46.125  18.016  39.145  1.00  0.00     0.129 C 
BRANCH  10  11
ATOM     11  C   UNL A   1      44.813  17.802  39.959  1.00  0.00     0.020 C 
BRANCH  11  12
ATOM     12  C   UNL A   1      44.649  16.458  40.737  1.00  0.00     0.004 C 
BRANCH  12  13
ATOM     13  C   UNL A   1      44.164  16.583  42.192  1.00  0.00    -0.017 C 
ATOM     14  C   UNL A   1      45.082  15.796  43.128  1.00  0.00     0.007 C 
ATOM     15  C   UNL A   1      44.014  18.020  42.685  1.00  0.00     0.007 C 
ENDBRANCH  12  13
ENDBRANCH  11  12
ENDBRANCH  10  11
BRANCH  10  16
ATOM     16  C   UNL A   1      46.014  18.814  37.823  1.00  0.00    -0.034 A 
ATOM     17  C   UNL A   1      46.523  20.111  37.695  1.00  0.00     0.007 A 
ATOM     18  C   UNL A   1      45.412  18.312  36.665  1.00  0.00     0.007 A 
ATOM     19  C   UNL A   1      46.172  20.969  36.647  1.00  0.00     0.039 A 
ATOM     20  C   UNL A   1      45.014  19.154  35.619  1.00  0.00     0.039 A 
ATOM     21  C   UNL A   1      45.349  20.495  35.648  1.00  0.00     0.123 A 
ATOM     22  F   UNL A   1      44.911  21.322  34.690  1.00  0.00    -0.207 F 
ENDBRANCH  10  16
ENDBRANCH   8  10
ENDBRANCH   7   8
ENDBRANCH   6   7
ENDBRANCH   5   6
ENDBRANCH   4   5
ENDBRANCH   3   4
ENDBRANCH   2   3
ENDBRANCH   1   2
BRANCH   1  23
ATOM     23  C   UNL A   1      49.135  22.206  39.732  1.00  0.00     0.188 C 
BRANCH  23  24
ATOM     24  C   UNL A   1      48.011  23.034  39.071  1.00  0.00     0.188 C 
BRANCH  24  25
ATOM     25  O   UNL A   1      47.169  23.721  39.979  1.00  0.00    -0.376 OA
BRANCH  25  26
ATOM     26  C   UNL A   1      45.763  23.588  39.921  1.00  0.00     0.202 C 
BRANCH  26  27
ATOM     27  C   UNL A   1      44.936  24.613  39.129  1.00  0.00     0.261 C 
BRANCH  27  28
ATOM     28  O   UNL A   1      45.021  24.528  37.707  1.00  0.00    -0.460 OA
BRANCH  28  29
ATOM     29  C   UNL A   1      44.035  25.145  37.023  1.00  0.00     0.338 C 
ATOM     30  O   UNL A   1      43.065  25.715  37.501  1.00  0.00    -0.246 OA
BRANCH  29  31
ATOM     31  C   UNL A   1      44.446  25.217  35.610  1.00  0.00     0.060 A 
ATOM     32  C   UNL A   1      45.574  24.490  35.210  1.00  0.00     0.016 A 
ATOM     33  C   UNL A   1      43.714  25.965  34.684  1.00  0.00     0.016 A 
ATOM     34  C   UNL A   1      45.975  24.506  33.882  1.00  0.00     0.010 A 
ATOM     35  C   UNL A   1      44.152  26.027  33.359  1.00  0.00     0.010 A 
ATOM     36  C   UNL A   1      45.300  25.320  32.965  1.00  0.00    -0.014 A 
BRANCH  36  37
ATOM     37  C   UNL A   1      45.978  25.605  31.682  1.00  0.00     0.031 A 
ATOM     38  C   UNL A   1      47.105  26.599  31.700  1.00  0.00     0.074 A 
ATOM     39  C   UNL A   1      45.681  24.911  30.571  1.00  0.00     0.049 A 
ATOM     40  N   UNL A   1      47.914  26.956  30.739  1.00  0.00    -0.248 NA
ATOM     41  C   UNL A   1      47.357  27.275  32.984  1.00  0.00     0.031 C 
ATOM     42  C   UNL A   1      44.648  23.881  30.469  1.00  0.00     0.029 A 
ATOM     43  N   UNL A   1      46.238  24.958  29.320  1.00  0.00    -0.354 N 
ATOM     44  C   UNL A   1      48.777  27.889  31.303  1.00  0.00     0.074 A 
ATOM     45  C   UNL A   1      48.362  28.077  32.676  1.00  0.00     0.031 C 
ATOM     46  C   UNL A   1      44.649  23.388  29.218  1.00  0.00     0.029 A 
ATOM     47  C   UNL A   1      45.660  24.088  28.426  1.00  0.00     0.049 A 
ATOM     48  H   UNL A   1      46.982  25.557  29.084  1.00  0.00     0.167 HD
ATOM     49  C   UNL A   1      49.828  28.522  30.728  1.00  0.00     0.034 A 
ATOM     50  C   UNL A   1      45.915  23.894  27.117  1.00  0.00     0.034 A 
ATOM     51  C   UNL A   1      50.207  28.336  29.350  1.00  0.00     0.049 A 
ATOM     52  C   UNL A   1      47.029  24.685  26.473  1.00  0.00     0.074 A 
ATOM     53  C   UNL A   1      51.246  28.929  28.655  1.00  0.00     0.029 A 
ATOM     54  N   UNL A   1      49.551  27.504  28.449  1.00  0.00    -0.354 N 
ATOM     55  N   UNL A   1      47.846  25.563  27.014  1.00  0.00    -0.248 NA
ATOM     56  C   UNL A   1      47.269  24.443  25.045  1.00  0.00     0.031 C 
ATOM     57  C   UNL A   1      51.165  28.524  27.319  1.00  0.00     0.029 A 
ATOM     58  C   UNL A   1      50.139  27.599  27.197  1.00  0.00     0.049 A 
ATOM     59  H   UNL A   1      48.780  26.933  28.668  1.00  0.00     0.167 HD
ATOM     60  C   UNL A   1      48.716  25.950  25.998  1.00  0.00     0.074 A 
ATOM     61  C   UNL A   1      48.339  25.192  24.823  1.00  0.00     0.031 C 
ATOM     62  C   UNL A   1      49.738  26.847  26.029  1.00  0.00     0.034 A 
BRANCH  49  63
ATOM     63  C   UNL A   1      50.586  29.514  31.576  1.00  0.00     0.023 A 
ATOM     64  C   UNL A   1      50.217  30.870  31.646  1.00  0.00     0.031 A 
ATOM     65  C   UNL A   1      51.725  29.106  32.292  1.00  0.00     0.131 A 
ATOM     66  C   UNL A   1      51.016  31.777  32.360  1.00  0.00     0.055 A 
ATOM     67  C   UNL A   1      52.466  29.997  33.069  1.00  0.00     0.041 A 
ATOM     68  F   UNL A   1      52.147  27.833  32.236  1.00  0.00    -0.206 F 
ATOM     69  C   UNL A   1      52.122  31.345  33.094  1.00  0.00     0.022 A 
BRANCH  66  70
ATOM     70  S   UNL A   1      50.680  33.553  32.188  1.00  0.00     0.124 S 
ATOM     71  O   UNL A   1      49.269  33.624  32.559  1.00  0.00    -0.237 OA
ATOM     72  O   UNL A   1      51.621  34.143  33.134  1.00  0.00    -0.237 OA
ATOM     73  O   UNL A   1      50.961  33.820  30.779  1.00  0.00    -0.744 OA
ENDBRANCH  66  70
ENDBRANCH  49  63
BRANCH  50  74
ATOM     74  C   UNL A   1      45.089  22.945  26.315  1.00  0.00     0.023 A 
ATOM     75  C   UNL A   1      45.550  21.656  26.002  1.00  0.00     0.031 A 
ATOM     76  C   UNL A   1      43.846  23.343  25.791  1.00  0.00     0.131 A 
ATOM     77  C   UNL A   1      44.800  20.834  25.146  1.00  0.00     0.055 A 
ATOM     78  C   UNL A   1      43.075  22.499  24.990  1.00  0.00     0.041 A 
ATOM     79  F   UNL A   1      43.359  24.567  26.052  1.00  0.00    -0.206 F 
ATOM     80  C   UNL A   1      43.559  21.240  24.651  1.00  0.00     0.022 A 
BRANCH  77  81
ATOM     81  S   UNL A   1      45.517  19.257  24.604  1.00  0.00     0.124 S 
ATOM     82  O   UNL A   1      46.946  19.531  24.707  1.00  0.00    -0.237 OA
ATOM     83  O   UNL A   1      44.969  18.324  25.582  1.00  0.00    -0.237 OA
ATOM     84  O   UNL A   1      45.007  19.101  23.243  1.00  0.00    -0.744 OA
ENDBRANCH  77  81
ENDBRANCH  50  74
BRANCH  62  85
ATOM     85  C   UNL A   1      50.545  27.012  24.761  1.00  0.00     0.023 A 
ATOM     86  C   UNL A   1      50.093  27.804  23.691  1.00  0.00     0.031 A 
ATOM     87  C   UNL A   1      51.769  26.335  24.606  1.00  0.00     0.131 A 
ATOM     88  C   UNL A   1      50.811  27.827  22.486  1.00  0.00     0.055 A 
ATOM     89  C   UNL A   1      52.521  26.430  23.435  1.00  0.00     0.041 A 
ATOM     90  F   UNL A   1      52.252  25.561  25.592  1.00  0.00    -0.206 F 
ATOM     91  C   UNL A   1      52.033  27.163  22.357  1.00  0.00     0.022 A 
BRANCH  88  92
ATOM     92  S   UNL A   1      50.053  28.620  21.040  1.00  0.00     0.124 S 
ATOM     93  O   UNL A   1      50.355  30.028  21.276  1.00  0.00    -0.237 OA
ATOM     94  O   UNL A   1      50.765  27.993  19.932  1.00  0.00    -0.237 OA
ATOM     95  O   UNL A   1      48.641  28.260  21.154  1.00  0.00    -0.744 OA
ENDBRANCH  88  92
ENDBRANCH  62  85
ENDBRANCH  36  37
ENDBRANCH  29  31
ENDBRANCH  28  29
ENDBRANCH  27  28
ENDBRANCH  26  27
ENDBRANCH  25  26
ENDBRANCH  24  25
ENDBRANCH  23  24
ENDBRANCH   1  23
TORSDOF 27
ENDMDL
MODEL 3
REMARK VINA RESULT:      -7.6      9.012     14.329
REMARK SMILES CC(C)CC[C@H](C(=O)OCCOCCOCCOCCOC(=O)c1ccc(-c2c3nc(c(-c4cc(S(=O)(=O)[O-])ccc4F)c4ccc([nH]4)c(-c4cc(S(=O)(=O)[O-])ccc4F)c4nc(c(-c5cc(S(=O)(=O)[O-])ccc5F)c5ccc2[nH]5)C=C4)C=C3)cc1)c1ccc(F)cc1
REMARK SMILES IDX 15 1 14 2 13 3 12 4 11 5 10 6 9 7 7 8 8 9 6 10 5 11 4 12
REMARK SMILES IDX 2 13 1 14 3 15 87 16 88 17 93 18 89 19 92 20 90 21 91 22
REMARK SMILES IDX 16 23 17 24 18 25 19 26 20 27 21 28 22 29 23 30 24 31 25 32
REMARK SMILES IDX 86 33 26 34 85 35 27 36 28 37 29 38 79 39 30 40 84 41 78 42
REMARK SMILES IDX 80 43 31 44 83 45 77 46 76 47 32 49 64 50 44 51 63 52 45 53
REMARK SMILES IDX 48 54 62 55 81 56 46 57 47 58 61 60 82 61 49 62 33 63 34 64
REMARK SMILES IDX 42 65 35 66 41 67 43 68 40 69 36 70 37 71 38 72 39 73 65 74
REMARK SMILES IDX 66 75 74 76 67 77 73 78 75 79 72 80 68 81 69 82 70 83 71 84
REMARK SMILES IDX 50 85 51 86 59 87 52 88 58 89 60 90 57 91 53 92 54 93 55 94
REMARK SMILES IDX 56 95
REMARK H PARENT 80 48 48 59
REMARK Flexibility Score: inf
ROOT
ATOM      1  O   UNL A   1      49.849  40.571  30.145  1.00  0.00    -0.377 OA
ENDROOT
BRANCH   1   2
ATOM      2  C   UNL A   1      50.924  39.744  29.738  1.00  0.00     0.188 C 
BRANCH   2   3
ATOM      3  C   UNL A   1      50.937  38.209  29.960  1.00  0.00     0.188 C 
BRANCH   3   4
ATOM      4  O   UNL A   1      51.940  37.761  30.843  1.00  0.00    -0.376 OA
BRANCH   4   5
ATOM      5  C   UNL A   1      52.921  36.875  30.346  1.00  0.00     0.202 C 
BRANCH   5   6
ATOM      6  C   UNL A   1      52.601  35.374  30.255  1.00  0.00     0.261 C 
BRANCH   6   7
ATOM      7  O   UNL A   1      51.514  34.918  29.415  1.00  0.00    -0.463 OA
BRANCH   7   8
ATOM      8  C   UNL A   1      50.396  34.385  29.976  1.00  0.00     0.313 C 
ATOM      9  O   UNL A   1      50.175  34.390  31.180  1.00  0.00    -0.252 OA
BRANCH   8  10
ATOM     10  C   UNL A   1      49.495  33.726  28.911  1.00  0.00     0.129 C 
BRANCH  10  11
ATOM     11  C   UNL A   1      48.816  32.556  29.687  1.00  0.00     0.020 C 
BRANCH  11  12
ATOM     12  C   UNL A   1      49.285  31.101  29.369  1.00  0.00     0.004 C 
BRANCH  12  13
ATOM     13  C   UNL A   1      50.400  30.975  28.315  1.00  0.00    -0.017 C 
ATOM     14  C   UNL A   1      51.016  29.575  28.358  1.00  0.00     0.007 C 
ATOM     15  C   UNL A   1      49.965  31.317  26.893  1.00  0.00     0.007 C 
ENDBRANCH  12  13
ENDBRANCH  11  12
ENDBRANCH  10  11
BRANCH  10  16
ATOM     16  C   UNL A   1      48.567  34.685  28.126  1.00  0.00    -0.034 A 
ATOM     17  C   UNL A   1      47.752  34.238  27.082  1.00  0.00     0.007 A 
ATOM     18  C   UNL A   1      48.466  36.054  28.395  1.00  0.00     0.007 A 
ATOM     19  C   UNL A   1      47.153  35.101  26.158  1.00  0.00     0.039 A 
ATOM     20  C   UNL A   1      47.909  36.946  27.469  1.00  0.00     0.039 A 
ATOM     21  C   UNL A   1      47.304  36.461  26.323  1.00  0.00     0.123 A 
ATOM     22  F   UNL A   1      46.834  37.308  25.399  1.00  0.00    -0.207 F 
ENDBRANCH  10  16
ENDBRANCH   8  10
ENDBRANCH   7   8
ENDBRANCH   6   7
ENDBRANCH   5   6
ENDBRANCH   4   5
ENDBRANCH   3   4
ENDBRANCH   2   3
ENDBRANCH   1   2
BRANCH   1  23
ATOM     23  C   UNL A   1      49.842  41.051  31.473  1.00  0.00     0.188 C 
BRANCH  23  24
ATOM     24  C   UNL A   1      48.753  40.511  32.426  1.00  0.00     0.188 C 
BRANCH  24  25
ATOM     25  O   UNL A   1      47.554  40.109  31.789  1.00  0.00    -0.376 OA
BRANCH  25  26
ATOM     26  C   UNL A   1      46.684  39.171  32.388  1.00  0.00     0.202 C 
BRANCH  26  27
ATOM     27  C   UNL A   1      45.424  38.717  31.635  1.00  0.00     0.261 C 
BRANCH  27  28
ATOM     28  O   UNL A   1      45.455  37.398  31.090  1.00  0.00    -0.460 OA
BRANCH  28  29
ATOM     29  C   UNL A   1      45.068  37.285  29.803  1.00  0.00     0.338 C 
ATOM     30  O   UNL A   1      45.020  38.185  28.977  1.00  0.00    -0.246 OA
BRANCH  29  31
ATOM     31  C   UNL A   1      44.935  35.849  29.499  1.00  0.00     0.060 A 
ATOM     32  C   UNL A   1      44.214  35.478  28.358  1.00  0.00     0.016 A 
ATOM     33  C   UNL A   1      45.537  34.883  30.310  1.00  0.00     0.016 A 
ATOM     34  C   UNL A   1      44.092  34.138  28.020  1.00  0.00     0.010 A 
ATOM     35  C   UNL A   1      45.366  33.532  30.001  1.00  0.00     0.010 A 
ATOM     36  C   UNL A   1      44.618  33.159  28.871  1.00  0.00    -0.014 A 
BRANCH  36  37
ATOM     37  C   UNL A   1      44.142  31.771  28.686  1.00  0.00     0.031 A 
ATOM     38  C   UNL A   1      42.812  31.409  29.284  1.00  0.00     0.074 A 
ATOM     39  C   UNL A   1      44.813  30.906  27.908  1.00  0.00     0.049 A 
ATOM     40  N   UNL A   1      42.133  30.297  29.190  1.00  0.00    -0.248 NA
ATOM     41  C   UNL A   1      42.156  32.451  30.092  1.00  0.00     0.031 C 
ATOM     42  C   UNL A   1      46.079  31.184  27.231  1.00  0.00     0.029 A 
ATOM     43  N   UNL A   1      44.508  29.621  27.542  1.00  0.00    -0.354 N 
ATOM     44  C   UNL A   1      40.967  30.509  29.917  1.00  0.00     0.074 A 
ATOM     45  C   UNL A   1      41.053  31.836  30.484  1.00  0.00     0.031 C 
ATOM     46  C   UNL A   1      46.441  30.098  26.526  1.00  0.00     0.029 A 
ATOM     47  C   UNL A   1      45.450  29.042  26.725  1.00  0.00     0.049 A 
ATOM     48  H   UNL A   1      43.691  29.157  27.835  1.00  0.00     0.167 HD
ATOM     49  C   UNL A   1      39.913  29.672  30.084  1.00  0.00     0.034 A 
ATOM     50  C   UNL A   1      45.505  27.796  26.212  1.00  0.00     0.034 A 
ATOM     51  C   UNL A   1      39.861  28.343  29.528  1.00  0.00     0.049 A 
ATOM     52  C   UNL A   1      44.364  26.847  26.495  1.00  0.00     0.074 A 
ATOM     53  C   UNL A   1      38.853  27.402  29.639  1.00  0.00     0.029 A 
ATOM     54  N   UNL A   1      40.869  27.758  28.769  1.00  0.00    -0.354 N 
ATOM     55  N   UNL A   1      43.260  27.056  27.180  1.00  0.00    -0.248 NA
ATOM     56  C   UNL A   1      44.467  25.502  25.919  1.00  0.00     0.031 C 
ATOM     57  C   UNL A   1      39.287  26.224  29.023  1.00  0.00     0.029 A 
ATOM     58  C   UNL A   1      40.522  26.457  28.439  1.00  0.00     0.049 A 
ATOM     59  H   UNL A   1      41.707  28.202  28.506  1.00  0.00     0.167 HD
ATOM     60  C   UNL A   1      42.525  25.876  27.085  1.00  0.00     0.074 A 
ATOM     61  C   UNL A   1      43.301  24.974  26.258  1.00  0.00     0.031 C 
ATOM     62  C   UNL A   1      41.317  25.563  27.626  1.00  0.00     0.034 A 
BRANCH  49  63
ATOM     63  C   UNL A   1      38.777  30.155  30.953  1.00  0.00     0.023 A 
ATOM     64  C   UNL A   1      37.670  30.840  30.419  1.00  0.00     0.031 A 
ATOM     65  C   UNL A   1      38.824  29.965  32.345  1.00  0.00     0.131 A 
ATOM     66  C   UNL A   1      36.693  31.366  31.278  1.00  0.00     0.055 A 
ATOM     67  C   UNL A   1      37.806  30.416  33.185  1.00  0.00     0.041 A 
ATOM     68  F   UNL A   1      39.872  29.349  32.915  1.00  0.00    -0.206 F 
ATOM     69  C   UNL A   1      36.738  31.134  32.655  1.00  0.00     0.022 A 
BRANCH  66  70
ATOM     70  S   UNL A   1      35.443  32.488  30.590  1.00  0.00     0.124 S 
ATOM     71  O   UNL A   1      36.214  33.716  30.413  1.00  0.00    -0.237 OA
ATOM     72  O   UNL A   1      35.043  31.802  29.367  1.00  0.00    -0.237 OA
ATOM     73  O   UNL A   1      34.422  32.547  31.636  1.00  0.00    -0.744 OA
ENDBRANCH  66  70
ENDBRANCH  49  63
BRANCH  50  74
ATOM     74  C   UNL A   1      46.685  27.356  25.412  1.00  0.00     0.023 A 
ATOM     75  C   UNL A   1      46.910  27.835  24.112  1.00  0.00     0.031 A 
ATOM     76  C   UNL A   1      47.573  26.389  25.919  1.00  0.00     0.131 A 
ATOM     77  C   UNL A   1      47.962  27.309  23.345  1.00  0.00     0.055 A 
ATOM     78  C   UNL A   1      48.653  25.914  25.175  1.00  0.00     0.041 A 
ATOM     79  F   UNL A   1      47.402  25.890  27.154  1.00  0.00    -0.206 F 
ATOM     80  C   UNL A   1      48.844  26.364  23.872  1.00  0.00     0.022 A 
BRANCH  77  81
ATOM     81  S   UNL A   1      48.103  27.804  21.605  1.00  0.00     0.124 S 
ATOM     82  O   UNL A   1      49.057  28.904  21.686  1.00  0.00    -0.237 OA
ATOM     83  O   UNL A   1      48.586  26.579  20.980  1.00  0.00    -0.237 OA
ATOM     84  O   UNL A   1      46.738  28.186  21.248  1.00  0.00    -0.744 OA
ENDBRANCH  77  81
ENDBRANCH  50  74
BRANCH  62  85
ATOM     85  C   UNL A   1      40.748  24.203  27.292  1.00  0.00     0.023 A 
ATOM     86  C   UNL A   1      39.648  24.049  26.430  1.00  0.00     0.031 A 
ATOM     87  C   UNL A   1      41.293  23.044  27.876  1.00  0.00     0.131 A 
ATOM     88  C   UNL A   1      39.074  22.781  26.248  1.00  0.00     0.055 A 
ATOM     89  C   UNL A   1      40.769  21.776  27.623  1.00  0.00     0.041 A 
ATOM     90  F   UNL A   1      42.343  23.126  28.709  1.00  0.00    -0.206 F 
ATOM     91  C   UNL A   1      39.640  21.640  26.821  1.00  0.00     0.022 A 
BRANCH  88  92
ATOM     92  S   UNL A   1      37.492  22.665  25.368  1.00  0.00     0.124 S 
ATOM     93  O   UNL A   1      36.644  22.008  26.358  1.00  0.00    -0.237 OA
ATOM     94  O   UNL A   1      37.184  24.064  25.093  1.00  0.00    -0.237 OA
ATOM     95  O   UNL A   1      37.813  21.858  24.192  1.00  0.00    -0.744 OA
ENDBRANCH  88  92
ENDBRANCH  62  85
ENDBRANCH  36  37
ENDBRANCH  29  31
ENDBRANCH  28  29
ENDBRANCH  27  28
ENDBRANCH  26  27
ENDBRANCH  25  26
ENDBRANCH  24  25
ENDBRANCH  23  24
ENDBRANCH   1  23
TORSDOF 27
ENDMDL
