MODEL 1
REMARK VINA RESULT:     -10.2      0.000      0.000
REMARK SMILES O=C(OCCOCCOCCOCCOC(=O)[C@@H]1[C@H](C(=O)Nc2ccccc2Cc2ccccc2)[C@H]2C=C[C@@H]1O2)c1ccc(-c2c3nc(c(-c4cc(S(=O)(=O)[O-])ccc4F)c4ccc([nH]4)c(-c4cc(S(=O)(=O)[O-])ccc4F)c4nc(c(-c5cc(S(=O)(=O)[O-])ccc5F)c5ccc2[nH]5)C=C4)C=C3)cc1
REMARK SMILES IDX 10 1 9 2 8 3 7 4 6 5 5 6 4 7 3 8 2 9 1 10 41 11 42 12 103 13
REMARK SMILES IDX 43 14 102 15 44 16 45 17 46 18 96 19 47 20 101 21 95 22
REMARK SMILES IDX 97 23 48 24 100 25 94 26 93 27 49 29 81 30 61 31 80 32 62 33
REMARK SMILES IDX 65 34 79 35 98 36 63 37 64 38 78 40 99 41 66 42 50 43 51 44
REMARK SMILES IDX 59 45 52 46 58 47 60 48 57 49 53 50 54 51 55 52 56 53 82 54
REMARK SMILES IDX 83 55 91 56 84 57 90 58 92 59 89 60 85 61 86 62 87 63 88 64
REMARK SMILES IDX 67 65 68 66 76 67 69 68 75 69 77 70 74 71 70 72 71 73 72 74
REMARK SMILES IDX 73 75 11 76 12 77 13 78 14 79 15 80 16 81 17 82 18 83 19 84
REMARK SMILES IDX 39 85 36 86 38 87 40 88 37 89 20 90 21 91 22 92 23 94 24 95
REMARK SMILES IDX 28 96 25 97 27 98 26 99 29 100 30 101 31 102 35 103 32 104
REMARK SMILES IDX 34 105 33 106
REMARK H PARENT 97 28 65 39 22 93
REMARK Flexibility Score: inf
ROOT
ATOM      1  C   UNL A   1      33.680  34.281  28.289  1.00  0.00     0.188 C 
ENDROOT
BRANCH   1   2
ATOM      2  O   UNL A   1      33.221  34.882  29.494  1.00  0.00    -0.377 OA
BRANCH   2   3
ATOM      3  C   UNL A   1      33.807  34.818  30.771  1.00  0.00     0.188 C 
BRANCH   3   4
ATOM      4  C   UNL A   1      34.649  33.641  31.163  1.00  0.00     0.188 C 
BRANCH   4   5
ATOM      5  O   UNL A   1      34.154  33.070  32.341  1.00  0.00    -0.376 OA
BRANCH   5   6
ATOM      6  C   UNL A   1      35.109  32.855  33.373  1.00  0.00     0.202 C 
BRANCH   6   7
ATOM      7  C   UNL A   1      36.553  32.917  32.865  1.00  0.00     0.261 C 
BRANCH   7   8
ATOM      8  O   UNL A   1      37.311  31.810  33.396  1.00  0.00    -0.460 OA
BRANCH   8   9
ATOM      9  C   UNL A   1      37.398  30.666  32.669  1.00  0.00     0.338 C 
ATOM     10  O   UNL A   1      36.675  29.679  32.746  1.00  0.00    -0.246 OA
BRANCH   9  11
ATOM     11  C   UNL A   1      38.621  30.786  31.842  1.00  0.00     0.060 A 
ATOM     12  C   UNL A   1      39.784  31.191  32.498  1.00  0.00     0.016 A 
ATOM     13  C   UNL A   1      38.666  30.566  30.466  1.00  0.00     0.016 A 
ATOM     14  C   UNL A   1      40.959  31.431  31.848  1.00  0.00     0.010 A 
ATOM     15  C   UNL A   1      39.867  30.826  29.777  1.00  0.00     0.010 A 
ATOM     16  C   UNL A   1      41.003  31.274  30.478  1.00  0.00    -0.014 A 
BRANCH  16  17
ATOM     17  C   UNL A   1      42.191  31.896  29.879  1.00  0.00     0.031 A 
ATOM     18  C   UNL A   1      43.198  30.960  29.286  1.00  0.00     0.074 A 
ATOM     19  C   UNL A   1      42.186  33.205  29.566  1.00  0.00     0.049 A 
ATOM     20  N   UNL A   1      44.347  31.228  28.740  1.00  0.00    -0.248 NA
ATOM     21  C   UNL A   1      42.843  29.525  29.277  1.00  0.00     0.031 C 
ATOM     22  C   UNL A   1      41.082  34.131  29.832  1.00  0.00     0.029 A 
ATOM     23  N   UNL A   1      43.106  33.976  28.913  1.00  0.00    -0.354 N 
ATOM     24  C   UNL A   1      44.882  29.996  28.386  1.00  0.00     0.074 A 
ATOM     25  C   UNL A   1      43.914  28.983  28.724  1.00  0.00     0.031 C 
ATOM     26  C   UNL A   1      41.387  35.341  29.334  1.00  0.00     0.029 A 
ATOM     27  C   UNL A   1      42.756  35.307  28.842  1.00  0.00     0.049 A 
ATOM     28  H   UNL A   1      43.937  33.615  28.529  1.00  0.00     0.167 HD
ATOM     29  C   UNL A   1      46.108  29.755  27.875  1.00  0.00     0.034 A 
ATOM     30  C   UNL A   1      43.512  36.372  28.510  1.00  0.00     0.034 A 
ATOM     31  C   UNL A   1      47.038  30.812  27.593  1.00  0.00     0.049 A 
ATOM     32  C   UNL A   1      44.952  36.084  28.138  1.00  0.00     0.074 A 
ATOM     33  C   UNL A   1      48.360  30.724  27.209  1.00  0.00     0.029 A 
ATOM     34  N   UNL A   1      46.729  32.166  27.680  1.00  0.00    -0.354 N 
ATOM     35  N   UNL A   1      45.542  34.920  27.966  1.00  0.00    -0.248 NA
ATOM     36  C   UNL A   1      45.833  37.239  27.946  1.00  0.00     0.031 C 
ATOM     37  C   UNL A   1      48.874  32.023  27.150  1.00  0.00     0.029 A 
ATOM     38  C   UNL A   1      47.846  32.925  27.393  1.00  0.00     0.049 A 
ATOM     39  H   UNL A   1      45.845  32.529  27.912  1.00  0.00     0.167 HD
ATOM     40  C   UNL A   1      46.858  35.209  27.617  1.00  0.00     0.074 A 
ATOM     41  C   UNL A   1      46.962  36.654  27.579  1.00  0.00     0.031 C 
ATOM     42  C   UNL A   1      47.893  34.368  27.359  1.00  0.00     0.034 A 
BRANCH  29  43
ATOM     43  C   UNL A   1      46.535  28.319  27.790  1.00  0.00     0.023 A 
ATOM     44  C   UNL A   1      46.250  27.511  26.677  1.00  0.00     0.031 A 
ATOM     45  C   UNL A   1      47.152  27.722  28.904  1.00  0.00     0.131 A 
ATOM     46  C   UNL A   1      46.530  26.136  26.730  1.00  0.00     0.055 A 
ATOM     47  C   UNL A   1      47.500  26.372  28.918  1.00  0.00     0.041 A 
ATOM     48  F   UNL A   1      47.395  28.437  30.015  1.00  0.00    -0.206 F 
ATOM     49  C   UNL A   1      47.179  25.568  27.830  1.00  0.00     0.022 A 
BRANCH  46  50
ATOM     50  S   UNL A   1      45.904  25.070  25.402  1.00  0.00     0.124 S 
ATOM     51  O   UNL A   1      44.621  25.698  25.100  1.00  0.00    -0.237 OA
ATOM     52  O   UNL A   1      46.934  25.199  24.379  1.00  0.00    -0.237 OA
ATOM     53  O   UNL A   1      45.813  23.755  26.033  1.00  0.00    -0.744 OA
ENDBRANCH  46  50
ENDBRANCH  29  43
BRANCH  30  54
ATOM     54  C   UNL A   1      43.022  37.780  28.665  1.00  0.00     0.023 A 
ATOM     55  C   UNL A   1      42.223  38.388  27.683  1.00  0.00     0.031 A 
ATOM     56  C   UNL A   1      43.464  38.591  29.731  1.00  0.00     0.131 A 
ATOM     57  C   UNL A   1      41.963  39.769  27.739  1.00  0.00     0.055 A 
ATOM     58  C   UNL A   1      43.134  39.946  29.825  1.00  0.00     0.041 A 
ATOM     59  F   UNL A   1      44.254  38.089  30.692  1.00  0.00    -0.206 F 
ATOM     60  C   UNL A   1      42.399  40.548  28.812  1.00  0.00     0.022 A 
BRANCH  57  61
ATOM     61  S   UNL A   1      41.189  40.568  26.304  1.00  0.00     0.124 S 
ATOM     62  O   UNL A   1      42.295  41.357  25.776  1.00  0.00    -0.237 OA
ATOM     63  O   UNL A   1      40.779  39.419  25.504  1.00  0.00    -0.237 OA
ATOM     64  O   UNL A   1      40.096  41.340  26.892  1.00  0.00    -0.744 OA
ENDBRANCH  57  61
ENDBRANCH  30  54
BRANCH  42  65
ATOM     65  C   UNL A   1      49.196  34.998  26.949  1.00  0.00     0.023 A 
ATOM     66  C   UNL A   1      50.195  35.306  27.886  1.00  0.00     0.031 A 
ATOM     67  C   UNL A   1      49.444  35.270  25.592  1.00  0.00     0.131 A 
ATOM     68  C   UNL A   1      51.379  35.919  27.458  1.00  0.00     0.055 A 
ATOM     69  C   UNL A   1      50.654  35.810  25.164  1.00  0.00     0.041 A 
ATOM     70  F   UNL A   1      48.519  34.994  24.658  1.00  0.00    -0.206 F 
ATOM     71  C   UNL A   1      51.625  36.150  26.102  1.00  0.00     0.022 A 
BRANCH  68  72
ATOM     72  S   UNL A   1      52.552  36.502  28.710  1.00  0.00     0.124 S 
ATOM     73  O   UNL A   1      52.103  35.788  29.900  1.00  0.00    -0.237 OA
ATOM     74  O   UNL A   1      53.834  36.078  28.158  1.00  0.00    -0.237 OA
ATOM     75  O   UNL A   1      52.335  37.947  28.735  1.00  0.00    -0.744 OA
ENDBRANCH  68  72
ENDBRANCH  42  65
ENDBRANCH  16  17
ENDBRANCH   9  11
ENDBRANCH   8   9
ENDBRANCH   7   8
ENDBRANCH   6   7
ENDBRANCH   5   6
ENDBRANCH   4   5
ENDBRANCH   3   4
ENDBRANCH   2   3
ENDBRANCH   1   2
BRANCH   1  76
ATOM     76  C   UNL A   1      34.661  32.997  27.845  1.00  0.00     0.188 C 
BRANCH  76  77
ATOM     77  O   UNL A   1      34.555  31.008  27.822  1.00  0.00    -0.376 OA
BRANCH  77  78
ATOM     78  C   UNL A   1      34.000  29.704  27.259  1.00  0.00     0.202 C 
BRANCH  78  79
ATOM     79  C   UNL A   1      32.481  29.198  27.268  1.00  0.00     0.261 C 
BRANCH  79  80
ATOM     80  O   UNL A   1      32.192  27.801  26.939  1.00  0.00    -0.463 OA
BRANCH  80  81
ATOM     81  C   UNL A   1      32.843  27.058  26.006  1.00  0.00     0.312 C 
ATOM     82  O   UNL A   1      34.061  26.902  26.021  1.00  0.00    -0.252 OA
BRANCH  81  83
ATOM     83  C   UNL A   1      31.953  26.382  24.865  1.00  0.00     0.147 C 
ATOM     84  C   UNL A   1      31.442  25.014  25.311  1.00  0.00     0.129 C 
ATOM     85  C   UNL A   1      32.254  26.042  23.355  1.00  0.00     0.157 C 
ATOM     86  C   UNL A   1      31.380  24.168  24.043  1.00  0.00     0.155 C 
ATOM     87  C   UNL A   1      31.001  25.853  22.552  1.00  0.00     0.004 C 
ATOM     88  O   UNL A   1      32.585  24.610  23.404  1.00  0.00    -0.365 OA
ATOM     89  C   UNL A   1      30.434  24.727  23.009  1.00  0.00     0.004 C 
BRANCH  84  90
ATOM     90  C   UNL A   1      32.244  24.427  26.448  1.00  0.00     0.231 C 
ATOM     91  O   UNL A   1      31.661  24.409  27.549  1.00  0.00    -0.274 OA
ATOM     92  N   UNL A   1      33.494  23.911  26.500  1.00  0.00    -0.325 N 
ATOM     93  H   UNL A   1      33.747  23.810  27.446  1.00  0.00     0.169 HD
BRANCH  92  94
ATOM     94  C   UNL A   1      34.576  23.460  25.695  1.00  0.00     0.044 A 
ATOM     95  C   UNL A   1      35.721  24.247  26.009  1.00  0.00     0.026 A 
ATOM     96  C   UNL A   1      34.743  22.407  24.757  1.00  0.00    -0.020 A 
ATOM     97  C   UNL A   1      37.015  23.888  25.650  1.00  0.00     0.002 A 
ATOM     98  C   UNL A   1      36.083  22.028  24.501  1.00  0.00     0.006 A 
ATOM     99  C   UNL A   1      37.201  22.727  24.945  1.00  0.00     0.000 A 
BRANCH  96 100
ATOM    100  C   UNL A   1      33.708  21.449  24.177  1.00  0.00     0.073 C 
BRANCH 100 101
ATOM    101  C   UNL A   1      33.622  19.924  23.977  1.00  0.00    -0.044 A 
ATOM    102  C   UNL A   1      34.884  18.828  24.773  1.00  0.00     0.004 A 
ATOM    103  C   UNL A   1      32.389  19.129  22.909  1.00  0.00     0.004 A 
ATOM    104  C   UNL A   1      34.823  17.026  24.582  1.00  0.00     0.000 A 
ATOM    105  C   UNL A   1      32.395  17.347  22.677  1.00  0.00     0.000 A 
ATOM    106  C   UNL A   1      33.606  16.309  23.497  1.00  0.00     0.000 A 
ENDBRANCH 100 101
ENDBRANCH  96 100
ENDBRANCH  92  94
ENDBRANCH  84  90
ENDBRANCH  81  83
ENDBRANCH  80  81
ENDBRANCH  79  80
ENDBRANCH  78  79
ENDBRANCH  77  78
ENDBRANCH  76  77
ENDBRANCH   1  76
TORSDOF 27
ENDMDL
MODEL 2
REMARK VINA RESULT:      -9.9      1.583      1.996
REMARK SMILES O=C(OCCOCCOCCOCCOC(=O)[C@@H]1[C@H](C(=O)Nc2ccccc2Cc2ccccc2)[C@H]2C=C[C@@H]1O2)c1ccc(-c2c3nc(c(-c4cc(S(=O)(=O)[O-])ccc4F)c4ccc([nH]4)c(-c4cc(S(=O)(=O)[O-])ccc4F)c4nc(c(-c5cc(S(=O)(=O)[O-])ccc5F)c5ccc2[nH]5)C=C4)C=C3)cc1
REMARK SMILES IDX 10 1 9 2 8 3 7 4 6 5 5 6 4 7 3 8 2 9 1 10 41 11 42 12 103 13
REMARK SMILES IDX 43 14 102 15 44 16 45 17 46 18 96 19 47 20 101 21 95 22
REMARK SMILES IDX 97 23 48 24 100 25 94 26 93 27 49 29 81 30 61 31 80 32 62 33
REMARK SMILES IDX 65 34 79 35 98 36 63 37 64 38 78 40 99 41 66 42 50 43 51 44
REMARK SMILES IDX 59 45 52 46 58 47 60 48 57 49 53 50 54 51 55 52 56 53 82 54
REMARK SMILES IDX 83 55 91 56 84 57 90 58 92 59 89 60 85 61 86 62 87 63 88 64
REMARK SMILES IDX 67 65 68 66 76 67 69 68 75 69 77 70 74 71 70 72 71 73 72 74
REMARK SMILES IDX 73 75 11 76 12 77 13 78 14 79 15 80 16 81 17 82 18 83 19 84
REMARK SMILES IDX 39 85 36 86 38 87 40 88 37 89 20 90 21 91 22 92 23 94 24 95
REMARK SMILES IDX 28 96 25 97 27 98 26 99 29 100 30 101 31 102 35 103 32 104
REMARK SMILES IDX 34 105 33 106
REMARK H PARENT 97 28 65 39 22 93
REMARK Flexibility Score: inf
ROOT
ATOM      1  C   UNL A   1      34.000  32.124  27.920  1.00  0.00     0.188 C 
ENDROOT
BRANCH   1   2
ATOM      2  O   UNL A   1      34.062  33.230  28.812  1.00  0.00    -0.377 OA
BRANCH   2   3
ATOM      3  C   UNL A   1      34.754  33.319  30.034  1.00  0.00     0.188 C 
BRANCH   3   4
ATOM      4  C   UNL A   1      34.485  34.451  30.980  1.00  0.00     0.188 C 
BRANCH   4   5
ATOM      5  O   UNL A   1      34.118  33.950  32.234  1.00  0.00    -0.376 OA
BRANCH   5   6
ATOM      6  C   UNL A   1      34.542  32.622  32.519  1.00  0.00     0.202 C 
BRANCH   6   7
ATOM      7  C   UNL A   1      35.923  32.572  33.183  1.00  0.00     0.261 C 
BRANCH   7   8
ATOM      8  O   UNL A   1      36.761  31.614  32.504  1.00  0.00    -0.460 OA
BRANCH   8   9
ATOM      9  C   UNL A   1      37.809  31.068  33.173  1.00  0.00     0.338 C 
ATOM     10  O   UNL A   1      37.828  30.678  34.336  1.00  0.00    -0.246 OA
BRANCH   9  11
ATOM     11  C   UNL A   1      38.975  31.143  32.264  1.00  0.00     0.060 A 
ATOM     12  C   UNL A   1      40.200  31.477  32.842  1.00  0.00     0.016 A 
ATOM     13  C   UNL A   1      38.913  30.948  30.885  1.00  0.00     0.016 A 
ATOM     14  C   UNL A   1      41.338  31.671  32.114  1.00  0.00     0.010 A 
ATOM     15  C   UNL A   1      40.074  31.162  30.116  1.00  0.00     0.010 A 
ATOM     16  C   UNL A   1      41.278  31.539  30.742  1.00  0.00    -0.014 A 
BRANCH  16  17
ATOM     17  C   UNL A   1      42.451  32.113  30.071  1.00  0.00     0.031 A 
ATOM     18  C   UNL A   1      43.437  31.134  29.512  1.00  0.00     0.074 A 
ATOM     19  C   UNL A   1      42.443  33.399  29.673  1.00  0.00     0.049 A 
ATOM     20  N   UNL A   1      44.571  31.358  28.917  1.00  0.00    -0.248 NA
ATOM     21  C   UNL A   1      43.074  29.704  29.607  1.00  0.00     0.031 C 
ATOM     22  C   UNL A   1      41.352  34.347  29.908  1.00  0.00     0.029 A 
ATOM     23  N   UNL A   1      43.347  34.120  28.945  1.00  0.00    -0.354 N 
ATOM     24  C   UNL A   1      45.090  30.103  28.630  1.00  0.00     0.074 A 
ATOM     25  C   UNL A   1      44.127  29.119  29.061  1.00  0.00     0.031 C 
ATOM     26  C   UNL A   1      41.647  35.521  29.324  1.00  0.00     0.029 A 
ATOM     27  C   UNL A   1      43.002  35.446  28.798  1.00  0.00     0.049 A 
ATOM     28  H   UNL A   1      44.166  33.729  28.562  1.00  0.00     0.167 HD
ATOM     29  C   UNL A   1      46.300  29.820  28.102  1.00  0.00     0.034 A 
ATOM     30  C   UNL A   1      43.753  36.482  28.375  1.00  0.00     0.034 A 
ATOM     31  C   UNL A   1      47.226  30.851  27.725  1.00  0.00     0.049 A 
ATOM     32  C   UNL A   1      45.180  36.161  27.982  1.00  0.00     0.074 A 
ATOM     33  C   UNL A   1      48.536  30.729  27.311  1.00  0.00     0.029 A 
ATOM     34  N   UNL A   1      46.926  32.210  27.732  1.00  0.00    -0.354 N 
ATOM     35  N   UNL A   1      45.761  34.984  27.870  1.00  0.00    -0.248 NA
ATOM     36  C   UNL A   1      46.062  37.295  27.691  1.00  0.00     0.031 C 
ATOM     37  C   UNL A   1      49.054  32.018  27.152  1.00  0.00     0.029 A 
ATOM     38  C   UNL A   1      48.038  32.941  27.365  1.00  0.00     0.049 A 
ATOM     39  H   UNL A   1      46.050  32.593  27.965  1.00  0.00     0.167 HD
ATOM     40  C   UNL A   1      47.067  35.241  27.466  1.00  0.00     0.074 A 
ATOM     41  C   UNL A   1      47.177  36.680  27.331  1.00  0.00     0.031 C 
ATOM     42  C   UNL A   1      48.090  34.378  27.234  1.00  0.00     0.034 A 
BRANCH  29  43
ATOM     43  C   UNL A   1      46.717  28.379  28.099  1.00  0.00     0.023 A 
ATOM     44  C   UNL A   1      46.454  27.518  27.020  1.00  0.00     0.031 A 
ATOM     45  C   UNL A   1      47.302  27.834  29.257  1.00  0.00     0.131 A 
ATOM     46  C   UNL A   1      46.722  26.146  27.148  1.00  0.00     0.055 A 
ATOM     47  C   UNL A   1      47.639  26.485  29.346  1.00  0.00     0.041 A 
ATOM     48  F   UNL A   1      47.522  28.602  30.336  1.00  0.00    -0.206 F 
ATOM     49  C   UNL A   1      47.339  25.629  28.291  1.00  0.00     0.022 A 
BRANCH  46  50
ATOM     50  S   UNL A   1      46.121  25.019  25.859  1.00  0.00     0.124 S 
ATOM     51  O   UNL A   1      46.631  25.658  24.649  1.00  0.00    -0.237 OA
ATOM     52  O   UNL A   1      46.746  23.755  26.226  1.00  0.00    -0.237 OA
ATOM     53  O   UNL A   1      44.668  25.065  26.016  1.00  0.00    -0.744 OA
ENDBRANCH  46  50
ENDBRANCH  29  43
BRANCH  30  54
ATOM     54  C   UNL A   1      43.274  37.899  28.451  1.00  0.00     0.023 A 
ATOM     55  C   UNL A   1      43.569  38.711  29.559  1.00  0.00     0.031 A 
ATOM     56  C   UNL A   1      42.392  38.424  27.484  1.00  0.00     0.131 A 
ATOM     57  C   UNL A   1      42.928  39.953  29.715  1.00  0.00     0.055 A 
ATOM     58  C   UNL A   1      41.821  39.693  27.603  1.00  0.00     0.041 A 
ATOM     59  F   UNL A   1      42.041  37.697  26.411  1.00  0.00    -0.206 F 
ATOM     60  C   UNL A   1      42.069  40.457  28.736  1.00  0.00     0.022 A 
BRANCH  57  61
ATOM     61  S   UNL A   1      43.101  40.829  31.297  1.00  0.00     0.124 S 
ATOM     62  O   UNL A   1      44.463  41.339  31.202  1.00  0.00    -0.237 OA
ATOM     63  O   UNL A   1      42.035  41.822  31.209  1.00  0.00    -0.237 OA
ATOM     64  O   UNL A   1      42.894  39.780  32.293  1.00  0.00    -0.744 OA
ENDBRANCH  57  61
ENDBRANCH  30  54
BRANCH  42  65
ATOM     65  C   UNL A   1      49.384  34.972  26.748  1.00  0.00     0.023 A 
ATOM     66  C   UNL A   1      50.454  35.228  27.620  1.00  0.00     0.031 A 
ATOM     67  C   UNL A   1      49.550  35.262  25.382  1.00  0.00     0.131 A 
ATOM     68  C   UNL A   1      51.627  35.808  27.123  1.00  0.00     0.055 A 
ATOM     69  C   UNL A   1      50.746  35.768  24.882  1.00  0.00     0.041 A 
ATOM     70  F   UNL A   1      48.555  35.036  24.509  1.00  0.00    -0.206 F 
ATOM     71  C   UNL A   1      51.789  36.057  25.758  1.00  0.00     0.022 A 
BRANCH  68  72
ATOM     72  S   UNL A   1      52.902  36.327  28.302  1.00  0.00     0.124 S 
ATOM     73  O   UNL A   1      53.042  37.745  27.991  1.00  0.00    -0.237 OA
ATOM     74  O   UNL A   1      52.285  36.013  29.587  1.00  0.00    -0.237 OA
ATOM     75  O   UNL A   1      54.052  35.498  27.948  1.00  0.00    -0.744 OA
ENDBRANCH  68  72
ENDBRANCH  42  65
ENDBRANCH  16  17
ENDBRANCH   9  11
ENDBRANCH   8   9
ENDBRANCH   7   8
ENDBRANCH   6   7
ENDBRANCH   5   6
ENDBRANCH   4   5
ENDBRANCH   3   4
ENDBRANCH   2   3
ENDBRANCH   1   2
BRANCH   1  76
ATOM     76  C   UNL A   1      34.877  30.728  27.623  1.00  0.00     0.188 C 
BRANCH  76  77
ATOM     77  O   UNL A   1      34.502  28.840  27.107  1.00  0.00    -0.376 OA
BRANCH  77  78
ATOM     78  C   UNL A   1      33.799  27.806  26.234  1.00  0.00     0.202 C 
BRANCH  78  79
ATOM     79  C   UNL A   1      32.672  26.756  26.670  1.00  0.00     0.261 C 
BRANCH  79  80
ATOM     80  O   UNL A   1      32.682  25.414  26.085  1.00  0.00    -0.463 OA
BRANCH  80  81
ATOM     81  C   UNL A   1      31.715  24.895  25.283  1.00  0.00     0.312 C 
ATOM     82  O   UNL A   1      30.573  24.685  25.681  1.00  0.00    -0.252 OA
BRANCH  81  83
ATOM     83  C   UNL A   1      32.124  24.562  23.775  1.00  0.00     0.147 C 
ATOM     84  C   UNL A   1      32.450  23.079  23.614  1.00  0.00     0.129 C 
ATOM     85  C   UNL A   1      33.238  25.153  22.829  1.00  0.00     0.157 C 
ATOM     86  C   UNL A   1      33.539  23.014  22.548  1.00  0.00     0.155 C 
ATOM     87  C   UNL A   1      32.957  24.886  21.380  1.00  0.00     0.004 C 
ATOM     88  O   UNL A   1      34.314  24.157  22.931  1.00  0.00    -0.365 OA
ATOM     89  C   UNL A   1      33.092  23.561  21.215  1.00  0.00     0.004 C 
BRANCH  84  90
ATOM     90  C   UNL A   1      32.776  22.401  24.923  1.00  0.00     0.231 C 
ATOM     91  O   UNL A   1      31.801  21.898  25.514  1.00  0.00    -0.274 OA
ATOM     92  N   UNL A   1      33.943  22.233  25.587  1.00  0.00    -0.325 N 
ATOM     93  H   UNL A   1      33.739  21.918  26.497  1.00  0.00     0.169 HD
BRANCH  92  94
ATOM     94  C   UNL A   1      35.356  22.343  25.457  1.00  0.00     0.044 A 
ATOM     95  C   UNL A   1      35.731  23.672  25.804  1.00  0.00     0.026 A 
ATOM     96  C   UNL A   1      36.396  21.430  25.139  1.00  0.00    -0.020 A 
ATOM     97  C   UNL A   1      37.040  24.045  26.090  1.00  0.00     0.002 A 
ATOM     98  C   UNL A   1      37.696  21.829  25.535  1.00  0.00     0.006 A 
ATOM     99  C   UNL A   1      38.022  23.092  26.018  1.00  0.00     0.000 A 
BRANCH  96 100
ATOM    100  C   UNL A   1      36.310  19.982  24.671  1.00  0.00     0.073 C 
BRANCH 100 101
ATOM    101  C   UNL A   1      35.250  18.867  24.759  1.00  0.00    -0.044 A 
ATOM    102  C   UNL A   1      35.768  17.154  25.233  1.00  0.00     0.004 A 
ATOM    103  C   UNL A   1      33.505  19.116  24.326  1.00  0.00     0.004 A 
ATOM    104  C   UNL A   1      34.561  15.806  25.364  1.00  0.00     0.000 A 
ATOM    105  C   UNL A   1      32.344  17.748  24.394  1.00  0.00     0.000 A 
ATOM    106  C   UNL A   1      32.869  16.109  24.897  1.00  0.00     0.000 A 
ENDBRANCH 100 101
ENDBRANCH  96 100
ENDBRANCH  92  94
ENDBRANCH  84  90
ENDBRANCH  81  83
ENDBRANCH  80  81
ENDBRANCH  79  80
ENDBRANCH  78  79
ENDBRANCH  77  78
ENDBRANCH  76  77
ENDBRANCH   1  76
TORSDOF 27
ENDMDL
MODEL 3
REMARK VINA RESULT:      -9.3      6.108      9.619
REMARK SMILES O=C(OCCOCCOCCOCCOC(=O)[C@@H]1[C@H](C(=O)Nc2ccccc2Cc2ccccc2)[C@H]2C=C[C@@H]1O2)c1ccc(-c2c3nc(c(-c4cc(S(=O)(=O)[O-])ccc4F)c4ccc([nH]4)c(-c4cc(S(=O)(=O)[O-])ccc4F)c4nc(c(-c5cc(S(=O)(=O)[O-])ccc5F)c5ccc2[nH]5)C=C4)C=C3)cc1
REMARK SMILES IDX 10 1 9 2 8 3 7 4 6 5 5 6 4 7 3 8 2 9 1 10 41 11 42 12 103 13
REMARK SMILES IDX 43 14 102 15 44 16 45 17 46 18 96 19 47 20 101 21 95 22
REMARK SMILES IDX 97 23 48 24 100 25 94 26 93 27 49 29 81 30 61 31 80 32 62 33
REMARK SMILES IDX 65 34 79 35 98 36 63 37 64 38 78 40 99 41 66 42 50 43 51 44
REMARK SMILES IDX 59 45 52 46 58 47 60 48 57 49 53 50 54 51 55 52 56 53 82 54
REMARK SMILES IDX 83 55 91 56 84 57 90 58 92 59 89 60 85 61 86 62 87 63 88 64
REMARK SMILES IDX 67 65 68 66 76 67 69 68 75 69 77 70 74 71 70 72 71 73 72 74
REMARK SMILES IDX 73 75 11 76 12 77 13 78 14 79 15 80 16 81 17 82 18 83 19 84
REMARK SMILES IDX 39 85 36 86 38 87 40 88 37 89 20 90 21 91 22 92 23 94 24 95
REMARK SMILES IDX 28 96 25 97 27 98 26 99 29 100 30 101 31 102 35 103 32 104
REMARK SMILES IDX 34 105 33 106
REMARK H PARENT 97 28 65 39 22 93
REMARK Flexibility Score: inf
ROOT
ATOM      1  C   UNL A   1      31.977  30.254  26.796  1.00  0.00     0.188 C 
ENDROOT
BRANCH   1   2
ATOM      2  O   UNL A   1      32.979  31.103  27.343  1.00  0.00    -0.377 OA
BRANCH   2   3
ATOM      3  C   UNL A   1      34.366  31.063  27.115  1.00  0.00     0.188 C 
BRANCH   3   4
ATOM      4  C   UNL A   1      35.296  30.545  28.171  1.00  0.00     0.188 C 
BRANCH   4   5
ATOM      5  O   UNL A   1      36.584  31.054  27.967  1.00  0.00    -0.376 OA
BRANCH   5   6
ATOM      6  C   UNL A   1      37.464  30.977  29.082  1.00  0.00     0.202 C 
BRANCH   6   7
ATOM      7  C   UNL A   1      37.218  29.733  29.944  1.00  0.00     0.261 C 
BRANCH   7   8
ATOM      8  O   UNL A   1      36.855  30.127  31.283  1.00  0.00    -0.460 OA
BRANCH   8   9
ATOM      9  C   UNL A   1      37.702  30.923  31.986  1.00  0.00     0.338 C 
ATOM     10  O   UNL A   1      37.596  32.129  32.185  1.00  0.00    -0.246 OA
BRANCH   9  11
ATOM     11  C   UNL A   1      38.854  30.076  32.369  1.00  0.00     0.060 A 
ATOM     12  C   UNL A   1      40.091  30.714  32.477  1.00  0.00     0.016 A 
ATOM     13  C   UNL A   1      38.786  28.700  32.581  1.00  0.00     0.016 A 
ATOM     14  C   UNL A   1      41.252  30.045  32.732  1.00  0.00     0.010 A 
ATOM     15  C   UNL A   1      39.978  27.991  32.827  1.00  0.00     0.010 A 
ATOM     16  C   UNL A   1      41.209  28.674  32.886  1.00  0.00    -0.014 A 
BRANCH  16  17
ATOM     17  C   UNL A   1      42.538  28.056  32.798  1.00  0.00     0.031 A 
ATOM     18  C   UNL A   1      43.117  27.551  34.083  1.00  0.00     0.074 A 
ATOM     19  C   UNL A   1      43.019  27.651  31.608  1.00  0.00     0.049 A 
ATOM     20  N   UNL A   1      44.278  27.009  34.304  1.00  0.00    -0.248 NA
ATOM     21  C   UNL A   1      42.251  27.636  35.277  1.00  0.00     0.031 C 
ATOM     22  C   UNL A   1      42.344  27.828  30.320  1.00  0.00     0.029 A 
ATOM     23  N   UNL A   1      44.155  26.963  31.286  1.00  0.00    -0.354 N 
ATOM     24  C   UNL A   1      44.311  26.754  35.668  1.00  0.00     0.074 A 
ATOM     25  C   UNL A   1      43.037  27.145  36.220  1.00  0.00     0.031 C 
ATOM     26  C   UNL A   1      43.075  27.252  29.351  1.00  0.00     0.029 A 
ATOM     27  C   UNL A   1      44.329  26.791  29.930  1.00  0.00     0.049 A 
ATOM     28  H   UNL A   1      44.789  26.622  31.958  1.00  0.00     0.167 HD
ATOM     29  C   UNL A   1      45.354  26.286  36.387  1.00  0.00     0.034 A 
ATOM     30  C   UNL A   1      45.425  26.399  29.251  1.00  0.00     0.034 A 
ATOM     31  C   UNL A   1      46.609  25.948  35.777  1.00  0.00     0.049 A 
ATOM     32  C   UNL A   1      46.649  26.076  30.082  1.00  0.00     0.074 A 
ATOM     33  C   UNL A   1      47.799  25.598  36.380  1.00  0.00     0.029 A 
ATOM     34  N   UNL A   1      46.830  25.933  34.403  1.00  0.00    -0.354 N 
ATOM     35  N   UNL A   1      46.760  25.999  31.392  1.00  0.00    -0.248 NA
ATOM     36  C   UNL A   1      47.897  25.821  29.358  1.00  0.00     0.031 C 
ATOM     37  C   UNL A   1      48.760  25.456  35.375  1.00  0.00     0.029 A 
ATOM     38  C   UNL A   1      48.147  25.615  34.139  1.00  0.00     0.049 A 
ATOM     39  H   UNL A   1      46.147  26.121  33.720  1.00  0.00     0.167 HD
ATOM     40  C   UNL A   1      48.086  25.657  31.642  1.00  0.00     0.074 A 
ATOM     41  C   UNL A   1      48.722  25.518  30.347  1.00  0.00     0.031 C 
ATOM     42  C   UNL A   1      48.729  25.479  32.825  1.00  0.00     0.034 A 
BRANCH  29  43
ATOM     43  C   UNL A   1      45.212  26.312  37.881  1.00  0.00     0.023 A 
ATOM     44  C   UNL A   1      45.346  27.491  38.632  1.00  0.00     0.031 A 
ATOM     45  C   UNL A   1      45.043  25.098  38.572  1.00  0.00     0.131 A 
ATOM     46  C   UNL A   1      45.367  27.419  40.034  1.00  0.00     0.055 A 
ATOM     47  C   UNL A   1      44.985  25.046  39.963  1.00  0.00     0.041 A 
ATOM     48  F   UNL A   1      44.967  23.936  37.902  1.00  0.00    -0.206 F 
ATOM     49  C   UNL A   1      45.159  26.210  40.704  1.00  0.00     0.022 A 
BRANCH  46  50
ATOM     50  S   UNL A   1      45.817  28.905  40.974  1.00  0.00     0.124 S 
ATOM     51  O   UNL A   1      46.965  29.396  40.216  1.00  0.00    -0.237 OA
ATOM     52  O   UNL A   1      44.606  29.711  40.892  1.00  0.00    -0.237 OA
ATOM     53  O   UNL A   1      46.133  28.386  42.303  1.00  0.00    -0.744 OA
ENDBRANCH  46  50
ENDBRANCH  29  43
BRANCH  30  54
ATOM     54  C   UNL A   1      45.498  26.444  27.756  1.00  0.00     0.023 A 
ATOM     55  C   UNL A   1      45.463  25.269  26.986  1.00  0.00     0.031 A 
ATOM     56  C   UNL A   1      45.748  27.653  27.075  1.00  0.00     0.131 A 
ATOM     57  C   UNL A   1      45.757  25.316  25.612  1.00  0.00     0.055 A 
ATOM     58  C   UNL A   1      45.959  27.704  25.695  1.00  0.00     0.041 A 
ATOM     59  F   UNL A   1      45.825  28.814  27.745  1.00  0.00    -0.206 F 
ATOM     60  C   UNL A   1      45.988  26.528  24.958  1.00  0.00     0.022 A 
BRANCH  57  61
ATOM     61  S   UNL A   1      45.999  23.753  24.720  1.00  0.00     0.124 S 
ATOM     62  O   UNL A   1      44.711  23.590  24.057  1.00  0.00    -0.237 OA
ATOM     63  O   UNL A   1      47.131  24.071  23.856  1.00  0.00    -0.237 OA
ATOM     64  O   UNL A   1      46.279  22.792  25.785  1.00  0.00    -0.744 OA
ENDBRANCH  57  61
ENDBRANCH  30  54
BRANCH  42  65
ATOM     65  C   UNL A   1      50.170  25.051  32.758  1.00  0.00     0.023 A 
ATOM     66  C   UNL A   1      50.543  23.699  32.810  1.00  0.00     0.031 A 
ATOM     67  C   UNL A   1      51.180  26.020  32.616  1.00  0.00     0.131 A 
ATOM     68  C   UNL A   1      51.900  23.355  32.773  1.00  0.00     0.055 A 
ATOM     69  C   UNL A   1      52.521  25.666  32.503  1.00  0.00     0.041 A 
ATOM     70  F   UNL A   1      50.872  27.326  32.562  1.00  0.00    -0.206 F 
ATOM     71  C   UNL A   1      52.889  24.326  32.596  1.00  0.00     0.022 A 
BRANCH  68  72
ATOM     72  S   UNL A   1      52.361  21.626  33.062  1.00  0.00     0.124 S 
ATOM     73  O   UNL A   1      51.063  20.961  33.048  1.00  0.00    -0.237 OA
ATOM     74  O   UNL A   1      53.235  21.343  31.929  1.00  0.00    -0.237 OA
ATOM     75  O   UNL A   1      53.025  21.663  34.363  1.00  0.00    -0.744 OA
ENDBRANCH  68  72
ENDBRANCH  42  65
ENDBRANCH  16  17
ENDBRANCH   9  11
ENDBRANCH   8   9
ENDBRANCH   7   8
ENDBRANCH   6   7
ENDBRANCH   5   6
ENDBRANCH   4   5
ENDBRANCH   3   4
ENDBRANCH   2   3
ENDBRANCH   1   2
BRANCH   1  76
ATOM     76  C   UNL A   1      31.669  28.609  26.703  1.00  0.00     0.188 C 
BRANCH  76  77
ATOM     77  O   UNL A   1      30.501  27.392  25.643  1.00  0.00    -0.376 OA
BRANCH  77  78
ATOM     78  C   UNL A   1      29.914  26.015  25.356  1.00  0.00     0.202 C 
BRANCH  78  79
ATOM     79  C   UNL A   1      29.448  24.906  26.414  1.00  0.00     0.261 C 
BRANCH  79  80
ATOM     80  O   UNL A   1      30.368  23.822  26.764  1.00  0.00    -0.463 OA
BRANCH  80  81
ATOM     81  C   UNL A   1      31.012  23.017  25.880  1.00  0.00     0.312 C 
ATOM     82  O   UNL A   1      30.641  21.871  25.643  1.00  0.00    -0.252 OA
BRANCH  81  83
ATOM     83  C   UNL A   1      32.294  23.623  25.145  1.00  0.00     0.147 C 
ATOM     84  C   UNL A   1      33.493  22.688  25.279  1.00  0.00     0.129 C 
ATOM     85  C   UNL A   1      33.049  24.998  25.304  1.00  0.00     0.157 C 
ATOM     86  C   UNL A   1      34.716  23.596  25.341  1.00  0.00     0.155 C 
ATOM     87  C   UNL A   1      33.891  25.330  24.107  1.00  0.00     0.004 C 
ATOM     88  O   UNL A   1      34.190  24.646  26.163  1.00  0.00    -0.365 OA
ATOM     89  C   UNL A   1      34.890  24.435  24.099  1.00  0.00     0.004 C 
BRANCH  84  90
ATOM     90  C   UNL A   1      33.351  21.706  26.417  1.00  0.00     0.231 C 
ATOM     91  O   UNL A   1      32.967  22.200  27.495  1.00  0.00    -0.274 OA
ATOM     92  N   UNL A   1      33.566  20.372  26.492  1.00  0.00    -0.325 N 
ATOM     93  H   UNL A   1      33.561  20.111  27.441  1.00  0.00     0.169 HD
BRANCH  92  94
ATOM     94  C   UNL A   1      33.797  19.208  25.707  1.00  0.00     0.044 A 
ATOM     95  C   UNL A   1      32.737  18.289  25.955  1.00  0.00     0.026 A 
ATOM     96  C   UNL A   1      34.771  18.839  24.742  1.00  0.00    -0.020 A 
ATOM     97  C   UNL A   1      32.470  17.194  25.141  1.00  0.00     0.002 A 
ATOM     98  C   UNL A   1      34.403  17.774  23.884  1.00  0.00     0.006 A 
ATOM     99  C   UNL A   1      33.276  16.976  24.054  1.00  0.00     0.000 A 
BRANCH  96 100
ATOM    100  C   UNL A   1      36.039  19.568  24.313  1.00  0.00     0.073 C 
BRANCH 100 101
ATOM    101  C   UNL A   1      37.291  20.101  25.036  1.00  0.00    -0.044 A 
ATOM    102  C   UNL A   1      37.431  21.911  25.401  1.00  0.00     0.004 A 
ATOM    103  C   UNL A   1      38.706  19.053  25.477  1.00  0.00     0.004 A 
ATOM    104  C   UNL A   1      38.877  22.590  26.261  1.00  0.00     0.000 A 
ATOM    105  C   UNL A   1      40.157  19.764  26.262  1.00  0.00     0.000 A 
ATOM    106  C   UNL A   1      40.245  21.514  26.640  1.00  0.00     0.000 A 
ENDBRANCH 100 101
ENDBRANCH  96 100
ENDBRANCH  92  94
ENDBRANCH  84  90
ENDBRANCH  81  83
ENDBRANCH  80  81
ENDBRANCH  79  80
ENDBRANCH  78  79
ENDBRANCH  77  78
ENDBRANCH  76  77
ENDBRANCH   1  76
TORSDOF 27
ENDMDL
