MODEL 1
REMARK VINA RESULT:      -9.4      0.000      0.000
REMARK SMILES O=C(OCCOCCOCCOCCOC(=O)[C@H]1Cc2c([nH]c3ccccc23)[C@H](c2c[nH]c3ccccc23)[NH2+]1)c1ccc(-c2c3nc(c(-c4cc(S(=O)(=O)[O-])ccc4F)c4ccc([nH]4)c(-c4cc(S(=O)(=O)[O-])ccc4F)c4nc(c(-c5cc(S(=O)(=O)[O-])ccc5F)c5ccc2[nH]5)C=C4)C=C3)cc1
REMARK SMILES IDX 8 1 7 2 6 3 5 4 4 5 3 6 2 7 1 8 40 9 41 10 102 11 42 12
REMARK SMILES IDX 101 13 43 14 44 15 45 16 95 17 46 18 100 19 94 20 96 21
REMARK SMILES IDX 47 22 99 23 93 24 92 25 48 27 80 28 60 29 79 30 61 31 64 32
REMARK SMILES IDX 78 33 97 34 62 35 63 36 77 38 98 39 65 40 49 41 50 42 58 43
REMARK SMILES IDX 51 44 57 45 59 46 56 47 52 48 53 49 54 50 55 51 81 52 82 53
REMARK SMILES IDX 90 54 83 55 89 56 91 57 88 58 84 59 85 60 86 61 87 62 66 63
REMARK SMILES IDX 67 64 75 65 68 66 74 67 76 68 73 69 69 70 70 71 71 72 72 73
REMARK SMILES IDX 9 74 10 75 11 76 12 77 13 78 14 79 15 80 16 81 17 82 18 83
REMARK SMILES IDX 19 84 39 85 20 86 29 87 21 90 28 91 22 92 23 93 27 94 24 96
REMARK SMILES IDX 26 97 25 98 30 99 31 100 38 101 32 102 33 103 37 104 34 106
REMARK SMILES IDX 36 107 35 108
REMARK H PARENT 96 26 64 37 39 88 39 89 22 95 32 105
REMARK Flexibility Score: inf
ROOT
ATOM      1  C   UNL A   1      35.251  32.868  28.151  1.00  0.00     0.188 C 
ENDROOT
BRANCH   1   2
ATOM      2  C   UNL A   1      33.793  33.005  28.552  1.00  0.00     0.188 C 
BRANCH   2   3
ATOM      3  O   UNL A   1      33.345  34.243  28.034  1.00  0.00    -0.376 OA
BRANCH   3   4
ATOM      4  C   UNL A   1      33.824  35.427  28.624  1.00  0.00     0.202 C 
BRANCH   4   5
ATOM      5  C   UNL A   1      32.808  36.214  29.449  1.00  0.00     0.261 C 
BRANCH   5   6
ATOM      6  O   UNL A   1      32.418  35.629  30.715  1.00  0.00    -0.460 OA
BRANCH   6   7
ATOM      7  C   UNL A   1      33.137  35.489  31.854  1.00  0.00     0.338 C 
ATOM      8  O   UNL A   1      32.822  36.097  32.872  1.00  0.00    -0.246 OA
BRANCH   7   9
ATOM      9  C   UNL A   1      34.292  34.575  31.901  1.00  0.00     0.060 A 
ATOM     10  C   UNL A   1      34.133  33.213  32.122  1.00  0.00     0.016 A 
ATOM     11  C   UNL A   1      35.561  35.067  31.595  1.00  0.00     0.016 A 
ATOM     12  C   UNL A   1      35.237  32.401  32.344  1.00  0.00     0.010 A 
ATOM     13  C   UNL A   1      36.667  34.215  31.662  1.00  0.00     0.010 A 
ATOM     14  C   UNL A   1      36.524  32.897  32.137  1.00  0.00    -0.014 A 
BRANCH  14  15
ATOM     15  C   UNL A   1      37.711  32.109  32.570  1.00  0.00     0.031 A 
ATOM     16  C   UNL A   1      38.202  32.294  33.983  1.00  0.00     0.074 A 
ATOM     17  C   UNL A   1      38.283  31.186  31.771  1.00  0.00     0.049 A 
ATOM     18  N   UNL A   1      39.328  31.929  34.534  1.00  0.00    -0.248 NA
ATOM     19  C   UNL A   1      37.305  33.029  34.891  1.00  0.00     0.031 C 
ATOM     20  C   UNL A   1      37.829  30.826  30.426  1.00  0.00     0.029 A 
ATOM     21  N   UNL A   1      39.352  30.354  31.987  1.00  0.00    -0.354 N 
ATOM     22  C   UNL A   1      39.316  32.477  35.815  1.00  0.00     0.074 A 
ATOM     23  C   UNL A   1      38.074  33.202  35.952  1.00  0.00     0.031 C 
ATOM     24  C   UNL A   1      38.566  29.800  29.971  1.00  0.00     0.029 A 
ATOM     25  C   UNL A   1      39.620  29.510  30.934  1.00  0.00     0.049 A 
ATOM     26  H   UNL A   1      39.879  30.361  32.819  1.00  0.00     0.167 HD
ATOM     27  C   UNL A   1      40.266  32.384  36.778  1.00  0.00     0.034 A 
ATOM     28  C   UNL A   1      40.630  28.635  30.752  1.00  0.00     0.034 A 
ATOM     29  C   UNL A   1      41.456  31.586  36.621  1.00  0.00     0.049 A 
ATOM     30  C   UNL A   1      41.683  28.548  31.830  1.00  0.00     0.074 A 
ATOM     31  C   UNL A   1      42.531  31.443  37.480  1.00  0.00     0.029 A 
ATOM     32  N   UNL A   1      41.707  30.763  35.528  1.00  0.00    -0.354 N 
ATOM     33  N   UNL A   1      41.746  29.190  32.977  1.00  0.00    -0.248 NA
ATOM     34  C   UNL A   1      42.810  27.644  31.581  1.00  0.00     0.031 C 
ATOM     35  C   UNL A   1      43.448  30.564  36.886  1.00  0.00     0.029 A 
ATOM     36  C   UNL A   1      42.916  30.111  35.687  1.00  0.00     0.049 A 
ATOM     37  H   UNL A   1      41.109  30.660  34.752  1.00  0.00     0.167 HD
ATOM     38  C   UNL A   1      42.917  28.759  33.589  1.00  0.00     0.074 A 
ATOM     39  C   UNL A   1      43.510  27.779  32.698  1.00  0.00     0.031 C 
ATOM     40  C   UNL A   1      43.468  29.140  34.771  1.00  0.00     0.034 A 
BRANCH  27  41
ATOM     41  C   UNL A   1      40.078  33.241  38.010  1.00  0.00     0.023 A 
ATOM     42  C   UNL A   1      39.207  32.880  39.054  1.00  0.00     0.031 A 
ATOM     43  C   UNL A   1      40.696  34.503  38.082  1.00  0.00     0.131 A 
ATOM     44  C   UNL A   1      38.893  33.810  40.058  1.00  0.00     0.055 A 
ATOM     45  C   UNL A   1      40.453  35.387  39.135  1.00  0.00     0.041 A 
ATOM     46  F   UNL A   1      41.518  34.918  37.106  1.00  0.00    -0.206 F 
ATOM     47  C   UNL A   1      39.529  35.053  40.120  1.00  0.00     0.022 A 
BRANCH  44  48
ATOM     48  S   UNL A   1      37.503  33.453  41.169  1.00  0.00     0.124 S 
ATOM     49  O   UNL A   1      36.502  32.945  40.236  1.00  0.00    -0.237 OA
ATOM     50  O   UNL A   1      38.076  32.470  42.085  1.00  0.00    -0.237 OA
ATOM     51  O   UNL A   1      37.192  34.750  41.763  1.00  0.00    -0.744 OA
ENDBRANCH  44  48
ENDBRANCH  27  41
BRANCH  28  52
ATOM     52  C   UNL A   1      40.741  27.837  29.493  1.00  0.00     0.023 A 
ATOM     53  C   UNL A   1      41.674  28.172  28.497  1.00  0.00     0.031 A 
ATOM     54  C   UNL A   1      39.890  26.744  29.246  1.00  0.00     0.131 A 
ATOM     55  C   UNL A   1      41.712  27.444  27.293  1.00  0.00     0.055 A 
ATOM     56  C   UNL A   1      39.971  25.986  28.075  1.00  0.00     0.041 A 
ATOM     57  F   UNL A   1      38.970  26.380  30.153  1.00  0.00    -0.206 F 
ATOM     58  C   UNL A   1      40.879  26.343  27.084  1.00  0.00     0.022 A 
BRANCH  55  59
ATOM     59  S   UNL A   1      42.811  28.008  25.963  1.00  0.00     0.124 S 
ATOM     60  O   UNL A   1      42.506  29.433  25.909  1.00  0.00    -0.237 OA
ATOM     61  O   UNL A   1      44.126  27.652  26.486  1.00  0.00    -0.237 OA
ATOM     62  O   UNL A   1      42.371  27.231  24.806  1.00  0.00    -0.744 OA
ENDBRANCH  55  59
ENDBRANCH  28  52
BRANCH  40  63
ATOM     63  C   UNL A   1      44.747  28.450  35.166  1.00  0.00     0.023 A 
ATOM     64  C   UNL A   1      44.742  27.315  35.993  1.00  0.00     0.031 A 
ATOM     65  C   UNL A   1      45.983  28.955  34.729  1.00  0.00     0.131 A 
ATOM     66  C   UNL A   1      45.957  26.754  36.410  1.00  0.00     0.055 A 
ATOM     67  C   UNL A   1      47.187  28.358  35.100  1.00  0.00     0.041 A 
ATOM     68  F   UNL A   1      46.038  30.037  33.937  1.00  0.00    -0.206 F 
ATOM     69  C   UNL A   1      47.179  27.260  35.957  1.00  0.00     0.022 A 
BRANCH  66  70
ATOM     70  S   UNL A   1      45.921  25.415  37.630  1.00  0.00     0.124 S 
ATOM     71  O   UNL A   1      46.548  24.320  36.899  1.00  0.00    -0.237 OA
ATOM     72  O   UNL A   1      46.700  25.975  38.731  1.00  0.00    -0.237 OA
ATOM     73  O   UNL A   1      44.495  25.242  37.906  1.00  0.00    -0.744 OA
ENDBRANCH  66  70
ENDBRANCH  40  63
ENDBRANCH  14  15
ENDBRANCH   7   9
ENDBRANCH   6   7
ENDBRANCH   5   6
ENDBRANCH   4   5
ENDBRANCH   3   4
ENDBRANCH   2   3
ENDBRANCH   1   2
BRANCH   1  74
ATOM     74  O   UNL A   1      35.505  31.711  27.364  1.00  0.00    -0.377 OA
BRANCH  74  75
ATOM     75  C   UNL A   1      35.289  30.408  27.887  1.00  0.00     0.188 C 
BRANCH  75  76
ATOM     76  C   UNL A   1      34.520  29.441  26.980  1.00  0.00     0.188 C 
BRANCH  76  77
ATOM     77  O   UNL A   1      33.272  29.974  26.581  1.00  0.00    -0.376 OA
BRANCH  77  78
ATOM     78  C   UNL A   1      32.645  29.424  25.426  1.00  0.00     0.202 C 
BRANCH  78  79
ATOM     79  C   UNL A   1      32.162  27.960  25.374  1.00  0.00     0.261 C 
BRANCH  79  80
ATOM     80  O   UNL A   1      32.454  27.134  26.527  1.00  0.00    -0.459 OA
BRANCH  80  81
ATOM     81  C   UNL A   1      32.043  25.844  26.404  1.00  0.00     0.365 C 
ATOM     82  O   UNL A   1      30.909  25.486  26.736  1.00  0.00    -0.245 OA
BRANCH  81  83
ATOM     83  C   UNL A   1      33.050  24.784  25.884  1.00  0.00     0.298 C 
ATOM     84  C   UNL A   1      34.336  24.483  26.673  1.00  0.00     0.115 C 
ATOM     85  N   UNL A   1      32.264  23.548  25.551  1.00  0.00    -0.323 N 
ATOM     86  C   UNL A   1      35.073  23.346  26.051  1.00  0.00    -0.006 A 
ATOM     87  C   UNL A   1      33.003  22.560  24.748  1.00  0.00     0.264 C 
ATOM     88  H   UNL A   1      31.434  23.829  25.028  1.00  0.00     0.347 HD
ATOM     89  H   UNL A   1      32.040  23.096  26.437  1.00  0.00     0.347 HD
ATOM     90  C   UNL A   1      34.437  22.482  25.188  1.00  0.00     0.083 A 
ATOM     91  C   UNL A   1      36.454  23.014  26.083  1.00  0.00     0.003 A 
ATOM     92  N   UNL A   1      35.360  21.547  24.800  1.00  0.00    -0.353 N 
ATOM     93  C   UNL A   1      36.606  21.866  25.303  1.00  0.00     0.046 A 
ATOM     94  C   UNL A   1      37.599  23.592  26.670  1.00  0.00     0.010 A 
ATOM     95  H   UNL A   1      35.163  20.759  24.244  1.00  0.00     0.166 HD
ATOM     96  C   UNL A   1      37.849  21.248  25.112  1.00  0.00     0.026 A 
ATOM     97  C   UNL A   1      38.851  23.000  26.465  1.00  0.00     0.001 A 
ATOM     98  C   UNL A   1      38.970  21.840  25.705  1.00  0.00     0.002 A 
BRANCH  87  99
ATOM     99  C   UNL A   1      32.835  22.736  23.240  1.00  0.00     0.041 A 
ATOM    100  C   UNL A   1      32.527  21.669  22.402  1.00  0.00     0.093 A 
ATOM    101  C   UNL A   1      32.881  23.899  22.370  1.00  0.00     0.009 A 
ATOM    102  N   UNL A   1      32.440  22.112  21.114  1.00  0.00    -0.361 N 
ATOM    103  C   UNL A   1      32.632  23.466  21.062  1.00  0.00     0.046 A 
ATOM    104  C   UNL A   1      33.089  25.288  22.526  1.00  0.00     0.011 A 
ATOM    105  H   UNL A   1      32.264  21.538  20.333  1.00  0.00     0.166 HD
ATOM    106  C   UNL A   1      32.596  24.327  19.953  1.00  0.00     0.026 A 
ATOM    107  C   UNL A   1      33.061  26.167  21.438  1.00  0.00     0.001 A 
ATOM    108  C   UNL A   1      32.816  25.689  20.163  1.00  0.00     0.002 A 
ENDBRANCH  87  99
ENDBRANCH  81  83
ENDBRANCH  80  81
ENDBRANCH  79  80
ENDBRANCH  78  79
ENDBRANCH  77  78
ENDBRANCH  76  77
ENDBRANCH  75  76
ENDBRANCH  74  75
ENDBRANCH   1  74
TORSDOF 24
ENDMDL
MODEL 2
REMARK VINA RESULT:      -9.4      4.087      5.877
REMARK SMILES O=C(OCCOCCOCCOCCOC(=O)[C@H]1Cc2c([nH]c3ccccc23)[C@H](c2c[nH]c3ccccc23)[NH2+]1)c1ccc(-c2c3nc(c(-c4cc(S(=O)(=O)[O-])ccc4F)c4ccc([nH]4)c(-c4cc(S(=O)(=O)[O-])ccc4F)c4nc(c(-c5cc(S(=O)(=O)[O-])ccc5F)c5ccc2[nH]5)C=C4)C=C3)cc1
REMARK SMILES IDX 8 1 7 2 6 3 5 4 4 5 3 6 2 7 1 8 40 9 41 10 102 11 42 12
REMARK SMILES IDX 101 13 43 14 44 15 45 16 95 17 46 18 100 19 94 20 96 21
REMARK SMILES IDX 47 22 99 23 93 24 92 25 48 27 80 28 60 29 79 30 61 31 64 32
REMARK SMILES IDX 78 33 97 34 62 35 63 36 77 38 98 39 65 40 49 41 50 42 58 43
REMARK SMILES IDX 51 44 57 45 59 46 56 47 52 48 53 49 54 50 55 51 81 52 82 53
REMARK SMILES IDX 90 54 83 55 89 56 91 57 88 58 84 59 85 60 86 61 87 62 66 63
REMARK SMILES IDX 67 64 75 65 68 66 74 67 76 68 73 69 69 70 70 71 71 72 72 73
REMARK SMILES IDX 9 74 10 75 11 76 12 77 13 78 14 79 15 80 16 81 17 82 18 83
REMARK SMILES IDX 19 84 39 85 20 86 29 87 21 90 28 91 22 92 23 93 27 94 24 96
REMARK SMILES IDX 26 97 25 98 30 99 31 100 38 101 32 102 33 103 37 104 34 106
REMARK SMILES IDX 36 107 35 108
REMARK H PARENT 96 26 64 37 39 88 39 89 22 95 32 105
REMARK Flexibility Score: inf
ROOT
ATOM      1  C   UNL A   1      35.374  32.511  28.485  1.00  0.00     0.188 C 
ENDROOT
BRANCH   1   2
ATOM      2  C   UNL A   1      33.933  32.967  28.341  1.00  0.00     0.188 C 
BRANCH   2   3
ATOM      3  O   UNL A   1      33.973  34.273  27.800  1.00  0.00    -0.376 OA
BRANCH   3   4
ATOM      4  C   UNL A   1      34.349  35.335  28.644  1.00  0.00     0.202 C 
BRANCH   4   5
ATOM      5  C   UNL A   1      33.259  35.856  29.577  1.00  0.00     0.261 C 
BRANCH   5   6
ATOM      6  O   UNL A   1      32.840  34.964  30.638  1.00  0.00    -0.460 OA
BRANCH   6   7
ATOM      7  C   UNL A   1      33.309  34.854  31.903  1.00  0.00     0.338 C 
ATOM      8  O   UNL A   1      32.618  35.190  32.859  1.00  0.00    -0.246 OA
BRANCH   7   9
ATOM      9  C   UNL A   1      34.650  34.295  32.157  1.00  0.00     0.060 A 
ATOM     10  C   UNL A   1      34.888  32.927  32.108  1.00  0.00     0.016 A 
ATOM     11  C   UNL A   1      35.726  35.164  32.330  1.00  0.00     0.016 A 
ATOM     12  C   UNL A   1      36.106  32.409  32.526  1.00  0.00     0.010 A 
ATOM     13  C   UNL A   1      36.996  34.645  32.598  1.00  0.00     0.010 A 
ATOM     14  C   UNL A   1      37.174  33.263  32.798  1.00  0.00    -0.014 A 
BRANCH  14  15
ATOM     15  C   UNL A   1      38.409  32.738  33.444  1.00  0.00     0.031 A 
ATOM     16  C   UNL A   1      38.525  32.858  34.942  1.00  0.00     0.074 A 
ATOM     17  C   UNL A   1      39.359  32.089  32.742  1.00  0.00     0.049 A 
ATOM     18  N   UNL A   1      39.566  32.710  35.717  1.00  0.00    -0.248 NA
ATOM     19  C   UNL A   1      37.297  33.233  35.661  1.00  0.00     0.031 C 
ATOM     20  C   UNL A   1      39.310  31.801  31.307  1.00  0.00     0.029 A 
ATOM     21  N   UNL A   1      40.541  31.520  33.148  1.00  0.00    -0.354 N 
ATOM     22  C   UNL A   1      39.141  33.074  36.993  1.00  0.00     0.074 A 
ATOM     23  C   UNL A   1      37.751  33.453  36.883  1.00  0.00     0.031 C 
ATOM     24  C   UNL A   1      40.370  31.049  30.970  1.00  0.00     0.029 A 
ATOM     25  C   UNL A   1      41.237  30.905  32.132  1.00  0.00     0.049 A 
ATOM     26  H   UNL A   1      40.860  31.550  34.079  1.00  0.00     0.167 HD
ATOM     27  C   UNL A   1      39.857  33.094  38.144  1.00  0.00     0.034 A 
ATOM     28  C   UNL A   1      42.457  30.331  32.135  1.00  0.00     0.034 A 
ATOM     29  C   UNL A   1      41.221  32.635  38.218  1.00  0.00     0.049 A 
ATOM     30  C   UNL A   1      43.245  30.368  33.422  1.00  0.00     0.074 A 
ATOM     31  C   UNL A   1      42.091  32.649  39.294  1.00  0.00     0.029 A 
ATOM     32  N   UNL A   1      41.905  32.040  37.162  1.00  0.00    -0.354 N 
ATOM     33  N   UNL A   1      42.894  30.856  34.592  1.00  0.00    -0.248 NA
ATOM     34  C   UNL A   1      44.597  29.802  33.386  1.00  0.00     0.031 C 
ATOM     35  C   UNL A   1      43.311  32.100  38.875  1.00  0.00     0.029 A 
ATOM     36  C   UNL A   1      43.182  31.686  37.557  1.00  0.00     0.049 A 
ATOM     37  H   UNL A   1      41.533  31.894  36.262  1.00  0.00     0.167 HD
ATOM     38  C   UNL A   1      43.981  30.648  35.432  1.00  0.00     0.074 A 
ATOM     39  C   UNL A   1      44.986  29.961  34.642  1.00  0.00     0.031 C 
ATOM     40  C   UNL A   1      44.151  31.001  36.733  1.00  0.00     0.034 A 
BRANCH  27  41
ATOM     41  C   UNL A   1      39.195  33.718  39.352  1.00  0.00     0.023 A 
ATOM     42  C   UNL A   1      38.302  33.007  40.173  1.00  0.00     0.031 A 
ATOM     43  C   UNL A   1      39.373  35.089  39.613  1.00  0.00     0.131 A 
ATOM     44  C   UNL A   1      37.541  33.690  41.137  1.00  0.00     0.055 A 
ATOM     45  C   UNL A   1      38.683  35.744  40.636  1.00  0.00     0.041 A 
ATOM     46  F   UNL A   1      40.192  35.830  38.850  1.00  0.00    -0.206 F 
ATOM     47  C   UNL A   1      37.743  35.049  41.391  1.00  0.00     0.022 A 
BRANCH  44  48
ATOM     48  S   UNL A   1      36.150  32.824  41.918  1.00  0.00     0.124 S 
ATOM     49  O   UNL A   1      35.527  32.172  40.770  1.00  0.00    -0.237 OA
ATOM     50  O   UNL A   1      36.821  31.940  42.866  1.00  0.00    -0.237 OA
ATOM     51  O   UNL A   1      35.365  33.900  42.517  1.00  0.00    -0.744 OA
ENDBRANCH  44  48
ENDBRANCH  27  41
BRANCH  28  52
ATOM     52  C   UNL A   1      43.037  29.748  30.887  1.00  0.00     0.023 A 
ATOM     53  C   UNL A   1      43.686  30.556  29.937  1.00  0.00     0.031 A 
ATOM     54  C   UNL A   1      42.922  28.374  30.602  1.00  0.00     0.131 A 
ATOM     55  C   UNL A   1      44.164  29.991  28.741  1.00  0.00     0.055 A 
ATOM     56  C   UNL A   1      43.451  27.807  29.441  1.00  0.00     0.041 A 
ATOM     57  F   UNL A   1      42.303  27.551  31.464  1.00  0.00    -0.206 F 
ATOM     58  C   UNL A   1      44.067  28.620  28.495  1.00  0.00     0.022 A 
BRANCH  55  59
ATOM     59  S   UNL A   1      44.844  31.089  27.465  1.00  0.00     0.124 S 
ATOM     60  O   UNL A   1      45.051  32.323  28.214  1.00  0.00    -0.237 OA
ATOM     61  O   UNL A   1      46.049  30.374  27.061  1.00  0.00    -0.237 OA
ATOM     62  O   UNL A   1      43.784  31.140  26.460  1.00  0.00    -0.744 OA
ENDBRANCH  55  59
ENDBRANCH  28  52
BRANCH  40  63
ATOM     63  C   UNL A   1      45.454  30.598  37.371  1.00  0.00     0.023 A 
ATOM     64  C   UNL A   1      45.589  29.378  38.055  1.00  0.00     0.031 A 
ATOM     65  C   UNL A   1      46.562  31.459  37.313  1.00  0.00     0.131 A 
ATOM     66  C   UNL A   1      46.792  29.079  38.710  1.00  0.00     0.055 A 
ATOM     67  C   UNL A   1      47.774  31.130  37.918  1.00  0.00     0.041 A 
ATOM     68  F   UNL A   1      46.481  32.634  36.670  1.00  0.00    -0.206 F 
ATOM     69  C   UNL A   1      47.890  29.940  38.634  1.00  0.00     0.022 A 
BRANCH  66  70
ATOM     70  S   UNL A   1      46.869  27.594  39.745  1.00  0.00     0.124 S 
ATOM     71  O   UNL A   1      45.558  26.995  39.517  1.00  0.00    -0.237 OA
ATOM     72  O   UNL A   1      48.006  26.876  39.177  1.00  0.00    -0.237 OA
ATOM     73  O   UNL A   1      47.082  28.125  41.091  1.00  0.00    -0.744 OA
ENDBRANCH  66  70
ENDBRANCH  40  63
ENDBRANCH  14  15
ENDBRANCH   7   9
ENDBRANCH   6   7
ENDBRANCH   5   6
ENDBRANCH   4   5
ENDBRANCH   3   4
ENDBRANCH   2   3
ENDBRANCH   1   2
BRANCH   1  74
ATOM     74  O   UNL A   1      35.497  31.107  28.672  1.00  0.00    -0.377 OA
BRANCH  74  75
ATOM     75  C   UNL A   1      36.182  30.299  27.725  1.00  0.00     0.188 C 
BRANCH  75  76
ATOM     76  C   UNL A   1      36.830  29.024  28.275  1.00  0.00     0.188 C 
BRANCH  76  77
ATOM     77  O   UNL A   1      37.809  29.312  29.253  1.00  0.00    -0.376 OA
BRANCH  77  78
ATOM     78  C   UNL A   1      38.518  28.222  29.837  1.00  0.00     0.202 C 
BRANCH  78  79
ATOM     79  C   UNL A   1      39.590  27.431  29.059  1.00  0.00     0.261 C 
BRANCH  79  80
ATOM     80  O   UNL A   1      39.485  27.434  27.615  1.00  0.00    -0.459 OA
BRANCH  80  81
ATOM     81  C   UNL A   1      40.680  27.517  26.973  1.00  0.00     0.365 C 
ATOM     82  O   UNL A   1      41.144  28.596  26.591  1.00  0.00    -0.245 OA
BRANCH  81  83
ATOM     83  C   UNL A   1      41.455  26.209  26.662  1.00  0.00     0.298 C 
ATOM     84  C   UNL A   1      40.728  24.853  26.679  1.00  0.00     0.115 C 
ATOM     85  N   UNL A   1      42.233  26.440  25.398  1.00  0.00    -0.323 N 
ATOM     86  C   UNL A   1      41.641  23.767  26.225  1.00  0.00    -0.006 A 
ATOM     87  C   UNL A   1      43.268  25.428  25.132  1.00  0.00     0.264 C 
ATOM     88  H   UNL A   1      42.687  27.351  25.466  1.00  0.00     0.347 HD
ATOM     89  H   UNL A   1      41.566  26.386  24.630  1.00  0.00     0.347 HD
ATOM     90  C   UNL A   1      42.784  24.059  25.514  1.00  0.00     0.083 A 
ATOM     91  C   UNL A   1      41.630  22.374  26.505  1.00  0.00     0.003 A 
ATOM     92  N   UNL A   1      43.398  22.867  25.231  1.00  0.00    -0.353 N 
ATOM     93  C   UNL A   1      42.735  21.826  25.852  1.00  0.00     0.046 A 
ATOM     94  C   UNL A   1      40.808  21.525  27.275  1.00  0.00     0.010 A 
ATOM     95  H   UNL A   1      44.197  22.767  24.665  1.00  0.00     0.166 HD
ATOM     96  C   UNL A   1      43.038  20.459  25.905  1.00  0.00     0.026 A 
ATOM     97  C   UNL A   1      41.114  20.161  27.360  1.00  0.00     0.001 A 
ATOM     98  C   UNL A   1      42.208  19.637  26.675  1.00  0.00     0.002 A 
BRANCH  87  99
ATOM     99  C   UNL A   1      44.639  25.774  25.709  1.00  0.00     0.041 A 
ATOM    100  C   UNL A   1      45.564  26.540  25.008  1.00  0.00     0.093 A 
ATOM    101  C   UNL A   1      45.269  25.502  26.990  1.00  0.00     0.009 A 
ATOM    102  N   UNL A   1      46.694  26.690  25.757  1.00  0.00    -0.361 N 
ATOM    103  C   UNL A   1      46.541  26.086  26.976  1.00  0.00     0.046 A 
ATOM    104  C   UNL A   1      44.914  24.838  28.186  1.00  0.00     0.011 A 
ATOM    105  H   UNL A   1      47.505  27.166  25.463  1.00  0.00     0.166 HD
ATOM    106  C   UNL A   1      47.436  26.026  28.056  1.00  0.00     0.026 A 
ATOM    107  C   UNL A   1      45.787  24.760  29.276  1.00  0.00     0.001 A 
ATOM    108  C   UNL A   1      47.037  25.350  29.210  1.00  0.00     0.002 A 
ENDBRANCH  87  99
ENDBRANCH  81  83
ENDBRANCH  80  81
ENDBRANCH  79  80
ENDBRANCH  78  79
ENDBRANCH  77  78
ENDBRANCH  76  77
ENDBRANCH  75  76
ENDBRANCH  74  75
ENDBRANCH   1  74
TORSDOF 24
ENDMDL
MODEL 3
REMARK VINA RESULT:      -9.2      3.025      5.774
REMARK SMILES O=C(OCCOCCOCCOCCOC(=O)[C@H]1Cc2c([nH]c3ccccc23)[C@H](c2c[nH]c3ccccc23)[NH2+]1)c1ccc(-c2c3nc(c(-c4cc(S(=O)(=O)[O-])ccc4F)c4ccc([nH]4)c(-c4cc(S(=O)(=O)[O-])ccc4F)c4nc(c(-c5cc(S(=O)(=O)[O-])ccc5F)c5ccc2[nH]5)C=C4)C=C3)cc1
REMARK SMILES IDX 8 1 7 2 6 3 5 4 4 5 3 6 2 7 1 8 40 9 41 10 102 11 42 12
REMARK SMILES IDX 101 13 43 14 44 15 45 16 95 17 46 18 100 19 94 20 96 21
REMARK SMILES IDX 47 22 99 23 93 24 92 25 48 27 80 28 60 29 79 30 61 31 64 32
REMARK SMILES IDX 78 33 97 34 62 35 63 36 77 38 98 39 65 40 49 41 50 42 58 43
REMARK SMILES IDX 51 44 57 45 59 46 56 47 52 48 53 49 54 50 55 51 81 52 82 53
REMARK SMILES IDX 90 54 83 55 89 56 91 57 88 58 84 59 85 60 86 61 87 62 66 63
REMARK SMILES IDX 67 64 75 65 68 66 74 67 76 68 73 69 69 70 70 71 71 72 72 73
REMARK SMILES IDX 9 74 10 75 11 76 12 77 13 78 14 79 15 80 16 81 17 82 18 83
REMARK SMILES IDX 19 84 39 85 20 86 29 87 21 90 28 91 22 92 23 93 27 94 24 96
REMARK SMILES IDX 26 97 25 98 30 99 31 100 38 101 32 102 33 103 37 104 34 106
REMARK SMILES IDX 36 107 35 108
REMARK H PARENT 96 26 64 37 39 88 39 89 22 95 32 105
REMARK Flexibility Score: inf
ROOT
ATOM      1  C   UNL A   1      33.545  27.084  26.225  1.00  0.00     0.188 C 
ENDROOT
BRANCH   1   2
ATOM      2  C   UNL A   1      34.007  28.482  25.857  1.00  0.00     0.188 C 
BRANCH   2   3
ATOM      3  O   UNL A   1      34.495  29.074  27.046  1.00  0.00    -0.376 OA
BRANCH   3   4
ATOM      4  C   UNL A   1      34.300  30.455  27.233  1.00  0.00     0.202 C 
BRANCH   4   5
ATOM      5  C   UNL A   1      35.093  31.087  28.375  1.00  0.00     0.261 C 
BRANCH   5   6
ATOM      6  O   UNL A   1      34.353  31.957  29.266  1.00  0.00    -0.460 OA
BRANCH   6   7
ATOM      7  C   UNL A   1      34.785  33.026  29.977  1.00  0.00     0.338 C 
ATOM      8  O   UNL A   1      34.334  34.146  29.760  1.00  0.00    -0.246 OA
BRANCH   7   9
ATOM      9  C   UNL A   1      35.783  32.856  31.049  1.00  0.00     0.060 A 
ATOM     10  C   UNL A   1      36.707  33.851  31.345  1.00  0.00     0.016 A 
ATOM     11  C   UNL A   1      35.721  31.726  31.863  1.00  0.00     0.016 A 
ATOM     12  C   UNL A   1      37.749  33.603  32.228  1.00  0.00     0.010 A 
ATOM     13  C   UNL A   1      36.678  31.543  32.865  1.00  0.00     0.010 A 
ATOM     14  C   UNL A   1      37.761  32.434  32.987  1.00  0.00    -0.014 A 
BRANCH  14  15
ATOM     15  C   UNL A   1      38.969  32.063  33.775  1.00  0.00     0.031 A 
ATOM     16  C   UNL A   1      38.936  32.292  35.265  1.00  0.00     0.074 A 
ATOM     17  C   UNL A   1      40.030  31.454  33.208  1.00  0.00     0.049 A 
ATOM     18  N   UNL A   1      39.909  32.287  36.135  1.00  0.00    -0.248 NA
ATOM     19  C   UNL A   1      37.620  32.606  35.844  1.00  0.00     0.031 C 
ATOM     20  C   UNL A   1      40.137  31.068  31.799  1.00  0.00     0.029 A 
ATOM     21  N   UNL A   1      41.210  31.018  33.756  1.00  0.00    -0.354 N 
ATOM     22  C   UNL A   1      39.340  32.696  37.339  1.00  0.00     0.074 A 
ATOM     23  C   UNL A   1      37.940  32.945  37.081  1.00  0.00     0.031 C 
ATOM     24  C   UNL A   1      41.281  30.390  31.612  1.00  0.00     0.029 A 
ATOM     25  C   UNL A   1      42.045  30.399  32.853  1.00  0.00     0.049 A 
ATOM     26  H   UNL A   1      41.438  31.138  34.706  1.00  0.00     0.167 HD
ATOM     27  C   UNL A   1      39.942  32.855  38.544  1.00  0.00     0.034 A 
ATOM     28  C   UNL A   1      43.302  29.935  33.004  1.00  0.00     0.034 A 
ATOM     29  C   UNL A   1      41.326  32.522  38.770  1.00  0.00     0.049 A 
ATOM     30  C   UNL A   1      43.962  30.126  34.349  1.00  0.00     0.074 A 
ATOM     31  C   UNL A   1      42.088  32.684  39.913  1.00  0.00     0.029 A 
ATOM     32  N   UNL A   1      42.150  31.920  37.824  1.00  0.00    -0.354 N 
ATOM     33  N   UNL A   1      43.465  30.658  35.444  1.00  0.00    -0.248 NA
ATOM     34  C   UNL A   1      45.353  29.679  34.472  1.00  0.00     0.031 C 
ATOM     35  C   UNL A   1      43.381  32.216  39.643  1.00  0.00     0.029 A 
ATOM     36  C   UNL A   1      43.410  31.705  38.353  1.00  0.00     0.049 A 
ATOM     37  H   UNL A   1      41.876  31.682  36.908  1.00  0.00     0.167 HD
ATOM     38  C   UNL A   1      44.483  30.602  36.389  1.00  0.00     0.074 A 
ATOM     39  C   UNL A   1      45.609  29.954  35.741  1.00  0.00     0.031 C 
ATOM     40  C   UNL A   1      44.502  31.054  37.670  1.00  0.00     0.034 A 
BRANCH  27  41
ATOM     41  C   UNL A   1      39.123  33.498  39.640  1.00  0.00     0.023 A 
ATOM     42  C   UNL A   1      38.159  32.787  40.377  1.00  0.00     0.031 A 
ATOM     43  C   UNL A   1      39.227  34.882  39.867  1.00  0.00     0.131 A 
ATOM     44  C   UNL A   1      37.269  33.477  41.217  1.00  0.00     0.055 A 
ATOM     45  C   UNL A   1      38.402  35.549  40.775  1.00  0.00     0.041 A 
ATOM     46  F   UNL A   1      40.110  35.624  39.178  1.00  0.00    -0.206 F 
ATOM     47  C   UNL A   1      37.399  34.849  41.440  1.00  0.00     0.022 A 
BRANCH  44  48
ATOM     48  S   UNL A   1      35.820  32.592  41.860  1.00  0.00     0.124 S 
ATOM     49  O   UNL A   1      34.827  33.661  41.926  1.00  0.00    -0.237 OA
ATOM     50  O   UNL A   1      35.593  31.573  40.838  1.00  0.00    -0.237 OA
ATOM     51  O   UNL A   1      36.270  32.087  43.154  1.00  0.00    -0.744 OA
ENDBRANCH  44  48
ENDBRANCH  27  41
BRANCH  28  52
ATOM     52  C   UNL A   1      44.041  29.324  31.857  1.00  0.00     0.023 A 
ATOM     53  C   UNL A   1      44.220  27.933  31.762  1.00  0.00     0.031 A 
ATOM     54  C   UNL A   1      44.613  30.124  30.851  1.00  0.00     0.131 A 
ATOM     55  C   UNL A   1      44.976  27.391  30.707  1.00  0.00     0.055 A 
ATOM     56  C   UNL A   1      45.312  29.577  29.772  1.00  0.00     0.041 A 
ATOM     57  F   UNL A   1      44.487  31.460  30.891  1.00  0.00    -0.206 F 
ATOM     58  C   UNL A   1      45.507  28.202  29.702  1.00  0.00     0.022 A 
BRANCH  55  59
ATOM     59  S   UNL A   1      45.328  25.610  30.708  1.00  0.00     0.124 S 
ATOM     60  O   UNL A   1      44.239  25.091  31.527  1.00  0.00    -0.237 OA
ATOM     61  O   UNL A   1      45.272  25.289  29.286  1.00  0.00    -0.237 OA
ATOM     62  O   UNL A   1      46.657  25.526  31.312  1.00  0.00    -0.744 OA
ENDBRANCH  55  59
ENDBRANCH  28  52
BRANCH  40  63
ATOM     63  C   UNL A   1      45.769  30.809  38.447  1.00  0.00     0.023 A 
ATOM     64  C   UNL A   1      45.939  29.653  39.227  1.00  0.00     0.031 A 
ATOM     65  C   UNL A   1      46.804  31.758  38.423  1.00  0.00     0.131 A 
ATOM     66  C   UNL A   1      47.095  29.504  40.004  1.00  0.00     0.055 A 
ATOM     67  C   UNL A   1      47.978  31.576  39.153  1.00  0.00     0.041 A 
ATOM     68  F   UNL A   1      46.688  32.877  37.690  1.00  0.00    -0.206 F 
ATOM     69  C   UNL A   1      48.122  30.451  39.961  1.00  0.00     0.022 A 
BRANCH  66  70
ATOM     70  S   UNL A   1      47.196  28.102  41.148  1.00  0.00     0.124 S 
ATOM     71  O   UNL A   1      45.857  27.531  41.049  1.00  0.00    -0.237 OA
ATOM     72  O   UNL A   1      48.274  27.305  40.571  1.00  0.00    -0.237 OA
ATOM     73  O   UNL A   1      47.509  28.729  42.432  1.00  0.00    -0.744 OA
ENDBRANCH  66  70
ENDBRANCH  40  63
ENDBRANCH  14  15
ENDBRANCH   7   9
ENDBRANCH   6   7
ENDBRANCH   5   6
ENDBRANCH   4   5
ENDBRANCH   3   4
ENDBRANCH   2   3
ENDBRANCH   1   2
BRANCH   1  74
ATOM     74  O   UNL A   1      34.273  26.062  25.554  1.00  0.00    -0.377 OA
BRANCH  74  75
ATOM     75  C   UNL A   1      34.028  25.767  24.186  1.00  0.00     0.188 C 
BRANCH  75  76
ATOM     76  C   UNL A   1      33.771  24.293  23.855  1.00  0.00     0.188 C 
BRANCH  76  77
ATOM     77  O   UNL A   1      33.510  23.530  25.016  1.00  0.00    -0.376 OA
BRANCH  77  78
ATOM     78  C   UNL A   1      33.734  22.124  24.962  1.00  0.00     0.202 C 
BRANCH  78  79
ATOM     79  C   UNL A   1      35.115  21.502  25.254  1.00  0.00     0.261 C 
BRANCH  79  80
ATOM     80  O   UNL A   1      36.104  22.363  25.869  1.00  0.00    -0.459 OA
BRANCH  80  81
ATOM     81  C   UNL A   1      37.328  22.310  25.282  1.00  0.00     0.365 C 
ATOM     82  O   UNL A   1      37.521  21.699  24.226  1.00  0.00    -0.245 OA
BRANCH  81  83
ATOM     83  C   UNL A   1      38.528  22.992  25.991  1.00  0.00     0.298 C 
ATOM     84  C   UNL A   1      38.349  24.355  26.681  1.00  0.00     0.115 C 
ATOM     85  N   UNL A   1      39.164  21.964  26.882  1.00  0.00    -0.323 N 
ATOM     86  C   UNL A   1      39.596  24.743  27.399  1.00  0.00    -0.006 A 
ATOM     87  C   UNL A   1      40.498  22.337  27.381  1.00  0.00     0.264 C 
ATOM     88  H   UNL A   1      39.252  21.095  26.354  1.00  0.00     0.347 HD
ATOM     89  H   UNL A   1      38.561  21.871  27.699  1.00  0.00     0.347 HD
ATOM     90  C   UNL A   1      40.550  23.801  27.712  1.00  0.00     0.083 A 
ATOM     91  C   UNL A   1      40.098  26.025  27.752  1.00  0.00     0.003 A 
ATOM     92  N   UNL A   1      41.558  24.452  28.374  1.00  0.00    -0.353 N 
ATOM     93  C   UNL A   1      41.325  25.813  28.382  1.00  0.00     0.046 A 
ATOM     94  C   UNL A   1      39.646  27.349  27.572  1.00  0.00     0.010 A 
ATOM     95  H   UNL A   1      42.337  24.013  28.785  1.00  0.00     0.166 HD
ATOM     96  C   UNL A   1      42.109  26.867  28.873  1.00  0.00     0.026 A 
ATOM     97  C   UNL A   1      40.432  28.413  28.033  1.00  0.00     0.001 A 
ATOM     98  C   UNL A   1      41.640  28.171  28.683  1.00  0.00     0.002 A 
BRANCH  87  99
ATOM     99  C   UNL A   1      41.646  21.870  26.490  1.00  0.00     0.041 A 
ATOM    100  C   UNL A   1      42.326  22.740  25.643  1.00  0.00     0.093 A 
ATOM    101  C   UNL A   1      42.313  20.589  26.327  1.00  0.00     0.009 A 
ATOM    102  N   UNL A   1      43.295  22.057  24.969  1.00  0.00    -0.361 N 
ATOM    103  C   UNL A   1      43.327  20.750  25.375  1.00  0.00     0.046 A 
ATOM    104  C   UNL A   1      42.197  19.295  26.884  1.00  0.00     0.011 A 
ATOM    105  H   UNL A   1      43.889  22.449  24.288  1.00  0.00     0.166 HD
ATOM    106  C   UNL A   1      44.182  19.714  24.968  1.00  0.00     0.026 A 
ATOM    107  C   UNL A   1      43.034  18.244  26.495  1.00  0.00     0.001 A 
ATOM    108  C   UNL A   1      44.018  18.454  25.545  1.00  0.00     0.002 A 
ENDBRANCH  87  99
ENDBRANCH  81  83
ENDBRANCH  80  81
ENDBRANCH  79  80
ENDBRANCH  78  79
ENDBRANCH  77  78
ENDBRANCH  76  77
ENDBRANCH  75  76
ENDBRANCH  74  75
ENDBRANCH   1  74
TORSDOF 24
ENDMDL
