MODEL 1
REMARK VINA RESULT:     -11.0      0.000      0.000
REMARK SMILES Cn1cc(C[C@@H](NC(=O)OCC2c3ccccc3-c3ccccc32)C(=O)OCCOCCOCCOCCOC(=O)c2ccc(-c3c4nc(c(-c5cc(S(=O)(=O)[O-])ccc5F)c5ccc([nH]5)c(-c5cc(S(=O)(=O)[O-])ccc5F)c5nc(c(-c6cc(S(=O)(=O)[O-])ccc6F)c6ccc3[nH]6)C=C5)C=C4)cc2)c2ccccc21
REMARK SMILES IDX 32 1 31 2 30 3 29 4 28 5 27 6 25 7 26 8 6 9 5 10 4 11 1 12
REMARK SMILES IDX 2 13 3 14 110 15 105 16 109 17 106 18 108 19 107 20 7 21
REMARK SMILES IDX 8 22 9 24 10 25 11 26 12 27 13 28 24 29 14 30 18 31 19 32
REMARK SMILES IDX 23 33 15 34 17 35 20 36 22 37 16 38 21 39 33 40 34 41 35 42
REMARK SMILES IDX 36 43 37 44 38 45 39 46 40 47 41 48 42 49 43 50 104 51 44 52
REMARK SMILES IDX 103 53 45 54 46 55 47 56 97 57 48 58 102 59 96 60 98 61
REMARK SMILES IDX 49 62 101 63 95 64 94 65 50 67 82 68 62 69 81 70 63 71 66 72
REMARK SMILES IDX 80 73 99 74 64 75 65 76 79 78 100 79 67 80 51 81 52 82 60 83
REMARK SMILES IDX 53 84 59 85 61 86 58 87 54 88 55 89 56 90 57 91 83 92 84 93
REMARK SMILES IDX 92 94 85 95 91 96 93 97 90 98 86 99 87 100 88 101 89 102
REMARK SMILES IDX 68 103 69 104 77 105 70 106 76 107 78 108 75 109 71 110
REMARK SMILES IDX 72 111 73 112 74 113
REMARK H PARENT 7 23 98 66 66 77
REMARK Flexibility Score: inf
ROOT
ATOM      1  C   UNL A   1      38.715  22.172  26.106  1.00  0.00     0.188 C 
ENDROOT
BRANCH   1   2
ATOM      2  C   UNL A   1      37.883  23.460  25.978  1.00  0.00     0.188 C 
BRANCH   2   3
ATOM      3  O   UNL A   1      37.085  23.683  24.825  1.00  0.00    -0.376 OA
BRANCH   3   4
ATOM      4  C   UNL A   1      35.756  24.179  24.956  1.00  0.00     0.202 C 
BRANCH   4   5
ATOM      5  C   UNL A   1      34.763  24.052  23.800  1.00  0.00     0.261 C 
BRANCH   5   6
ATOM      6  O   UNL A   1      34.152  22.755  23.672  1.00  0.00    -0.462 OA
BRANCH   6   7
ATOM      7  C   UNL A   1      32.794  22.734  23.665  1.00  0.00     0.329 C 
ATOM      8  O   UNL A   1      32.093  23.279  22.815  1.00  0.00    -0.250 OA
BRANCH   7   9
ATOM      9  C   UNL A   1      32.199  22.103  24.926  1.00  0.00     0.200 C 
BRANCH   9  10
ATOM     10  C   UNL A   1      33.128  21.665  26.081  1.00  0.00     0.075 C 
BRANCH  10  11
ATOM     11  C   UNL A   1      34.055  20.542  25.628  1.00  0.00    -0.020 A 
ATOM     12  C   UNL A   1      37.269  19.107  24.706  1.00  0.00     0.149 C 
ATOM     13  N   UNL A   1      35.882  19.445  24.943  1.00  0.00    -0.350 N 
ATOM     14  C   UNL A   1      35.435  20.606  25.520  1.00  0.00     0.090 A 
ATOM     15  C   UNL A   1      34.817  18.636  24.612  1.00  0.00     0.048 A 
ATOM     16  C   UNL A   1      33.674  19.246  25.136  1.00  0.00     0.003 A 
ATOM     17  C   UNL A   1      34.764  17.420  23.909  1.00  0.00     0.027 A 
ATOM     18  C   UNL A   1      32.448  18.555  25.033  1.00  0.00     0.010 A 
ATOM     19  C   UNL A   1      33.519  16.806  23.749  1.00  0.00     0.002 A 
ATOM     20  C   UNL A   1      32.378  17.355  24.319  1.00  0.00     0.001 A 
ENDBRANCH  10  11
ENDBRANCH   9  10
BRANCH   9  21
ATOM     21  N   UNL A   1      31.043  22.852  25.411  1.00  0.00    -0.308 N 
ATOM     22  C   UNL A   1      30.967  23.586  26.556  1.00  0.00     0.407 C 
ATOM     23  H   UNL A   1      30.234  22.826  24.851  1.00  0.00     0.168 HD
ATOM     24  O   UNL A   1      29.909  23.712  27.157  1.00  0.00    -0.225 OA
BRANCH  22  25
ATOM     25  O   UNL A   1      32.103  24.276  26.819  1.00  0.00    -0.449 OA
BRANCH  25  26
ATOM     26  C   UNL A   1      32.388  25.389  25.949  1.00  0.00     0.248 C 
BRANCH  26  27
ATOM     27  C   UNL A   1      31.549  26.644  26.293  1.00  0.00     0.088 C 
ATOM     28  C   UNL A   1      32.359  27.935  26.452  1.00  0.00    -0.029 A 
ATOM     29  C   UNL A   1      30.535  27.057  25.225  1.00  0.00    -0.029 A 
ATOM     30  C   UNL A   1      33.354  28.230  27.373  1.00  0.00     0.005 A 
ATOM     31  C   UNL A   1      31.875  28.926  25.569  1.00  0.00    -0.014 A 
ATOM     32  C   UNL A   1      30.809  28.364  24.769  1.00  0.00    -0.014 A 
ATOM     33  C   UNL A   1      29.507  26.313  24.670  1.00  0.00     0.005 A 
ATOM     34  C   UNL A   1      33.853  29.536  27.416  1.00  0.00     0.000 A 
ATOM     35  C   UNL A   1      32.371  30.221  25.611  1.00  0.00     0.009 A 
ATOM     36  C   UNL A   1      30.116  28.897  23.695  1.00  0.00     0.009 A 
ATOM     37  C   UNL A   1      28.826  26.837  23.570  1.00  0.00     0.000 A 
ATOM     38  C   UNL A   1      33.361  30.525  26.547  1.00  0.00     0.001 A 
ATOM     39  C   UNL A   1      29.136  28.116  23.079  1.00  0.00     0.001 A 
ENDBRANCH  26  27
ENDBRANCH  25  26
ENDBRANCH  22  25
ENDBRANCH   9  21
ENDBRANCH   7   9
ENDBRANCH   6   7
ENDBRANCH   5   6
ENDBRANCH   4   5
ENDBRANCH   3   4
ENDBRANCH   2   3
ENDBRANCH   1   2
BRANCH   1  40
ATOM     40  O   UNL A   1      39.559  22.113  27.238  1.00  0.00    -0.377 OA
BRANCH  40  41
ATOM     41  C   UNL A   1      40.950  22.370  27.066  1.00  0.00     0.188 C 
BRANCH  41  42
ATOM     42  C   UNL A   1      41.771  21.452  26.143  1.00  0.00     0.188 C 
BRANCH  42  43
ATOM     43  O   UNL A   1      42.122  20.208  26.744  1.00  0.00    -0.376 OA
BRANCH  43  44
ATOM     44  C   UNL A   1      42.202  19.071  25.893  1.00  0.00     0.202 C 
BRANCH  44  45
ATOM     45  C   UNL A   1      43.615  18.636  25.472  1.00  0.00     0.261 C 
BRANCH  45  46
ATOM     46  O   UNL A   1      44.138  19.231  24.271  1.00  0.00    -0.460 OA
BRANCH  46  47
ATOM     47  C   UNL A   1      45.334  19.857  24.326  1.00  0.00     0.338 C 
ATOM     48  O   UNL A   1      46.399  19.447  23.909  1.00  0.00    -0.246 OA
BRANCH  47  49
ATOM     49  C   UNL A   1      45.095  21.228  24.820  1.00  0.00     0.060 A 
ATOM     50  C   UNL A   1      44.615  22.198  23.930  1.00  0.00     0.016 A 
ATOM     51  C   UNL A   1      45.373  21.554  26.149  1.00  0.00     0.016 A 
ATOM     52  C   UNL A   1      44.456  23.516  24.360  1.00  0.00     0.010 A 
ATOM     53  C   UNL A   1      45.231  22.877  26.570  1.00  0.00     0.010 A 
ATOM     54  C   UNL A   1      44.810  23.870  25.668  1.00  0.00    -0.014 A 
BRANCH  54  55
ATOM     55  C   UNL A   1      44.972  25.296  26.039  1.00  0.00     0.031 A 
ATOM     56  C   UNL A   1      46.355  25.886  25.965  1.00  0.00     0.074 A 
ATOM     57  C   UNL A   1      43.932  26.045  26.443  1.00  0.00     0.049 A 
ATOM     58  N   UNL A   1      46.783  27.060  26.351  1.00  0.00    -0.248 NA
ATOM     59  C   UNL A   1      47.397  25.023  25.386  1.00  0.00     0.031 C 
ATOM     60  C   UNL A   1      42.541  25.599  26.500  1.00  0.00     0.029 A 
ATOM     61  N   UNL A   1      43.891  27.337  26.901  1.00  0.00    -0.354 N 
ATOM     62  C   UNL A   1      48.144  27.075  26.066  1.00  0.00     0.074 A 
ATOM     63  C   UNL A   1      48.475  25.781  25.509  1.00  0.00     0.031 C 
ATOM     64  C   UNL A   1      41.784  26.599  26.987  1.00  0.00     0.029 A 
ATOM     65  C   UNL A   1      42.643  27.736  27.319  1.00  0.00     0.049 A 
ATOM     66  H   UNL A   1      44.680  27.925  26.928  1.00  0.00     0.167 HD
ATOM     67  C   UNL A   1      49.036  28.078  26.252  1.00  0.00     0.034 A 
ATOM     68  C   UNL A   1      42.250  28.872  27.931  1.00  0.00     0.034 A 
ATOM     69  C   UNL A   1      48.694  29.353  26.830  1.00  0.00     0.049 A 
ATOM     70  C   UNL A   1      43.282  29.938  28.228  1.00  0.00     0.074 A 
ATOM     71  C   UNL A   1      49.514  30.441  27.066  1.00  0.00     0.029 A 
ATOM     72  N   UNL A   1      47.427  29.705  27.278  1.00  0.00    -0.354 N 
ATOM     73  N   UNL A   1      44.569  29.943  27.961  1.00  0.00    -0.248 NA
ATOM     74  C   UNL A   1      42.808  31.152  28.907  1.00  0.00     0.031 C 
ATOM     75  C   UNL A   1      48.762  31.422  27.721  1.00  0.00     0.029 A 
ATOM     76  C   UNL A   1      47.452  30.981  27.819  1.00  0.00     0.049 A 
ATOM     77  H   UNL A   1      46.628  29.133  27.219  1.00  0.00     0.167 HD
ATOM     78  C   UNL A   1      45.047  31.173  28.406  1.00  0.00     0.074 A 
ATOM     79  C   UNL A   1      43.910  31.886  28.953  1.00  0.00     0.031 C 
ATOM     80  C   UNL A   1      46.308  31.675  28.361  1.00  0.00     0.034 A 
BRANCH  67  81
ATOM     81  C   UNL A   1      50.472  27.802  25.878  1.00  0.00     0.023 A 
ATOM     82  C   UNL A   1      50.921  27.890  24.549  1.00  0.00     0.031 A 
ATOM     83  C   UNL A   1      51.396  27.406  26.860  1.00  0.00     0.131 A 
ATOM     84  C   UNL A   1      52.235  27.518  24.228  1.00  0.00     0.055 A 
ATOM     85  C   UNL A   1      52.725  27.114  26.546  1.00  0.00     0.041 A 
ATOM     86  F   UNL A   1      51.018  27.278  28.142  1.00  0.00    -0.206 F 
ATOM     87  C   UNL A   1      53.147  27.154  25.221  1.00  0.00     0.022 A 
BRANCH  84  88
ATOM     88  S   UNL A   1      52.693  27.374  22.479  1.00  0.00     0.124 S 
ATOM     89  O   UNL A   1      53.679  26.296  22.519  1.00  0.00    -0.237 OA
ATOM     90  O   UNL A   1      51.421  27.052  21.844  1.00  0.00    -0.237 OA
ATOM     91  O   UNL A   1      53.235  28.692  22.157  1.00  0.00    -0.744 OA
ENDBRANCH  84  88
ENDBRANCH  67  81
BRANCH  68  92
ATOM     92  C   UNL A   1      40.833  29.055  28.362  1.00  0.00     0.023 A 
ATOM     93  C   UNL A   1      40.463  28.942  29.712  1.00  0.00     0.031 A 
ATOM     94  C   UNL A   1      39.814  29.279  27.418  1.00  0.00     0.131 A 
ATOM     95  C   UNL A   1      39.109  29.002  30.075  1.00  0.00     0.055 A 
ATOM     96  C   UNL A   1      38.474  29.395  27.791  1.00  0.00     0.041 A 
ATOM     97  F   UNL A   1      40.109  29.390  26.113  1.00  0.00    -0.206 F 
ATOM     98  C   UNL A   1      38.113  29.241  29.126  1.00  0.00     0.022 A 
BRANCH  95  99
ATOM     99  S   UNL A   1      38.656  28.669  31.800  1.00  0.00     0.124 S 
ATOM    100  O   UNL A   1      37.213  28.881  31.774  1.00  0.00    -0.237 OA
ATOM    101  O   UNL A   1      39.098  27.288  31.966  1.00  0.00    -0.237 OA
ATOM    102  O   UNL A   1      39.421  29.661  32.551  1.00  0.00    -0.744 OA
ENDBRANCH  95  99
ENDBRANCH  68  92
BRANCH  80 103
ATOM    103  C   UNL A   1      46.511  33.085  28.861  1.00  0.00     0.023 A 
ATOM    104  C   UNL A   1      46.225  34.207  28.065  1.00  0.00     0.031 A 
ATOM    105  C   UNL A   1      46.985  33.305  30.168  1.00  0.00     0.131 A 
ATOM    106  C   UNL A   1      46.459  35.497  28.566  1.00  0.00     0.055 A 
ATOM    107  C   UNL A   1      47.160  34.590  30.680  1.00  0.00     0.041 A 
ATOM    108  F   UNL A   1      47.274  32.270  30.973  1.00  0.00    -0.206 F 
ATOM    109  C   UNL A   1      46.907  35.696  29.875  1.00  0.00     0.022 A 
BRANCH 106 110
ATOM    110  S   UNL A   1      46.240  36.918  27.459  1.00  0.00     0.124 S 
ATOM    111  O   UNL A   1      47.270  36.681  26.453  1.00  0.00    -0.237 OA
ATOM    112  O   UNL A   1      44.861  36.755  27.010  1.00  0.00    -0.237 OA
ATOM    113  O   UNL A   1      46.475  38.070  28.328  1.00  0.00    -0.744 OA
ENDBRANCH 106 110
ENDBRANCH  80 103
ENDBRANCH  54  55
ENDBRANCH  47  49
ENDBRANCH  46  47
ENDBRANCH  45  46
ENDBRANCH  44  45
ENDBRANCH  43  44
ENDBRANCH  42  43
ENDBRANCH  41  42
ENDBRANCH  40  41
ENDBRANCH   1  40
TORSDOF 29
ENDMDL
MODEL 2
REMARK VINA RESULT:     -10.8      1.416      7.308
REMARK SMILES Cn1cc(C[C@@H](NC(=O)OCC2c3ccccc3-c3ccccc32)C(=O)OCCOCCOCCOCCOC(=O)c2ccc(-c3c4nc(c(-c5cc(S(=O)(=O)[O-])ccc5F)c5ccc([nH]5)c(-c5cc(S(=O)(=O)[O-])ccc5F)c5nc(c(-c6cc(S(=O)(=O)[O-])ccc6F)c6ccc3[nH]6)C=C5)C=C4)cc2)c2ccccc21
REMARK SMILES IDX 32 1 31 2 30 3 29 4 28 5 27 6 25 7 26 8 6 9 5 10 4 11 1 12
REMARK SMILES IDX 2 13 3 14 110 15 105 16 109 17 106 18 108 19 107 20 7 21
REMARK SMILES IDX 8 22 9 24 10 25 11 26 12 27 13 28 24 29 14 30 18 31 19 32
REMARK SMILES IDX 23 33 15 34 17 35 20 36 22 37 16 38 21 39 33 40 34 41 35 42
REMARK SMILES IDX 36 43 37 44 38 45 39 46 40 47 41 48 42 49 43 50 104 51 44 52
REMARK SMILES IDX 103 53 45 54 46 55 47 56 97 57 48 58 102 59 96 60 98 61
REMARK SMILES IDX 49 62 101 63 95 64 94 65 50 67 82 68 62 69 81 70 63 71 66 72
REMARK SMILES IDX 80 73 99 74 64 75 65 76 79 78 100 79 67 80 51 81 52 82 60 83
REMARK SMILES IDX 53 84 59 85 61 86 58 87 54 88 55 89 56 90 57 91 83 92 84 93
REMARK SMILES IDX 92 94 85 95 91 96 93 97 90 98 86 99 87 100 88 101 89 102
REMARK SMILES IDX 68 103 69 104 77 105 70 106 76 107 78 108 75 109 71 110
REMARK SMILES IDX 72 111 73 112 74 113
REMARK H PARENT 7 23 98 66 66 77
REMARK Flexibility Score: inf
ROOT
ATOM      1  C   UNL A   1      38.329  21.996  25.376  1.00  0.00     0.188 C 
ENDROOT
BRANCH   1   2
ATOM      2  C   UNL A   1      37.108  22.828  25.804  1.00  0.00     0.188 C 
BRANCH   2   3
ATOM      3  O   UNL A   1      36.288  23.450  24.825  1.00  0.00    -0.376 OA
BRANCH   3   4
ATOM      4  C   UNL A   1      35.377  24.479  25.199  1.00  0.00     0.202 C 
BRANCH   4   5
ATOM      5  C   UNL A   1      34.318  24.975  24.214  1.00  0.00     0.261 C 
BRANCH   5   6
ATOM      6  O   UNL A   1      33.662  23.937  23.464  1.00  0.00    -0.462 OA
BRANCH   6   7
ATOM      7  C   UNL A   1      32.306  23.912  23.541  1.00  0.00     0.329 C 
ATOM      8  O   UNL A   1      31.564  24.759  23.047  1.00  0.00    -0.250 OA
BRANCH   7   9
ATOM      9  C   UNL A   1      31.779  22.808  24.460  1.00  0.00     0.200 C 
BRANCH   9  10
ATOM     10  C   UNL A   1      32.766  21.980  25.314  1.00  0.00     0.075 C 
BRANCH  10  11
ATOM     11  C   UNL A   1      32.647  20.495  24.983  1.00  0.00    -0.020 A 
ATOM     12  C   UNL A   1      32.930  16.939  25.699  1.00  0.00     0.149 C 
ATOM     13  N   UNL A   1      32.803  18.268  25.140  1.00  0.00    -0.350 N 
ATOM     14  C   UNL A   1      32.867  19.438  25.852  1.00  0.00     0.090 A 
ATOM     15  C   UNL A   1      32.602  18.533  23.803  1.00  0.00     0.048 A 
ATOM     16  C   UNL A   1      32.384  19.910  23.697  1.00  0.00     0.003 A 
ATOM     17  C   UNL A   1      32.584  17.682  22.684  1.00  0.00     0.027 A 
ATOM     18  C   UNL A   1      32.037  20.430  22.432  1.00  0.00     0.010 A 
ATOM     19  C   UNL A   1      32.324  18.245  21.433  1.00  0.00     0.002 A 
ATOM     20  C   UNL A   1      32.035  19.599  21.309  1.00  0.00     0.001 A 
ENDBRANCH  10  11
ENDBRANCH   9  10
BRANCH   9  21
ATOM     21  N   UNL A   1      30.628  23.257  25.239  1.00  0.00    -0.308 N 
ATOM     22  C   UNL A   1      30.655  23.902  26.439  1.00  0.00     0.407 C 
ATOM     23  H   UNL A   1      29.740  23.076  24.856  1.00  0.00     0.168 HD
ATOM     24  O   UNL A   1      29.752  23.760  27.252  1.00  0.00    -0.225 OA
BRANCH  22  25
ATOM     25  O   UNL A   1      31.651  24.815  26.526  1.00  0.00    -0.449 OA
BRANCH  25  26
ATOM     26  C   UNL A   1      31.244  26.190  26.668  1.00  0.00     0.248 C 
BRANCH  26  27
ATOM     27  C   UNL A   1      31.858  27.108  25.582  1.00  0.00     0.088 C 
ATOM     28  C   UNL A   1      30.837  27.878  24.738  1.00  0.00    -0.029 A 
ATOM     29  C   UNL A   1      32.727  28.248  26.114  1.00  0.00    -0.029 A 
ATOM     30  C   UNL A   1      29.852  27.382  23.897  1.00  0.00     0.005 A 
ATOM     31  C   UNL A   1      31.091  29.266  24.814  1.00  0.00    -0.014 A 
ATOM     32  C   UNL A   1      32.199  29.494  25.714  1.00  0.00    -0.014 A 
ATOM     33  C   UNL A   1      33.845  28.180  26.930  1.00  0.00     0.005 A 
ATOM     34  C   UNL A   1      29.129  28.288  23.115  1.00  0.00     0.000 A 
ATOM     35  C   UNL A   1      30.372  30.164  24.040  1.00  0.00     0.009 A 
ATOM     36  C   UNL A   1      32.732  30.676  26.202  1.00  0.00     0.009 A 
ATOM     37  C   UNL A   1      34.364  29.369  27.446  1.00  0.00     0.000 A 
ATOM     38  C   UNL A   1      29.390  29.667  23.180  1.00  0.00     0.001 A 
ATOM     39  C   UNL A   1      33.805  30.607  27.093  1.00  0.00     0.001 A 
ENDBRANCH  26  27
ENDBRANCH  25  26
ENDBRANCH  22  25
ENDBRANCH   9  21
ENDBRANCH   7   9
ENDBRANCH   6   7
ENDBRANCH   5   6
ENDBRANCH   4   5
ENDBRANCH   3   4
ENDBRANCH   2   3
ENDBRANCH   1   2
BRANCH   1  40
ATOM     40  O   UNL A   1      39.156  21.555  26.435  1.00  0.00    -0.377 OA
BRANCH  40  41
ATOM     41  C   UNL A   1      40.321  22.312  26.750  1.00  0.00     0.188 C 
BRANCH  41  42
ATOM     42  C   UNL A   1      41.695  21.797  26.288  1.00  0.00     0.188 C 
BRANCH  42  43
ATOM     43  O   UNL A   1      42.035  20.522  26.826  1.00  0.00    -0.376 OA
BRANCH  43  44
ATOM     44  C   UNL A   1      41.952  19.401  25.953  1.00  0.00     0.202 C 
BRANCH  44  45
ATOM     45  C   UNL A   1      43.286  18.866  25.410  1.00  0.00     0.261 C 
BRANCH  45  46
ATOM     46  O   UNL A   1      43.833  19.547  24.266  1.00  0.00    -0.460 OA
BRANCH  46  47
ATOM     47  C   UNL A   1      45.105  19.998  24.328  1.00  0.00     0.338 C 
ATOM     48  O   UNL A   1      46.096  19.471  23.863  1.00  0.00    -0.246 OA
BRANCH  47  49
ATOM     49  C   UNL A   1      45.067  21.357  24.904  1.00  0.00     0.060 A 
ATOM     50  C   UNL A   1      44.769  22.443  24.070  1.00  0.00     0.016 A 
ATOM     51  C   UNL A   1      45.352  21.555  26.257  1.00  0.00     0.016 A 
ATOM     52  C   UNL A   1      44.803  23.741  24.581  1.00  0.00     0.010 A 
ATOM     53  C   UNL A   1      45.405  22.855  26.760  1.00  0.00     0.010 A 
ATOM     54  C   UNL A   1      45.169  23.955  25.916  1.00  0.00    -0.014 A 
BRANCH  54  55
ATOM     55  C   UNL A   1      45.539  25.313  26.381  1.00  0.00     0.031 A 
ATOM     56  C   UNL A   1      44.437  26.206  26.884  1.00  0.00     0.074 A 
ATOM     57  C   UNL A   1      46.809  25.752  26.345  1.00  0.00     0.049 A 
ATOM     58  N   UNL A   1      44.474  27.466  27.225  1.00  0.00    -0.248 NA
ATOM     59  C   UNL A   1      43.107  25.586  27.005  1.00  0.00     0.031 C 
ATOM     60  C   UNL A   1      47.966  24.959  25.932  1.00  0.00     0.029 A 
ATOM     61  N   UNL A   1      47.334  26.983  26.646  1.00  0.00    -0.354 N 
ATOM     62  C   UNL A   1      43.174  27.794  27.597  1.00  0.00     0.074 A 
ATOM     63  C   UNL A   1      42.367  26.608  27.405  1.00  0.00     0.031 C 
ATOM     64  C   UNL A   1      49.064  25.734  25.987  1.00  0.00     0.029 A 
ATOM     65  C   UNL A   1      48.681  27.086  26.393  1.00  0.00     0.049 A 
ATOM     66  H   UNL A   1      46.796  27.724  27.009  1.00  0.00     0.167 HD
ATOM     67  C   UNL A   1      42.699  28.976  28.058  1.00  0.00     0.034 A 
ATOM     68  C   UNL A   1      49.499  28.158  26.449  1.00  0.00     0.034 A 
ATOM     69  C   UNL A   1      43.512  30.154  28.221  1.00  0.00     0.049 A 
ATOM     70  C   UNL A   1      48.925  29.495  26.863  1.00  0.00     0.074 A 
ATOM     71  C   UNL A   1      43.138  31.405  28.678  1.00  0.00     0.029 A 
ATOM     72  N   UNL A   1      44.865  30.231  27.917  1.00  0.00    -0.354 N 
ATOM     73  N   UNL A   1      47.694  29.798  27.208  1.00  0.00    -0.248 NA
ATOM     74  C   UNL A   1      49.853  30.635  26.897  1.00  0.00     0.031 C 
ATOM     75  C   UNL A   1      44.244  32.255  28.583  1.00  0.00     0.029 A 
ATOM     76  C   UNL A   1      45.332  31.516  28.145  1.00  0.00     0.049 A 
ATOM     77  H   UNL A   1      45.413  29.482  27.588  1.00  0.00     0.167 HD
ATOM     78  C   UNL A   1      47.711  31.152  27.535  1.00  0.00     0.074 A 
ATOM     79  C   UNL A   1      49.075  31.606  27.350  1.00  0.00     0.031 C 
ATOM     80  C   UNL A   1      46.696  31.951  27.955  1.00  0.00     0.034 A 
BRANCH  67  81
ATOM     81  C   UNL A   1      41.221  29.056  28.357  1.00  0.00     0.023 A 
ATOM     82  C   UNL A   1      40.727  28.985  29.671  1.00  0.00     0.031 A 
ATOM     83  C   UNL A   1      40.292  29.163  27.308  1.00  0.00     0.131 A 
ATOM     84  C   UNL A   1      39.343  28.951  29.896  1.00  0.00     0.055 A 
ATOM     85  C   UNL A   1      38.917  29.210  27.545  1.00  0.00     0.041 A 
ATOM     86  F   UNL A   1      40.704  29.207  26.031  1.00  0.00    -0.206 F 
ATOM     87  C   UNL A   1      38.434  29.088  28.844  1.00  0.00     0.022 A 
BRANCH  84  88
ATOM     88  S   UNL A   1      38.746  28.578  31.568  1.00  0.00     0.124 S 
ATOM     89  O   UNL A   1      39.857  29.049  32.390  1.00  0.00    -0.237 OA
ATOM     90  O   UNL A   1      37.517  29.359  31.647  1.00  0.00    -0.237 OA
ATOM     91  O   UNL A   1      38.563  27.128  31.552  1.00  0.00    -0.744 OA
ENDBRANCH  84  88
ENDBRANCH  67  81
BRANCH  68  92
ATOM     92  C   UNL A   1      50.934  28.042  26.055  1.00  0.00     0.023 A 
ATOM     93  C   UNL A   1      51.317  28.029  24.705  1.00  0.00     0.031 A 
ATOM     94  C   UNL A   1      51.939  27.875  27.025  1.00  0.00     0.131 A 
ATOM     95  C   UNL A   1      52.659  27.803  24.359  1.00  0.00     0.055 A 
ATOM     96  C   UNL A   1      53.280  27.706  26.678  1.00  0.00     0.041 A 
ATOM     97  F   UNL A   1      51.628  27.873  28.331  1.00  0.00    -0.206 F 
ATOM     98  C   UNL A   1      53.645  27.654  25.337  1.00  0.00     0.022 A 
BRANCH  95  99
ATOM     99  S   UNL A   1      53.085  27.609  22.606  1.00  0.00     0.124 S 
ATOM    100  O   UNL A   1      51.791  27.813  21.962  1.00  0.00    -0.237 OA
ATOM    101  O   UNL A   1      54.070  28.668  22.416  1.00  0.00    -0.237 OA
ATOM    102  O   UNL A   1      53.612  26.249  22.532  1.00  0.00    -0.744 OA
ENDBRANCH  95  99
ENDBRANCH  68  92
BRANCH  80 103
ATOM    103  C   UNL A   1      47.036  33.379  28.306  1.00  0.00     0.023 A 
ATOM    104  C   UNL A   1      47.336  33.772  29.621  1.00  0.00     0.031 A 
ATOM    105  C   UNL A   1      47.076  34.358  27.297  1.00  0.00     0.131 A 
ATOM    106  C   UNL A   1      47.617  35.118  29.900  1.00  0.00     0.055 A 
ATOM    107  C   UNL A   1      47.414  35.683  27.571  1.00  0.00     0.041 A 
ATOM    108  F   UNL A   1      46.799  34.038  26.022  1.00  0.00    -0.206 F 
ATOM    109  C   UNL A   1      47.676  36.073  28.881  1.00  0.00     0.022 A 
BRANCH 106 110
ATOM    110  S   UNL A   1      47.835  35.626  31.628  1.00  0.00     0.124 S 
ATOM    111  O   UNL A   1      49.238  36.026  31.653  1.00  0.00    -0.237 OA
ATOM    112  O   UNL A   1      46.863  36.706  31.761  1.00  0.00    -0.237 OA
ATOM    113  O   UNL A   1      47.521  34.416  32.385  1.00  0.00    -0.744 OA
ENDBRANCH 106 110
ENDBRANCH  80 103
ENDBRANCH  54  55
ENDBRANCH  47  49
ENDBRANCH  46  47
ENDBRANCH  45  46
ENDBRANCH  44  45
ENDBRANCH  43  44
ENDBRANCH  42  43
ENDBRANCH  41  42
ENDBRANCH  40  41
ENDBRANCH   1  40
TORSDOF 29
ENDMDL
MODEL 3
REMARK VINA RESULT:      -9.7      3.253      9.214
REMARK SMILES Cn1cc(C[C@@H](NC(=O)OCC2c3ccccc3-c3ccccc32)C(=O)OCCOCCOCCOCCOC(=O)c2ccc(-c3c4nc(c(-c5cc(S(=O)(=O)[O-])ccc5F)c5ccc([nH]5)c(-c5cc(S(=O)(=O)[O-])ccc5F)c5nc(c(-c6cc(S(=O)(=O)[O-])ccc6F)c6ccc3[nH]6)C=C5)C=C4)cc2)c2ccccc21
REMARK SMILES IDX 32 1 31 2 30 3 29 4 28 5 27 6 25 7 26 8 6 9 5 10 4 11 1 12
REMARK SMILES IDX 2 13 3 14 110 15 105 16 109 17 106 18 108 19 107 20 7 21
REMARK SMILES IDX 8 22 9 24 10 25 11 26 12 27 13 28 24 29 14 30 18 31 19 32
REMARK SMILES IDX 23 33 15 34 17 35 20 36 22 37 16 38 21 39 33 40 34 41 35 42
REMARK SMILES IDX 36 43 37 44 38 45 39 46 40 47 41 48 42 49 43 50 104 51 44 52
REMARK SMILES IDX 103 53 45 54 46 55 47 56 97 57 48 58 102 59 96 60 98 61
REMARK SMILES IDX 49 62 101 63 95 64 94 65 50 67 82 68 62 69 81 70 63 71 66 72
REMARK SMILES IDX 80 73 99 74 64 75 65 76 79 78 100 79 67 80 51 81 52 82 60 83
REMARK SMILES IDX 53 84 59 85 61 86 58 87 54 88 55 89 56 90 57 91 83 92 84 93
REMARK SMILES IDX 92 94 85 95 91 96 93 97 90 98 86 99 87 100 88 101 89 102
REMARK SMILES IDX 68 103 69 104 77 105 70 106 76 107 78 108 75 109 71 110
REMARK SMILES IDX 72 111 73 112 74 113
REMARK H PARENT 7 23 98 66 66 77
REMARK Flexibility Score: inf
ROOT
ATOM      1  C   UNL A   1      32.201  22.619  25.496  1.00  0.00     0.188 C 
ENDROOT
BRANCH   1   2
ATOM      2  C   UNL A   1      32.403  23.304  26.859  1.00  0.00     0.188 C 
BRANCH   2   3
ATOM      3  O   UNL A   1      31.417  24.192  27.367  1.00  0.00    -0.376 OA
BRANCH   3   4
ATOM      4  C   UNL A   1      30.671  25.020  26.480  1.00  0.00     0.202 C 
BRANCH   4   5
ATOM      5  C   UNL A   1      30.989  26.510  26.356  1.00  0.00     0.261 C 
BRANCH   5   6
ATOM      6  O   UNL A   1      31.898  27.015  27.351  1.00  0.00    -0.462 OA
BRANCH   6   7
ATOM      7  C   UNL A   1      33.089  27.478  26.889  1.00  0.00     0.329 C 
ATOM      8  O   UNL A   1      33.821  26.867  26.113  1.00  0.00    -0.250 OA
BRANCH   7   9
ATOM      9  C   UNL A   1      33.527  28.779  27.565  1.00  0.00     0.200 C 
BRANCH   9  10
ATOM     10  C   UNL A   1      34.925  29.369  27.268  1.00  0.00     0.075 C 
BRANCH  10  11
ATOM     11  C   UNL A   1      35.426  30.186  28.456  1.00  0.00    -0.020 A 
ATOM     12  C   UNL A   1      36.999  30.628  31.706  1.00  0.00     0.149 C 
ATOM     13  N   UNL A   1      36.272  30.719  30.458  1.00  0.00    -0.350 N 
ATOM     14  C   UNL A   1      36.139  29.706  29.542  1.00  0.00     0.090 A 
ATOM     15  C   UNL A   1      35.610  31.845  30.023  1.00  0.00     0.048 A 
ATOM     16  C   UNL A   1      35.174  31.575  28.723  1.00  0.00     0.003 A 
ATOM     17  C   UNL A   1      35.368  33.077  30.655  1.00  0.00     0.027 A 
ATOM     18  C   UNL A   1      34.559  32.620  28.000  1.00  0.00     0.010 A 
ATOM     19  C   UNL A   1      34.678  34.059  29.941  1.00  0.00     0.002 A 
ATOM     20  C   UNL A   1      34.294  33.842  28.624  1.00  0.00     0.001 A 
ENDBRANCH  10  11
ENDBRANCH   9  10
BRANCH   9  21
ATOM     21  N   UNL A   1      32.482  29.797  27.505  1.00  0.00    -0.308 N 
ATOM     22  C   UNL A   1      31.930  30.337  26.383  1.00  0.00     0.407 C 
ATOM     23  H   UNL A   1      32.140  30.128  28.367  1.00  0.00     0.168 HD
ATOM     24  O   UNL A   1      31.511  31.486  26.374  1.00  0.00    -0.225 OA
BRANCH  22  25
ATOM     25  O   UNL A   1      31.740  29.428  25.397  1.00  0.00    -0.449 OA
BRANCH  25  26
ATOM     26  C   UNL A   1      32.395  29.702  24.143  1.00  0.00     0.248 C 
BRANCH  26  27
ATOM     27  C   UNL A   1      31.737  28.961  22.953  1.00  0.00     0.088 C 
ATOM     28  C   UNL A   1      32.001  27.452  22.908  1.00  0.00    -0.029 A 
ATOM     29  C   UNL A   1      30.208  28.997  22.933  1.00  0.00    -0.029 A 
ATOM     30  C   UNL A   1      33.211  26.785  22.779  1.00  0.00     0.005 A 
ATOM     31  C   UNL A   1      30.779  26.743  22.892  1.00  0.00    -0.014 A 
ATOM     32  C   UNL A   1      29.687  27.687  22.983  1.00  0.00    -0.014 A 
ATOM     33  C   UNL A   1      29.365  30.096  22.935  1.00  0.00     0.005 A 
ATOM     34  C   UNL A   1      33.188  25.395  22.617  1.00  0.00     0.000 A 
ATOM     35  C   UNL A   1      30.757  25.366  22.734  1.00  0.00     0.009 A 
ATOM     36  C   UNL A   1      28.326  27.473  23.127  1.00  0.00     0.009 A 
ATOM     37  C   UNL A   1      27.996  29.884  23.109  1.00  0.00     0.000 A 
ATOM     38  C   UNL A   1      31.972  24.692  22.588  1.00  0.00     0.001 A 
ATOM     39  C   UNL A   1      27.482  28.582  23.216  1.00  0.00     0.001 A 
ENDBRANCH  26  27
ENDBRANCH  25  26
ENDBRANCH  22  25
ENDBRANCH   9  21
ENDBRANCH   7   9
ENDBRANCH   6   7
ENDBRANCH   5   6
ENDBRANCH   4   5
ENDBRANCH   3   4
ENDBRANCH   2   3
ENDBRANCH   1   2
BRANCH   1  40
ATOM     40  O   UNL A   1      33.387  22.186  24.861  1.00  0.00    -0.377 OA
BRANCH  40  41
ATOM     41  C   UNL A   1      33.942  20.929  25.240  1.00  0.00     0.188 C 
BRANCH  41  42
ATOM     42  C   UNL A   1      35.334  20.538  24.714  1.00  0.00     0.188 C 
BRANCH  42  43
ATOM     43  O   UNL A   1      36.390  20.832  25.625  1.00  0.00    -0.376 OA
BRANCH  43  44
ATOM     44  C   UNL A   1      37.619  21.290  25.074  1.00  0.00     0.202 C 
BRANCH  44  45
ATOM     45  C   UNL A   1      38.804  21.387  26.049  1.00  0.00     0.261 C 
BRANCH  45  46
ATOM     46  O   UNL A   1      39.365  22.697  26.250  1.00  0.00    -0.460 OA
BRANCH  46  47
ATOM     47  C   UNL A   1      38.533  23.717  26.557  1.00  0.00     0.338 C 
ATOM     48  O   UNL A   1      37.320  23.719  26.504  1.00  0.00    -0.246 OA
BRANCH  47  49
ATOM     49  C   UNL A   1      39.351  24.789  27.160  1.00  0.00     0.060 A 
ATOM     50  C   UNL A   1      39.054  26.124  26.857  1.00  0.00     0.016 A 
ATOM     51  C   UNL A   1      40.422  24.469  27.997  1.00  0.00     0.016 A 
ATOM     52  C   UNL A   1      39.863  27.146  27.356  1.00  0.00     0.010 A 
ATOM     53  C   UNL A   1      41.240  25.492  28.479  1.00  0.00     0.010 A 
ATOM     54  C   UNL A   1      40.987  26.830  28.129  1.00  0.00    -0.014 A 
BRANCH  54  55
ATOM     55  C   UNL A   1      42.033  27.850  28.379  1.00  0.00     0.031 A 
ATOM     56  C   UNL A   1      41.632  29.096  29.122  1.00  0.00     0.074 A 
ATOM     57  C   UNL A   1      43.296  27.689  27.949  1.00  0.00     0.049 A 
ATOM     58  N   UNL A   1      42.317  30.184  29.357  1.00  0.00    -0.248 NA
ATOM     59  C   UNL A   1      40.263  29.115  29.663  1.00  0.00     0.031 C 
ATOM     60  C   UNL A   1      43.813  26.502  27.270  1.00  0.00     0.029 A 
ATOM     61  N   UNL A   1      44.371  28.540  28.006  1.00  0.00    -0.354 N 
ATOM     62  C   UNL A   1      41.462  31.020  30.067  1.00  0.00     0.074 A 
ATOM     63  C   UNL A   1      40.198  30.326  30.194  1.00  0.00     0.031 C 
ATOM     64  C   UNL A   1      45.104  26.711  26.955  1.00  0.00     0.029 A 
ATOM     65  C   UNL A   1      45.490  28.060  27.368  1.00  0.00     0.049 A 
ATOM     66  H   UNL A   1      44.343  29.413  28.462  1.00  0.00     0.167 HD
ATOM     67  C   UNL A   1      41.709  32.254  30.570  1.00  0.00     0.034 A 
ATOM     68  C   UNL A   1      46.673  28.658  27.116  1.00  0.00     0.034 A 
ATOM     69  C   UNL A   1      42.967  32.941  30.415  1.00  0.00     0.049 A 
ATOM     70  C   UNL A   1      46.892  30.077  27.592  1.00  0.00     0.074 A 
ATOM     71  C   UNL A   1      43.330  34.192  30.880  1.00  0.00     0.029 A 
ATOM     72  N   UNL A   1      44.064  32.439  29.728  1.00  0.00    -0.354 N 
ATOM     73  N   UNL A   1      46.077  30.863  28.259  1.00  0.00    -0.248 NA
ATOM     74  C   UNL A   1      48.193  30.688  27.283  1.00  0.00     0.031 C 
ATOM     75  C   UNL A   1      44.618  34.475  30.414  1.00  0.00     0.029 A 
ATOM     76  C   UNL A   1      45.092  33.368  29.728  1.00  0.00     0.049 A 
ATOM     77  H   UNL A   1      44.107  31.552  29.302  1.00  0.00     0.167 HD
ATOM     78  C   UNL A   1      46.781  32.045  28.479  1.00  0.00     0.074 A 
ATOM     79  C   UNL A   1      48.088  31.866  27.879  1.00  0.00     0.031 C 
ATOM     80  C   UNL A   1      46.389  33.174  29.124  1.00  0.00     0.034 A 
BRANCH  67  81
ATOM     81  C   UNL A   1      40.574  32.952  31.278  1.00  0.00     0.023 A 
ATOM     82  C   UNL A   1      40.393  32.848  32.668  1.00  0.00     0.031 A 
ATOM     83  C   UNL A   1      39.634  33.697  30.546  1.00  0.00     0.131 A 
ATOM     84  C   UNL A   1      39.262  33.419  33.271  1.00  0.00     0.055 A 
ATOM     85  C   UNL A   1      38.554  34.331  31.163  1.00  0.00     0.041 A 
ATOM     86  F   UNL A   1      39.739  33.808  29.212  1.00  0.00    -0.206 F 
ATOM     87  C   UNL A   1      38.355  34.181  32.532  1.00  0.00     0.022 A 
BRANCH  84  88
ATOM     88  S   UNL A   1      38.916  33.028  35.009  1.00  0.00     0.124 S 
ATOM     89  O   UNL A   1      40.250  33.104  35.600  1.00  0.00    -0.237 OA
ATOM     90  O   UNL A   1      37.988  34.086  35.391  1.00  0.00    -0.237 OA
ATOM     91  O   UNL A   1      38.343  31.686  34.951  1.00  0.00    -0.744 OA
ENDBRANCH  84  88
ENDBRANCH  67  81
BRANCH  68  92
ATOM     92  C   UNL A   1      47.730  27.954  26.331  1.00  0.00     0.023 A 
ATOM     93  C   UNL A   1      47.820  28.103  24.938  1.00  0.00     0.031 A 
ATOM     94  C   UNL A   1      48.625  27.067  26.957  1.00  0.00     0.131 A 
ATOM     95  C   UNL A   1      48.748  27.341  24.211  1.00  0.00     0.055 A 
ATOM     96  C   UNL A   1      49.584  26.353  26.236  1.00  0.00     0.041 A 
ATOM     97  F   UNL A   1      48.580  26.882  28.286  1.00  0.00    -0.206 F 
ATOM     98  C   UNL A   1      49.638  26.476  24.851  1.00  0.00     0.022 A 
BRANCH  95  99
ATOM     99  S   UNL A   1      48.710  27.423  22.399  1.00  0.00     0.124 S 
ATOM    100  O   UNL A   1      48.622  26.011  22.039  1.00  0.00    -0.237 OA
ATOM    101  O   UNL A   1      47.513  28.221  22.158  1.00  0.00    -0.237 OA
ATOM    102  O   UNL A   1      49.972  28.077  22.061  1.00  0.00    -0.744 OA
ENDBRANCH  95  99
ENDBRANCH  68  92
BRANCH  80 103
ATOM    103  C   UNL A   1      47.408  34.278  29.270  1.00  0.00     0.023 A 
ATOM    104  C   UNL A   1      48.332  34.306  30.328  1.00  0.00     0.031 A 
ATOM    105  C   UNL A   1      47.461  35.313  28.317  1.00  0.00     0.131 A 
ATOM    106  C   UNL A   1      49.239  35.371  30.434  1.00  0.00     0.055 A 
ATOM    107  C   UNL A   1      48.404  36.337  28.396  1.00  0.00     0.041 A 
ATOM    108  F   UNL A   1      46.603  35.337  27.285  1.00  0.00    -0.206 F 
ATOM    109  C   UNL A   1      49.294  36.377  29.466  1.00  0.00     0.022 A 
BRANCH 106 110
ATOM    110  S   UNL A   1      50.306  35.468  31.899  1.00  0.00     0.124 S 
ATOM    111  O   UNL A   1      50.673  34.071  32.101  1.00  0.00    -0.237 OA
ATOM    112  O   UNL A   1      51.377  36.350  31.448  1.00  0.00    -0.237 OA
ATOM    113  O   UNL A   1      49.430  36.034  32.925  1.00  0.00    -0.744 OA
ENDBRANCH 106 110
ENDBRANCH  80 103
ENDBRANCH  54  55
ENDBRANCH  47  49
ENDBRANCH  46  47
ENDBRANCH  45  46
ENDBRANCH  44  45
ENDBRANCH  43  44
ENDBRANCH  42  43
ENDBRANCH  41  42
ENDBRANCH  40  41
ENDBRANCH   1  40
TORSDOF 29
ENDMDL
