MODEL 1
REMARK VINA RESULT:     -10.4      0.000      0.000
REMARK SMILES C[C@H]1OCC[C@@H]1C(=O)Nc1sc2c(c1C(=O)OCCOCCOCCOCCOC(=O)c1ccc(-c3c4nc(c(-c5cc(S(=O)(=O)[O-])ccc5F)c5ccc([nH]5)c(-c5cc(S(=O)(=O)[O-])ccc5F)c5nc(c(-c6cc(S(=O)(=O)[O-])ccc6F)c6ccc3[nH]6)C=C5)C=C4)cc1)CCC2
REMARK SMILES IDX 24 1 23 2 22 3 21 4 20 5 19 6 18 7 17 8 15 9 16 10 14 11
REMARK SMILES IDX 10 12 11 13 12 14 13 15 97 16 95 17 96 18 9 19 7 20 8 21
REMARK SMILES IDX 6 23 1 24 2 25 3 26 4 27 5 28 25 29 26 30 27 31 28 32 29 33
REMARK SMILES IDX 30 34 31 35 32 36 33 37 94 38 34 39 93 40 35 41 36 42 37 43
REMARK SMILES IDX 87 44 38 45 92 46 86 47 88 48 39 49 91 50 85 51 84 52 40 54
REMARK SMILES IDX 72 55 52 56 71 57 53 58 56 59 70 60 89 61 54 62 55 63 69 65
REMARK SMILES IDX 90 66 57 67 41 68 42 69 50 70 43 71 49 72 51 73 48 74 44 75
REMARK SMILES IDX 45 76 46 77 47 78 73 79 74 80 82 81 75 82 81 83 83 84 80 85
REMARK SMILES IDX 76 86 77 87 78 88 79 89 58 90 59 91 67 92 60 93 66 94 68 95
REMARK SMILES IDX 65 96 61 97 62 98 63 99 64 100
REMARK H PARENT 9 22 88 53 56 64
REMARK Flexibility Score: inf
ROOT
ATOM      1  C   UNL A   1      33.186  29.334  24.911  1.00  0.00     0.188 C 
ENDROOT
BRANCH   1   2
ATOM      2  O   UNL A   1      32.221  29.031  23.904  1.00  0.00    -0.377 OA
BRANCH   2   3
ATOM      3  C   UNL A   1      32.645  28.120  22.895  1.00  0.00     0.188 C 
BRANCH   3   4
ATOM      4  C   UNL A   1      31.446  27.403  22.296  1.00  0.00     0.188 C 
BRANCH   4   5
ATOM      5  O   UNL A   1      31.840  26.284  21.504  1.00  0.00    -0.376 OA
BRANCH   5   6
ATOM      6  C   UNL A   1      33.110  25.713  21.848  1.00  0.00     0.202 C 
BRANCH   6   7
ATOM      7  C   UNL A   1      33.039  24.199  22.097  1.00  0.00     0.261 C 
BRANCH   7   8
ATOM      8  O   UNL A   1      34.202  23.675  22.787  1.00  0.00    -0.460 OA
BRANCH   8   9
ATOM      9  C   UNL A   1      34.322  24.038  24.107  1.00  0.00     0.341 C 
ATOM     10  O   UNL A   1      35.263  24.674  24.559  1.00  0.00    -0.246 OA
BRANCH   9  11
ATOM     11  C   UNL A   1      33.213  23.588  24.953  1.00  0.00     0.098 A 
ATOM     12  C   UNL A   1      33.205  22.382  25.653  1.00  0.00     0.110 A 
ATOM     13  S   UNL A   1      31.683  21.971  26.331  1.00  0.00    -0.122 S 
ATOM     14  C   UNL A   1      31.143  23.513  26.023  1.00  0.00     0.011 A 
ATOM     15  C   UNL A   1      32.014  24.286  25.299  1.00  0.00    -0.017 A 
ATOM     16  C   UNL A   1      29.922  24.210  26.478  1.00  0.00     0.047 C 
ATOM     17  C   UNL A   1      31.473  25.664  25.154  1.00  0.00     0.038 C 
ATOM     18  C   UNL A   1      30.344  25.688  26.241  1.00  0.00     0.010 C 
BRANCH  12  19
ATOM     19  N   UNL A   1      34.182  21.436  25.882  1.00  0.00    -0.317 N 
ATOM     20  C   UNL A   1      34.279  20.325  25.073  1.00  0.00     0.230 C 
ATOM     21  O   UNL A   1      35.402  20.036  24.639  1.00  0.00    -0.274 OA
ATOM     22  H   UNL A   1      34.814  21.555  26.628  1.00  0.00     0.170 HD
BRANCH  20  23
ATOM     23  C   UNL A   1      33.105  19.384  24.784  1.00  0.00     0.110 C 
ATOM     24  C   UNL A   1      32.442  17.103  25.629  1.00  0.00     0.039 C 
ATOM     25  C   UNL A   1      33.430  17.896  24.774  1.00  0.00     0.127 C 
ATOM     26  O   UNL A   1      33.264  17.406  23.432  1.00  0.00    -0.378 OA
ATOM     27  C   UNL A   1      32.692  18.425  22.621  1.00  0.00     0.161 C 
ATOM     28  C   UNL A   1      32.306  19.566  23.529  1.00  0.00     0.044 C 
ENDBRANCH  20  23
ENDBRANCH  12  19
ENDBRANCH   9  11
ENDBRANCH   8   9
ENDBRANCH   7   8
ENDBRANCH   6   7
ENDBRANCH   5   6
ENDBRANCH   4   5
ENDBRANCH   3   4
ENDBRANCH   2   3
ENDBRANCH   1   2
BRANCH   1  29
ATOM     29  C   UNL A   1      32.691  30.102  26.144  1.00  0.00     0.188 C 
BRANCH  29  30
ATOM     30  O   UNL A   1      33.457  30.040  27.350  1.00  0.00    -0.376 OA
BRANCH  30  31
ATOM     31  C   UNL A   1      34.870  29.828  27.321  1.00  0.00     0.202 C 
BRANCH  31  32
ATOM     32  C   UNL A   1      35.727  30.729  28.196  1.00  0.00     0.261 C 
BRANCH  32  33
ATOM     33  O   UNL A   1      36.391  29.920  29.147  1.00  0.00    -0.460 OA
BRANCH  33  34
ATOM     34  C   UNL A   1      37.734  29.968  29.016  1.00  0.00     0.338 C 
ATOM     35  O   UNL A   1      38.491  30.792  29.493  1.00  0.00    -0.246 OA
BRANCH  34  36
ATOM     36  C   UNL A   1      38.164  28.839  28.160  1.00  0.00     0.060 A 
ATOM     37  C   UNL A   1      38.644  27.808  28.958  1.00  0.00     0.016 A 
ATOM     38  C   UNL A   1      38.796  29.225  26.969  1.00  0.00     0.016 A 
ATOM     39  C   UNL A   1      39.995  27.610  28.899  1.00  0.00     0.010 A 
ATOM     40  C   UNL A   1      40.148  29.029  26.903  1.00  0.00     0.010 A 
ATOM     41  C   UNL A   1      40.741  28.312  27.935  1.00  0.00    -0.014 A 
BRANCH  41  42
ATOM     42  C   UNL A   1      42.150  28.030  27.918  1.00  0.00     0.031 A 
ATOM     43  C   UNL A   1      42.388  26.709  27.316  1.00  0.00     0.074 A 
ATOM     44  C   UNL A   1      43.118  28.848  28.348  1.00  0.00     0.049 A 
ATOM     45  N   UNL A   1      42.697  25.620  27.932  1.00  0.00    -0.248 NA
ATOM     46  C   UNL A   1      41.932  26.522  25.930  1.00  0.00     0.031 C 
ATOM     47  C   UNL A   1      43.048  30.262  28.703  1.00  0.00     0.029 A 
ATOM     48  N   UNL A   1      44.437  28.557  28.453  1.00  0.00    -0.354 N 
ATOM     49  C   UNL A   1      42.689  24.642  26.954  1.00  0.00     0.074 A 
ATOM     50  C   UNL A   1      41.973  25.195  25.841  1.00  0.00     0.031 C 
ATOM     51  C   UNL A   1      44.310  30.754  28.756  1.00  0.00     0.029 A 
ATOM     52  C   UNL A   1      45.258  29.665  28.556  1.00  0.00     0.049 A 
ATOM     53  H   UNL A   1      44.782  27.634  28.456  1.00  0.00     0.167 HD
ATOM     54  C   UNL A   1      43.511  23.566  27.044  1.00  0.00     0.034 A 
ATOM     55  C   UNL A   1      46.603  29.665  28.372  1.00  0.00     0.034 A 
ATOM     56  C   UNL A   1      43.941  23.364  28.414  1.00  0.00     0.049 A 
ATOM     57  C   UNL A   1      47.073  28.265  28.581  1.00  0.00     0.074 A 
ATOM     58  C   UNL A   1      43.266  23.147  29.603  1.00  0.00     0.029 A 
ATOM     59  N   UNL A   1      45.203  23.781  28.782  1.00  0.00    -0.354 N 
ATOM     60  N   UNL A   1      47.024  27.653  29.731  1.00  0.00    -0.248 NA
ATOM     61  C   UNL A   1      47.152  27.380  27.424  1.00  0.00     0.031 C 
ATOM     62  C   UNL A   1      43.980  23.898  30.583  1.00  0.00     0.029 A 
ATOM     63  C   UNL A   1      45.088  24.477  29.962  1.00  0.00     0.049 A 
ATOM     64  H   UNL A   1      46.038  23.611  28.288  1.00  0.00     0.167 HD
ATOM     65  C   UNL A   1      46.639  26.351  29.442  1.00  0.00     0.074 A 
ATOM     66  C   UNL A   1      46.836  26.215  28.001  1.00  0.00     0.031 C 
ATOM     67  C   UNL A   1      45.933  25.600  30.339  1.00  0.00     0.034 A 
BRANCH  54  68
ATOM     68  C   UNL A   1      44.224  22.984  25.844  1.00  0.00     0.023 A 
ATOM     69  C   UNL A   1      43.938  21.644  25.542  1.00  0.00     0.031 A 
ATOM     70  C   UNL A   1      45.339  23.536  25.165  1.00  0.00     0.131 A 
ATOM     71  C   UNL A   1      44.803  20.887  24.737  1.00  0.00     0.055 A 
ATOM     72  C   UNL A   1      46.160  22.795  24.314  1.00  0.00     0.041 A 
ATOM     73  F   UNL A   1      45.760  24.794  25.327  1.00  0.00    -0.206 F 
ATOM     74  C   UNL A   1      45.918  21.449  24.126  1.00  0.00     0.022 A 
BRANCH  71  75
ATOM     75  S   UNL A   1      44.535  19.102  24.660  1.00  0.00     0.124 S 
ATOM     76  O   UNL A   1      43.097  19.017  24.887  1.00  0.00    -0.237 OA
ATOM     77  O   UNL A   1      44.997  18.793  23.311  1.00  0.00    -0.237 OA
ATOM     78  O   UNL A   1      45.373  18.590  25.741  1.00  0.00    -0.744 OA
ENDBRANCH  71  75
ENDBRANCH  54  68
BRANCH  55  79
ATOM     79  C   UNL A   1      47.418  30.720  27.716  1.00  0.00     0.023 A 
ATOM     80  C   UNL A   1      46.825  31.814  27.054  1.00  0.00     0.031 A 
ATOM     81  C   UNL A   1      48.813  30.795  27.934  1.00  0.00     0.131 A 
ATOM     82  C   UNL A   1      47.613  32.913  26.644  1.00  0.00     0.055 A 
ATOM     83  C   UNL A   1      49.590  31.874  27.515  1.00  0.00     0.041 A 
ATOM     84  F   UNL A   1      49.462  29.862  28.649  1.00  0.00    -0.206 F 
ATOM     85  C   UNL A   1      48.991  32.946  26.876  1.00  0.00     0.022 A 
BRANCH  82  86
ATOM     86  S   UNL A   1      46.832  34.381  25.909  1.00  0.00     0.124 S 
ATOM     87  O   UNL A   1      45.671  33.808  25.238  1.00  0.00    -0.237 OA
ATOM     88  O   UNL A   1      46.562  35.215  27.075  1.00  0.00    -0.237 OA
ATOM     89  O   UNL A   1      47.866  34.903  25.014  1.00  0.00    -0.744 OA
ENDBRANCH  82  86
ENDBRANCH  55  79
BRANCH  67  90
ATOM     90  C   UNL A   1      45.841  26.088  31.776  1.00  0.00     0.023 A 
ATOM     91  C   UNL A   1      44.732  26.771  32.328  1.00  0.00     0.031 A 
ATOM     92  C   UNL A   1      46.892  25.751  32.648  1.00  0.00     0.131 A 
ATOM     93  C   UNL A   1      44.718  27.109  33.696  1.00  0.00     0.055 A 
ATOM     94  C   UNL A   1      46.863  26.066  34.007  1.00  0.00     0.041 A 
ATOM     95  F   UNL A   1      47.964  25.079  32.197  1.00  0.00    -0.206 F 
ATOM     96  C   UNL A   1      45.778  26.753  34.535  1.00  0.00     0.022 A 
BRANCH  93  97
ATOM     97  S   UNL A   1      43.326  28.046  34.410  1.00  0.00     0.124 S 
ATOM     98  O   UNL A   1      42.240  27.075  34.449  1.00  0.00    -0.237 OA
ATOM     99  O   UNL A   1      43.860  28.462  35.704  1.00  0.00    -0.237 OA
ATOM    100  O   UNL A   1      43.130  29.139  33.455  1.00  0.00    -0.744 OA
ENDBRANCH  93  97
ENDBRANCH  67  90
ENDBRANCH  41  42
ENDBRANCH  34  36
ENDBRANCH  33  34
ENDBRANCH  32  33
ENDBRANCH  31  32
ENDBRANCH  30  31
ENDBRANCH  29  30
ENDBRANCH   1  29
TORSDOF 25
ENDMDL
MODEL 2
REMARK VINA RESULT:     -10.0      2.001      3.717
REMARK SMILES C[C@H]1OCC[C@@H]1C(=O)Nc1sc2c(c1C(=O)OCCOCCOCCOCCOC(=O)c1ccc(-c3c4nc(c(-c5cc(S(=O)(=O)[O-])ccc5F)c5ccc([nH]5)c(-c5cc(S(=O)(=O)[O-])ccc5F)c5nc(c(-c6cc(S(=O)(=O)[O-])ccc6F)c6ccc3[nH]6)C=C5)C=C4)cc1)CCC2
REMARK SMILES IDX 24 1 23 2 22 3 21 4 20 5 19 6 18 7 17 8 15 9 16 10 14 11
REMARK SMILES IDX 10 12 11 13 12 14 13 15 97 16 95 17 96 18 9 19 7 20 8 21
REMARK SMILES IDX 6 23 1 24 2 25 3 26 4 27 5 28 25 29 26 30 27 31 28 32 29 33
REMARK SMILES IDX 30 34 31 35 32 36 33 37 94 38 34 39 93 40 35 41 36 42 37 43
REMARK SMILES IDX 87 44 38 45 92 46 86 47 88 48 39 49 91 50 85 51 84 52 40 54
REMARK SMILES IDX 72 55 52 56 71 57 53 58 56 59 70 60 89 61 54 62 55 63 69 65
REMARK SMILES IDX 90 66 57 67 41 68 42 69 50 70 43 71 49 72 51 73 48 74 44 75
REMARK SMILES IDX 45 76 46 77 47 78 73 79 74 80 82 81 75 82 81 83 83 84 80 85
REMARK SMILES IDX 76 86 77 87 78 88 79 89 58 90 59 91 67 92 60 93 66 94 68 95
REMARK SMILES IDX 65 96 61 97 62 98 63 99 64 100
REMARK H PARENT 9 22 88 53 56 64
REMARK Flexibility Score: inf
ROOT
ATOM      1  C   UNL A   1      34.143  34.429  31.275  1.00  0.00     0.188 C 
ENDROOT
BRANCH   1   2
ATOM      2  O   UNL A   1      33.825  33.569  30.183  1.00  0.00    -0.377 OA
BRANCH   2   3
ATOM      3  C   UNL A   1      34.809  33.481  29.157  1.00  0.00     0.188 C 
BRANCH   3   4
ATOM      4  C   UNL A   1      34.885  32.061  28.622  1.00  0.00     0.188 C 
BRANCH   4   5
ATOM      5  O   UNL A   1      34.400  31.974  27.283  1.00  0.00    -0.376 OA
BRANCH   5   6
ATOM      6  C   UNL A   1      33.123  31.338  27.139  1.00  0.00     0.202 C 
BRANCH   6   7
ATOM      7  C   UNL A   1      33.187  29.815  27.330  1.00  0.00     0.261 C 
BRANCH   7   8
ATOM      8  O   UNL A   1      31.889  29.208  27.553  1.00  0.00    -0.460 OA
BRANCH   8   9
ATOM      9  C   UNL A   1      31.665  28.026  26.887  1.00  0.00     0.341 C 
ATOM     10  O   UNL A   1      31.149  27.042  27.396  1.00  0.00    -0.246 OA
BRANCH   9  11
ATOM     11  C   UNL A   1      32.107  28.035  25.490  1.00  0.00     0.098 A 
ATOM     12  C   UNL A   1      33.175  27.281  25.005  1.00  0.00     0.110 A 
ATOM     13  S   UNL A   1      33.658  27.689  23.410  1.00  0.00    -0.122 S 
ATOM     14  C   UNL A   1      32.267  28.581  23.229  1.00  0.00     0.011 A 
ATOM     15  C   UNL A   1      31.519  28.704  24.372  1.00  0.00    -0.017 A 
ATOM     16  C   UNL A   1      31.665  29.184  22.022  1.00  0.00     0.047 C 
ATOM     17  C   UNL A   1      30.262  29.443  24.081  1.00  0.00     0.038 C 
ATOM     18  C   UNL A   1      30.204  29.386  22.515  1.00  0.00     0.010 C 
BRANCH  12  19
ATOM     19  N   UNL A   1      33.941  26.285  25.574  1.00  0.00    -0.317 N 
ATOM     20  C   UNL A   1      34.024  25.045  24.980  1.00  0.00     0.230 C 
ATOM     21  O   UNL A   1      35.155  24.559  24.841  1.00  0.00    -0.274 OA
ATOM     22  H   UNL A   1      34.431  26.461  26.410  1.00  0.00     0.170 HD
BRANCH  20  23
ATOM     23  C   UNL A   1      32.801  24.207  24.595  1.00  0.00     0.110 C 
ATOM     24  C   UNL A   1      30.959  23.093  25.907  1.00  0.00     0.039 C 
ATOM     25  C   UNL A   1      32.444  23.072  25.545  1.00  0.00     0.127 C 
ATOM     26  O   UNL A   1      32.661  21.825  24.860  1.00  0.00    -0.378 OA
ATOM     27  C   UNL A   1      32.962  22.078  23.494  1.00  0.00     0.161 C 
ATOM     28  C   UNL A   1      32.752  23.552  23.248  1.00  0.00     0.044 C 
ENDBRANCH  20  23
ENDBRANCH  12  19
ENDBRANCH   9  11
ENDBRANCH   8   9
ENDBRANCH   7   8
ENDBRANCH   6   7
ENDBRANCH   5   6
ENDBRANCH   4   5
ENDBRANCH   3   4
ENDBRANCH   2   3
ENDBRANCH   1   2
BRANCH   1  29
ATOM     29  C   UNL A   1      35.601  34.442  31.755  1.00  0.00     0.188 C 
BRANCH  29  30
ATOM     30  O   UNL A   1      36.084  33.339  32.526  1.00  0.00    -0.376 OA
BRANCH  30  31
ATOM     31  C   UNL A   1      37.019  32.405  31.981  1.00  0.00     0.202 C 
BRANCH  31  32
ATOM     32  C   UNL A   1      36.474  31.063  31.518  1.00  0.00     0.261 C 
BRANCH  32  33
ATOM     33  O   UNL A   1      37.348  30.550  30.530  1.00  0.00    -0.460 OA
BRANCH  33  34
ATOM     34  C   UNL A   1      37.610  29.237  30.708  1.00  0.00     0.338 C 
ATOM     35  O   UNL A   1      37.480  28.593  31.731  1.00  0.00    -0.246 OA
BRANCH  34  36
ATOM     36  C   UNL A   1      38.115  28.682  29.432  1.00  0.00     0.060 A 
ATOM     37  C   UNL A   1      38.591  27.393  29.641  1.00  0.00     0.016 A 
ATOM     38  C   UNL A   1      38.789  29.611  28.624  1.00  0.00     0.016 A 
ATOM     39  C   UNL A   1      39.949  27.258  29.568  1.00  0.00     0.010 A 
ATOM     40  C   UNL A   1      40.148  29.479  28.546  1.00  0.00     0.010 A 
ATOM     41  C   UNL A   1      40.715  28.348  29.121  1.00  0.00    -0.014 A 
BRANCH  41  42
ATOM     42  C   UNL A   1      42.132  28.120  29.045  1.00  0.00     0.031 A 
ATOM     43  C   UNL A   1      42.404  26.932  28.221  1.00  0.00     0.074 A 
ATOM     44  C   UNL A   1      43.080  28.882  29.606  1.00  0.00     0.049 A 
ATOM     45  N   UNL A   1      42.753  25.763  28.637  1.00  0.00    -0.248 NA
ATOM     46  C   UNL A   1      41.937  26.974  26.827  1.00  0.00     0.031 C 
ATOM     47  C   UNL A   1      42.971  30.209  30.202  1.00  0.00     0.029 A 
ATOM     48  N   UNL A   1      44.408  28.619  29.650  1.00  0.00    -0.354 N 
ATOM     49  C   UNL A   1      42.764  24.970  27.503  1.00  0.00     0.074 A 
ATOM     50  C   UNL A   1      42.018  25.685  26.508  1.00  0.00     0.031 C 
ATOM     51  C   UNL A   1      44.217  30.725  30.332  1.00  0.00     0.029 A 
ATOM     52  C   UNL A   1      45.196  29.719  29.939  1.00  0.00     0.049 A 
ATOM     53  H   UNL A   1      44.781  27.722  29.490  1.00  0.00     0.167 HD
ATOM     54  C   UNL A   1      43.619  23.922  27.400  1.00  0.00     0.034 A 
ATOM     55  C   UNL A   1      46.537  29.794  29.750  1.00  0.00     0.034 A 
ATOM     56  C   UNL A   1      44.071  23.499  28.711  1.00  0.00     0.049 A 
ATOM     57  C   UNL A   1      47.053  28.396  29.708  1.00  0.00     0.074 A 
ATOM     58  C   UNL A   1      43.417  23.057  29.848  1.00  0.00     0.029 A 
ATOM     59  N   UNL A   1      45.325  23.887  29.138  1.00  0.00    -0.354 N 
ATOM     60  N   UNL A   1      47.037  27.591  30.735  1.00  0.00    -0.248 NA
ATOM     61  C   UNL A   1      47.146  27.728  28.415  1.00  0.00     0.031 C 
ATOM     62  C   UNL A   1      44.119  23.649  30.940  1.00  0.00     0.029 A 
ATOM     63  C   UNL A   1      45.202  24.363  30.422  1.00  0.00     0.049 A 
ATOM     64  H   UNL A   1      46.158  23.832  28.616  1.00  0.00     0.167 HD
ATOM     65  C   UNL A   1      46.689  26.348  30.226  1.00  0.00     0.074 A 
ATOM     66  C   UNL A   1      46.873  26.471  28.782  1.00  0.00     0.031 C 
ATOM     67  C   UNL A   1      46.017  25.429  30.983  1.00  0.00     0.034 A 
BRANCH  54  68
ATOM     68  C   UNL A   1      44.335  23.581  26.112  1.00  0.00     0.023 A 
ATOM     69  C   UNL A   1      44.198  22.261  25.656  1.00  0.00     0.031 A 
ATOM     70  C   UNL A   1      45.341  24.345  25.468  1.00  0.00     0.131 A 
ATOM     71  C   UNL A   1      45.105  21.719  24.733  1.00  0.00     0.055 A 
ATOM     72  C   UNL A   1      46.201  23.819  24.503  1.00  0.00     0.041 A 
ATOM     73  F   UNL A   1      45.616  25.618  25.770  1.00  0.00    -0.206 F 
ATOM     74  C   UNL A   1      46.113  22.486  24.158  1.00  0.00     0.022 A 
BRANCH  71  75
ATOM     75  S   UNL A   1      45.050  19.937  24.444  1.00  0.00     0.124 S 
ATOM     76  O   UNL A   1      46.452  19.574  24.623  1.00  0.00    -0.237 OA
ATOM     77  O   UNL A   1      44.130  19.498  25.488  1.00  0.00    -0.237 OA
ATOM     78  O   UNL A   1      44.544  19.833  23.079  1.00  0.00    -0.744 OA
ENDBRANCH  71  75
ENDBRANCH  54  68
BRANCH  55  79
ATOM     79  C   UNL A   1      47.313  30.973  29.282  1.00  0.00     0.023 A 
ATOM     80  C   UNL A   1      46.999  31.639  28.081  1.00  0.00     0.031 A 
ATOM     81  C   UNL A   1      48.237  31.615  30.138  1.00  0.00     0.131 A 
ATOM     82  C   UNL A   1      47.596  32.884  27.778  1.00  0.00     0.055 A 
ATOM     83  C   UNL A   1      48.835  32.836  29.829  1.00  0.00     0.041 A 
ATOM     84  F   UNL A   1      48.525  31.125  31.353  1.00  0.00    -0.206 F 
ATOM     85  C   UNL A   1      48.509  33.484  28.650  1.00  0.00     0.022 A 
BRANCH  82  86
ATOM     86  S   UNL A   1      47.095  33.807  26.293  1.00  0.00     0.124 S 
ATOM     87  O   UNL A   1      45.967  33.021  25.808  1.00  0.00    -0.237 OA
ATOM     88  O   UNL A   1      46.784  35.127  26.830  1.00  0.00    -0.237 OA
ATOM     89  O   UNL A   1      48.288  33.760  25.447  1.00  0.00    -0.744 OA
ENDBRANCH  82  86
ENDBRANCH  55  79
BRANCH  67  90
ATOM     90  C   UNL A   1      45.926  25.657  32.484  1.00  0.00     0.023 A 
ATOM     91  C   UNL A   1      44.754  26.046  33.174  1.00  0.00     0.031 A 
ATOM     92  C   UNL A   1      47.064  25.366  33.257  1.00  0.00     0.131 A 
ATOM     93  C   UNL A   1      44.761  26.151  34.579  1.00  0.00     0.055 A 
ATOM     94  C   UNL A   1      47.061  25.448  34.650  1.00  0.00     0.041 A 
ATOM     95  F   UNL A   1      48.205  24.966  32.670  1.00  0.00    -0.206 F 
ATOM     96  C   UNL A   1      45.910  25.849  35.316  1.00  0.00     0.022 A 
BRANCH  93  97
ATOM     97  S   UNL A   1      43.278  26.714  35.478  1.00  0.00     0.124 S 
ATOM     98  O   UNL A   1      43.010  28.030  34.913  1.00  0.00    -0.237 OA
ATOM     99  O   UNL A   1      42.306  25.670  35.162  1.00  0.00    -0.237 OA
ATOM    100  O   UNL A   1      43.717  26.730  36.876  1.00  0.00    -0.744 OA
ENDBRANCH  93  97
ENDBRANCH  67  90
ENDBRANCH  41  42
ENDBRANCH  34  36
ENDBRANCH  33  34
ENDBRANCH  32  33
ENDBRANCH  31  32
ENDBRANCH  30  31
ENDBRANCH  29  30
ENDBRANCH   1  29
TORSDOF 25
ENDMDL
MODEL 3
REMARK VINA RESULT:      -9.7      2.353      4.177
REMARK SMILES C[C@H]1OCC[C@@H]1C(=O)Nc1sc2c(c1C(=O)OCCOCCOCCOCCOC(=O)c1ccc(-c3c4nc(c(-c5cc(S(=O)(=O)[O-])ccc5F)c5ccc([nH]5)c(-c5cc(S(=O)(=O)[O-])ccc5F)c5nc(c(-c6cc(S(=O)(=O)[O-])ccc6F)c6ccc3[nH]6)C=C5)C=C4)cc1)CCC2
REMARK SMILES IDX 24 1 23 2 22 3 21 4 20 5 19 6 18 7 17 8 15 9 16 10 14 11
REMARK SMILES IDX 10 12 11 13 12 14 13 15 97 16 95 17 96 18 9 19 7 20 8 21
REMARK SMILES IDX 6 23 1 24 2 25 3 26 4 27 5 28 25 29 26 30 27 31 28 32 29 33
REMARK SMILES IDX 30 34 31 35 32 36 33 37 94 38 34 39 93 40 35 41 36 42 37 43
REMARK SMILES IDX 87 44 38 45 92 46 86 47 88 48 39 49 91 50 85 51 84 52 40 54
REMARK SMILES IDX 72 55 52 56 71 57 53 58 56 59 70 60 89 61 54 62 55 63 69 65
REMARK SMILES IDX 90 66 57 67 41 68 42 69 50 70 43 71 49 72 51 73 48 74 44 75
REMARK SMILES IDX 45 76 46 77 47 78 73 79 74 80 82 81 75 82 81 83 83 84 80 85
REMARK SMILES IDX 76 86 77 87 78 88 79 89 58 90 59 91 67 92 60 93 66 94 68 95
REMARK SMILES IDX 65 96 61 97 62 98 63 99 64 100
REMARK H PARENT 9 22 88 53 56 64
REMARK Flexibility Score: inf
ROOT
ATOM      1  C   UNL A   1      34.144  34.529  31.552  1.00  0.00     0.188 C 
ENDROOT
BRANCH   1   2
ATOM      2  O   UNL A   1      33.778  33.797  30.384  1.00  0.00    -0.377 OA
BRANCH   2   3
ATOM      3  C   UNL A   1      34.686  33.882  29.291  1.00  0.00     0.188 C 
BRANCH   3   4
ATOM      4  C   UNL A   1      34.906  32.507  28.680  1.00  0.00     0.188 C 
BRANCH   4   5
ATOM      5  O   UNL A   1      34.210  32.361  27.443  1.00  0.00    -0.376 OA
BRANCH   5   6
ATOM      6  C   UNL A   1      33.157  31.388  27.449  1.00  0.00     0.202 C 
BRANCH   6   7
ATOM      7  C   UNL A   1      33.673  29.947  27.590  1.00  0.00     0.261 C 
BRANCH   7   8
ATOM      8  O   UNL A   1      32.694  28.947  27.212  1.00  0.00    -0.460 OA
BRANCH   8   9
ATOM      9  C   UNL A   1      33.041  28.150  26.147  1.00  0.00     0.341 C 
ATOM     10  O   UNL A   1      34.108  28.224  25.556  1.00  0.00    -0.246 OA
BRANCH   9  11
ATOM     11  C   UNL A   1      32.006  27.185  25.762  1.00  0.00     0.098 A 
ATOM     12  C   UNL A   1      31.027  27.433  24.801  1.00  0.00     0.110 A 
ATOM     13  S   UNL A   1      29.779  26.256  24.747  1.00  0.00    -0.122 S 
ATOM     14  C   UNL A   1      30.695  25.258  25.712  1.00  0.00     0.011 A 
ATOM     15  C   UNL A   1      31.844  25.831  26.193  1.00  0.00    -0.017 A 
ATOM     16  C   UNL A   1      30.517  23.833  26.059  1.00  0.00     0.047 C 
ATOM     17  C   UNL A   1      32.626  24.832  26.968  1.00  0.00     0.038 C 
ATOM     18  C   UNL A   1      31.956  23.483  26.532  1.00  0.00     0.010 C 
BRANCH  12  19
ATOM     19  N   UNL A   1      30.851  28.463  23.901  1.00  0.00    -0.317 N 
ATOM     20  C   UNL A   1      30.875  28.215  22.546  1.00  0.00     0.230 C 
ATOM     21  O   UNL A   1      29.960  28.698  21.866  1.00  0.00    -0.274 OA
ATOM     22  H   UNL A   1      30.708  29.381  24.228  1.00  0.00     0.170 HD
BRANCH  20  23
ATOM     23  C   UNL A   1      32.019  27.480  21.840  1.00  0.00     0.110 C 
ATOM     24  C   UNL A   1      32.126  25.522  20.255  1.00  0.00     0.039 C 
ATOM     25  C   UNL A   1      31.852  25.974  21.689  1.00  0.00     0.127 C 
ATOM     26  O   UNL A   1      32.849  25.326  22.500  1.00  0.00    -0.378 OA
ATOM     27  C   UNL A   1      33.747  26.299  23.018  1.00  0.00     0.161 C 
ATOM     28  C   UNL A   1      33.417  27.617  22.362  1.00  0.00     0.044 C 
ENDBRANCH  20  23
ENDBRANCH  12  19
ENDBRANCH   9  11
ENDBRANCH   8   9
ENDBRANCH   7   8
ENDBRANCH   6   7
ENDBRANCH   5   6
ENDBRANCH   4   5
ENDBRANCH   3   4
ENDBRANCH   2   3
ENDBRANCH   1   2
BRANCH   1  29
ATOM     29  C   UNL A   1      35.613  34.461  31.989  1.00  0.00     0.188 C 
BRANCH  29  30
ATOM     30  O   UNL A   1      36.096  33.264  32.606  1.00  0.00    -0.376 OA
BRANCH  30  31
ATOM     31  C   UNL A   1      36.989  32.384  31.921  1.00  0.00     0.202 C 
BRANCH  31  32
ATOM     32  C   UNL A   1      36.403  31.101  31.354  1.00  0.00     0.261 C 
BRANCH  32  33
ATOM     33  O   UNL A   1      37.293  30.606  30.372  1.00  0.00    -0.460 OA
BRANCH  33  34
ATOM     34  C   UNL A   1      37.509  29.278  30.497  1.00  0.00     0.338 C 
ATOM     35  O   UNL A   1      37.317  28.590  31.481  1.00  0.00    -0.246 OA
BRANCH  34  36
ATOM     36  C   UNL A   1      38.052  28.768  29.217  1.00  0.00     0.060 A 
ATOM     37  C   UNL A   1      38.489  27.460  29.385  1.00  0.00     0.016 A 
ATOM     38  C   UNL A   1      38.779  29.715  28.480  1.00  0.00     0.016 A 
ATOM     39  C   UNL A   1      39.845  27.294  29.359  1.00  0.00     0.010 A 
ATOM     40  C   UNL A   1      40.138  29.553  28.449  1.00  0.00     0.010 A 
ATOM     41  C   UNL A   1      40.654  28.383  28.992  1.00  0.00    -0.014 A 
BRANCH  41  42
ATOM     42  C   UNL A   1      42.067  28.123  28.962  1.00  0.00     0.031 A 
ATOM     43  C   UNL A   1      42.338  26.929  28.145  1.00  0.00     0.074 A 
ATOM     44  C   UNL A   1      43.013  28.862  29.554  1.00  0.00     0.049 A 
ATOM     45  N   UNL A   1      42.647  25.753  28.569  1.00  0.00    -0.248 NA
ATOM     46  C   UNL A   1      41.918  26.984  26.737  1.00  0.00     0.031 C 
ATOM     47  C   UNL A   1      42.915  30.191  30.149  1.00  0.00     0.029 A 
ATOM     48  N   UNL A   1      44.333  28.569  29.641  1.00  0.00    -0.354 N 
ATOM     49  C   UNL A   1      42.676  24.961  27.435  1.00  0.00     0.074 A 
ATOM     50  C   UNL A   1      41.979  25.694  26.418  1.00  0.00     0.031 C 
ATOM     51  C   UNL A   1      44.169  30.678  30.320  1.00  0.00     0.029 A 
ATOM     52  C   UNL A   1      45.136  29.650  29.957  1.00  0.00     0.049 A 
ATOM     53  H   UNL A   1      44.691  27.664  29.491  1.00  0.00     0.167 HD
ATOM     54  C   UNL A   1      43.510  23.894  27.357  1.00  0.00     0.034 A 
ATOM     55  C   UNL A   1      46.485  29.695  29.811  1.00  0.00     0.034 A 
ATOM     56  C   UNL A   1      43.910  23.459  28.681  1.00  0.00     0.049 A 
ATOM     57  C   UNL A   1      46.970  28.285  29.784  1.00  0.00     0.074 A 
ATOM     58  C   UNL A   1      43.210  23.031  29.796  1.00  0.00     0.029 A 
ATOM     59  N   UNL A   1      45.158  23.817  29.149  1.00  0.00    -0.354 N 
ATOM     60  N   UNL A   1      46.902  27.480  30.808  1.00  0.00    -0.248 NA
ATOM     61  C   UNL A   1      47.088  27.617  28.492  1.00  0.00     0.031 C 
ATOM     62  C   UNL A   1      43.890  23.605  30.911  1.00  0.00     0.029 A 
ATOM     63  C   UNL A   1      45.004  24.295  30.430  1.00  0.00     0.049 A 
ATOM     64  H   UNL A   1      46.006  23.744  28.654  1.00  0.00     0.167 HD
ATOM     65  C   UNL A   1      46.542  26.245  30.285  1.00  0.00     0.074 A 
ATOM     66  C   UNL A   1      46.775  26.366  28.848  1.00  0.00     0.031 C 
ATOM     67  C   UNL A   1      45.825  25.341  31.019  1.00  0.00     0.034 A 
BRANCH  54  68
ATOM     68  C   UNL A   1      44.260  23.538  26.092  1.00  0.00     0.023 A 
ATOM     69  C   UNL A   1      44.177  22.200  25.677  1.00  0.00     0.031 A 
ATOM     70  C   UNL A   1      45.248  24.317  25.439  1.00  0.00     0.131 A 
ATOM     71  C   UNL A   1      45.118  21.662  24.787  1.00  0.00     0.055 A 
ATOM     72  C   UNL A   1      46.142  23.792  24.506  1.00  0.00     0.041 A 
ATOM     73  F   UNL A   1      45.472  25.608  25.705  1.00  0.00    -0.206 F 
ATOM     74  C   UNL A   1      46.108  22.446  24.203  1.00  0.00     0.022 A 
BRANCH  71  75
ATOM     75  S   UNL A   1      45.132  19.871  24.555  1.00  0.00     0.124 S 
ATOM     76  O   UNL A   1      46.538  19.562  24.789  1.00  0.00    -0.237 OA
ATOM     77  O   UNL A   1      44.193  19.435  25.583  1.00  0.00    -0.237 OA
ATOM     78  O   UNL A   1      44.673  19.707  23.179  1.00  0.00    -0.744 OA
ENDBRANCH  71  75
ENDBRANCH  54  68
BRANCH  55  79
ATOM     79  C   UNL A   1      47.301  30.856  29.371  1.00  0.00     0.023 A 
ATOM     80  C   UNL A   1      47.033  31.539  28.168  1.00  0.00     0.031 A 
ATOM     81  C   UNL A   1      48.221  31.467  30.253  1.00  0.00     0.131 A 
ATOM     82  C   UNL A   1      47.669  32.770  27.889  1.00  0.00     0.055 A 
ATOM     83  C   UNL A   1      48.859  32.675  29.968  1.00  0.00     0.041 A 
ATOM     84  F   UNL A   1      48.468  30.961  31.471  1.00  0.00    -0.206 F 
ATOM     85  C   UNL A   1      48.577  33.339  28.786  1.00  0.00     0.022 A 
BRANCH  82  86
ATOM     86  S   UNL A   1      47.228  33.717  26.400  1.00  0.00     0.124 S 
ATOM     87  O   UNL A   1      46.036  33.018  25.933  1.00  0.00    -0.237 OA
ATOM     88  O   UNL A   1      47.027  35.062  26.927  1.00  0.00    -0.237 OA
ATOM     89  O   UNL A   1      48.405  33.568  25.543  1.00  0.00    -0.744 OA
ENDBRANCH  82  86
ENDBRANCH  55  79
BRANCH  67  90
ATOM     90  C   UNL A   1      45.691  25.570  32.516  1.00  0.00     0.023 A 
ATOM     91  C   UNL A   1      44.477  25.843  33.187  1.00  0.00     0.031 A 
ATOM     92  C   UNL A   1      46.843  25.401  33.306  1.00  0.00     0.131 A 
ATOM     93  C   UNL A   1      44.454  25.958  34.592  1.00  0.00     0.055 A 
ATOM     94  C   UNL A   1      46.812  25.492  34.698  1.00  0.00     0.041 A 
ATOM     95  F   UNL A   1      48.026  25.115  32.737  1.00  0.00    -0.206 F 
ATOM     96  C   UNL A   1      45.617  25.779  35.346  1.00  0.00     0.022 A 
BRANCH  93  97
ATOM     97  S   UNL A   1      42.910  26.373  35.467  1.00  0.00     0.124 S 
ATOM     98  O   UNL A   1      42.313  27.413  34.640  1.00  0.00    -0.237 OA
ATOM     99  O   UNL A   1      42.209  25.092  35.491  1.00  0.00    -0.237 OA
ATOM    100  O   UNL A   1      43.377  26.832  36.778  1.00  0.00    -0.744 OA
ENDBRANCH  93  97
ENDBRANCH  67  90
ENDBRANCH  41  42
ENDBRANCH  34  36
ENDBRANCH  33  34
ENDBRANCH  32  33
ENDBRANCH  31  32
ENDBRANCH  30  31
ENDBRANCH  29  30
ENDBRANCH   1  29
TORSDOF 25
ENDMDL
