MODEL 1
REMARK VINA RESULT:      -8.7      0.000      0.000
REMARK SMILES Cc1cc(N2CC[C@H](CC(=O)OCCOCCOCCOCCOC(=O)c3ccc(-c4c5nc(c(-c6cc(S(=O)(=O)[O-])ccc6F)c6ccc([nH]6)c(-c6cc(S(=O)(=O)[O-])ccc6F)c6nc(c(-c7cc(S(=O)(=O)[O-])ccc7F)c7ccc4[nH]7)C=C6)C=C5)cc3)C2)ncc1[N+](=O)[O-]
REMARK SMILES IDX 18 1 17 2 16 3 15 4 14 5 13 6 12 7 10 8 11 9 9 10 8 11 5 12
REMARK SMILES IDX 6 13 90 14 7 15 4 16 1 17 2 18 3 19 93 20 92 21 91 22 94 23
REMARK SMILES IDX 95 24 96 25 19 26 20 27 21 28 22 29 23 30 24 31 25 32 26 33
REMARK SMILES IDX 27 34 28 35 89 36 29 37 88 38 30 39 31 40 32 41 82 42 33 43
REMARK SMILES IDX 87 44 81 45 83 46 34 47 86 48 80 49 79 50 35 52 67 53 47 54
REMARK SMILES IDX 66 55 48 56 51 57 65 58 84 59 49 60 50 61 64 63 85 64 52 65
REMARK SMILES IDX 36 66 37 67 45 68 38 69 44 70 46 71 43 72 39 73 40 74 41 75
REMARK SMILES IDX 42 76 68 77 69 78 77 79 70 80 76 81 78 82 75 83 71 84 72 85
REMARK SMILES IDX 73 86 74 87 53 88 54 89 62 90 55 91 61 92 63 93 60 94 56 95
REMARK SMILES IDX 57 96 58 97 59 98
REMARK H PARENT 83 51 51 62
REMARK Flexibility Score: inf
ROOT
ATOM      1  O   UNL A   1      37.389  23.316  26.026  1.00  0.00    -0.377 OA
ENDROOT
BRANCH   1   2
ATOM      2  C   UNL A   1      36.303  23.730  25.219  1.00  0.00     0.188 C 
BRANCH   2   3
ATOM      3  C   UNL A   1      34.928  23.900  25.873  1.00  0.00     0.188 C 
BRANCH   3   4
ATOM      4  O   UNL A   1      34.590  23.004  26.904  1.00  0.00    -0.376 OA
BRANCH   4   5
ATOM      5  C   UNL A   1      33.317  22.379  26.946  1.00  0.00     0.202 C 
BRANCH   5   6
ATOM      6  C   UNL A   1      32.883  21.145  26.126  1.00  0.00     0.261 C 
BRANCH   6   7
ATOM      7  O   UNL A   1      33.630  20.808  24.948  1.00  0.00    -0.463 OA
BRANCH   7   8
ATOM      8  C   UNL A   1      33.016  21.052  23.769  1.00  0.00     0.306 C 
ATOM      9  O   UNL A   1      32.231  20.279  23.225  1.00  0.00    -0.252 OA
BRANCH   8  10
ATOM     10  C   UNL A   1      33.313  22.400  23.147  1.00  0.00     0.128 C 
BRANCH  10  11
ATOM     11  C   UNL A   1      32.213  23.418  22.871  1.00  0.00     0.021 C 
ATOM     12  N   UNL A   1      31.555  25.665  23.209  1.00  0.00    -0.356 N 
ATOM     13  C   UNL A   1      30.417  24.809  23.564  1.00  0.00     0.118 C 
ATOM     14  C   UNL A   1      32.751  24.856  22.984  1.00  0.00     0.122 C 
ATOM     15  C   UNL A   1      31.037  23.439  23.838  1.00  0.00     0.027 C 
BRANCH  12  16
ATOM     16  C   UNL A   1      31.751  26.823  23.939  1.00  0.00     0.129 A 
ATOM     17  C   UNL A   1      31.385  27.836  27.558  1.00  0.00     0.052 C 
ATOM     18  C   UNL A   1      31.672  27.984  26.091  1.00  0.00     0.032 A 
ATOM     19  C   UNL A   1      31.452  26.836  25.301  1.00  0.00     0.057 A 
ATOM     20  C   UNL A   1      32.142  29.128  25.429  1.00  0.00     0.290 A 
ATOM     21  C   UNL A   1      32.398  29.042  24.064  1.00  0.00     0.199 A 
ATOM     22  N   UNL A   1      32.217  27.922  23.322  1.00  0.00    -0.232 NA
BRANCH  20  23
ATOM     23  N   UNL A   1      32.373  30.428  26.062  1.00  0.00     0.064 N 
ATOM     24  O   UNL A   1      33.519  30.674  26.466  1.00  0.00    -0.258 OA
ATOM     25  O   UNL A   1      31.436  31.232  26.132  1.00  0.00    -0.258 OA
ENDBRANCH  20  23
ENDBRANCH  12  16
ENDBRANCH  10  11
ENDBRANCH   8  10
ENDBRANCH   7   8
ENDBRANCH   6   7
ENDBRANCH   5   6
ENDBRANCH   4   5
ENDBRANCH   3   4
ENDBRANCH   2   3
ENDBRANCH   1   2
BRANCH   1  26
ATOM     26  C   UNL A   1      38.088  22.109  25.730  1.00  0.00     0.188 C 
BRANCH  26  27
ATOM     27  C   UNL A   1      39.517  21.864  26.252  1.00  0.00     0.188 C 
BRANCH  27  28
ATOM     28  O   UNL A   1      40.040  20.574  25.985  1.00  0.00    -0.376 OA
BRANCH  28  29
ATOM     29  C   UNL A   1      41.205  20.167  26.688  1.00  0.00     0.202 C 
BRANCH  29  30
ATOM     30  C   UNL A   1      42.558  20.701  26.191  1.00  0.00     0.261 C 
BRANCH  30  31
ATOM     31  O   UNL A   1      42.920  22.024  26.623  1.00  0.00    -0.460 OA
BRANCH  31  32
ATOM     32  C   UNL A   1      43.110  22.976  25.680  1.00  0.00     0.338 C 
ATOM     33  O   UNL A   1      43.131  22.823  24.480  1.00  0.00    -0.246 OA
BRANCH  32  34
ATOM     34  C   UNL A   1      43.104  24.285  26.372  1.00  0.00     0.060 A 
ATOM     35  C   UNL A   1      43.055  25.461  25.612  1.00  0.00     0.016 A 
ATOM     36  C   UNL A   1      43.134  24.346  27.766  1.00  0.00     0.016 A 
ATOM     37  C   UNL A   1      43.048  26.704  26.248  1.00  0.00     0.010 A 
ATOM     38  C   UNL A   1      43.151  25.593  28.400  1.00  0.00     0.010 A 
ATOM     39  C   UNL A   1      43.126  26.780  27.645  1.00  0.00    -0.014 A 
BRANCH  39  40
ATOM     40  C   UNL A   1      43.324  28.090  28.317  1.00  0.00     0.031 A 
ATOM     41  C   UNL A   1      42.114  28.830  28.823  1.00  0.00     0.074 A 
ATOM     42  C   UNL A   1      44.553  28.612  28.482  1.00  0.00     0.049 A 
ATOM     43  N   UNL A   1      42.029  30.028  29.338  1.00  0.00    -0.248 NA
ATOM     44  C   UNL A   1      40.830  28.118  28.733  1.00  0.00     0.031 C 
ATOM     45  C   UNL A   1      45.805  27.964  28.092  1.00  0.00     0.029 A 
ATOM     46  N   UNL A   1      44.951  29.817  29.009  1.00  0.00    -0.354 N 
ATOM     47  C   UNL A   1      40.684  30.217  29.637  1.00  0.00     0.074 A 
ATOM     48  C   UNL A   1      39.987  29.021  29.213  1.00  0.00     0.031 C 
ATOM     49  C   UNL A   1      46.829  28.788  28.375  1.00  0.00     0.029 A 
ATOM     50  C   UNL A   1      46.306  30.042  28.916  1.00  0.00     0.049 A 
ATOM     51  H   UNL A   1      44.325  30.460  29.414  1.00  0.00     0.167 HD
ATOM     52  C   UNL A   1      40.088  31.284  30.223  1.00  0.00     0.034 A 
ATOM     53  C   UNL A   1      47.032  31.146  29.195  1.00  0.00     0.034 A 
ATOM     54  C   UNL A   1      40.791  32.476  30.626  1.00  0.00     0.049 A 
ATOM     55  C   UNL A   1      46.321  32.375  29.725  1.00  0.00     0.074 A 
ATOM     56  C   UNL A   1      40.280  33.616  31.223  1.00  0.00     0.029 A 
ATOM     57  N   UNL A   1      42.153  32.690  30.465  1.00  0.00    -0.354 N 
ATOM     58  N   UNL A   1      45.048  32.539  30.007  1.00  0.00    -0.248 NA
ATOM     59  C   UNL A   1      47.145  33.566  29.975  1.00  0.00     0.031 C 
ATOM     60  C   UNL A   1      41.316  34.546  31.350  1.00  0.00     0.029 A 
ATOM     61  C   UNL A   1      42.491  33.956  30.914  1.00  0.00     0.049 A 
ATOM     62  H   UNL A   1      42.787  32.037  30.087  1.00  0.00     0.167 HD
ATOM     63  C   UNL A   1      44.931  33.839  30.496  1.00  0.00     0.074 A 
ATOM     64  C   UNL A   1      46.262  34.406  30.495  1.00  0.00     0.031 C 
ATOM     65  C   UNL A   1      43.824  34.510  30.906  1.00  0.00     0.034 A 
BRANCH  52  66
ATOM     66  C   UNL A   1      38.595  31.228  30.425  1.00  0.00     0.023 A 
ATOM     67  C   UNL A   1      37.712  31.942  29.597  1.00  0.00     0.031 A 
ATOM     68  C   UNL A   1      38.045  30.437  31.450  1.00  0.00     0.131 A 
ATOM     69  C   UNL A   1      36.331  31.888  29.837  1.00  0.00     0.055 A 
ATOM     70  C   UNL A   1      36.667  30.330  31.637  1.00  0.00     0.041 A 
ATOM     71  F   UNL A   1      38.843  29.754  32.286  1.00  0.00    -0.206 F 
ATOM     72  C   UNL A   1      35.801  31.065  30.833  1.00  0.00     0.022 A 
BRANCH  69  73
ATOM     73  S   UNL A   1      35.244  32.994  28.899  1.00  0.00     0.124 S 
ATOM     74  O   UNL A   1      35.265  34.198  29.726  1.00  0.00    -0.237 OA
ATOM     75  O   UNL A   1      35.924  33.091  27.613  1.00  0.00    -0.237 OA
ATOM     76  O   UNL A   1      33.967  32.284  28.877  1.00  0.00    -0.744 OA
ENDBRANCH  69  73
ENDBRANCH  52  66
BRANCH  53  77
ATOM     77  C   UNL A   1      48.500  31.194  28.919  1.00  0.00     0.023 A 
ATOM     78  C   UNL A   1      49.015  31.940  27.847  1.00  0.00     0.031 A 
ATOM     79  C   UNL A   1      49.400  30.402  29.656  1.00  0.00     0.131 A 
ATOM     80  C   UNL A   1      50.369  31.821  27.495  1.00  0.00     0.055 A 
ATOM     81  C   UNL A   1      50.761  30.345  29.348  1.00  0.00     0.041 A 
ATOM     82  F   UNL A   1      48.967  29.656  30.686  1.00  0.00    -0.206 F 
ATOM     83  C   UNL A   1      51.249  31.041  28.248  1.00  0.00     0.022 A 
BRANCH  80  84
ATOM     84  S   UNL A   1      50.932  32.584  25.948  1.00  0.00     0.124 S 
ATOM     85  O   UNL A   1      49.726  33.274  25.504  1.00  0.00    -0.237 OA
ATOM     86  O   UNL A   1      52.024  33.433  26.410  1.00  0.00    -0.237 OA
ATOM     87  O   UNL A   1      51.333  31.441  25.131  1.00  0.00    -0.744 OA
ENDBRANCH  80  84
ENDBRANCH  53  77
BRANCH  65  88
ATOM     88  C   UNL A   1      44.017  35.913  31.430  1.00  0.00     0.023 A 
ATOM     89  C   UNL A   1      44.237  36.168  32.795  1.00  0.00     0.031 A 
ATOM     90  C   UNL A   1      43.985  37.010  30.551  1.00  0.00     0.131 A 
ATOM     91  C   UNL A   1      44.362  37.490  33.249  1.00  0.00     0.055 A 
ATOM     92  C   UNL A   1      44.177  38.319  30.999  1.00  0.00     0.041 A 
ATOM     93  F   UNL A   1      43.776  36.828  29.236  1.00  0.00    -0.206 F 
ATOM     94  C   UNL A   1      44.353  38.565  32.356  1.00  0.00     0.022 A 
BRANCH  91  95
ATOM     95  S   UNL A   1      44.448  37.793  35.034  1.00  0.00     0.124 S 
ATOM     96  O   UNL A   1      43.269  37.084  35.519  1.00  0.00    -0.237 OA
ATOM     97  O   UNL A   1      45.736  37.205  35.390  1.00  0.00    -0.237 OA
ATOM     98  O   UNL A   1      44.383  39.250  35.139  1.00  0.00    -0.744 OA
ENDBRANCH  91  95
ENDBRANCH  65  88
ENDBRANCH  39  40
ENDBRANCH  32  34
ENDBRANCH  31  32
ENDBRANCH  30  31
ENDBRANCH  29  30
ENDBRANCH  28  29
ENDBRANCH  27  28
ENDBRANCH  26  27
ENDBRANCH   1  26
TORSDOF 26
ENDMDL
MODEL 2
REMARK VINA RESULT:      -8.7      7.625      9.232
REMARK SMILES Cc1cc(N2CC[C@H](CC(=O)OCCOCCOCCOCCOC(=O)c3ccc(-c4c5nc(c(-c6cc(S(=O)(=O)[O-])ccc6F)c6ccc([nH]6)c(-c6cc(S(=O)(=O)[O-])ccc6F)c6nc(c(-c7cc(S(=O)(=O)[O-])ccc7F)c7ccc4[nH]7)C=C6)C=C5)cc3)C2)ncc1[N+](=O)[O-]
REMARK SMILES IDX 18 1 17 2 16 3 15 4 14 5 13 6 12 7 10 8 11 9 9 10 8 11 5 12
REMARK SMILES IDX 6 13 90 14 7 15 4 16 1 17 2 18 3 19 93 20 92 21 91 22 94 23
REMARK SMILES IDX 95 24 96 25 19 26 20 27 21 28 22 29 23 30 24 31 25 32 26 33
REMARK SMILES IDX 27 34 28 35 89 36 29 37 88 38 30 39 31 40 32 41 82 42 33 43
REMARK SMILES IDX 87 44 81 45 83 46 34 47 86 48 80 49 79 50 35 52 67 53 47 54
REMARK SMILES IDX 66 55 48 56 51 57 65 58 84 59 49 60 50 61 64 63 85 64 52 65
REMARK SMILES IDX 36 66 37 67 45 68 38 69 44 70 46 71 43 72 39 73 40 74 41 75
REMARK SMILES IDX 42 76 68 77 69 78 77 79 70 80 76 81 78 82 75 83 71 84 72 85
REMARK SMILES IDX 73 86 74 87 53 88 54 89 62 90 55 91 61 92 63 93 60 94 56 95
REMARK SMILES IDX 57 96 58 97 59 98
REMARK H PARENT 83 51 51 62
REMARK Flexibility Score: inf
ROOT
ATOM      1  O   UNL A   1      37.846  22.845  25.662  1.00  0.00    -0.377 OA
ENDROOT
BRANCH   1   2
ATOM      2  C   UNL A   1      36.431  22.823  25.679  1.00  0.00     0.188 C 
BRANCH   2   3
ATOM      3  C   UNL A   1      35.691  22.382  24.411  1.00  0.00     0.188 C 
BRANCH   3   4
ATOM      4  O   UNL A   1      35.025  23.379  23.674  1.00  0.00    -0.376 OA
BRANCH   4   5
ATOM      5  C   UNL A   1      33.908  23.066  22.858  1.00  0.00     0.202 C 
BRANCH   5   6
ATOM      6  C   UNL A   1      33.138  24.052  21.954  1.00  0.00     0.261 C 
BRANCH   6   7
ATOM      7  O   UNL A   1      33.636  25.391  21.821  1.00  0.00    -0.463 OA
BRANCH   7   8
ATOM      8  C   UNL A   1      32.736  26.379  22.028  1.00  0.00     0.306 C 
ATOM      9  O   UNL A   1      31.574  26.352  21.627  1.00  0.00    -0.252 OA
BRANCH   8  10
ATOM     10  C   UNL A   1      33.229  27.548  22.853  1.00  0.00     0.128 C 
BRANCH  10  11
ATOM     11  C   UNL A   1      32.631  27.881  24.215  1.00  0.00     0.021 C 
ATOM     12  N   UNL A   1      32.947  29.145  26.189  1.00  0.00    -0.356 N 
ATOM     13  C   UNL A   1      32.618  27.772  26.588  1.00  0.00     0.118 C 
ATOM     14  C   UNL A   1      33.180  29.216  24.748  1.00  0.00     0.122 C 
ATOM     15  C   UNL A   1      32.947  26.925  25.358  1.00  0.00     0.027 C 
BRANCH  12  16
ATOM     16  C   UNL A   1      33.843  29.852  26.970  1.00  0.00     0.129 A 
ATOM     17  C   UNL A   1      37.373  29.317  28.201  1.00  0.00     0.052 C 
ATOM     18  C   UNL A   1      36.045  29.997  28.027  1.00  0.00     0.032 A 
ATOM     19  C   UNL A   1      35.087  29.295  27.265  1.00  0.00     0.057 A 
ATOM     20  C   UNL A   1      35.662  31.252  28.526  1.00  0.00     0.290 A 
ATOM     21  C   UNL A   1      34.396  31.731  28.205  1.00  0.00     0.199 A 
ATOM     22  N   UNL A   1      33.497  31.062  27.442  1.00  0.00    -0.232 NA
BRANCH  20  23
ATOM     23  N   UNL A   1      36.490  32.101  29.383  1.00  0.00     0.064 N 
ATOM     24  O   UNL A   1      37.083  33.051  28.850  1.00  0.00    -0.258 OA
ATOM     25  O   UNL A   1      36.533  31.864  30.596  1.00  0.00    -0.258 OA
ENDBRANCH  20  23
ENDBRANCH  12  16
ENDBRANCH  10  11
ENDBRANCH   8  10
ENDBRANCH   7   8
ENDBRANCH   6   7
ENDBRANCH   5   6
ENDBRANCH   4   5
ENDBRANCH   3   4
ENDBRANCH   2   3
ENDBRANCH   1   2
BRANCH   1  26
ATOM     26  C   UNL A   1      38.585  21.629  25.757  1.00  0.00     0.188 C 
BRANCH  26  27
ATOM     27  C   UNL A   1      39.977  21.590  26.418  1.00  0.00     0.188 C 
BRANCH  27  28
ATOM     28  O   UNL A   1      40.728  20.415  26.164  1.00  0.00    -0.376 OA
BRANCH  28  29
ATOM     29  C   UNL A   1      42.103  20.412  26.518  1.00  0.00     0.202 C 
BRANCH  29  30
ATOM     30  C   UNL A   1      42.958  21.605  26.060  1.00  0.00     0.261 C 
BRANCH  30  31
ATOM     31  O   UNL A   1      43.200  22.631  27.038  1.00  0.00    -0.460 OA
BRANCH  31  32
ATOM     32  C   UNL A   1      44.483  22.936  27.342  1.00  0.00     0.338 C 
ATOM     33  O   UNL A   1      45.436  22.921  26.595  1.00  0.00    -0.246 OA
BRANCH  32  34
ATOM     34  C   UNL A   1      44.490  23.476  28.720  1.00  0.00     0.060 A 
ATOM     35  C   UNL A   1      45.384  24.503  29.049  1.00  0.00     0.016 A 
ATOM     36  C   UNL A   1      43.607  22.976  29.679  1.00  0.00     0.016 A 
ATOM     37  C   UNL A   1      45.404  25.025  30.344  1.00  0.00     0.010 A 
ATOM     38  C   UNL A   1      43.645  23.484  30.981  1.00  0.00     0.010 A 
ATOM     39  C   UNL A   1      44.555  24.500  31.327  1.00  0.00    -0.014 A 
BRANCH  39  40
ATOM     40  C   UNL A   1      44.710  24.905  32.748  1.00  0.00     0.031 A 
ATOM     41  C   UNL A   1      44.342  26.311  33.141  1.00  0.00     0.074 A 
ATOM     42  C   UNL A   1      45.162  24.040  33.676  1.00  0.00     0.049 A 
ATOM     43  N   UNL A   1      44.494  26.920  34.287  1.00  0.00    -0.248 NA
ATOM     44  C   UNL A   1      43.718  27.137  32.095  1.00  0.00     0.031 C 
ATOM     45  C   UNL A   1      45.492  22.636  33.432  1.00  0.00     0.029 A 
ATOM     46  N   UNL A   1      45.437  24.222  35.010  1.00  0.00    -0.354 N 
ATOM     47  C   UNL A   1      43.984  28.201  34.106  1.00  0.00     0.074 A 
ATOM     48  C   UNL A   1      43.551  28.290  32.727  1.00  0.00     0.031 C 
ATOM     49  C   UNL A   1      45.943  22.090  34.575  1.00  0.00     0.029 A 
ATOM     50  C   UNL A   1      45.986  23.115  35.618  1.00  0.00     0.049 A 
ATOM     51  H   UNL A   1      45.258  25.064  35.487  1.00  0.00     0.167 HD
ATOM     52  C   UNL A   1      43.877  29.205  35.009  1.00  0.00     0.034 A 
ATOM     53  C   UNL A   1      46.501  22.961  36.856  1.00  0.00     0.034 A 
ATOM     54  C   UNL A   1      44.328  29.110  36.374  1.00  0.00     0.049 A 
ATOM     55  C   UNL A   1      46.490  24.142  37.805  1.00  0.00     0.074 A 
ATOM     56  C   UNL A   1      44.272  30.072  37.369  1.00  0.00     0.029 A 
ATOM     57  N   UNL A   1      44.930  27.993  36.938  1.00  0.00    -0.354 N 
ATOM     58  N   UNL A   1      46.002  25.348  37.623  1.00  0.00    -0.248 NA
ATOM     59  C   UNL A   1      47.099  23.940  39.128  1.00  0.00     0.031 C 
ATOM     60  C   UNL A   1      44.907  29.565  38.506  1.00  0.00     0.029 A 
ATOM     61  C   UNL A   1      45.283  28.256  38.252  1.00  0.00     0.049 A 
ATOM     62  H   UNL A   1      45.083  27.139  36.472  1.00  0.00     0.167 HD
ATOM     63  C   UNL A   1      46.218  26.032  38.818  1.00  0.00     0.074 A 
ATOM     64  C   UNL A   1      46.856  25.099  39.721  1.00  0.00     0.031 C 
ATOM     65  C   UNL A   1      45.922  27.316  39.142  1.00  0.00     0.034 A 
BRANCH  52  66
ATOM     66  C   UNL A   1      43.286  30.510  34.538  1.00  0.00     0.023 A 
ATOM     67  C   UNL A   1      41.897  30.698  34.441  1.00  0.00     0.031 A 
ATOM     68  C   UNL A   1      44.123  31.588  34.196  1.00  0.00     0.131 A 
ATOM     69  C   UNL A   1      41.388  31.916  33.970  1.00  0.00     0.055 A 
ATOM     70  C   UNL A   1      43.608  32.821  33.798  1.00  0.00     0.041 A 
ATOM     71  F   UNL A   1      45.459  31.457  34.246  1.00  0.00    -0.206 F 
ATOM     72  C   UNL A   1      42.232  32.989  33.674  1.00  0.00     0.022 A 
BRANCH  69  73
ATOM     73  S   UNL A   1      39.609  32.044  33.643  1.00  0.00     0.124 S 
ATOM     74  O   UNL A   1      39.060  31.121  34.633  1.00  0.00    -0.237 OA
ATOM     75  O   UNL A   1      39.345  33.460  33.875  1.00  0.00    -0.237 OA
ATOM     76  O   UNL A   1      39.483  31.606  32.254  1.00  0.00    -0.744 OA
ENDBRANCH  69  73
ENDBRANCH  52  66
BRANCH  53  77
ATOM     77  C   UNL A   1      47.142  21.676  37.271  1.00  0.00     0.023 A 
ATOM     78  C   UNL A   1      46.406  20.671  37.918  1.00  0.00     0.031 A 
ATOM     79  C   UNL A   1      48.529  21.481  37.127  1.00  0.00     0.131 A 
ATOM     80  C   UNL A   1      47.066  19.558  38.464  1.00  0.00     0.055 A 
ATOM     81  C   UNL A   1      49.170  20.336  37.605  1.00  0.00     0.041 A 
ATOM     82  F   UNL A   1      49.290  22.410  36.526  1.00  0.00    -0.206 F 
ATOM     83  C   UNL A   1      48.440  19.375  38.297  1.00  0.00     0.022 A 
BRANCH  80  84
ATOM     84  S   UNL A   1      46.123  18.426  39.523  1.00  0.00     0.124 S 
ATOM     85  O   UNL A   1      45.141  17.895  38.585  1.00  0.00    -0.237 OA
ATOM     86  O   UNL A   1      47.156  17.497  39.967  1.00  0.00    -0.237 OA
ATOM     87  O   UNL A   1      45.585  19.302  40.562  1.00  0.00    -0.744 OA
ENDBRANCH  80  84
ENDBRANCH  53  77
BRANCH  65  88
ATOM     88  C   UNL A   1      46.243  27.770  40.546  1.00  0.00     0.023 A 
ATOM     89  C   UNL A   1      47.453  28.416  40.855  1.00  0.00     0.031 A 
ATOM     90  C   UNL A   1      45.324  27.559  41.589  1.00  0.00     0.131 A 
ATOM     91  C   UNL A   1      47.735  28.778  42.181  1.00  0.00     0.055 A 
ATOM     92  C   UNL A   1      45.581  27.982  42.894  1.00  0.00     0.041 A 
ATOM     93  F   UNL A   1      44.152  26.945  41.354  1.00  0.00    -0.206 F 
ATOM     94  C   UNL A   1      46.798  28.583  43.199  1.00  0.00     0.022 A 
BRANCH  91  95
ATOM     95  S   UNL A   1      49.381  29.429  42.575  1.00  0.00     0.124 S 
ATOM     96  O   UNL A   1      50.232  28.670  41.665  1.00  0.00    -0.237 OA
ATOM     97  O   UNL A   1      49.236  30.850  42.275  1.00  0.00    -0.237 OA
ATOM     98  O   UNL A   1      49.546  29.109  43.992  1.00  0.00    -0.744 OA
ENDBRANCH  91  95
ENDBRANCH  65  88
ENDBRANCH  39  40
ENDBRANCH  32  34
ENDBRANCH  31  32
ENDBRANCH  30  31
ENDBRANCH  29  30
ENDBRANCH  28  29
ENDBRANCH  27  28
ENDBRANCH  26  27
ENDBRANCH   1  26
TORSDOF 26
ENDMDL
MODEL 3
REMARK VINA RESULT:      -8.4      6.810     12.660
REMARK SMILES Cc1cc(N2CC[C@H](CC(=O)OCCOCCOCCOCCOC(=O)c3ccc(-c4c5nc(c(-c6cc(S(=O)(=O)[O-])ccc6F)c6ccc([nH]6)c(-c6cc(S(=O)(=O)[O-])ccc6F)c6nc(c(-c7cc(S(=O)(=O)[O-])ccc7F)c7ccc4[nH]7)C=C6)C=C5)cc3)C2)ncc1[N+](=O)[O-]
REMARK SMILES IDX 18 1 17 2 16 3 15 4 14 5 13 6 12 7 10 8 11 9 9 10 8 11 5 12
REMARK SMILES IDX 6 13 90 14 7 15 4 16 1 17 2 18 3 19 93 20 92 21 91 22 94 23
REMARK SMILES IDX 95 24 96 25 19 26 20 27 21 28 22 29 23 30 24 31 25 32 26 33
REMARK SMILES IDX 27 34 28 35 89 36 29 37 88 38 30 39 31 40 32 41 82 42 33 43
REMARK SMILES IDX 87 44 81 45 83 46 34 47 86 48 80 49 79 50 35 52 67 53 47 54
REMARK SMILES IDX 66 55 48 56 51 57 65 58 84 59 49 60 50 61 64 63 85 64 52 65
REMARK SMILES IDX 36 66 37 67 45 68 38 69 44 70 46 71 43 72 39 73 40 74 41 75
REMARK SMILES IDX 42 76 68 77 69 78 77 79 70 80 76 81 78 82 75 83 71 84 72 85
REMARK SMILES IDX 73 86 74 87 53 88 54 89 62 90 55 91 61 92 63 93 60 94 56 95
REMARK SMILES IDX 57 96 58 97 59 98
REMARK H PARENT 83 51 51 62
REMARK Flexibility Score: inf
ROOT
ATOM      1  O   UNL A   1      36.520  33.124  31.041  1.00  0.00    -0.377 OA
ENDROOT
BRANCH   1   2
ATOM      2  C   UNL A   1      35.706  32.318  31.873  1.00  0.00     0.188 C 
BRANCH   2   3
ATOM      3  C   UNL A   1      36.378  31.492  32.975  1.00  0.00     0.188 C 
BRANCH   3   4
ATOM      4  O   UNL A   1      36.808  32.179  34.125  1.00  0.00    -0.376 OA
BRANCH   4   5
ATOM      5  C   UNL A   1      38.046  31.873  34.745  1.00  0.00     0.202 C 
BRANCH   5   6
ATOM      6  C   UNL A   1      38.233  31.128  36.084  1.00  0.00     0.261 C 
BRANCH   6   7
ATOM      7  O   UNL A   1      38.334  31.901  37.289  1.00  0.00    -0.463 OA
BRANCH   7   8
ATOM      8  C   UNL A   1      37.446  31.595  38.262  1.00  0.00     0.306 C 
ATOM      9  O   UNL A   1      36.965  30.477  38.433  1.00  0.00    -0.252 OA
BRANCH   8  10
ATOM     10  C   UNL A   1      37.094  32.728  39.202  1.00  0.00     0.128 C 
BRANCH  10  11
ATOM     11  C   UNL A   1      36.659  32.474  40.641  1.00  0.00     0.021 C 
ATOM     12  N   UNL A   1      34.878  32.733  42.176  1.00  0.00    -0.356 N 
ATOM     13  C   UNL A   1      36.103  33.212  42.828  1.00  0.00     0.118 C 
ATOM     14  C   UNL A   1      35.124  32.471  40.760  1.00  0.00     0.122 C 
ATOM     15  C   UNL A   1      37.059  33.518  41.675  1.00  0.00     0.027 C 
BRANCH  12  16
ATOM     16  C   UNL A   1      33.692  33.384  42.462  1.00  0.00     0.129 A 
ATOM     17  C   UNL A   1      31.116  33.232  45.219  1.00  0.00     0.052 C 
ATOM     18  C   UNL A   1      31.763  33.676  43.938  1.00  0.00     0.032 A 
ATOM     19  C   UNL A   1      32.958  33.013  43.589  1.00  0.00     0.057 A 
ATOM     20  C   UNL A   1      31.315  34.678  43.064  1.00  0.00     0.290 A 
ATOM     21  C   UNL A   1      32.093  34.978  41.950  1.00  0.00     0.199 A 
ATOM     22  N   UNL A   1      33.259  34.358  41.644  1.00  0.00    -0.232 NA
BRANCH  20  23
ATOM     23  N   UNL A   1      30.072  35.434  43.222  1.00  0.00     0.064 N 
ATOM     24  O   UNL A   1      29.191  35.277  42.363  1.00  0.00    -0.258 OA
ATOM     25  O   UNL A   1      29.937  36.161  44.213  1.00  0.00    -0.258 OA
ENDBRANCH  20  23
ENDBRANCH  12  16
ENDBRANCH  10  11
ENDBRANCH   8  10
ENDBRANCH   7   8
ENDBRANCH   6   7
ENDBRANCH   5   6
ENDBRANCH   4   5
ENDBRANCH   3   4
ENDBRANCH   2   3
ENDBRANCH   1   2
BRANCH   1  26
ATOM     26  C   UNL A   1      35.953  34.213  30.317  1.00  0.00     0.188 C 
BRANCH  26  27
ATOM     27  C   UNL A   1      34.458  34.567  30.446  1.00  0.00     0.188 C 
BRANCH  27  28
ATOM     28  O   UNL A   1      33.831  34.968  29.240  1.00  0.00    -0.376 OA
BRANCH  28  29
ATOM     29  C   UNL A   1      33.121  33.987  28.498  1.00  0.00     0.202 C 
BRANCH  29  30
ATOM     30  C   UNL A   1      33.945  32.913  27.769  1.00  0.00     0.261 C 
BRANCH  30  31
ATOM     31  O   UNL A   1      34.207  31.703  28.500  1.00  0.00    -0.460 OA
BRANCH  31  32
ATOM     32  C   UNL A   1      34.581  30.603  27.804  1.00  0.00     0.338 C 
ATOM     33  O   UNL A   1      34.042  30.139  26.825  1.00  0.00    -0.246 OA
BRANCH  32  34
ATOM     34  C   UNL A   1      35.888  30.167  28.346  1.00  0.00     0.060 A 
ATOM     35  C   UNL A   1      37.051  30.403  27.601  1.00  0.00     0.016 A 
ATOM     36  C   UNL A   1      35.962  29.538  29.589  1.00  0.00     0.016 A 
ATOM     37  C   UNL A   1      38.292  29.999  28.096  1.00  0.00     0.010 A 
ATOM     38  C   UNL A   1      37.203  29.112  30.072  1.00  0.00     0.010 A 
ATOM     39  C   UNL A   1      38.375  29.324  29.322  1.00  0.00    -0.014 A 
BRANCH  39  40
ATOM     40  C   UNL A   1      39.656  28.713  29.759  1.00  0.00     0.031 A 
ATOM     41  C   UNL A   1      40.355  29.288  30.962  1.00  0.00     0.074 A 
ATOM     42  C   UNL A   1      40.188  27.663  29.105  1.00  0.00     0.049 A 
ATOM     43  N   UNL A   1      41.527  28.996  31.460  1.00  0.00    -0.248 NA
ATOM     44  C   UNL A   1      39.629  30.334  31.700  1.00  0.00     0.031 C 
ATOM     45  C   UNL A   1      39.576  26.980  27.966  1.00  0.00     0.029 A 
ATOM     46  N   UNL A   1      41.375  26.997  29.298  1.00  0.00    -0.354 N 
ATOM     47  C   UNL A   1      41.683  29.818  32.571  1.00  0.00     0.074 A 
ATOM     48  C   UNL A   1      40.497  30.644  32.651  1.00  0.00     0.031 C 
ATOM     49  C   UNL A   1      40.403  26.003  27.550  1.00  0.00     0.029 A 
ATOM     50  C   UNL A   1      41.623  26.025  28.355  1.00  0.00     0.049 A 
ATOM     51  H   UNL A   1      41.989  27.196  30.040  1.00  0.00     0.167 HD
ATOM     52  C   UNL A   1      42.714  29.869  33.448  1.00  0.00     0.034 A 
ATOM     53  C   UNL A   1      42.724  25.273  28.141  1.00  0.00     0.034 A 
ATOM     54  C   UNL A   1      43.897  29.052  33.348  1.00  0.00     0.049 A 
ATOM     55  C   UNL A   1      43.917  25.445  29.059  1.00  0.00     0.074 A 
ATOM     56  C   UNL A   1      45.002  29.030  34.182  1.00  0.00     0.029 A 
ATOM     57  N   UNL A   1      44.138  28.119  32.348  1.00  0.00    -0.354 N 
ATOM     58  N   UNL A   1      44.050  26.224  30.109  1.00  0.00    -0.248 NA
ATOM     59  C   UNL A   1      45.109  24.636  28.763  1.00  0.00     0.031 C 
ATOM     60  C   UNL A   1      45.940  28.145  33.645  1.00  0.00     0.029 A 
ATOM     61  C   UNL A   1      45.388  27.548  32.523  1.00  0.00     0.049 A 
ATOM     62  H   UNL A   1      43.512  27.897  31.621  1.00  0.00     0.167 HD
ATOM     63  C   UNL A   1      45.325  25.971  30.612  1.00  0.00     0.074 A 
ATOM     64  C   UNL A   1      45.911  24.952  29.768  1.00  0.00     0.031 C 
ATOM     65  C   UNL A   1      45.960  26.532  31.672  1.00  0.00     0.034 A 
BRANCH  52  66
ATOM     66  C   UNL A   1      42.627  30.871  34.571  1.00  0.00     0.023 A 
ATOM     67  C   UNL A   1      43.064  32.197  34.412  1.00  0.00     0.031 A 
ATOM     68  C   UNL A   1      42.085  30.500  35.815  1.00  0.00     0.131 A 
ATOM     69  C   UNL A   1      42.994  33.091  35.491  1.00  0.00     0.055 A 
ATOM     70  C   UNL A   1      41.951  31.413  36.861  1.00  0.00     0.041 A 
ATOM     71  F   UNL A   1      41.674  29.240  36.032  1.00  0.00    -0.206 F 
ATOM     72  C   UNL A   1      42.415  32.716  36.705  1.00  0.00     0.022 A 
BRANCH  69  73
ATOM     73  S   UNL A   1      43.773  34.719  35.320  1.00  0.00     0.124 S 
ATOM     74  O   UNL A   1      45.190  34.380  35.421  1.00  0.00    -0.237 OA
ATOM     75  O   UNL A   1      43.313  35.154  34.006  1.00  0.00    -0.237 OA
ATOM     76  O   UNL A   1      43.238  35.476  36.450  1.00  0.00    -0.744 OA
ENDBRANCH  69  73
ENDBRANCH  52  66
BRANCH  53  77
ATOM     77  C   UNL A   1      42.806  24.338  26.978  1.00  0.00     0.023 A 
ATOM     78  C   UNL A   1      42.271  23.042  27.048  1.00  0.00     0.031 A 
ATOM     79  C   UNL A   1      43.521  24.688  25.818  1.00  0.00     0.131 A 
ATOM     80  C   UNL A   1      42.524  22.121  26.018  1.00  0.00     0.055 A 
ATOM     81  C   UNL A   1      43.705  23.793  24.762  1.00  0.00     0.041 A 
ATOM     82  F   UNL A   1      44.066  25.910  25.695  1.00  0.00    -0.206 F 
ATOM     83  C   UNL A   1      43.223  22.494  24.867  1.00  0.00     0.022 A 
BRANCH  80  84
ATOM     84  S   UNL A   1      42.051  20.388  26.270  1.00  0.00     0.124 S 
ATOM     85  O   UNL A   1      42.978  19.697  25.381  1.00  0.00    -0.237 OA
ATOM     86  O   UNL A   1      42.284  20.216  27.700  1.00  0.00    -0.237 OA
ATOM     87  O   UNL A   1      40.649  20.355  25.859  1.00  0.00    -0.744 OA
ENDBRANCH  80  84
ENDBRANCH  53  77
BRANCH  65  88
ATOM     88  C   UNL A   1      47.342  26.020  32.005  1.00  0.00     0.023 A 
ATOM     89  C   UNL A   1      47.556  25.089  33.037  1.00  0.00     0.031 A 
ATOM     90  C   UNL A   1      48.459  26.464  31.276  1.00  0.00     0.131 A 
ATOM     91  C   UNL A   1      48.860  24.676  33.347  1.00  0.00     0.055 A 
ATOM     92  C   UNL A   1      49.747  25.997  31.544  1.00  0.00     0.041 A 
ATOM     93  F   UNL A   1      48.316  27.354  30.280  1.00  0.00    -0.206 F 
ATOM     94  C   UNL A   1      49.955  25.108  32.594  1.00  0.00     0.022 A 
BRANCH  91  95
ATOM     95  S   UNL A   1      49.118  23.630  34.806  1.00  0.00     0.124 S 
ATOM     96  O   UNL A   1      50.211  24.319  35.483  1.00  0.00    -0.237 OA
ATOM     97  O   UNL A   1      47.819  23.690  35.469  1.00  0.00    -0.237 OA
ATOM     98  O   UNL A   1      49.463  22.327  34.237  1.00  0.00    -0.744 OA
ENDBRANCH  91  95
ENDBRANCH  65  88
ENDBRANCH  39  40
ENDBRANCH  32  34
ENDBRANCH  31  32
ENDBRANCH  30  31
ENDBRANCH  29  30
ENDBRANCH  28  29
ENDBRANCH  27  28
ENDBRANCH  26  27
ENDBRANCH   1  26
TORSDOF 26
ENDMDL
