MODEL 1
REMARK VINA RESULT:      -9.2      0.000      0.000
REMARK SMILES CC(C)C[C@H](NC(=O)CNC(=O)[C@@H](NC(=O)OCc1ccccc1)C(C)C)C(=O)OCCOCCOCCOCCOC(=O)c1ccc(-c2c3nc(c(-c4cc(S(=O)(=O)[O-])ccc4F)c4ccc([nH]4)c(-c4cc(S(=O)(=O)[O-])ccc4F)c4nc(c(-c5cc(S(=O)(=O)[O-])ccc5F)c5ccc2[nH]5)C=C4)C=C3)cc1
REMARK SMILES IDX 34 1 33 2 32 3 31 4 30 5 28 6 29 7 5 8 4 9 2 10 1 11 3 12
REMARK SMILES IDX 6 13 7 14 8 16 9 17 10 18 11 19 12 21 13 22 14 23 15 24
REMARK SMILES IDX 16 26 17 27 18 28 19 29 20 30 24 31 21 32 23 33 22 34 25 35
REMARK SMILES IDX 26 36 27 37 35 38 36 39 37 40 38 41 39 42 40 43 41 44 42 45
REMARK SMILES IDX 43 46 44 47 45 48 46 49 107 50 47 51 106 52 48 53 49 54
REMARK SMILES IDX 50 55 100 56 51 57 105 58 99 59 101 60 52 61 104 62 98 63
REMARK SMILES IDX 97 64 53 66 85 67 65 68 84 69 66 70 69 71 83 72 102 73 67 74
REMARK SMILES IDX 68 75 82 77 103 78 70 79 54 80 55 81 63 82 56 83 62 84 64 85
REMARK SMILES IDX 61 86 57 87 58 88 59 89 60 90 86 91 87 92 95 93 88 94 94 95
REMARK SMILES IDX 96 96 93 97 89 98 90 99 91 100 92 101 71 102 72 103 80 104
REMARK SMILES IDX 73 105 79 106 81 107 78 108 74 109 75 110 76 111 77 112
REMARK H PARENT 6 15 10 20 14 25 101 65 69 76
REMARK Flexibility Score: inf
ROOT
ATOM      1  C   UNL A   1      39.118  22.616  26.384  1.00  0.00     0.188 C 
ENDROOT
BRANCH   1   2
ATOM      2  O   UNL A   1      38.029  21.800  25.954  1.00  0.00    -0.376 OA
BRANCH   2   3
ATOM      3  C   UNL A   1      37.277  22.034  24.776  1.00  0.00     0.202 C 
BRANCH   3   4
ATOM      4  C   UNL A   1      36.254  23.179  24.738  1.00  0.00     0.261 C 
BRANCH   4   5
ATOM      5  O   UNL A   1      35.037  22.996  25.472  1.00  0.00    -0.462 OA
BRANCH   5   6
ATOM      6  C   UNL A   1      34.136  22.238  24.813  1.00  0.00     0.328 C 
ATOM      7  O   UNL A   1      33.912  22.306  23.608  1.00  0.00    -0.250 OA
BRANCH   6   8
ATOM      8  C   UNL A   1      33.269  21.372  25.726  1.00  0.00     0.192 C 
BRANCH   8   9
ATOM      9  C   UNL A   1      32.497  20.331  24.918  1.00  0.00     0.040 C 
BRANCH   9  10
ATOM     10  C   UNL A   1      33.025  18.881  25.001  1.00  0.00    -0.015 C 
ATOM     11  C   UNL A   1      32.324  17.849  24.113  1.00  0.00     0.007 C 
ATOM     12  C   UNL A   1      34.511  18.871  24.652  1.00  0.00     0.007 C 
ENDBRANCH   9  10
ENDBRANCH   8   9
BRANCH   8  13
ATOM     13  N   UNL A   1      32.405  22.068  26.675  1.00  0.00    -0.341 N 
ATOM     14  C   UNL A   1      31.487  23.055  26.441  1.00  0.00     0.240 C 
ATOM     15  H   UNL A   1      32.495  21.787  27.614  1.00  0.00     0.164 HD
ATOM     16  O   UNL A   1      30.714  23.347  27.360  1.00  0.00    -0.273 OA
BRANCH  14  17
ATOM     17  C   UNL A   1      31.281  23.711  25.051  1.00  0.00     0.216 C 
BRANCH  17  18
ATOM     18  N   UNL A   1      30.389  24.853  24.937  1.00  0.00    -0.345 N 
ATOM     19  C   UNL A   1      30.218  25.861  24.046  1.00  0.00     0.243 C 
ATOM     20  H   UNL A   1      29.754  24.907  25.687  1.00  0.00     0.164 HD
ATOM     21  O   UNL A   1      29.307  26.645  24.349  1.00  0.00    -0.273 OA
BRANCH  19  22
ATOM     22  C   UNL A   1      31.017  26.080  22.715  1.00  0.00     0.177 C 
BRANCH  22  23
ATOM     23  N   UNL A   1      30.869  27.409  22.114  1.00  0.00    -0.309 N 
ATOM     24  C   UNL A   1      31.085  28.652  22.606  1.00  0.00     0.408 C 
ATOM     25  H   UNL A   1      30.556  27.396  21.181  1.00  0.00     0.167 HD
ATOM     26  O   UNL A   1      30.550  29.628  22.091  1.00  0.00    -0.225 OA
BRANCH  24  27
ATOM     27  O   UNL A   1      31.977  28.696  23.612  1.00  0.00    -0.445 OA
BRANCH  27  28
ATOM     28  C   UNL A   1      31.526  29.365  24.796  1.00  0.00     0.270 C 
BRANCH  28  29
ATOM     29  C   UNL A   1      32.586  29.562  25.871  1.00  0.00    -0.011 A 
ATOM     30  C   UNL A   1      32.551  30.736  26.638  1.00  0.00     0.007 A 
ATOM     31  C   UNL A   1      33.666  28.685  26.065  1.00  0.00     0.007 A 
ATOM     32  C   UNL A   1      33.565  31.024  27.556  1.00  0.00     0.000 A 
ATOM     33  C   UNL A   1      34.684  28.977  26.975  1.00  0.00     0.000 A 
ATOM     34  C   UNL A   1      34.636  30.149  27.718  1.00  0.00     0.000 A 
ENDBRANCH  28  29
ENDBRANCH  27  28
ENDBRANCH  24  27
ENDBRANCH  22  23
BRANCH  22  35
ATOM     35  C   UNL A   1      32.447  25.481  22.754  1.00  0.00     0.015 C 
ATOM     36  C   UNL A   1      32.795  24.714  21.468  1.00  0.00     0.010 C 
ATOM     37  C   UNL A   1      33.515  26.574  22.921  1.00  0.00     0.010 C 
ENDBRANCH  22  35
ENDBRANCH  19  22
ENDBRANCH  17  18
ENDBRANCH  14  17
ENDBRANCH   8  13
ENDBRANCH   6   8
ENDBRANCH   5   6
ENDBRANCH   4   5
ENDBRANCH   3   4
ENDBRANCH   2   3
ENDBRANCH   1   2
BRANCH   1  38
ATOM     38  C   UNL A   1      40.291  22.119  27.251  1.00  0.00     0.188 C 
BRANCH  38  39
ATOM     39  O   UNL A   1      40.691  20.788  27.000  1.00  0.00    -0.377 OA
BRANCH  39  40
ATOM     40  C   UNL A   1      42.048  20.467  27.286  1.00  0.00     0.188 C 
BRANCH  40  41
ATOM     41  C   UNL A   1      42.403  18.978  27.461  1.00  0.00     0.188 C 
BRANCH  41  42
ATOM     42  O   UNL A   1      42.749  18.339  26.237  1.00  0.00    -0.376 OA
BRANCH  42  43
ATOM     43  C   UNL A   1      44.071  18.534  25.754  1.00  0.00     0.202 C 
BRANCH  43  44
ATOM     44  C   UNL A   1      44.184  19.026  24.303  1.00  0.00     0.261 C 
BRANCH  44  45
ATOM     45  O   UNL A   1      44.678  20.365  24.117  1.00  0.00    -0.460 OA
BRANCH  45  46
ATOM     46  C   UNL A   1      45.777  20.739  24.810  1.00  0.00     0.338 C 
ATOM     47  O   UNL A   1      46.845  20.158  24.848  1.00  0.00    -0.246 OA
BRANCH  46  48
ATOM     48  C   UNL A   1      45.547  22.105  25.336  1.00  0.00     0.060 A 
ATOM     49  C   UNL A   1      45.450  23.165  24.425  1.00  0.00     0.016 A 
ATOM     50  C   UNL A   1      45.435  22.345  26.708  1.00  0.00     0.016 A 
ATOM     51  C   UNL A   1      45.298  24.473  24.885  1.00  0.00     0.010 A 
ATOM     52  C   UNL A   1      45.304  23.660  27.170  1.00  0.00     0.010 A 
ATOM     53  C   UNL A   1      45.281  24.733  26.261  1.00  0.00    -0.014 A 
BRANCH  53  54
ATOM     54  C   UNL A   1      45.480  26.130  26.730  1.00  0.00     0.031 A 
ATOM     55  C   UNL A   1      44.272  26.894  27.207  1.00  0.00     0.074 A 
ATOM     56  C   UNL A   1      46.704  26.684  26.804  1.00  0.00     0.049 A 
ATOM     57  N   UNL A   1      44.187  28.111  27.677  1.00  0.00    -0.248 NA
ATOM     58  C   UNL A   1      42.986  26.182  27.145  1.00  0.00     0.031 C 
ATOM     59  C   UNL A   1      47.952  26.030  26.415  1.00  0.00     0.029 A 
ATOM     60  N   UNL A   1      47.095  27.927  27.235  1.00  0.00    -0.354 N 
ATOM     61  C   UNL A   1      42.843  28.305  27.983  1.00  0.00     0.074 A 
ATOM     62  C   UNL A   1      42.144  27.101  27.589  1.00  0.00     0.031 C 
ATOM     63  C   UNL A   1      48.971  26.884  26.617  1.00  0.00     0.029 A 
ATOM     64  C   UNL A   1      48.448  28.152  27.122  1.00  0.00     0.049 A 
ATOM     65  H   UNL A   1      46.467  28.595  27.592  1.00  0.00     0.167 HD
ATOM     66  C   UNL A   1      42.248  29.378  28.559  1.00  0.00     0.034 A 
ATOM     67  C   UNL A   1      49.173  29.263  27.376  1.00  0.00     0.034 A 
ATOM     68  C   UNL A   1      42.949  30.584  28.922  1.00  0.00     0.049 A 
ATOM     69  C   UNL A   1      48.471  30.485  27.926  1.00  0.00     0.074 A 
ATOM     70  C   UNL A   1      42.440  31.742  29.486  1.00  0.00     0.029 A 
ATOM     71  N   UNL A   1      44.311  30.795  28.747  1.00  0.00    -0.354 N 
ATOM     72  N   UNL A   1      47.199  30.654  28.213  1.00  0.00    -0.248 NA
ATOM     73  C   UNL A   1      49.307  31.661  28.201  1.00  0.00     0.031 C 
ATOM     74  C   UNL A   1      43.480  32.673  29.589  1.00  0.00     0.029 A 
ATOM     75  C   UNL A   1      44.654  32.070  29.169  1.00  0.00     0.049 A 
ATOM     76  H   UNL A   1      44.941  30.134  28.378  1.00  0.00     0.167 HD
ATOM     77  C   UNL A   1      47.094  31.944  28.733  1.00  0.00     0.074 A 
ATOM     78  C   UNL A   1      48.431  32.495  28.743  1.00  0.00     0.031 C 
ATOM     79  C   UNL A   1      45.993  32.613  29.165  1.00  0.00     0.034 A 
BRANCH  66  80
ATOM     80  C   UNL A   1      40.757  29.299  28.787  1.00  0.00     0.023 A 
ATOM     81  C   UNL A   1      40.216  29.185  30.080  1.00  0.00     0.031 A 
ATOM     82  C   UNL A   1      39.868  29.304  27.699  1.00  0.00     0.131 A 
ATOM     83  C   UNL A   1      38.834  29.013  30.249  1.00  0.00     0.055 A 
ATOM     84  C   UNL A   1      38.485  29.215  27.879  1.00  0.00     0.041 A 
ATOM     85  F   UNL A   1      40.326  29.382  26.441  1.00  0.00    -0.206 F 
ATOM     86  C   UNL A   1      37.962  29.054  29.159  1.00  0.00     0.022 A 
BRANCH  83  87
ATOM     87  S   UNL A   1      38.206  28.597  31.899  1.00  0.00     0.124 S 
ATOM     88  O   UNL A   1      36.774  28.835  31.738  1.00  0.00    -0.237 OA
ATOM     89  O   UNL A   1      38.609  27.204  32.049  1.00  0.00    -0.237 OA
ATOM     90  O   UNL A   1      38.893  29.544  32.775  1.00  0.00    -0.744 OA
ENDBRANCH  83  87
ENDBRANCH  66  80
BRANCH  67  91
ATOM     91  C   UNL A   1      50.636  29.304  27.078  1.00  0.00     0.023 A 
ATOM     92  C   UNL A   1      51.124  29.789  25.853  1.00  0.00     0.031 A 
ATOM     93  C   UNL A   1      51.566  28.770  27.989  1.00  0.00     0.131 A 
ATOM     94  C   UNL A   1      52.490  29.675  25.549  1.00  0.00     0.055 A 
ATOM     95  C   UNL A   1      52.932  28.717  27.706  1.00  0.00     0.041 A 
ATOM     96  F   UNL A   1      51.157  28.285  29.172  1.00  0.00    -0.206 F 
ATOM     97  C   UNL A   1      53.399  29.155  26.472  1.00  0.00     0.022 A 
BRANCH  94  98
ATOM     98  S   UNL A   1      53.048  30.113  23.877  1.00  0.00     0.124 S 
ATOM     99  O   UNL A   1      54.068  29.101  23.631  1.00  0.00    -0.237 OA
ATOM    100  O   UNL A   1      51.817  29.985  23.105  1.00  0.00    -0.237 OA
ATOM    101  O   UNL A   1      53.546  31.478  24.033  1.00  0.00    -0.744 OA
ENDBRANCH  94  98
ENDBRANCH  67  91
BRANCH  79 102
ATOM    102  C   UNL A   1      46.206  33.998  29.730  1.00  0.00     0.023 A 
ATOM    103  C   UNL A   1      46.136  35.148  28.924  1.00  0.00     0.031 A 
ATOM    104  C   UNL A   1      46.511  34.168  31.094  1.00  0.00     0.131 A 
ATOM    105  C   UNL A   1      46.439  36.406  29.469  1.00  0.00     0.055 A 
ATOM    106  C   UNL A   1      46.742  35.430  31.645  1.00  0.00     0.041 A 
ATOM    107  F   UNL A   1      46.594  33.108  31.913  1.00  0.00    -0.206 F 
ATOM    108  C   UNL A   1      46.725  36.555  30.828  1.00  0.00     0.022 A 
BRANCH 105 109
ATOM    109  S   UNL A   1      46.576  37.828  28.351  1.00  0.00     0.124 S 
ATOM    110  O   UNL A   1      45.935  38.886  29.126  1.00  0.00    -0.237 OA
ATOM    111  O   UNL A   1      48.019  37.950  28.177  1.00  0.00    -0.237 OA
ATOM    112  O   UNL A   1      45.842  37.399  27.161  1.00  0.00    -0.744 OA
ENDBRANCH 105 109
ENDBRANCH  79 102
ENDBRANCH  53  54
ENDBRANCH  46  48
ENDBRANCH  45  46
ENDBRANCH  44  45
ENDBRANCH  43  44
ENDBRANCH  42  43
ENDBRANCH  41  42
ENDBRANCH  40  41
ENDBRANCH  39  40
ENDBRANCH  38  39
ENDBRANCH   1  38
TORSDOF 34
ENDMDL
MODEL 2
REMARK VINA RESULT:      -9.0      1.753      2.667
REMARK SMILES CC(C)C[C@H](NC(=O)CNC(=O)[C@@H](NC(=O)OCc1ccccc1)C(C)C)C(=O)OCCOCCOCCOCCOC(=O)c1ccc(-c2c3nc(c(-c4cc(S(=O)(=O)[O-])ccc4F)c4ccc([nH]4)c(-c4cc(S(=O)(=O)[O-])ccc4F)c4nc(c(-c5cc(S(=O)(=O)[O-])ccc5F)c5ccc2[nH]5)C=C4)C=C3)cc1
REMARK SMILES IDX 34 1 33 2 32 3 31 4 30 5 28 6 29 7 5 8 4 9 2 10 1 11 3 12
REMARK SMILES IDX 6 13 7 14 8 16 9 17 10 18 11 19 12 21 13 22 14 23 15 24
REMARK SMILES IDX 16 26 17 27 18 28 19 29 20 30 24 31 21 32 23 33 22 34 25 35
REMARK SMILES IDX 26 36 27 37 35 38 36 39 37 40 38 41 39 42 40 43 41 44 42 45
REMARK SMILES IDX 43 46 44 47 45 48 46 49 107 50 47 51 106 52 48 53 49 54
REMARK SMILES IDX 50 55 100 56 51 57 105 58 99 59 101 60 52 61 104 62 98 63
REMARK SMILES IDX 97 64 53 66 85 67 65 68 84 69 66 70 69 71 83 72 102 73 67 74
REMARK SMILES IDX 68 75 82 77 103 78 70 79 54 80 55 81 63 82 56 83 62 84 64 85
REMARK SMILES IDX 61 86 57 87 58 88 59 89 60 90 86 91 87 92 95 93 88 94 94 95
REMARK SMILES IDX 96 96 93 97 89 98 90 99 91 100 92 101 71 102 72 103 80 104
REMARK SMILES IDX 73 105 79 106 81 107 78 108 74 109 75 110 76 111 77 112
REMARK H PARENT 6 15 10 20 14 25 101 65 69 76
REMARK Flexibility Score: inf
ROOT
ATOM      1  C   UNL A   1      39.237  22.700  26.502  1.00  0.00     0.188 C 
ENDROOT
BRANCH   1   2
ATOM      2  O   UNL A   1      38.114  21.969  26.008  1.00  0.00    -0.376 OA
BRANCH   2   3
ATOM      3  C   UNL A   1      37.247  22.439  24.991  1.00  0.00     0.202 C 
BRANCH   3   4
ATOM      4  C   UNL A   1      36.310  23.622  25.273  1.00  0.00     0.261 C 
BRANCH   4   5
ATOM      5  O   UNL A   1      35.097  23.344  25.984  1.00  0.00    -0.462 OA
BRANCH   5   6
ATOM      6  C   UNL A   1      34.039  23.162  25.166  1.00  0.00     0.328 C 
ATOM      7  O   UNL A   1      33.698  23.940  24.279  1.00  0.00    -0.250 OA
BRANCH   6   8
ATOM      8  C   UNL A   1      33.168  21.962  25.536  1.00  0.00     0.192 C 
BRANCH   8   9
ATOM      9  C   UNL A   1      32.649  21.258  24.284  1.00  0.00     0.040 C 
BRANCH   9  10
ATOM     10  C   UNL A   1      33.033  19.768  24.136  1.00  0.00    -0.015 C 
ATOM     11  C   UNL A   1      32.959  18.916  25.406  1.00  0.00     0.007 C 
ATOM     12  C   UNL A   1      32.134  19.124  23.083  1.00  0.00     0.007 C 
ENDBRANCH   9  10
ENDBRANCH   8   9
BRANCH   8  13
ATOM     13  N   UNL A   1      32.103  22.191  26.507  1.00  0.00    -0.341 N 
ATOM     14  C   UNL A   1      31.419  23.343  26.780  1.00  0.00     0.240 C 
ATOM     15  H   UNL A   1      31.839  21.406  27.040  1.00  0.00     0.164 HD
ATOM     16  O   UNL A   1      30.410  23.256  27.489  1.00  0.00    -0.273 OA
BRANCH  14  17
ATOM     17  C   UNL A   1      31.763  24.709  26.133  1.00  0.00     0.216 C 
BRANCH  17  18
ATOM     18  N   UNL A   1      31.303  25.930  26.775  1.00  0.00    -0.345 N 
ATOM     19  C   UNL A   1      31.830  27.156  27.009  1.00  0.00     0.243 C 
ATOM     20  H   UNL A   1      30.387  25.844  27.124  1.00  0.00     0.164 HD
ATOM     21  O   UNL A   1      31.063  27.922  27.611  1.00  0.00    -0.273 OA
BRANCH  19  22
ATOM     22  C   UNL A   1      33.245  27.668  26.568  1.00  0.00     0.177 C 
BRANCH  22  23
ATOM     23  N   UNL A   1      33.528  27.554  25.134  1.00  0.00    -0.309 N 
ATOM     24  C   UNL A   1      32.757  27.773  24.041  1.00  0.00     0.408 C 
ATOM     25  H   UNL A   1      34.446  27.265  24.927  1.00  0.00     0.167 HD
ATOM     26  O   UNL A   1      33.047  27.265  22.964  1.00  0.00    -0.225 OA
BRANCH  24  27
ATOM     27  O   UNL A   1      31.749  28.639  24.247  1.00  0.00    -0.445 OA
BRANCH  27  28
ATOM     28  C   UNL A   1      30.519  28.305  23.592  1.00  0.00     0.270 C 
BRANCH  28  29
ATOM     29  C   UNL A   1      29.599  29.483  23.304  1.00  0.00    -0.011 A 
ATOM     30  C   UNL A   1      28.727  29.399  22.208  1.00  0.00     0.007 A 
ATOM     31  C   UNL A   1      29.651  30.698  24.007  1.00  0.00     0.007 A 
ATOM     32  C   UNL A   1      27.947  30.494  21.826  1.00  0.00     0.000 A 
ATOM     33  C   UNL A   1      28.879  31.795  23.621  1.00  0.00     0.000 A 
ATOM     34  C   UNL A   1      28.029  31.695  22.527  1.00  0.00     0.000 A 
ENDBRANCH  28  29
ENDBRANCH  27  28
ENDBRANCH  24  27
ENDBRANCH  22  23
BRANCH  22  35
ATOM     35  C   UNL A   1      33.660  28.990  27.264  1.00  0.00     0.015 C 
ATOM     36  C   UNL A   1      35.178  29.229  27.209  1.00  0.00     0.010 C 
ATOM     37  C   UNL A   1      32.996  30.211  26.605  1.00  0.00     0.010 C 
ENDBRANCH  22  35
ENDBRANCH  19  22
ENDBRANCH  17  18
ENDBRANCH  14  17
ENDBRANCH   8  13
ENDBRANCH   6   8
ENDBRANCH   5   6
ENDBRANCH   4   5
ENDBRANCH   3   4
ENDBRANCH   2   3
ENDBRANCH   1   2
BRANCH   1  38
ATOM     38  C   UNL A   1      40.381  22.086  27.331  1.00  0.00     0.188 C 
BRANCH  38  39
ATOM     39  O   UNL A   1      40.780  20.793  26.924  1.00  0.00    -0.377 OA
BRANCH  39  40
ATOM     40  C   UNL A   1      42.132  20.433  27.184  1.00  0.00     0.188 C 
BRANCH  40  41
ATOM     41  C   UNL A   1      42.441  18.937  27.390  1.00  0.00     0.188 C 
BRANCH  41  42
ATOM     42  O   UNL A   1      42.708  18.251  26.172  1.00  0.00    -0.376 OA
BRANCH  42  43
ATOM     43  C   UNL A   1      44.047  18.265  25.698  1.00  0.00     0.202 C 
BRANCH  43  44
ATOM     44  C   UNL A   1      44.231  18.691  24.234  1.00  0.00     0.261 C 
BRANCH  44  45
ATOM     45  O   UNL A   1      44.849  19.972  24.012  1.00  0.00    -0.460 OA
BRANCH  45  46
ATOM     46  C   UNL A   1      45.923  20.299  24.765  1.00  0.00     0.338 C 
ATOM     47  O   UNL A   1      46.929  19.635  24.924  1.00  0.00    -0.246 OA
BRANCH  46  48
ATOM     48  C   UNL A   1      45.777  21.712  25.186  1.00  0.00     0.060 A 
ATOM     49  C   UNL A   1      45.766  22.706  24.199  1.00  0.00     0.016 A 
ATOM     50  C   UNL A   1      45.658  22.060  26.535  1.00  0.00     0.016 A 
ATOM     51  C   UNL A   1      45.696  24.052  24.560  1.00  0.00     0.010 A 
ATOM     52  C   UNL A   1      45.609  23.410  26.898  1.00  0.00     0.010 A 
ATOM     53  C   UNL A   1      45.673  24.413  25.914  1.00  0.00    -0.014 A 
BRANCH  53  54
ATOM     54  C   UNL A   1      45.958  25.824  26.284  1.00  0.00     0.031 A 
ATOM     55  C   UNL A   1      44.808  26.679  26.751  1.00  0.00     0.074 A 
ATOM     56  C   UNL A   1      47.210  26.317  26.282  1.00  0.00     0.049 A 
ATOM     57  N   UNL A   1      44.800  27.926  27.144  1.00  0.00    -0.248 NA
ATOM     58  C   UNL A   1      43.486  26.032  26.777  1.00  0.00     0.031 C 
ATOM     59  C   UNL A   1      48.409  25.577  25.895  1.00  0.00     0.029 A 
ATOM     60  N   UNL A   1      47.678  27.563  26.620  1.00  0.00    -0.354 N 
ATOM     61  C   UNL A   1      43.480  28.207  27.481  1.00  0.00     0.074 A 
ATOM     62  C   UNL A   1      42.708  27.019  27.188  1.00  0.00     0.031 C 
ATOM     63  C   UNL A   1      49.476  26.387  26.009  1.00  0.00     0.029 A 
ATOM     64  C   UNL A   1      49.035  27.710  26.447  1.00  0.00     0.049 A 
ATOM     65  H   UNL A   1      47.097  28.283  26.953  1.00  0.00     0.167 HD
ATOM     66  C   UNL A   1      42.960  29.344  28.006  1.00  0.00     0.034 A 
ATOM     67  C   UNL A   1      49.823  28.795  26.606  1.00  0.00     0.034 A 
ATOM     68  C   UNL A   1      43.732  30.533  28.267  1.00  0.00     0.049 A 
ATOM     69  C   UNL A   1      49.204  30.085  27.098  1.00  0.00     0.074 A 
ATOM     70  C   UNL A   1      43.303  31.748  28.771  1.00  0.00     0.029 A 
ATOM     71  N   UNL A   1      45.096  30.661  28.034  1.00  0.00    -0.354 N 
ATOM     72  N   UNL A   1      47.952  30.337  27.415  1.00  0.00    -0.248 NA
ATOM     73  C   UNL A   1      50.106  31.231  27.269  1.00  0.00     0.031 C 
ATOM     74  C   UNL A   1      44.390  32.629  28.780  1.00  0.00     0.029 A 
ATOM     75  C   UNL A   1      45.518  31.940  28.362  1.00  0.00     0.049 A 
ATOM     76  H   UNL A   1      45.679  29.947  27.688  1.00  0.00     0.167 HD
ATOM     77  C   UNL A   1      47.931  31.661  27.855  1.00  0.00     0.074 A 
ATOM     78  C   UNL A   1      49.293  32.141  27.785  1.00  0.00     0.031 C 
ATOM     79  C   UNL A   1      46.880  32.411  28.278  1.00  0.00     0.034 A 
BRANCH  66  80
ATOM     80  C   UNL A   1      41.476  29.357  28.287  1.00  0.00     0.023 A 
ATOM     81  C   UNL A   1      40.977  29.331  29.601  1.00  0.00     0.031 A 
ATOM     82  C   UNL A   1      40.550  29.361  27.231  1.00  0.00     0.131 A 
ATOM     83  C   UNL A   1      39.595  29.243  29.824  1.00  0.00     0.055 A 
ATOM     84  C   UNL A   1      39.172  29.356  27.461  1.00  0.00     0.041 A 
ATOM     85  F   UNL A   1      40.966  29.358  25.955  1.00  0.00    -0.206 F 
ATOM     86  C   UNL A   1      38.687  29.282  28.764  1.00  0.00     0.022 A 
BRANCH  83  87
ATOM     87  S   UNL A   1      39.006  28.936  31.513  1.00  0.00     0.124 S 
ATOM     88  O   UNL A   1      37.669  28.401  31.266  1.00  0.00    -0.237 OA
ATOM     89  O   UNL A   1      39.989  27.988  32.023  1.00  0.00    -0.237 OA
ATOM     90  O   UNL A   1      39.035  30.260  32.130  1.00  0.00    -0.744 OA
ENDBRANCH  83  87
ENDBRANCH  66  80
BRANCH  67  91
ATOM     91  C   UNL A   1      51.275  28.741  26.257  1.00  0.00     0.023 A 
ATOM     92  C   UNL A   1      52.264  28.597  27.244  1.00  0.00     0.031 A 
ATOM     93  C   UNL A   1      51.697  28.924  24.927  1.00  0.00     0.131 A 
ATOM     94  C   UNL A   1      53.621  28.699  26.896  1.00  0.00     0.055 A 
ATOM     95  C   UNL A   1      53.049  28.962  24.579  1.00  0.00     0.041 A 
ATOM     96  F   UNL A   1      50.797  29.074  23.943  1.00  0.00    -0.206 F 
ATOM     97  C   UNL A   1      54.020  28.867  25.569  1.00  0.00     0.022 A 
BRANCH  94  98
ATOM     98  S   UNL A   1      54.859  28.726  28.224  1.00  0.00     0.124 S 
ATOM     99  O   UNL A   1      55.808  27.719  27.763  1.00  0.00    -0.237 OA
ATOM    100  O   UNL A   1      55.319  30.110  28.179  1.00  0.00    -0.237 OA
ATOM    101  O   UNL A   1      54.090  28.363  29.412  1.00  0.00    -0.744 OA
ENDBRANCH  94  98
ENDBRANCH  67  91
BRANCH  79 102
ATOM    102  C   UNL A   1      47.183  33.817  28.746  1.00  0.00     0.023 A 
ATOM    103  C   UNL A   1      47.194  34.908  27.859  1.00  0.00     0.031 A 
ATOM    104  C   UNL A   1      47.491  34.064  30.097  1.00  0.00     0.131 A 
ATOM    105  C   UNL A   1      47.578  36.179  28.316  1.00  0.00     0.055 A 
ATOM    106  C   UNL A   1      47.803  35.343  30.559  1.00  0.00     0.041 A 
ATOM    107  F   UNL A   1      47.498  33.062  30.990  1.00  0.00    -0.206 F 
ATOM    108  C   UNL A   1      47.865  36.406  29.664  1.00  0.00     0.022 A 
BRANCH 105 109
ATOM    109  S   UNL A   1      47.815  37.505  27.101  1.00  0.00     0.124 S 
ATOM    110  O   UNL A   1      48.781  38.365  27.777  1.00  0.00    -0.237 OA
ATOM    111  O   UNL A   1      48.313  36.777  25.939  1.00  0.00    -0.237 OA
ATOM    112  O   UNL A   1      46.477  38.073  26.949  1.00  0.00    -0.744 OA
ENDBRANCH 105 109
ENDBRANCH  79 102
ENDBRANCH  53  54
ENDBRANCH  46  48
ENDBRANCH  45  46
ENDBRANCH  44  45
ENDBRANCH  43  44
ENDBRANCH  42  43
ENDBRANCH  41  42
ENDBRANCH  40  41
ENDBRANCH  39  40
ENDBRANCH  38  39
ENDBRANCH   1  38
TORSDOF 34
ENDMDL
MODEL 3
REMARK VINA RESULT:      -9.0      1.664      2.466
REMARK SMILES CC(C)C[C@H](NC(=O)CNC(=O)[C@@H](NC(=O)OCc1ccccc1)C(C)C)C(=O)OCCOCCOCCOCCOC(=O)c1ccc(-c2c3nc(c(-c4cc(S(=O)(=O)[O-])ccc4F)c4ccc([nH]4)c(-c4cc(S(=O)(=O)[O-])ccc4F)c4nc(c(-c5cc(S(=O)(=O)[O-])ccc5F)c5ccc2[nH]5)C=C4)C=C3)cc1
REMARK SMILES IDX 34 1 33 2 32 3 31 4 30 5 28 6 29 7 5 8 4 9 2 10 1 11 3 12
REMARK SMILES IDX 6 13 7 14 8 16 9 17 10 18 11 19 12 21 13 22 14 23 15 24
REMARK SMILES IDX 16 26 17 27 18 28 19 29 20 30 24 31 21 32 23 33 22 34 25 35
REMARK SMILES IDX 26 36 27 37 35 38 36 39 37 40 38 41 39 42 40 43 41 44 42 45
REMARK SMILES IDX 43 46 44 47 45 48 46 49 107 50 47 51 106 52 48 53 49 54
REMARK SMILES IDX 50 55 100 56 51 57 105 58 99 59 101 60 52 61 104 62 98 63
REMARK SMILES IDX 97 64 53 66 85 67 65 68 84 69 66 70 69 71 83 72 102 73 67 74
REMARK SMILES IDX 68 75 82 77 103 78 70 79 54 80 55 81 63 82 56 83 62 84 64 85
REMARK SMILES IDX 61 86 57 87 58 88 59 89 60 90 86 91 87 92 95 93 88 94 94 95
REMARK SMILES IDX 96 96 93 97 89 98 90 99 91 100 92 101 71 102 72 103 80 104
REMARK SMILES IDX 73 105 79 106 81 107 78 108 74 109 75 110 76 111 77 112
REMARK H PARENT 6 15 10 20 14 25 101 65 69 76
REMARK Flexibility Score: inf
ROOT
ATOM      1  C   UNL A   1      38.986  22.613  26.290  1.00  0.00     0.188 C 
ENDROOT
BRANCH   1   2
ATOM      2  O   UNL A   1      37.855  21.817  25.940  1.00  0.00    -0.376 OA
BRANCH   2   3
ATOM      3  C   UNL A   1      36.968  22.122  24.878  1.00  0.00     0.202 C 
BRANCH   3   4
ATOM      4  C   UNL A   1      35.904  23.214  25.062  1.00  0.00     0.261 C 
BRANCH   4   5
ATOM      5  O   UNL A   1      34.751  22.882  25.846  1.00  0.00    -0.462 OA
BRANCH   5   6
ATOM      6  C   UNL A   1      33.641  22.705  25.099  1.00  0.00     0.328 C 
ATOM      7  O   UNL A   1      33.263  23.469  24.215  1.00  0.00    -0.250 OA
BRANCH   6   8
ATOM      8  C   UNL A   1      32.771  21.533  25.551  1.00  0.00     0.192 C 
BRANCH   8   9
ATOM      9  C   UNL A   1      32.202  20.781  24.350  1.00  0.00     0.040 C 
BRANCH   9  10
ATOM     10  C   UNL A   1      32.976  19.516  23.913  1.00  0.00    -0.015 C 
ATOM     11  C   UNL A   1      33.326  18.516  25.019  1.00  0.00     0.007 C 
ATOM     12  C   UNL A   1      32.167  18.778  22.849  1.00  0.00     0.007 C 
ENDBRANCH   9  10
ENDBRANCH   8   9
BRANCH   8  13
ATOM     13  N   UNL A   1      31.742  21.817  26.546  1.00  0.00    -0.341 N 
ATOM     14  C   UNL A   1      31.056  22.979  26.768  1.00  0.00     0.240 C 
ATOM     15  H   UNL A   1      31.508  21.067  27.140  1.00  0.00     0.164 HD
ATOM     16  O   UNL A   1      30.077  22.931  27.521  1.00  0.00    -0.273 OA
BRANCH  14  17
ATOM     17  C   UNL A   1      31.359  24.302  26.018  1.00  0.00     0.216 C 
BRANCH  17  18
ATOM     18  N   UNL A   1      31.137  25.566  26.700  1.00  0.00    -0.345 N 
ATOM     19  C   UNL A   1      31.705  26.796  26.664  1.00  0.00     0.243 C 
ATOM     20  H   UNL A   1      30.394  25.517  27.343  1.00  0.00     0.164 HD
ATOM     21  O   UNL A   1      31.183  27.609  27.440  1.00  0.00    -0.273 OA
BRANCH  19  22
ATOM     22  C   UNL A   1      32.884  27.257  25.738  1.00  0.00     0.177 C 
BRANCH  22  23
ATOM     23  N   UNL A   1      32.807  26.784  24.353  1.00  0.00    -0.309 N 
ATOM     24  C   UNL A   1      31.752  26.522  23.544  1.00  0.00     0.408 C 
ATOM     25  H   UNL A   1      33.684  26.627  23.932  1.00  0.00     0.167 HD
ATOM     26  O   UNL A   1      31.880  25.787  22.572  1.00  0.00    -0.225 OA
BRANCH  24  27
ATOM     27  O   UNL A   1      30.637  27.203  23.863  1.00  0.00    -0.445 OA
BRANCH  27  28
ATOM     28  C   UNL A   1      29.895  27.711  22.748  1.00  0.00     0.270 C 
BRANCH  28  29
ATOM     29  C   UNL A   1      29.176  29.030  22.996  1.00  0.00    -0.011 A 
ATOM     30  C   UNL A   1      29.907  30.101  23.532  1.00  0.00     0.007 A 
ATOM     31  C   UNL A   1      27.792  29.204  22.823  1.00  0.00     0.007 A 
ATOM     32  C   UNL A   1      29.274  31.294  23.890  1.00  0.00     0.000 A 
ATOM     33  C   UNL A   1      27.158  30.392  23.189  1.00  0.00     0.000 A 
ATOM     34  C   UNL A   1      27.898  31.437  23.727  1.00  0.00     0.000 A 
ENDBRANCH  28  29
ENDBRANCH  27  28
ENDBRANCH  24  27
ENDBRANCH  22  23
BRANCH  22  35
ATOM     35  C   UNL A   1      33.286  28.739  25.954  1.00  0.00     0.015 C 
ATOM     36  C   UNL A   1      34.553  28.882  26.813  1.00  0.00     0.010 C 
ATOM     37  C   UNL A   1      33.573  29.449  24.621  1.00  0.00     0.010 C 
ENDBRANCH  22  35
ENDBRANCH  19  22
ENDBRANCH  17  18
ENDBRANCH  14  17
ENDBRANCH   8  13
ENDBRANCH   6   8
ENDBRANCH   5   6
ENDBRANCH   4   5
ENDBRANCH   3   4
ENDBRANCH   2   3
ENDBRANCH   1   2
BRANCH   1  38
ATOM     38  C   UNL A   1      40.235  22.081  27.020  1.00  0.00     0.188 C 
BRANCH  38  39
ATOM     39  O   UNL A   1      40.694  20.823  26.568  1.00  0.00    -0.377 OA
BRANCH  39  40
ATOM     40  C   UNL A   1      42.074  20.541  26.769  1.00  0.00     0.188 C 
BRANCH  40  41
ATOM     41  C   UNL A   1      42.508  19.062  26.734  1.00  0.00     0.188 C 
BRANCH  41  42
ATOM     42  O   UNL A   1      42.770  18.589  25.418  1.00  0.00    -0.376 OA
BRANCH  42  43
ATOM     43  C   UNL A   1      44.121  18.605  24.978  1.00  0.00     0.202 C 
BRANCH  43  44
ATOM     44  C   UNL A   1      44.405  19.453  23.729  1.00  0.00     0.261 C 
BRANCH  44  45
ATOM     45  O   UNL A   1      45.007  20.742  23.952  1.00  0.00    -0.460 OA
BRANCH  45  46
ATOM     46  C   UNL A   1      45.784  20.899  25.046  1.00  0.00     0.338 C 
ATOM     47  O   UNL A   1      46.651  20.141  25.437  1.00  0.00    -0.246 OA
BRANCH  46  48
ATOM     48  C   UNL A   1      45.570  22.268  25.571  1.00  0.00     0.060 A 
ATOM     49  C   UNL A   1      45.361  23.309  24.656  1.00  0.00     0.016 A 
ATOM     50  C   UNL A   1      45.580  22.530  26.943  1.00  0.00     0.016 A 
ATOM     51  C   UNL A   1      45.220  24.621  25.108  1.00  0.00     0.010 A 
ATOM     52  C   UNL A   1      45.461  23.850  27.395  1.00  0.00     0.010 A 
ATOM     53  C   UNL A   1      45.324  24.906  26.476  1.00  0.00    -0.014 A 
BRANCH  53  54
ATOM     54  C   UNL A   1      45.531  26.315  26.902  1.00  0.00     0.031 A 
ATOM     55  C   UNL A   1      44.349  27.065  27.458  1.00  0.00     0.074 A 
ATOM     56  C   UNL A   1      46.746  26.893  26.869  1.00  0.00     0.049 A 
ATOM     57  N   UNL A   1      44.276  28.290  27.911  1.00  0.00    -0.248 NA
ATOM     58  C   UNL A   1      43.077  26.328  27.509  1.00  0.00     0.031 C 
ATOM     59  C   UNL A   1      47.973  26.255  26.396  1.00  0.00     0.029 A 
ATOM     60  N   UNL A   1      47.144  28.151  27.246  1.00  0.00    -0.354 N 
ATOM     61  C   UNL A   1      42.957  28.464  28.317  1.00  0.00     0.074 A 
ATOM     62  C   UNL A   1      42.254  27.240  28.001  1.00  0.00     0.031 C 
ATOM     63  C   UNL A   1      48.987  27.132  26.502  1.00  0.00     0.029 A 
ATOM     64  C   UNL A   1      48.479  28.400  27.023  1.00  0.00     0.049 A 
ATOM     65  H   UNL A   1      46.532  28.814  27.639  1.00  0.00     0.167 HD
ATOM     66  C   UNL A   1      42.387  29.537  28.918  1.00  0.00     0.034 A 
ATOM     67  C   UNL A   1      49.199  29.529  27.200  1.00  0.00     0.034 A 
ATOM     68  C   UNL A   1      43.089  30.763  29.203  1.00  0.00     0.049 A 
ATOM     69  C   UNL A   1      48.518  30.748  27.780  1.00  0.00     0.074 A 
ATOM     70  C   UNL A   1      42.602  31.922  29.784  1.00  0.00     0.029 A 
ATOM     71  N   UNL A   1      44.429  30.996  28.919  1.00  0.00    -0.354 N 
ATOM     72  N   UNL A   1      47.268  30.899  28.163  1.00  0.00    -0.248 NA
ATOM     73  C   UNL A   1      49.348  31.945  27.967  1.00  0.00     0.031 C 
ATOM     74  C   UNL A   1      43.627  32.875  29.788  1.00  0.00     0.029 A 
ATOM     75  C   UNL A   1      44.778  32.285  29.289  1.00  0.00     0.049 A 
ATOM     76  H   UNL A   1      45.041  30.340  28.513  1.00  0.00     0.167 HD
ATOM     77  C   UNL A   1      47.178  32.197  28.666  1.00  0.00     0.074 A 
ATOM     78  C   UNL A   1      48.501  32.773  28.561  1.00  0.00     0.031 C 
ATOM     79  C   UNL A   1      46.101  32.853  29.170  1.00  0.00     0.034 A 
BRANCH  66  80
ATOM     80  C   UNL A   1      40.920  29.434  29.264  1.00  0.00     0.023 A 
ATOM     81  C   UNL A   1      40.483  29.347  30.597  1.00  0.00     0.031 A 
ATOM     82  C   UNL A   1      39.949  29.390  28.249  1.00  0.00     0.131 A 
ATOM     83  C   UNL A   1      39.122  29.152  30.878  1.00  0.00     0.055 A 
ATOM     84  C   UNL A   1      38.587  29.279  28.538  1.00  0.00     0.041 A 
ATOM     85  F   UNL A   1      40.307  29.442  26.957  1.00  0.00    -0.206 F 
ATOM     86  C   UNL A   1      38.168  29.144  29.858  1.00  0.00     0.022 A 
BRANCH  83  87
ATOM     87  S   UNL A   1      38.633  28.770  32.583  1.00  0.00     0.124 S 
ATOM     88  O   UNL A   1      37.268  28.285  32.396  1.00  0.00    -0.237 OA
ATOM     89  O   UNL A   1      39.618  27.771  32.978  1.00  0.00    -0.237 OA
ATOM     90  O   UNL A   1      38.741  30.058  33.265  1.00  0.00    -0.744 OA
ENDBRANCH  83  87
ENDBRANCH  66  80
BRANCH  67  91
ATOM     91  C   UNL A   1      50.633  29.591  26.787  1.00  0.00     0.023 A 
ATOM     92  C   UNL A   1      51.011  30.009  25.500  1.00  0.00     0.031 A 
ATOM     93  C   UNL A   1      51.647  29.144  27.655  1.00  0.00     0.131 A 
ATOM     94  C   UNL A   1      52.354  29.914  25.099  1.00  0.00     0.055 A 
ATOM     95  C   UNL A   1      52.989  29.111  27.271  1.00  0.00     0.041 A 
ATOM     96  F   UNL A   1      51.345  28.726  28.894  1.00  0.00    -0.206 F 
ATOM     97  C   UNL A   1      53.347  29.481  25.980  1.00  0.00     0.022 A 
BRANCH  94  98
ATOM     98  S   UNL A   1      52.769  30.257  23.365  1.00  0.00     0.124 S 
ATOM     99  O   UNL A   1      52.739  28.921  22.783  1.00  0.00    -0.237 OA
ATOM    100  O   UNL A   1      51.690  31.155  22.968  1.00  0.00    -0.237 OA
ATOM    101  O   UNL A   1      54.092  30.873  23.449  1.00  0.00    -0.744 OA
ENDBRANCH  94  98
ENDBRANCH  67  91
BRANCH  79 102
ATOM    102  C   UNL A   1      46.330  34.253  29.692  1.00  0.00     0.023 A 
ATOM    103  C   UNL A   1      46.525  34.513  31.060  1.00  0.00     0.031 A 
ATOM    104  C   UNL A   1      46.327  35.348  28.807  1.00  0.00     0.131 A 
ATOM    105  C   UNL A   1      46.634  35.838  31.512  1.00  0.00     0.055 A 
ATOM    106  C   UNL A   1      46.508  36.658  29.256  1.00  0.00     0.041 A 
ATOM    107  F   UNL A   1      46.144  35.162  27.490  1.00  0.00    -0.206 F 
ATOM    108  C   UNL A   1      46.644  36.909  30.617  1.00  0.00     0.022 A 
BRANCH 105 109
ATOM    109  S   UNL A   1      46.640  36.148  33.299  1.00  0.00     0.124 S 
ATOM    110  O   UNL A   1      46.925  37.578  33.358  1.00  0.00    -0.237 OA
ATOM    111  O   UNL A   1      45.292  35.750  33.689  1.00  0.00    -0.237 OA
ATOM    112  O   UNL A   1      47.709  35.281  33.794  1.00  0.00    -0.744 OA
ENDBRANCH 105 109
ENDBRANCH  79 102
ENDBRANCH  53  54
ENDBRANCH  46  48
ENDBRANCH  45  46
ENDBRANCH  44  45
ENDBRANCH  43  44
ENDBRANCH  42  43
ENDBRANCH  41  42
ENDBRANCH  40  41
ENDBRANCH  39  40
ENDBRANCH  38  39
ENDBRANCH   1  38
TORSDOF 34
ENDMDL
