MODEL 1
REMARK VINA RESULT:      -9.2      0.000      0.000
REMARK SMILES CC[C@H](c1ccc(OC)cc1)[N@H+]1CC[C@H](C(=O)OCCOCCOCCOCCOC(=O)c2ccc(-c3c4nc(c(-c5cc(S(=O)(=O)[O-])ccc5F)c5ccc([nH]5)c(-c5cc(S(=O)(=O)[O-])ccc5F)c5nc(c(-c6cc(S(=O)(=O)[O-])ccc6F)c6ccc3[nH]6)C=C5)C=C4)cc2)[C@@H]1C
REMARK SMILES IDX 24 1 23 2 22 3 21 4 20 5 19 6 18 7 16 8 17 9 15 10 12 11
REMARK SMILES IDX 13 12 96 13 14 15 97 16 3 17 2 18 1 19 4 20 5 21 11 22 6 23
REMARK SMILES IDX 10 24 7 25 8 26 9 27 25 28 26 29 27 30 28 31 29 32 30 33
REMARK SMILES IDX 31 34 32 35 33 36 34 37 95 38 35 39 94 40 36 41 37 42 38 43
REMARK SMILES IDX 88 44 39 45 93 46 87 47 89 48 40 49 92 50 86 51 85 52 41 54
REMARK SMILES IDX 73 55 53 56 72 57 54 58 57 59 71 60 90 61 55 62 56 63 70 65
REMARK SMILES IDX 91 66 58 67 42 68 43 69 51 70 44 71 50 72 52 73 49 74 45 75
REMARK SMILES IDX 46 76 47 77 48 78 74 79 75 80 83 81 76 82 82 83 84 84 81 85
REMARK SMILES IDX 77 86 78 87 79 88 80 89 59 90 60 91 68 92 61 93 67 94 69 95
REMARK SMILES IDX 66 96 62 97 63 98 64 99 65 100
REMARK H PARENT 12 14 89 53 57 64
REMARK Flexibility Score: inf
ROOT
ATOM      1  O   UNL A   1      39.930  22.254  25.918  1.00  0.00    -0.377 OA
ENDROOT
BRANCH   1   2
ATOM      2  C   UNL A   1      38.539  22.058  26.083  1.00  0.00     0.188 C 
BRANCH   2   3
ATOM      3  C   UNL A   1      37.540  23.190  25.734  1.00  0.00     0.188 C 
BRANCH   3   4
ATOM      4  O   UNL A   1      36.431  22.735  24.989  1.00  0.00    -0.376 OA
BRANCH   4   5
ATOM      5  C   UNL A   1      36.128  21.361  25.132  1.00  0.00     0.202 C 
BRANCH   5   6
ATOM      6  C   UNL A   1      34.693  20.980  25.534  1.00  0.00     0.261 C 
BRANCH   6   7
ATOM      7  O   UNL A   1      34.266  21.202  26.901  1.00  0.00    -0.463 OA
BRANCH   7   8
ATOM      8  C   UNL A   1      33.316  22.128  27.203  1.00  0.00     0.315 C 
ATOM      9  O   UNL A   1      32.952  22.376  28.344  1.00  0.00    -0.252 OA
BRANCH   8  10
ATOM     10  C   UNL A   1      32.720  22.720  25.910  1.00  0.00     0.162 C 
ATOM     11  N   UNL A   1      31.541  24.843  26.157  1.00  0.00    -0.326 N 
ATOM     12  C   UNL A   1      30.698  23.730  26.638  1.00  0.00     0.264 C 
ATOM     13  C   UNL A   1      32.729  24.230  25.545  1.00  0.00     0.196 C 
ATOM     14  H   UNL A   1      31.828  25.440  26.933  1.00  0.00     0.348 HD
ATOM     15  C   UNL A   1      31.220  22.469  25.970  1.00  0.00     0.083 C 
ATOM     16  C   UNL A   1      33.940  25.086  25.849  1.00  0.00     0.076 C 
BRANCH  11  17
ATOM     17  C   UNL A   1      30.816  25.814  25.291  1.00  0.00     0.215 C 
BRANCH  17  18
ATOM     18  C   UNL A   1      31.083  25.675  23.763  1.00  0.00     0.067 C 
ATOM     19  C   UNL A   1      30.358  24.521  23.076  1.00  0.00     0.010 C 
ENDBRANCH  17  18
BRANCH  17  20
ATOM     20  C   UNL A   1      31.174  27.228  25.722  1.00  0.00     0.010 A 
ATOM     21  C   UNL A   1      31.229  28.275  24.791  1.00  0.00     0.014 A 
ATOM     22  C   UNL A   1      31.537  27.468  27.052  1.00  0.00     0.014 A 
ATOM     23  C   UNL A   1      31.672  29.535  25.183  1.00  0.00     0.047 A 
ATOM     24  C   UNL A   1      31.977  28.729  27.439  1.00  0.00     0.047 A 
ATOM     25  C   UNL A   1      32.052  29.765  26.506  1.00  0.00     0.118 A 
BRANCH  25  26
ATOM     26  O   UNL A   1      32.490  31.035  26.764  1.00  0.00    -0.497 OA
ATOM     27  C   UNL A   1      33.625  31.138  27.612  1.00  0.00     0.278 C 
ENDBRANCH  25  26
ENDBRANCH  17  20
ENDBRANCH  11  17
ENDBRANCH   8  10
ENDBRANCH   7   8
ENDBRANCH   6   7
ENDBRANCH   5   6
ENDBRANCH   4   5
ENDBRANCH   3   4
ENDBRANCH   2   3
ENDBRANCH   1   2
BRANCH   1  28
ATOM     28  C   UNL A   1      40.790  21.470  26.723  1.00  0.00     0.188 C 
BRANCH  28  29
ATOM     29  C   UNL A   1      41.269  20.095  26.200  1.00  0.00     0.188 C 
BRANCH  29  30
ATOM     30  O   UNL A   1      42.643  19.811  26.410  1.00  0.00    -0.376 OA
BRANCH  30  31
ATOM     31  C   UNL A   1      43.336  18.917  25.563  1.00  0.00     0.202 C 
BRANCH  31  32
ATOM     32  C   UNL A   1      44.095  19.473  24.348  1.00  0.00     0.261 C 
BRANCH  32  33
ATOM     33  O   UNL A   1      44.499  20.839  24.428  1.00  0.00    -0.460 OA
BRANCH  33  34
ATOM     34  C   UNL A   1      45.678  21.071  25.055  1.00  0.00     0.338 C 
ATOM     35  O   UNL A   1      46.669  20.384  25.023  1.00  0.00    -0.246 OA
BRANCH  34  36
ATOM     36  C   UNL A   1      45.590  22.438  25.612  1.00  0.00     0.060 A 
ATOM     37  C   UNL A   1      45.375  23.509  24.736  1.00  0.00     0.016 A 
ATOM     38  C   UNL A   1      45.657  22.643  26.992  1.00  0.00     0.016 A 
ATOM     39  C   UNL A   1      45.192  24.792  25.242  1.00  0.00     0.010 A 
ATOM     40  C   UNL A   1      45.538  23.939  27.493  1.00  0.00     0.010 A 
ATOM     41  C   UNL A   1      45.320  25.016  26.617  1.00  0.00    -0.014 A 
BRANCH  41  42
ATOM     42  C   UNL A   1      45.493  26.404  27.094  1.00  0.00     0.031 A 
ATOM     43  C   UNL A   1      44.269  27.106  27.608  1.00  0.00     0.074 A 
ATOM     44  C   UNL A   1      46.696  27.000  27.104  1.00  0.00     0.049 A 
ATOM     45  N   UNL A   1      44.133  28.328  28.046  1.00  0.00    -0.248 NA
ATOM     46  C   UNL A   1      43.027  26.313  27.628  1.00  0.00     0.031 C 
ATOM     47  C   UNL A   1      47.953  26.379  26.691  1.00  0.00     0.029 A 
ATOM     48  N   UNL A   1      47.053  28.269  27.481  1.00  0.00    -0.354 N 
ATOM     49  C   UNL A   1      42.793  28.452  28.394  1.00  0.00     0.074 A 
ATOM     50  C   UNL A   1      42.152  27.194  28.084  1.00  0.00     0.031 C 
ATOM     51  C   UNL A   1      48.945  27.278  26.823  1.00  0.00     0.029 A 
ATOM     52  C   UNL A   1      48.387  28.546  27.292  1.00  0.00     0.049 A 
ATOM     53  H   UNL A   1      46.415  28.920  27.853  1.00  0.00     0.167 HD
ATOM     54  C   UNL A   1      42.159  29.521  28.929  1.00  0.00     0.034 A 
ATOM     55  C   UNL A   1      49.061  29.703  27.453  1.00  0.00     0.034 A 
ATOM     56  C   UNL A   1      42.815  30.774  29.201  1.00  0.00     0.049 A 
ATOM     57  C   UNL A   1      48.307  30.918  27.944  1.00  0.00     0.074 A 
ATOM     58  C   UNL A   1      42.276  31.930  29.734  1.00  0.00     0.029 A 
ATOM     59  N   UNL A   1      44.154  31.041  28.939  1.00  0.00    -0.354 N 
ATOM     60  N   UNL A   1      47.039  31.030  28.274  1.00  0.00    -0.248 NA
ATOM     61  C   UNL A   1      49.076  32.161  28.093  1.00  0.00     0.031 C 
ATOM     62  C   UNL A   1      43.265  32.918  29.718  1.00  0.00     0.029 A 
ATOM     63  C   UNL A   1      44.449  32.355  29.266  1.00  0.00     0.049 A 
ATOM     64  H   UNL A   1      44.798  30.391  28.576  1.00  0.00     0.167 HD
ATOM     65  C   UNL A   1      46.871  32.345  28.704  1.00  0.00     0.074 A 
ATOM     66  C   UNL A   1      48.169  32.980  28.603  1.00  0.00     0.031 C 
ATOM     67  C   UNL A   1      45.750  32.970  29.150  1.00  0.00     0.034 A 
BRANCH  54  68
ATOM     68  C   UNL A   1      40.678  29.390  29.181  1.00  0.00     0.023 A 
ATOM     69  C   UNL A   1      40.148  29.328  30.483  1.00  0.00     0.031 A 
ATOM     70  C   UNL A   1      39.786  29.279  28.101  1.00  0.00     0.131 A 
ATOM     71  C   UNL A   1      38.777  29.093  30.669  1.00  0.00     0.055 A 
ATOM     72  C   UNL A   1      38.412  29.130  28.294  1.00  0.00     0.041 A 
ATOM     73  F   UNL A   1      40.237  29.297  26.837  1.00  0.00    -0.206 F 
ATOM     74  C   UNL A   1      37.901  29.021  29.584  1.00  0.00     0.022 A 
BRANCH  71  75
ATOM     75  S   UNL A   1      38.178  28.731  32.343  1.00  0.00     0.124 S 
ATOM     76  O   UNL A   1      36.781  29.150  32.255  1.00  0.00    -0.237 OA
ATOM     77  O   UNL A   1      38.409  27.296  32.457  1.00  0.00    -0.237 OA
ATOM     78  O   UNL A   1      39.019  29.569  33.196  1.00  0.00    -0.744 OA
ENDBRANCH  71  75
ENDBRANCH  54  68
BRANCH  55  79
ATOM     79  C   UNL A   1      50.510  29.794  27.106  1.00  0.00     0.023 A 
ATOM     80  C   UNL A   1      50.930  30.084  25.798  1.00  0.00     0.031 A 
ATOM     81  C   UNL A   1      51.501  29.523  28.068  1.00  0.00     0.131 A 
ATOM     82  C   UNL A   1      52.296  30.046  25.475  1.00  0.00     0.055 A 
ATOM     83  C   UNL A   1      52.861  29.545  27.756  1.00  0.00     0.041 A 
ATOM     84  F   UNL A   1      51.159  29.231  29.333  1.00  0.00    -0.206 F 
ATOM     85  C   UNL A   1      53.265  29.793  26.448  1.00  0.00     0.022 A 
BRANCH  82  86
ATOM     86  S   UNL A   1      52.783  30.229  23.737  1.00  0.00     0.124 S 
ATOM     87  O   UNL A   1      51.501  30.499  23.097  1.00  0.00    -0.237 OA
ATOM     88  O   UNL A   1      53.717  31.348  23.801  1.00  0.00    -0.237 OA
ATOM     89  O   UNL A   1      53.384  28.936  23.414  1.00  0.00    -0.744 OA
ENDBRANCH  82  86
ENDBRANCH  55  79
BRANCH  67  90
ATOM     90  C   UNL A   1      45.896  34.400  29.617  1.00  0.00     0.023 A 
ATOM     91  C   UNL A   1      45.641  35.491  28.768  1.00  0.00     0.031 A 
ATOM     92  C   UNL A   1      46.293  34.671  30.939  1.00  0.00     0.131 A 
ATOM     93  C   UNL A   1      45.842  36.800  29.233  1.00  0.00     0.055 A 
ATOM     94  C   UNL A   1      46.423  35.975  31.416  1.00  0.00     0.041 A 
ATOM     95  F   UNL A   1      46.553  33.669  31.794  1.00  0.00    -0.206 F 
ATOM     96  C   UNL A   1      46.211  37.048  30.557  1.00  0.00     0.022 A 
BRANCH  93  97
ATOM     97  S   UNL A   1      45.715  38.172  28.054  1.00  0.00     0.124 S 
ATOM     98  O   UNL A   1      46.974  38.062  27.325  1.00  0.00    -0.237 OA
ATOM     99  O   UNL A   1      44.512  37.828  27.303  1.00  0.00    -0.237 OA
ATOM    100  O   UNL A   1      45.594  39.350  28.911  1.00  0.00    -0.744 OA
ENDBRANCH  93  97
ENDBRANCH  67  90
ENDBRANCH  41  42
ENDBRANCH  34  36
ENDBRANCH  33  34
ENDBRANCH  32  33
ENDBRANCH  31  32
ENDBRANCH  30  31
ENDBRANCH  29  30
ENDBRANCH  28  29
ENDBRANCH   1  28
TORSDOF 27
ENDMDL
MODEL 2
REMARK VINA RESULT:      -8.7      1.738      7.672
REMARK SMILES CC[C@H](c1ccc(OC)cc1)[N@H+]1CC[C@H](C(=O)OCCOCCOCCOCCOC(=O)c2ccc(-c3c4nc(c(-c5cc(S(=O)(=O)[O-])ccc5F)c5ccc([nH]5)c(-c5cc(S(=O)(=O)[O-])ccc5F)c5nc(c(-c6cc(S(=O)(=O)[O-])ccc6F)c6ccc3[nH]6)C=C5)C=C4)cc2)[C@@H]1C
REMARK SMILES IDX 24 1 23 2 22 3 21 4 20 5 19 6 18 7 16 8 17 9 15 10 12 11
REMARK SMILES IDX 13 12 96 13 14 15 97 16 3 17 2 18 1 19 4 20 5 21 11 22 6 23
REMARK SMILES IDX 10 24 7 25 8 26 9 27 25 28 26 29 27 30 28 31 29 32 30 33
REMARK SMILES IDX 31 34 32 35 33 36 34 37 95 38 35 39 94 40 36 41 37 42 38 43
REMARK SMILES IDX 88 44 39 45 93 46 87 47 89 48 40 49 92 50 86 51 85 52 41 54
REMARK SMILES IDX 73 55 53 56 72 57 54 58 57 59 71 60 90 61 55 62 56 63 70 65
REMARK SMILES IDX 91 66 58 67 42 68 43 69 51 70 44 71 50 72 52 73 49 74 45 75
REMARK SMILES IDX 46 76 47 77 48 78 74 79 75 80 83 81 76 82 82 83 84 84 81 85
REMARK SMILES IDX 77 86 78 87 79 88 80 89 59 90 60 91 68 92 61 93 67 94 69 95
REMARK SMILES IDX 66 96 62 97 63 98 64 99 65 100
REMARK H PARENT 12 14 89 53 57 64
REMARK Flexibility Score: inf
ROOT
ATOM      1  O   UNL A   1      39.702  22.081  25.772  1.00  0.00    -0.377 OA
ENDROOT
BRANCH   1   2
ATOM      2  C   UNL A   1      38.296  21.990  25.895  1.00  0.00     0.188 C 
BRANCH   2   3
ATOM      3  C   UNL A   1      37.378  23.050  25.234  1.00  0.00     0.188 C 
BRANCH   3   4
ATOM      4  O   UNL A   1      36.248  22.485  24.607  1.00  0.00    -0.376 OA
BRANCH   4   5
ATOM      5  C   UNL A   1      35.955  21.151  24.975  1.00  0.00     0.202 C 
BRANCH   5   6
ATOM      6  C   UNL A   1      34.539  20.844  25.492  1.00  0.00     0.261 C 
BRANCH   6   7
ATOM      7  O   UNL A   1      34.215  21.147  26.871  1.00  0.00    -0.463 OA
BRANCH   7   8
ATOM      8  C   UNL A   1      33.291  22.094  27.189  1.00  0.00     0.315 C 
ATOM      9  O   UNL A   1      32.975  22.373  28.336  1.00  0.00    -0.252 OA
BRANCH   8  10
ATOM     10  C   UNL A   1      32.652  22.664  25.906  1.00  0.00     0.162 C 
ATOM     11  N   UNL A   1      31.527  24.817  26.145  1.00  0.00    -0.326 N 
ATOM     12  C   UNL A   1      30.683  23.735  26.690  1.00  0.00     0.264 C 
ATOM     13  C   UNL A   1      32.676  24.164  25.500  1.00  0.00     0.196 C 
ATOM     14  H   UNL A   1      31.859  25.428  26.892  1.00  0.00     0.348 HD
ATOM     15  C   UNL A   1      31.152  22.447  26.035  1.00  0.00     0.083 C 
ATOM     16  C   UNL A   1      33.916  25.002  25.731  1.00  0.00     0.076 C 
BRANCH  11  17
ATOM     17  C   UNL A   1      30.786  25.781  25.284  1.00  0.00     0.215 C 
BRANCH  17  18
ATOM     18  C   UNL A   1      31.032  25.635  23.753  1.00  0.00     0.067 C 
ATOM     19  C   UNL A   1      30.458  24.372  23.117  1.00  0.00     0.010 C 
ENDBRANCH  17  18
BRANCH  17  20
ATOM     20  C   UNL A   1      31.143  27.199  25.703  1.00  0.00     0.010 A 
ATOM     21  C   UNL A   1      31.147  28.247  24.772  1.00  0.00     0.014 A 
ATOM     22  C   UNL A   1      31.556  27.441  27.017  1.00  0.00     0.014 A 
ATOM     23  C   UNL A   1      31.589  29.512  25.148  1.00  0.00     0.047 A 
ATOM     24  C   UNL A   1      31.996  28.707  27.389  1.00  0.00     0.047 A 
ATOM     25  C   UNL A   1      32.020  29.745  26.456  1.00  0.00     0.118 A 
BRANCH  25  26
ATOM     26  O   UNL A   1      32.452  31.021  26.698  1.00  0.00    -0.497 OA
ATOM     27  C   UNL A   1      33.562  31.142  27.576  1.00  0.00     0.278 C 
ENDBRANCH  25  26
ENDBRANCH  17  20
ENDBRANCH  11  17
ENDBRANCH   8  10
ENDBRANCH   7   8
ENDBRANCH   6   7
ENDBRANCH   5   6
ENDBRANCH   4   5
ENDBRANCH   3   4
ENDBRANCH   2   3
ENDBRANCH   1   2
BRANCH   1  28
ATOM     28  C   UNL A   1      40.478  21.485  26.794  1.00  0.00     0.188 C 
BRANCH  28  29
ATOM     29  C   UNL A   1      40.762  19.965  26.736  1.00  0.00     0.188 C 
BRANCH  29  30
ATOM     30  O   UNL A   1      41.925  19.539  27.428  1.00  0.00    -0.376 OA
BRANCH  30  31
ATOM     31  C   UNL A   1      42.618  18.373  27.033  1.00  0.00     0.202 C 
BRANCH  31  32
ATOM     32  C   UNL A   1      43.534  18.428  25.801  1.00  0.00     0.261 C 
BRANCH  32  33
ATOM     33  O   UNL A   1      43.423  19.593  24.984  1.00  0.00    -0.460 OA
BRANCH  33  34
ATOM     34  C   UNL A   1      44.559  19.987  24.358  1.00  0.00     0.338 C 
ATOM     35  O   UNL A   1      45.108  19.442  23.432  1.00  0.00    -0.246 OA
BRANCH  34  36
ATOM     36  C   UNL A   1      44.881  21.330  24.886  1.00  0.00     0.060 A 
ATOM     37  C   UNL A   1      44.134  21.826  25.962  1.00  0.00     0.016 A 
ATOM     38  C   UNL A   1      45.951  22.058  24.360  1.00  0.00     0.016 A 
ATOM     39  C   UNL A   1      44.478  23.043  26.541  1.00  0.00     0.010 A 
ATOM     40  C   UNL A   1      46.253  23.308  24.900  1.00  0.00     0.010 A 
ATOM     41  C   UNL A   1      45.507  23.807  25.981  1.00  0.00    -0.014 A 
BRANCH  41  42
ATOM     42  C   UNL A   1      45.615  25.232  26.358  1.00  0.00     0.031 A 
ATOM     43  C   UNL A   1      46.973  25.865  26.251  1.00  0.00     0.074 A 
ATOM     44  C   UNL A   1      44.543  25.942  26.742  1.00  0.00     0.049 A 
ATOM     45  N   UNL A   1      47.352  27.076  26.553  1.00  0.00    -0.248 NA
ATOM     46  C   UNL A   1      48.050  25.004  25.732  1.00  0.00     0.031 C 
ATOM     47  C   UNL A   1      43.173  25.437  26.811  1.00  0.00     0.029 A 
ATOM     48  N   UNL A   1      44.442  27.248  27.146  1.00  0.00    -0.354 N 
ATOM     49  C   UNL A   1      48.710  27.126  26.260  1.00  0.00     0.074 A 
ATOM     50  C   UNL A   1      49.095  25.813  25.791  1.00  0.00     0.031 C 
ATOM     51  C   UNL A   1      42.368  26.422  27.249  1.00  0.00     0.029 A 
ATOM     52  C   UNL A   1      43.172  27.613  27.527  1.00  0.00     0.049 A 
ATOM     53  H   UNL A   1      45.207  27.868  27.162  1.00  0.00     0.167 HD
ATOM     54  C   UNL A   1      49.556  28.176  26.369  1.00  0.00     0.034 A 
ATOM     55  C   UNL A   1      42.728  28.766  28.066  1.00  0.00     0.034 A 
ATOM     56  C   UNL A   1      49.153  29.466  26.869  1.00  0.00     0.049 A 
ATOM     57  C   UNL A   1      43.716  29.890  28.287  1.00  0.00     0.074 A 
ATOM     58  C   UNL A   1      49.922  30.603  27.033  1.00  0.00     0.029 A 
ATOM     59  N   UNL A   1      47.873  29.782  27.305  1.00  0.00    -0.354 N 
ATOM     60  N   UNL A   1      45.000  29.932  28.007  1.00  0.00    -0.248 NA
ATOM     61  C   UNL A   1      43.193  31.124  28.888  1.00  0.00     0.031 C 
ATOM     62  C   UNL A   1      49.129  31.579  27.643  1.00  0.00     0.029 A 
ATOM     63  C   UNL A   1      47.839  31.086  27.772  1.00  0.00     0.049 A 
ATOM     64  H   UNL A   1      47.102  29.171  27.284  1.00  0.00     0.167 HD
ATOM     65  C   UNL A   1      45.427  31.209  28.364  1.00  0.00     0.074 A 
ATOM     66  C   UNL A   1      44.261  31.907  28.867  1.00  0.00     0.031 C 
ATOM     67  C   UNL A   1      46.666  31.761  28.277  1.00  0.00     0.034 A 
BRANCH  54  68
ATOM     68  C   UNL A   1      51.001  27.939  26.008  1.00  0.00     0.023 A 
ATOM     69  C   UNL A   1      51.464  28.047  24.685  1.00  0.00     0.031 A 
ATOM     70  C   UNL A   1      51.921  27.554  26.999  1.00  0.00     0.131 A 
ATOM     71  C   UNL A   1      52.791  27.708  24.378  1.00  0.00     0.055 A 
ATOM     72  C   UNL A   1      53.260  27.300  26.699  1.00  0.00     0.041 A 
ATOM     73  F   UNL A   1      51.529  27.401  28.273  1.00  0.00    -0.206 F 
ATOM     74  C   UNL A   1      53.699  27.362  25.381  1.00  0.00     0.022 A 
BRANCH  71  75
ATOM     75  S   UNL A   1      53.272  27.579  22.633  1.00  0.00     0.124 S 
ATOM     76  O   UNL A   1      54.680  27.967  22.686  1.00  0.00    -0.237 OA
ATOM     77  O   UNL A   1      53.006  26.176  22.337  1.00  0.00    -0.237 OA
ATOM     78  O   UNL A   1      52.394  28.536  21.965  1.00  0.00    -0.744 OA
ENDBRANCH  71  75
ENDBRANCH  54  68
BRANCH  55  79
ATOM     79  C   UNL A   1      41.302  28.913  28.483  1.00  0.00     0.023 A 
ATOM     80  C   UNL A   1      40.917  28.777  29.826  1.00  0.00     0.031 A 
ATOM     81  C   UNL A   1      40.290  29.123  27.528  1.00  0.00     0.131 A 
ATOM     82  C   UNL A   1      39.556  28.802  30.172  1.00  0.00     0.055 A 
ATOM     83  C   UNL A   1      38.942  29.206  27.885  1.00  0.00     0.041 A 
ATOM     84  F   UNL A   1      40.597  29.251  26.228  1.00  0.00    -0.206 F 
ATOM     85  C   UNL A   1      38.567  29.030  29.213  1.00  0.00     0.022 A 
BRANCH  82  86
ATOM     86  S   UNL A   1      39.088  28.426  31.884  1.00  0.00     0.124 S 
ATOM     87  O   UNL A   1      40.390  28.318  32.530  1.00  0.00    -0.237 OA
ATOM     88  O   UNL A   1      38.287  29.591  32.242  1.00  0.00    -0.237 OA
ATOM     89  O   UNL A   1      38.343  27.173  31.765  1.00  0.00    -0.744 OA
ENDBRANCH  82  86
ENDBRANCH  55  79
BRANCH  67  90
ATOM     90  C   UNL A   1      46.807  33.209  28.684  1.00  0.00     0.023 A 
ATOM     91  C   UNL A   1      47.138  33.585  29.998  1.00  0.00     0.031 A 
ATOM     92  C   UNL A   1      46.612  34.229  27.735  1.00  0.00     0.131 A 
ATOM     93  C   UNL A   1      47.205  34.945  30.339  1.00  0.00     0.055 A 
ATOM     94  C   UNL A   1      46.750  35.577  28.063  1.00  0.00     0.041 A 
ATOM     95  F   UNL A   1      46.291  33.929  26.465  1.00  0.00    -0.206 F 
ATOM     96  C   UNL A   1      47.034  35.942  29.375  1.00  0.00     0.022 A 
BRANCH  93  97
ATOM     97  S   UNL A   1      47.419  35.396  32.082  1.00  0.00     0.124 S 
ATOM     98  O   UNL A   1      46.067  35.234  32.604  1.00  0.00    -0.237 OA
ATOM     99  O   UNL A   1      48.401  34.418  32.540  1.00  0.00    -0.237 OA
ATOM    100  O   UNL A   1      47.901  36.775  32.022  1.00  0.00    -0.744 OA
ENDBRANCH  93  97
ENDBRANCH  67  90
ENDBRANCH  41  42
ENDBRANCH  34  36
ENDBRANCH  33  34
ENDBRANCH  32  33
ENDBRANCH  31  32
ENDBRANCH  30  31
ENDBRANCH  29  30
ENDBRANCH  28  29
ENDBRANCH   1  28
TORSDOF 27
ENDMDL
MODEL 3
REMARK VINA RESULT:      -8.5      2.577      7.868
REMARK SMILES CC[C@H](c1ccc(OC)cc1)[N@H+]1CC[C@H](C(=O)OCCOCCOCCOCCOC(=O)c2ccc(-c3c4nc(c(-c5cc(S(=O)(=O)[O-])ccc5F)c5ccc([nH]5)c(-c5cc(S(=O)(=O)[O-])ccc5F)c5nc(c(-c6cc(S(=O)(=O)[O-])ccc6F)c6ccc3[nH]6)C=C5)C=C4)cc2)[C@@H]1C
REMARK SMILES IDX 24 1 23 2 22 3 21 4 20 5 19 6 18 7 16 8 17 9 15 10 12 11
REMARK SMILES IDX 13 12 96 13 14 15 97 16 3 17 2 18 1 19 4 20 5 21 11 22 6 23
REMARK SMILES IDX 10 24 7 25 8 26 9 27 25 28 26 29 27 30 28 31 29 32 30 33
REMARK SMILES IDX 31 34 32 35 33 36 34 37 95 38 35 39 94 40 36 41 37 42 38 43
REMARK SMILES IDX 88 44 39 45 93 46 87 47 89 48 40 49 92 50 86 51 85 52 41 54
REMARK SMILES IDX 73 55 53 56 72 57 54 58 57 59 71 60 90 61 55 62 56 63 70 65
REMARK SMILES IDX 91 66 58 67 42 68 43 69 51 70 44 71 50 72 52 73 49 74 45 75
REMARK SMILES IDX 46 76 47 77 48 78 74 79 75 80 83 81 76 82 82 83 84 84 81 85
REMARK SMILES IDX 77 86 78 87 79 88 80 89 59 90 60 91 68 92 61 93 67 94 69 95
REMARK SMILES IDX 66 96 62 97 63 98 64 99 65 100
REMARK H PARENT 12 14 89 53 57 64
REMARK Flexibility Score: inf
ROOT
ATOM      1  O   UNL A   1      39.795  21.779  25.758  1.00  0.00    -0.377 OA
ENDROOT
BRANCH   1   2
ATOM      2  C   UNL A   1      38.468  21.435  25.410  1.00  0.00     0.188 C 
BRANCH   2   3
ATOM      3  C   UNL A   1      37.350  22.508  25.417  1.00  0.00     0.188 C 
BRANCH   3   4
ATOM      4  O   UNL A   1      36.206  22.115  24.692  1.00  0.00    -0.376 OA
BRANCH   4   5
ATOM      5  C   UNL A   1      35.686  20.843  25.022  1.00  0.00     0.202 C 
BRANCH   5   6
ATOM      6  C   UNL A   1      34.227  20.765  25.502  1.00  0.00     0.261 C 
BRANCH   6   7
ATOM      7  O   UNL A   1      33.888  21.300  26.805  1.00  0.00    -0.463 OA
BRANCH   7   8
ATOM      8  C   UNL A   1      32.961  22.286  26.946  1.00  0.00     0.315 C 
ATOM      9  O   UNL A   1      32.438  22.576  28.012  1.00  0.00    -0.252 OA
BRANCH   8  10
ATOM     10  C   UNL A   1      32.613  22.889  25.569  1.00  0.00     0.162 C 
ATOM     11  N   UNL A   1      31.968  25.243  25.571  1.00  0.00    -0.326 N 
ATOM     12  C   UNL A   1      30.851  24.406  26.052  1.00  0.00     0.264 C 
ATOM     13  C   UNL A   1      33.011  24.317  25.105  1.00  0.00     0.196 C 
ATOM     14  H   UNL A   1      32.339  25.820  26.326  1.00  0.00     0.348 HD
ATOM     15  C   UNL A   1      31.096  23.005  25.518  1.00  0.00     0.083 C 
ATOM     16  C   UNL A   1      34.370  24.885  25.453  1.00  0.00     0.076 C 
BRANCH  11  17
ATOM     17  C   UNL A   1      31.559  26.280  24.583  1.00  0.00     0.215 C 
BRANCH  17  18
ATOM     18  C   UNL A   1      32.318  26.242  23.223  1.00  0.00     0.067 C 
ATOM     19  C   UNL A   1      31.436  26.340  21.980  1.00  0.00     0.010 C 
ENDBRANCH  17  18
BRANCH  17  20
ATOM     20  C   UNL A   1      31.739  27.657  25.204  1.00  0.00     0.010 A 
ATOM     21  C   UNL A   1      32.398  27.815  26.431  1.00  0.00     0.014 A 
ATOM     22  C   UNL A   1      31.163  28.768  24.580  1.00  0.00     0.014 A 
ATOM     23  C   UNL A   1      32.449  29.066  27.038  1.00  0.00     0.047 A 
ATOM     24  C   UNL A   1      31.218  30.017  25.191  1.00  0.00     0.047 A 
ATOM     25  C   UNL A   1      31.856  30.170  26.423  1.00  0.00     0.118 A 
BRANCH  25  26
ATOM     26  O   UNL A   1      31.953  31.339  27.128  1.00  0.00    -0.497 OA
ATOM     27  C   UNL A   1      31.415  32.491  26.493  1.00  0.00     0.278 C 
ENDBRANCH  25  26
ENDBRANCH  17  20
ENDBRANCH  11  17
ENDBRANCH   8  10
ENDBRANCH   7   8
ENDBRANCH   6   7
ENDBRANCH   5   6
ENDBRANCH   4   5
ENDBRANCH   3   4
ENDBRANCH   2   3
ENDBRANCH   1   2
BRANCH   1  28
ATOM     28  C   UNL A   1      40.381  21.074  26.836  1.00  0.00     0.188 C 
BRANCH  28  29
ATOM     29  C   UNL A   1      40.746  19.581  26.653  1.00  0.00     0.188 C 
BRANCH  29  30
ATOM     30  O   UNL A   1      42.133  19.288  26.680  1.00  0.00    -0.376 OA
BRANCH  30  31
ATOM     31  C   UNL A   1      42.942  19.498  25.540  1.00  0.00     0.202 C 
BRANCH  31  32
ATOM     32  C   UNL A   1      43.988  20.622  25.561  1.00  0.00     0.261 C 
BRANCH  32  33
ATOM     33  O   UNL A   1      43.485  21.950  25.701  1.00  0.00    -0.460 OA
BRANCH  33  34
ATOM     34  C   UNL A   1      43.825  22.818  24.716  1.00  0.00     0.338 C 
ATOM     35  O   UNL A   1      43.882  22.593  23.533  1.00  0.00    -0.246 OA
BRANCH  34  36
ATOM     36  C   UNL A   1      43.905  24.153  25.349  1.00  0.00     0.060 A 
ATOM     37  C   UNL A   1      44.600  24.283  26.557  1.00  0.00     0.016 A 
ATOM     38  C   UNL A   1      43.350  25.268  24.717  1.00  0.00     0.016 A 
ATOM     39  C   UNL A   1      44.774  25.542  27.124  1.00  0.00     0.010 A 
ATOM     40  C   UNL A   1      43.469  26.520  25.320  1.00  0.00     0.010 A 
ATOM     41  C   UNL A   1      44.168  26.655  26.531  1.00  0.00    -0.014 A 
BRANCH  41  42
ATOM     42  C   UNL A   1      44.044  27.897  27.322  1.00  0.00     0.031 A 
ATOM     43  C   UNL A   1      45.303  28.677  27.568  1.00  0.00     0.074 A 
ATOM     44  C   UNL A   1      42.855  28.332  27.768  1.00  0.00     0.049 A 
ATOM     45  N   UNL A   1      45.483  29.771  28.257  1.00  0.00    -0.248 NA
ATOM     46  C   UNL A   1      46.528  28.143  26.949  1.00  0.00     0.031 C 
ATOM     47  C   UNL A   1      41.569  27.682  27.523  1.00  0.00     0.029 A 
ATOM     48  N   UNL A   1      42.540  29.430  28.525  1.00  0.00    -0.354 N 
ATOM     49  C   UNL A   1      46.839  30.057  28.155  1.00  0.00     0.074 A 
ATOM     50  C   UNL A   1      47.441  29.004  27.368  1.00  0.00     0.031 C 
ATOM     51  C   UNL A   1      40.601  28.390  28.134  1.00  0.00     0.029 A 
ATOM     52  C   UNL A   1      41.205  29.517  28.844  1.00  0.00     0.049 A 
ATOM     53  H   UNL A   1      43.207  30.095  28.814  1.00  0.00     0.167 HD
ATOM     54  C   UNL A   1      47.518  31.109  28.669  1.00  0.00     0.034 A 
ATOM     55  C   UNL A   1      40.561  30.392  29.643  1.00  0.00     0.034 A 
ATOM     56  C   UNL A   1      46.899  32.130  29.476  1.00  0.00     0.049 A 
ATOM     57  C   UNL A   1      41.360  31.495  30.301  1.00  0.00     0.074 A 
ATOM     58  C   UNL A   1      47.484  33.239  30.058  1.00  0.00     0.029 A 
ATOM     59  N   UNL A   1      45.556  32.154  29.830  1.00  0.00    -0.354 N 
ATOM     60  N   UNL A   1      42.644  31.762  30.200  1.00  0.00    -0.248 NA
ATOM     61  C   UNL A   1      40.624  32.419  31.174  1.00  0.00     0.031 C 
ATOM     62  C   UNL A   1      46.516  33.885  30.831  1.00  0.00     0.029 A 
ATOM     63  C   UNL A   1      45.302  33.238  30.655  1.00  0.00     0.049 A 
ATOM     64  H   UNL A   1      44.883  31.497  29.539  1.00  0.00     0.167 HD
ATOM     65  C   UNL A   1      42.857  32.907  30.966  1.00  0.00     0.074 A 
ATOM     66  C   UNL A   1      41.569  33.283  31.512  1.00  0.00     0.031 C 
ATOM     67  C   UNL A   1      44.009  33.591  31.194  1.00  0.00     0.034 A 
BRANCH  54  68
ATOM     68  C   UNL A   1      49.006  31.155  28.428  1.00  0.00     0.023 A 
ATOM     69  C   UNL A   1      49.578  32.018  27.475  1.00  0.00     0.031 A 
ATOM     70  C   UNL A   1      49.861  30.289  29.131  1.00  0.00     0.131 A 
ATOM     71  C   UNL A   1      50.953  31.947  27.204  1.00  0.00     0.055 A 
ATOM     72  C   UNL A   1      51.240  30.284  28.916  1.00  0.00     0.041 A 
ATOM     73  F   UNL A   1      49.368  29.421  30.026  1.00  0.00    -0.206 F 
ATOM     74  C   UNL A   1      51.792  31.105  27.938  1.00  0.00     0.022 A 
BRANCH  71  75
ATOM     75  S   UNL A   1      51.605  32.859  25.778  1.00  0.00     0.124 S 
ATOM     76  O   UNL A   1      52.247  34.001  26.425  1.00  0.00    -0.237 OA
ATOM     77  O   UNL A   1      52.501  31.885  25.165  1.00  0.00    -0.237 OA
ATOM     78  O   UNL A   1      50.409  33.182  25.003  1.00  0.00    -0.744 OA
ENDBRANCH  71  75
ENDBRANCH  54  68
BRANCH  55  79
ATOM     79  C   UNL A   1      39.100  30.246  29.913  1.00  0.00     0.023 A 
ATOM     80  C   UNL A   1      38.153  31.031  29.238  1.00  0.00     0.031 A 
ATOM     81  C   UNL A   1      38.635  29.363  30.904  1.00  0.00     0.131 A 
ATOM     82  C   UNL A   1      36.797  30.957  29.596  1.00  0.00     0.055 A 
ATOM     83  C   UNL A   1      37.279  29.249  31.216  1.00  0.00     0.041 A 
ATOM     84  F   UNL A   1      39.496  28.593  31.589  1.00  0.00    -0.206 F 
ATOM     85  C   UNL A   1      36.351  30.061  30.569  1.00  0.00     0.022 A 
BRANCH  82  86
ATOM     86  S   UNL A   1      35.633  32.126  28.842  1.00  0.00     0.124 S 
ATOM     87  O   UNL A   1      36.471  33.306  28.666  1.00  0.00    -0.237 OA
ATOM     88  O   UNL A   1      35.247  31.425  27.622  1.00  0.00    -0.237 OA
ATOM     89  O   UNL A   1      34.579  32.252  29.846  1.00  0.00    -0.744 OA
ENDBRANCH  82  86
ENDBRANCH  55  79
BRANCH  67  90
ATOM     90  C   UNL A   1      43.913  34.850  32.024  1.00  0.00     0.023 A 
ATOM     91  C   UNL A   1      43.918  34.818  33.430  1.00  0.00     0.031 A 
ATOM     92  C   UNL A   1      43.819  36.104  31.392  1.00  0.00     0.131 A 
ATOM     93  C   UNL A   1      43.772  36.010  34.156  1.00  0.00     0.055 A 
ATOM     94  C   UNL A   1      43.746  37.290  32.120  1.00  0.00     0.041 A 
ATOM     95  F   UNL A   1      43.806  36.195  30.052  1.00  0.00    -0.206 F 
ATOM     96  C   UNL A   1      43.708  37.247  33.510  1.00  0.00     0.022 A 
BRANCH  93  97
ATOM     97  S   UNL A   1      43.566  35.914  35.954  1.00  0.00     0.124 S 
ATOM     98  O   UNL A   1      42.996  37.222  36.264  1.00  0.00    -0.237 OA
ATOM     99  O   UNL A   1      42.666  34.775  36.106  1.00  0.00    -0.237 OA
ATOM    100  O   UNL A   1      44.926  35.698  36.444  1.00  0.00    -0.744 OA
ENDBRANCH  93  97
ENDBRANCH  67  90
ENDBRANCH  41  42
ENDBRANCH  34  36
ENDBRANCH  33  34
ENDBRANCH  32  33
ENDBRANCH  31  32
ENDBRANCH  30  31
ENDBRANCH  29  30
ENDBRANCH  28  29
ENDBRANCH   1  28
TORSDOF 27
ENDMDL
