MODEL 1
REMARK VINA RESULT:      -9.4      0.000      0.000
REMARK SMILES Cc1nc(CN(CC(=O)OCCOCCOCCOCCOC(=O)c2ccc(-c3c4nc(c(-c5cc(S(=O)(=O)[O-])ccc5F)c5ccc([nH]5)c(-c5cc(S(=O)(=O)[O-])ccc5F)c5nc(c(-c6cc(S(=O)(=O)[O-])ccc6F)c6ccc3[nH]6)C=C5)C=C4)cc2)c2cccc(Cl)c2)sc1C
REMARK SMILES IDX 16 1 15 2 14 3 13 4 12 5 11 6 10 7 8 8 9 9 7 10 6 11 5 12
REMARK SMILES IDX 4 13 1 14 2 15 3 16 96 17 95 18 97 19 88 20 89 21 94 22
REMARK SMILES IDX 90 23 92 24 91 25 93 26 17 27 18 28 19 29 20 30 21 31 22 32
REMARK SMILES IDX 23 33 24 34 25 35 26 36 87 37 27 38 86 39 28 40 29 41 30 42
REMARK SMILES IDX 80 43 31 44 85 45 79 46 81 47 32 48 84 49 78 50 77 51 33 53
REMARK SMILES IDX 65 54 45 55 64 56 46 57 49 58 63 59 82 60 47 61 48 62 62 64
REMARK SMILES IDX 83 65 50 66 34 67 35 68 43 69 36 70 42 71 44 72 41 73 37 74
REMARK SMILES IDX 38 75 39 76 40 77 66 78 67 79 75 80 68 81 74 82 76 83 73 84
REMARK SMILES IDX 69 85 70 86 71 87 72 88 51 89 52 90 60 91 53 92 59 93 61 94
REMARK SMILES IDX 58 95 54 96 55 97 56 98 57 99
REMARK H PARENT 81 52 49 63
REMARK Flexibility Score: inf
ROOT
ATOM      1  O   UNL A   1      35.658  23.117  25.521  1.00  0.00    -0.377 OA
ENDROOT
BRANCH   1   2
ATOM      2  C   UNL A   1      35.110  22.464  24.392  1.00  0.00     0.188 C 
BRANCH   2   3
ATOM      3  C   UNL A   1      33.882  21.538  24.529  1.00  0.00     0.188 C 
BRANCH   3   4
ATOM      4  O   UNL A   1      33.209  21.310  23.307  1.00  0.00    -0.376 OA
BRANCH   4   5
ATOM      5  C   UNL A   1      32.728  22.405  22.551  1.00  0.00     0.202 C 
BRANCH   5   6
ATOM      6  C   UNL A   1      33.653  23.490  21.959  1.00  0.00     0.261 C 
BRANCH   6   7
ATOM      7  O   UNL A   1      33.071  24.495  21.099  1.00  0.00    -0.462 OA
BRANCH   7   8
ATOM      8  C   UNL A   1      32.874  25.744  21.583  1.00  0.00     0.325 C 
ATOM      9  O   UNL A   1      33.741  26.613  21.573  1.00  0.00    -0.250 OA
BRANCH   8  10
ATOM     10  C   UNL A   1      31.472  25.972  22.193  1.00  0.00     0.239 C 
BRANCH  10  11
ATOM     11  N   UNL A   1      31.386  26.689  23.499  1.00  0.00    -0.354 N 
BRANCH  11  12
ATOM     12  C   UNL A   1      32.363  26.224  24.533  1.00  0.00     0.184 C 
BRANCH  12  13
ATOM     13  C   UNL A   1      32.019  24.894  25.194  1.00  0.00     0.112 A 
ATOM     14  C   UNL A   1      32.715  22.801  28.016  1.00  0.00     0.068 C 
ATOM     15  C   UNL A   1      32.041  23.429  26.850  1.00  0.00     0.051 A 
ATOM     16  N   UNL A   1      32.802  24.261  26.046  1.00  0.00    -0.244 NA
ATOM     17  C   UNL A   1      30.701  23.353  26.509  1.00  0.00     0.025 A 
ATOM     18  S   UNL A   1      30.428  24.240  25.063  1.00  0.00    -0.122 S 
ATOM     19  C   UNL A   1      29.581  22.679  27.220  1.00  0.00     0.058 C 
ENDBRANCH  12  13
ENDBRANCH  11  12
BRANCH  11  20
ATOM     20  C   UNL A   1      30.786  27.953  23.633  1.00  0.00     0.039 A 
ATOM     21  C   UNL A   1      31.270  28.932  24.517  1.00  0.00     0.026 A 
ATOM     22  C   UNL A   1      29.715  28.379  22.813  1.00  0.00     0.046 A 
ATOM     23  C   UNL A   1      30.746  30.239  24.560  1.00  0.00     0.004 A 
ATOM     24  C   UNL A   1      29.145  29.654  22.895  1.00  0.00     0.043 A 
ATOM     25  C   UNL A   1      29.672  30.599  23.755  1.00  0.00     0.020 A 
ATOM     26  Cl  UNL A   1      27.793  30.053  21.904  1.00  0.00    -0.084 Cl
ENDBRANCH  11  20
ENDBRANCH  10  11
ENDBRANCH   8  10
ENDBRANCH   7   8
ENDBRANCH   6   7
ENDBRANCH   5   6
ENDBRANCH   4   5
ENDBRANCH   3   4
ENDBRANCH   2   3
ENDBRANCH   1   2
BRANCH   1  27
ATOM     27  C   UNL A   1      36.964  23.613  25.379  1.00  0.00     0.188 C 
BRANCH  27  28
ATOM     28  C   UNL A   1      38.018  22.548  25.702  1.00  0.00     0.188 C 
BRANCH  28  29
ATOM     29  O   UNL A   1      38.183  21.441  24.833  1.00  0.00    -0.376 OA
BRANCH  29  30
ATOM     30  C   UNL A   1      38.323  20.096  25.271  1.00  0.00     0.202 C 
BRANCH  30  31
ATOM     31  C   UNL A   1      39.577  19.363  25.788  1.00  0.00     0.261 C 
BRANCH  31  32
ATOM     32  O   UNL A   1      40.518  20.080  26.568  1.00  0.00    -0.460 OA
BRANCH  32  33
ATOM     33  C   UNL A   1      41.793  20.024  26.140  1.00  0.00     0.338 C 
ATOM     34  O   UNL A   1      42.327  19.123  25.516  1.00  0.00    -0.246 OA
BRANCH  33  35
ATOM     35  C   UNL A   1      42.363  21.362  26.365  1.00  0.00     0.060 A 
ATOM     36  C   UNL A   1      42.665  21.729  27.680  1.00  0.00     0.016 A 
ATOM     37  C   UNL A   1      42.656  22.208  25.291  1.00  0.00     0.016 A 
ATOM     38  C   UNL A   1      43.273  22.950  27.931  1.00  0.00     0.010 A 
ATOM     39  C   UNL A   1      43.217  23.457  25.547  1.00  0.00     0.010 A 
ATOM     40  C   UNL A   1      43.501  23.834  26.871  1.00  0.00    -0.014 A 
BRANCH  40  41
ATOM     41  C   UNL A   1      43.772  25.245  27.202  1.00  0.00     0.031 A 
ATOM     42  C   UNL A   1      45.165  25.747  26.965  1.00  0.00     0.074 A 
ATOM     43  C   UNL A   1      42.792  26.056  27.628  1.00  0.00     0.049 A 
ATOM     44  N   UNL A   1      45.663  26.938  27.149  1.00  0.00    -0.248 NA
ATOM     45  C   UNL A   1      46.126  24.759  26.447  1.00  0.00     0.031 C 
ATOM     46  C   UNL A   1      41.400  25.662  27.832  1.00  0.00     0.029 A 
ATOM     47  N   UNL A   1      42.826  27.382  27.966  1.00  0.00    -0.354 N 
ATOM     48  C   UNL A   1      46.998  26.844  26.769  1.00  0.00     0.074 A 
ATOM     49  C   UNL A   1      47.237  25.470  26.389  1.00  0.00     0.031 C 
ATOM     50  C   UNL A   1      40.712  26.726  28.282  1.00  0.00     0.029 A 
ATOM     51  C   UNL A   1      41.624  27.859  28.428  1.00  0.00     0.049 A 
ATOM     52  H   UNL A   1      43.633  27.939  27.887  1.00  0.00     0.167 HD
ATOM     53  C   UNL A   1      47.933  27.825  26.736  1.00  0.00     0.034 A 
ATOM     54  C   UNL A   1      41.314  29.068  28.937  1.00  0.00     0.034 A 
ATOM     55  C   UNL A   1      47.665  29.174  27.166  1.00  0.00     0.049 A 
ATOM     56  C   UNL A   1      42.393  30.122  28.991  1.00  0.00     0.074 A 
ATOM     57  C   UNL A   1      48.520  30.259  27.185  1.00  0.00     0.029 A 
ATOM     58  N   UNL A   1      46.449  29.614  27.681  1.00  0.00    -0.354 N 
ATOM     59  N   UNL A   1      43.649  30.039  28.612  1.00  0.00    -0.248 NA
ATOM     60  C   UNL A   1      42.010  31.432  29.527  1.00  0.00     0.031 C 
ATOM     61  C   UNL A   1      47.851  31.327  27.796  1.00  0.00     0.029 A 
ATOM     62  C   UNL A   1      46.546  30.942  28.066  1.00  0.00     0.049 A 
ATOM     63  H   UNL A   1      45.638  29.063  27.760  1.00  0.00     0.167 HD
ATOM     64  C   UNL A   1      44.203  31.296  28.844  1.00  0.00     0.074 A 
ATOM     65  C   UNL A   1      43.135  32.118  29.382  1.00  0.00     0.031 C 
ATOM     66  C   UNL A   1      45.471  31.735  28.625  1.00  0.00     0.034 A 
BRANCH  53  67
ATOM     67  C   UNL A   1      49.325  27.425  26.308  1.00  0.00     0.023 A 
ATOM     68  C   UNL A   1      50.375  27.278  27.235  1.00  0.00     0.031 A 
ATOM     69  C   UNL A   1      49.634  27.291  24.944  1.00  0.00     0.131 A 
ATOM     70  C   UNL A   1      51.693  27.116  26.781  1.00  0.00     0.055 A 
ATOM     71  C   UNL A   1      50.934  27.029  24.504  1.00  0.00     0.041 A 
ATOM     72  F   UNL A   1      48.685  27.450  24.008  1.00  0.00    -0.206 F 
ATOM     73  C   UNL A   1      51.976  26.964  25.423  1.00  0.00     0.022 A 
BRANCH  70  74
ATOM     74  S   UNL A   1      53.049  27.320  27.971  1.00  0.00     0.124 S 
ATOM     75  O   UNL A   1      54.209  27.399  27.086  1.00  0.00    -0.237 OA
ATOM     76  O   UNL A   1      52.682  28.554  28.657  1.00  0.00    -0.237 OA
ATOM     77  O   UNL A   1      52.977  26.108  28.784  1.00  0.00    -0.744 OA
ENDBRANCH  70  74
ENDBRANCH  53  67
BRANCH  54  78
ATOM     78  C   UNL A   1      39.949  29.314  29.482  1.00  0.00     0.023 A 
ATOM     79  C   UNL A   1      39.696  29.335  30.861  1.00  0.00     0.031 A 
ATOM     80  C   UNL A   1      38.868  29.541  28.608  1.00  0.00     0.131 A 
ATOM     81  C   UNL A   1      38.389  29.559  31.327  1.00  0.00     0.055 A 
ATOM     82  C   UNL A   1      37.581  29.808  29.076  1.00  0.00     0.041 A 
ATOM     83  F   UNL A   1      39.056  29.533  27.279  1.00  0.00    -0.206 F 
ATOM     84  C   UNL A   1      37.336  29.812  30.445  1.00  0.00     0.022 A 
BRANCH  81  85
ATOM     85  S   UNL A   1      38.071  29.471  33.110  1.00  0.00     0.124 S 
ATOM     86  O   UNL A   1      37.283  28.248  33.213  1.00  0.00    -0.237 OA
ATOM     87  O   UNL A   1      39.422  29.413  33.657  1.00  0.00    -0.237 OA
ATOM     88  O   UNL A   1      37.343  30.709  33.387  1.00  0.00    -0.744 OA
ENDBRANCH  81  85
ENDBRANCH  54  78
BRANCH  66  89
ATOM     89  C   UNL A   1      45.760  33.184  28.937  1.00  0.00     0.023 A 
ATOM     90  C   UNL A   1      45.524  34.208  28.003  1.00  0.00     0.031 A 
ATOM     91  C   UNL A   1      46.276  33.545  30.196  1.00  0.00     0.131 A 
ATOM     92  C   UNL A   1      45.856  35.533  28.322  1.00  0.00     0.055 A 
ATOM     93  C   UNL A   1      46.536  34.872  30.533  1.00  0.00     0.041 A 
ATOM     94  F   UNL A   1      46.526  32.608  31.126  1.00  0.00    -0.206 F 
ATOM     95  C   UNL A   1      46.339  35.875  29.588  1.00  0.00     0.022 A 
BRANCH  92  96
ATOM     96  S   UNL A   1      45.749  36.793  27.022  1.00  0.00     0.124 S 
ATOM     97  O   UNL A   1      46.387  37.939  27.660  1.00  0.00    -0.237 OA
ATOM     98  O   UNL A   1      46.492  36.177  25.928  1.00  0.00    -0.237 OA
ATOM     99  O   UNL A   1      44.311  36.930  26.795  1.00  0.00    -0.744 OA
ENDBRANCH  92  96
ENDBRANCH  66  89
ENDBRANCH  40  41
ENDBRANCH  33  35
ENDBRANCH  32  33
ENDBRANCH  31  32
ENDBRANCH  30  31
ENDBRANCH  29  30
ENDBRANCH  28  29
ENDBRANCH  27  28
ENDBRANCH   1  27
TORSDOF 27
ENDMDL
MODEL 2
REMARK VINA RESULT:      -9.3      2.138      3.479
REMARK SMILES Cc1nc(CN(CC(=O)OCCOCCOCCOCCOC(=O)c2ccc(-c3c4nc(c(-c5cc(S(=O)(=O)[O-])ccc5F)c5ccc([nH]5)c(-c5cc(S(=O)(=O)[O-])ccc5F)c5nc(c(-c6cc(S(=O)(=O)[O-])ccc6F)c6ccc3[nH]6)C=C5)C=C4)cc2)c2cccc(Cl)c2)sc1C
REMARK SMILES IDX 16 1 15 2 14 3 13 4 12 5 11 6 10 7 8 8 9 9 7 10 6 11 5 12
REMARK SMILES IDX 4 13 1 14 2 15 3 16 96 17 95 18 97 19 88 20 89 21 94 22
REMARK SMILES IDX 90 23 92 24 91 25 93 26 17 27 18 28 19 29 20 30 21 31 22 32
REMARK SMILES IDX 23 33 24 34 25 35 26 36 87 37 27 38 86 39 28 40 29 41 30 42
REMARK SMILES IDX 80 43 31 44 85 45 79 46 81 47 32 48 84 49 78 50 77 51 33 53
REMARK SMILES IDX 65 54 45 55 64 56 46 57 49 58 63 59 82 60 47 61 48 62 62 64
REMARK SMILES IDX 83 65 50 66 34 67 35 68 43 69 36 70 42 71 44 72 41 73 37 74
REMARK SMILES IDX 38 75 39 76 40 77 66 78 67 79 75 80 68 81 74 82 76 83 73 84
REMARK SMILES IDX 69 85 70 86 71 87 72 88 51 89 52 90 60 91 53 92 59 93 61 94
REMARK SMILES IDX 58 95 54 96 55 97 56 98 57 99
REMARK H PARENT 81 52 49 63
REMARK Flexibility Score: inf
ROOT
ATOM      1  O   UNL A   1      35.729  23.140  26.366  1.00  0.00    -0.377 OA
ENDROOT
BRANCH   1   2
ATOM      2  C   UNL A   1      34.964  21.969  26.157  1.00  0.00     0.188 C 
BRANCH   2   3
ATOM      3  C   UNL A   1      33.972  21.467  27.229  1.00  0.00     0.188 C 
BRANCH   3   4
ATOM      4  O   UNL A   1      32.617  21.637  26.866  1.00  0.00    -0.376 OA
BRANCH   4   5
ATOM      5  C   UNL A   1      31.922  22.804  27.261  1.00  0.00     0.202 C 
BRANCH   5   6
ATOM      6  C   UNL A   1      30.694  23.351  26.500  1.00  0.00     0.261 C 
BRANCH   6   7
ATOM      7  O   UNL A   1      30.126  24.609  26.926  1.00  0.00    -0.462 OA
BRANCH   7   8
ATOM      8  C   UNL A   1      29.844  25.553  25.996  1.00  0.00     0.325 C 
ATOM      9  O   UNL A   1      28.758  25.633  25.429  1.00  0.00    -0.250 OA
BRANCH   8  10
ATOM     10  C   UNL A   1      31.024  26.498  25.676  1.00  0.00     0.239 C 
BRANCH  10  11
ATOM     11  N   UNL A   1      31.521  26.544  24.270  1.00  0.00    -0.354 N 
BRANCH  11  12
ATOM     12  C   UNL A   1      31.584  27.915  23.673  1.00  0.00     0.184 C 
BRANCH  12  13
ATOM     13  C   UNL A   1      30.310  28.370  22.969  1.00  0.00     0.112 A 
ATOM     14  C   UNL A   1      26.747  28.560  23.276  1.00  0.00     0.068 C 
ATOM     15  C   UNL A   1      28.149  28.824  22.861  1.00  0.00     0.051 A 
ATOM     16  N   UNL A   1      29.107  27.893  23.225  1.00  0.00    -0.244 NA
ATOM     17  C   UNL A   1      28.641  29.948  22.218  1.00  0.00     0.025 A 
ATOM     18  S   UNL A   1      30.326  29.759  21.945  1.00  0.00    -0.122 S 
ATOM     19  C   UNL A   1      27.932  31.193  21.815  1.00  0.00     0.058 C 
ENDBRANCH  12  13
ENDBRANCH  11  12
BRANCH  11  20
ATOM     20  C   UNL A   1      32.276  25.506  23.698  1.00  0.00     0.039 A 
ATOM     21  C   UNL A   1      33.565  25.705  23.175  1.00  0.00     0.026 A 
ATOM     22  C   UNL A   1      31.844  24.159  23.700  1.00  0.00     0.046 A 
ATOM     23  C   UNL A   1      34.369  24.642  22.717  1.00  0.00     0.004 A 
ATOM     24  C   UNL A   1      32.610  23.106  23.186  1.00  0.00     0.043 A 
ATOM     25  C   UNL A   1      33.886  23.339  22.710  1.00  0.00     0.020 A 
ATOM     26  Cl  UNL A   1      31.963  21.509  23.165  1.00  0.00    -0.084 Cl
ENDBRANCH  11  20
ENDBRANCH  10  11
ENDBRANCH   8  10
ENDBRANCH   7   8
ENDBRANCH   6   7
ENDBRANCH   5   6
ENDBRANCH   4   5
ENDBRANCH   3   4
ENDBRANCH   2   3
ENDBRANCH   1   2
BRANCH   1  27
ATOM     27  C   UNL A   1      36.656  23.464  25.362  1.00  0.00     0.188 C 
BRANCH  27  28
ATOM     28  C   UNL A   1      37.840  22.490  25.341  1.00  0.00     0.188 C 
BRANCH  28  29
ATOM     29  O   UNL A   1      37.782  21.338  24.519  1.00  0.00    -0.376 OA
BRANCH  29  30
ATOM     30  C   UNL A   1      38.002  20.013  24.984  1.00  0.00     0.202 C 
BRANCH  30  31
ATOM     31  C   UNL A   1      39.317  19.340  25.429  1.00  0.00     0.261 C 
BRANCH  31  32
ATOM     32  O   UNL A   1      40.082  19.943  26.458  1.00  0.00    -0.460 OA
BRANCH  32  33
ATOM     33  C   UNL A   1      41.414  19.763  26.375  1.00  0.00     0.338 C 
ATOM     34  O   UNL A   1      42.005  18.756  26.026  1.00  0.00    -0.246 OA
BRANCH  33  35
ATOM     35  C   UNL A   1      42.022  21.088  26.565  1.00  0.00     0.060 A 
ATOM     36  C   UNL A   1      42.432  21.439  27.856  1.00  0.00     0.016 A 
ATOM     37  C   UNL A   1      42.246  21.939  25.479  1.00  0.00     0.016 A 
ATOM     38  C   UNL A   1      43.079  22.647  28.068  1.00  0.00     0.010 A 
ATOM     39  C   UNL A   1      42.847  23.176  25.699  1.00  0.00     0.010 A 
ATOM     40  C   UNL A   1      43.239  23.537  27.000  1.00  0.00    -0.014 A 
BRANCH  40  41
ATOM     41  C   UNL A   1      43.559  24.940  27.319  1.00  0.00     0.031 A 
ATOM     42  C   UNL A   1      44.988  25.367  27.162  1.00  0.00     0.074 A 
ATOM     43  C   UNL A   1      42.597  25.808  27.666  1.00  0.00     0.049 A 
ATOM     44  N   UNL A   1      45.533  26.536  27.354  1.00  0.00    -0.248 NA
ATOM     45  C   UNL A   1      45.928  24.322  26.726  1.00  0.00     0.031 C 
ATOM     46  C   UNL A   1      41.176  25.487  27.789  1.00  0.00     0.029 A 
ATOM     47  N   UNL A   1      42.675  27.138  27.979  1.00  0.00    -0.354 N 
ATOM     48  C   UNL A   1      46.882  26.369  27.062  1.00  0.00     0.074 A 
ATOM     49  C   UNL A   1      47.075  24.977  26.725  1.00  0.00     0.031 C 
ATOM     50  C   UNL A   1      40.516  26.593  28.172  1.00  0.00     0.029 A 
ATOM     51  C   UNL A   1      41.473  27.684  28.353  1.00  0.00     0.049 A 
ATOM     52  H   UNL A   1      43.513  27.653  27.940  1.00  0.00     0.167 HD
ATOM     53  C   UNL A   1      47.865  27.302  27.068  1.00  0.00     0.034 A 
ATOM     54  C   UNL A   1      41.193  28.917  28.818  1.00  0.00     0.034 A 
ATOM     55  C   UNL A   1      47.639  28.672  27.453  1.00  0.00     0.049 A 
ATOM     56  C   UNL A   1      42.317  29.919  28.919  1.00  0.00     0.074 A 
ATOM     57  C   UNL A   1      48.545  29.714  27.506  1.00  0.00     0.029 A 
ATOM     58  N   UNL A   1      46.417  29.183  27.881  1.00  0.00    -0.354 N 
ATOM     59  N   UNL A   1      43.589  29.766  28.623  1.00  0.00    -0.248 NA
ATOM     60  C   UNL A   1      41.968  31.258  29.403  1.00  0.00     0.031 C 
ATOM     61  C   UNL A   1      47.894  30.828  28.051  1.00  0.00     0.029 A 
ATOM     62  C   UNL A   1      46.556  30.513  28.245  1.00  0.00     0.049 A 
ATOM     63  H   UNL A   1      45.576  28.674  27.919  1.00  0.00     0.167 HD
ATOM     64  C   UNL A   1      44.190  30.999  28.865  1.00  0.00     0.074 A 
ATOM     65  C   UNL A   1      43.133  31.885  29.317  1.00  0.00     0.031 C 
ATOM     66  C   UNL A   1      45.489  31.370  28.718  1.00  0.00     0.034 A 
BRANCH  53  67
ATOM     67  C   UNL A   1      49.260  26.825  26.738  1.00  0.00     0.023 A 
ATOM     68  C   UNL A   1      50.248  26.671  27.730  1.00  0.00     0.031 A 
ATOM     69  C   UNL A   1      49.639  26.620  25.401  1.00  0.00     0.131 A 
ATOM     70  C   UNL A   1      51.580  26.434  27.360  1.00  0.00     0.055 A 
ATOM     71  C   UNL A   1      50.948  26.284  25.048  1.00  0.00     0.041 A 
ATOM     72  F   UNL A   1      48.752  26.781  24.406  1.00  0.00    -0.206 F 
ATOM     73  C   UNL A   1      51.933  26.212  26.028  1.00  0.00     0.022 A 
BRANCH  70  74
ATOM     74  S   UNL A   1      52.875  26.628  28.618  1.00  0.00     0.124 S 
ATOM     75  O   UNL A   1      53.039  28.080  28.652  1.00  0.00    -0.237 OA
ATOM     76  O   UNL A   1      52.262  26.026  29.796  1.00  0.00    -0.237 OA
ATOM     77  O   UNL A   1      54.009  25.895  28.060  1.00  0.00    -0.744 OA
ENDBRANCH  70  74
ENDBRANCH  53  67
BRANCH  54  78
ATOM     78  C   UNL A   1      39.810  29.243  29.269  1.00  0.00     0.023 A 
ATOM     79  C   UNL A   1      39.467  29.288  30.628  1.00  0.00     0.031 A 
ATOM     80  C   UNL A   1      38.804  29.522  28.324  1.00  0.00     0.131 A 
ATOM     81  C   UNL A   1      38.147  29.587  31.005  1.00  0.00     0.055 A 
ATOM     82  C   UNL A   1      37.506  29.864  28.704  1.00  0.00     0.041 A 
ATOM     83  F   UNL A   1      39.079  29.493  27.010  1.00  0.00    -0.206 F 
ATOM     84  C   UNL A   1      37.170  29.891  30.054  1.00  0.00     0.022 A 
BRANCH  81  85
ATOM     85  S   UNL A   1      37.706  29.531  32.763  1.00  0.00     0.124 S 
ATOM     86  O   UNL A   1      37.477  28.105  32.968  1.00  0.00    -0.237 OA
ATOM     87  O   UNL A   1      38.900  30.086  33.393  1.00  0.00    -0.237 OA
ATOM     88  O   UNL A   1      36.514  30.374  32.842  1.00  0.00    -0.744 OA
ENDBRANCH  81  85
ENDBRANCH  54  78
BRANCH  66  89
ATOM     89  C   UNL A   1      45.830  32.811  29.019  1.00  0.00     0.023 A 
ATOM     90  C   UNL A   1      46.281  33.219  30.286  1.00  0.00     0.031 A 
ATOM     91  C   UNL A   1      45.705  33.789  28.015  1.00  0.00     0.131 A 
ATOM     92  C   UNL A   1      46.536  34.576  30.532  1.00  0.00     0.055 A 
ATOM     93  C   UNL A   1      46.030  35.126  28.245  1.00  0.00     0.041 A 
ATOM     94  F   UNL A   1      45.274  33.457  26.788  1.00  0.00    -0.206 F 
ATOM     95  C   UNL A   1      46.436  35.529  29.514  1.00  0.00     0.022 A 
BRANCH  92  96
ATOM     96  S   UNL A   1      46.899  35.100  32.230  1.00  0.00     0.124 S 
ATOM     97  O   UNL A   1      46.470  36.494  32.213  1.00  0.00    -0.237 OA
ATOM     98  O   UNL A   1      46.079  34.189  33.020  1.00  0.00    -0.237 OA
ATOM     99  O   UNL A   1      48.342  34.897  32.350  1.00  0.00    -0.744 OA
ENDBRANCH  92  96
ENDBRANCH  66  89
ENDBRANCH  40  41
ENDBRANCH  33  35
ENDBRANCH  32  33
ENDBRANCH  31  32
ENDBRANCH  30  31
ENDBRANCH  29  30
ENDBRANCH  28  29
ENDBRANCH  27  28
ENDBRANCH   1  27
TORSDOF 27
ENDMDL
MODEL 3
REMARK VINA RESULT:      -8.9      2.126      3.228
REMARK SMILES Cc1nc(CN(CC(=O)OCCOCCOCCOCCOC(=O)c2ccc(-c3c4nc(c(-c5cc(S(=O)(=O)[O-])ccc5F)c5ccc([nH]5)c(-c5cc(S(=O)(=O)[O-])ccc5F)c5nc(c(-c6cc(S(=O)(=O)[O-])ccc6F)c6ccc3[nH]6)C=C5)C=C4)cc2)c2cccc(Cl)c2)sc1C
REMARK SMILES IDX 16 1 15 2 14 3 13 4 12 5 11 6 10 7 8 8 9 9 7 10 6 11 5 12
REMARK SMILES IDX 4 13 1 14 2 15 3 16 96 17 95 18 97 19 88 20 89 21 94 22
REMARK SMILES IDX 90 23 92 24 91 25 93 26 17 27 18 28 19 29 20 30 21 31 22 32
REMARK SMILES IDX 23 33 24 34 25 35 26 36 87 37 27 38 86 39 28 40 29 41 30 42
REMARK SMILES IDX 80 43 31 44 85 45 79 46 81 47 32 48 84 49 78 50 77 51 33 53
REMARK SMILES IDX 65 54 45 55 64 56 46 57 49 58 63 59 82 60 47 61 48 62 62 64
REMARK SMILES IDX 83 65 50 66 34 67 35 68 43 69 36 70 42 71 44 72 41 73 37 74
REMARK SMILES IDX 38 75 39 76 40 77 66 78 67 79 75 80 68 81 74 82 76 83 73 84
REMARK SMILES IDX 69 85 70 86 71 87 72 88 51 89 52 90 60 91 53 92 59 93 61 94
REMARK SMILES IDX 58 95 54 96 55 97 56 98 57 99
REMARK H PARENT 81 52 49 63
REMARK Flexibility Score: inf
ROOT
ATOM      1  O   UNL A   1      35.301  22.989  25.431  1.00  0.00    -0.377 OA
ENDROOT
BRANCH   1   2
ATOM      2  C   UNL A   1      34.548  21.877  25.874  1.00  0.00     0.188 C 
BRANCH   2   3
ATOM      3  C   UNL A   1      33.910  21.859  27.281  1.00  0.00     0.188 C 
BRANCH   3   4
ATOM      4  O   UNL A   1      32.503  21.979  27.262  1.00  0.00    -0.376 OA
BRANCH   4   5
ATOM      5  C   UNL A   1      31.904  23.261  27.249  1.00  0.00     0.202 C 
BRANCH   5   6
ATOM      6  C   UNL A   1      30.555  23.552  26.557  1.00  0.00     0.261 C 
BRANCH   6   7
ATOM      7  O   UNL A   1      29.944  24.846  26.759  1.00  0.00    -0.462 OA
BRANCH   7   8
ATOM      8  C   UNL A   1      30.038  25.780  25.782  1.00  0.00     0.325 C 
ATOM      9  O   UNL A   1      29.103  26.078  25.046  1.00  0.00    -0.250 OA
BRANCH   8  10
ATOM     10  C   UNL A   1      31.443  26.410  25.643  1.00  0.00     0.239 C 
BRANCH  10  11
ATOM     11  N   UNL A   1      31.884  26.841  24.284  1.00  0.00    -0.354 N 
BRANCH  11  12
ATOM     12  C   UNL A   1      32.444  28.228  24.220  1.00  0.00     0.184 C 
BRANCH  12  13
ATOM     13  C   UNL A   1      32.895  28.803  25.558  1.00  0.00     0.112 A 
ATOM     14  C   UNL A   1      35.739  29.320  27.673  1.00  0.00     0.068 C 
ATOM     15  C   UNL A   1      34.403  29.456  27.038  1.00  0.00     0.051 A 
ATOM     16  N   UNL A   1      33.991  28.438  26.194  1.00  0.00    -0.244 NA
ATOM     17  C   UNL A   1      33.536  30.533  27.119  1.00  0.00     0.025 A 
ATOM     18  S   UNL A   1      32.112  30.190  26.221  1.00  0.00    -0.122 S 
ATOM     19  C   UNL A   1      33.715  31.841  27.807  1.00  0.00     0.058 C 
ENDBRANCH  12  13
ENDBRANCH  11  12
BRANCH  11  20
ATOM     20  C   UNL A   1      32.175  25.929  23.255  1.00  0.00     0.039 A 
ATOM     21  C   UNL A   1      32.492  26.338  21.948  1.00  0.00     0.026 A 
ATOM     22  C   UNL A   1      32.278  24.537  23.477  1.00  0.00     0.046 A 
ATOM     23  C   UNL A   1      32.905  25.432  20.951  1.00  0.00     0.004 A 
ATOM     24  C   UNL A   1      32.624  23.622  22.475  1.00  0.00     0.043 A 
ATOM     25  C   UNL A   1      32.959  24.067  21.211  1.00  0.00     0.020 A 
ATOM     26  Cl  UNL A   1      32.648  21.936  22.828  1.00  0.00    -0.084 Cl
ENDBRANCH  11  20
ENDBRANCH  10  11
ENDBRANCH   8  10
ENDBRANCH   7   8
ENDBRANCH   6   7
ENDBRANCH   5   6
ENDBRANCH   4   5
ENDBRANCH   3   4
ENDBRANCH   2   3
ENDBRANCH   1   2
BRANCH   1  27
ATOM     27  C   UNL A   1      35.905  22.869  24.168  1.00  0.00     0.188 C 
BRANCH  27  28
ATOM     28  C   UNL A   1      37.291  22.219  24.257  1.00  0.00     0.188 C 
BRANCH  28  29
ATOM     29  O   UNL A   1      37.413  20.813  24.138  1.00  0.00    -0.376 OA
BRANCH  29  30
ATOM     30  C   UNL A   1      37.882  19.961  25.175  1.00  0.00     0.202 C 
BRANCH  30  31
ATOM     31  C   UNL A   1      39.332  19.618  25.574  1.00  0.00     0.261 C 
BRANCH  31  32
ATOM     32  O   UNL A   1      39.988  20.423  26.537  1.00  0.00    -0.460 OA
BRANCH  32  33
ATOM     33  C   UNL A   1      41.310  20.211  26.671  1.00  0.00     0.338 C 
ATOM     34  O   UNL A   1      41.911  19.161  26.521  1.00  0.00    -0.246 OA
BRANCH  33  35
ATOM     35  C   UNL A   1      41.930  21.537  26.807  1.00  0.00     0.060 A 
ATOM     36  C   UNL A   1      42.563  21.841  28.017  1.00  0.00     0.016 A 
ATOM     37  C   UNL A   1      41.945  22.437  25.736  1.00  0.00     0.016 A 
ATOM     38  C   UNL A   1      43.225  23.051  28.162  1.00  0.00     0.010 A 
ATOM     39  C   UNL A   1      42.564  23.674  25.900  1.00  0.00     0.010 A 
ATOM     40  C   UNL A   1      43.181  23.987  27.123  1.00  0.00    -0.014 A 
BRANCH  40  41
ATOM     41  C   UNL A   1      43.539  25.381  27.442  1.00  0.00     0.031 A 
ATOM     42  C   UNL A   1      44.901  25.849  27.022  1.00  0.00     0.074 A 
ATOM     43  C   UNL A   1      42.655  26.209  28.017  1.00  0.00     0.049 A 
ATOM     44  N   UNL A   1      45.457  27.020  27.160  1.00  0.00    -0.248 NA
ATOM     45  C   UNL A   1      45.749  24.847  26.356  1.00  0.00     0.031 C 
ATOM     46  C   UNL A   1      41.292  25.850  28.405  1.00  0.00     0.029 A 
ATOM     47  N   UNL A   1      42.776  27.525  28.374  1.00  0.00    -0.354 N 
ATOM     48  C   UNL A   1      46.722  26.898  26.596  1.00  0.00     0.074 A 
ATOM     49  C   UNL A   1      46.863  25.528  26.157  1.00  0.00     0.031 C 
ATOM     50  C   UNL A   1      40.707  26.922  28.968  1.00  0.00     0.029 A 
ATOM     51  C   UNL A   1      41.666  28.025  29.007  1.00  0.00     0.049 A 
ATOM     52  H   UNL A   1      43.582  28.061  28.193  1.00  0.00     0.167 HD
ATOM     53  C   UNL A   1      47.674  27.852  26.452  1.00  0.00     0.034 A 
ATOM     54  C   UNL A   1      41.468  29.229  29.580  1.00  0.00     0.034 A 
ATOM     55  C   UNL A   1      47.512  29.197  26.942  1.00  0.00     0.049 A 
ATOM     56  C   UNL A   1      42.576  30.251  29.504  1.00  0.00     0.074 A 
ATOM     57  C   UNL A   1      48.395  30.257  26.864  1.00  0.00     0.029 A 
ATOM     58  N   UNL A   1      46.394  29.659  27.630  1.00  0.00    -0.354 N 
ATOM     59  N   UNL A   1      43.765  30.141  28.952  1.00  0.00    -0.248 NA
ATOM     60  C   UNL A   1      42.314  31.557  30.114  1.00  0.00     0.031 C 
ATOM     61  C   UNL A   1      47.852  31.329  27.583  1.00  0.00     0.029 A 
ATOM     62  C   UNL A   1      46.585  30.975  28.025  1.00  0.00     0.049 A 
ATOM     63  H   UNL A   1      45.584  29.130  27.811  1.00  0.00     0.167 HD
ATOM     64  C   UNL A   1      44.385  31.375  29.130  1.00  0.00     0.074 A 
ATOM     65  C   UNL A   1      43.429  32.215  29.828  1.00  0.00     0.031 C 
ATOM     66  C   UNL A   1      45.623  31.784  28.744  1.00  0.00     0.034 A 
BRANCH  53  67
ATOM     67  C   UNL A   1      48.981  27.424  25.826  1.00  0.00     0.023 A 
ATOM     68  C   UNL A   1      50.114  27.120  26.604  1.00  0.00     0.031 A 
ATOM     69  C   UNL A   1      49.127  27.420  24.428  1.00  0.00     0.131 A 
ATOM     70  C   UNL A   1      51.359  26.934  25.985  1.00  0.00     0.055 A 
ATOM     71  C   UNL A   1      50.349  27.134  23.815  1.00  0.00     0.041 A 
ATOM     72  F   UNL A   1      48.093  27.732  23.631  1.00  0.00    -0.206 F 
ATOM     73  C   UNL A   1      51.480  26.913  24.595  1.00  0.00     0.022 A 
BRANCH  70  74
ATOM     74  S   UNL A   1      52.850  26.933  27.022  1.00  0.00     0.124 S 
ATOM     75  O   UNL A   1      52.975  28.348  27.362  1.00  0.00    -0.237 OA
ATOM     76  O   UNL A   1      52.471  26.044  28.114  1.00  0.00    -0.237 OA
ATOM     77  O   UNL A   1      53.888  26.420  26.130  1.00  0.00    -0.744 OA
ENDBRANCH  70  74
ENDBRANCH  53  67
BRANCH  54  78
ATOM     78  C   UNL A   1      40.201  29.501  30.314  1.00  0.00     0.023 A 
ATOM     79  C   UNL A   1      39.288  30.473  29.880  1.00  0.00     0.031 A 
ATOM     80  C   UNL A   1      39.884  28.769  31.475  1.00  0.00     0.131 A 
ATOM     81  C   UNL A   1      38.112  30.702  30.613  1.00  0.00     0.055 A 
ATOM     82  C   UNL A   1      38.693  28.969  32.174  1.00  0.00     0.041 A 
ATOM     83  F   UNL A   1      40.722  27.827  31.934  1.00  0.00    -0.206 F 
ATOM     84  C   UNL A   1      37.801  29.946  31.746  1.00  0.00     0.022 A 
BRANCH  81  85
ATOM     85  S   UNL A   1      37.004  32.040  30.090  1.00  0.00     0.124 S 
ATOM     86  O   UNL A   1      35.705  31.541  30.529  1.00  0.00    -0.237 OA
ATOM     87  O   UNL A   1      37.536  33.181  30.829  1.00  0.00    -0.237 OA
ATOM     88  O   UNL A   1      37.196  32.095  28.642  1.00  0.00    -0.744 OA
ENDBRANCH  81  85
ENDBRANCH  54  78
BRANCH  66  89
ATOM     89  C   UNL A   1      45.998  33.216  29.043  1.00  0.00     0.023 A 
ATOM     90  C   UNL A   1      45.795  34.248  28.110  1.00  0.00     0.031 A 
ATOM     91  C   UNL A   1      46.566  33.552  30.286  1.00  0.00     0.131 A 
ATOM     92  C   UNL A   1      46.206  35.554  28.414  1.00  0.00     0.055 A 
ATOM     93  C   UNL A   1      46.906  34.865  30.610  1.00  0.00     0.041 A 
ATOM     94  F   UNL A   1      46.788  32.606  31.213  1.00  0.00    -0.206 F 
ATOM     95  C   UNL A   1      46.739  35.874  29.665  1.00  0.00     0.022 A 
BRANCH  92  96
ATOM     96  S   UNL A   1      46.135  36.814  27.111  1.00  0.00     0.124 S 
ATOM     97  O   UNL A   1      44.768  37.306  27.242  1.00  0.00    -0.237 OA
ATOM     98  O   UNL A   1      47.188  37.740  27.514  1.00  0.00    -0.237 OA
ATOM     99  O   UNL A   1      46.408  36.058  25.889  1.00  0.00    -0.744 OA
ENDBRANCH  92  96
ENDBRANCH  66  89
ENDBRANCH  40  41
ENDBRANCH  33  35
ENDBRANCH  32  33
ENDBRANCH  31  32
ENDBRANCH  30  31
ENDBRANCH  29  30
ENDBRANCH  28  29
ENDBRANCH  27  28
ENDBRANCH   1  27
TORSDOF 27
ENDMDL
