MODEL 1
REMARK VINA RESULT:     -10.9      0.000      0.000
REMARK SMILES O=C1O[C@@H](c2ccc(O)c(O)c2)[C@H](C(=O)OCCOCCOCCOCCOC(=O)c2ccc(-c3c4nc(c(-c5cc(S(=O)(=O)[O-])ccc5F)c5ccc([nH]5)c(-c5cc(S(=O)(=O)[O-])ccc5F)c5nc(c(-c6cc(S(=O)(=O)[O-])ccc6F)c6ccc3[nH]6)C=C5)C=C4)cc2)/C1=C\c1ccc(O)c(O)c1
REMARK SMILES IDX 23 1 22 2 21 3 20 4 19 5 18 6 17 7 16 8 14 9 15 10 13 11
REMARK SMILES IDX 1 12 2 13 3 14 94 15 4 16 95 17 5 18 6 19 12 20 7 21 10 22
REMARK SMILES IDX 8 23 11 24 9 26 96 28 97 29 103 30 98 31 101 32 99 33 102 34
REMARK SMILES IDX 100 36 24 38 25 39 26 40 27 41 28 42 29 43 30 44 31 45 32 46
REMARK SMILES IDX 93 47 33 48 92 49 34 50 35 51 36 52 86 53 37 54 91 55 85 56
REMARK SMILES IDX 87 57 38 58 90 59 84 60 83 61 39 63 71 64 51 65 70 66 52 67
REMARK SMILES IDX 55 68 69 69 88 70 53 71 54 72 68 74 89 75 56 76 40 77 41 78
REMARK SMILES IDX 49 79 42 80 48 81 50 82 47 83 43 84 44 85 45 86 46 87 72 88
REMARK SMILES IDX 73 89 81 90 74 91 80 92 82 93 79 94 75 95 76 96 77 97 78 98
REMARK SMILES IDX 57 99 58 100 66 101 59 102 65 103 67 104 64 105 60 106
REMARK SMILES IDX 61 107 62 108 63 109
REMARK H PARENT 11 25 9 27 102 35 100 37 87 62 55 73
REMARK Flexibility Score: inf
ROOT
ATOM      1  C   UNL A   1      34.366  31.430  27.607  1.00  0.00     0.188 C 
ENDROOT
BRANCH   1   2
ATOM      2  O   UNL A   1      34.781  30.166  28.134  1.00  0.00    -0.377 OA
BRANCH   2   3
ATOM      3  C   UNL A   1      34.463  29.012  27.384  1.00  0.00     0.188 C 
BRANCH   3   4
ATOM      4  C   UNL A   1      33.500  29.246  26.203  1.00  0.00     0.188 C 
BRANCH   4   5
ATOM      5  O   UNL A   1      33.357  28.111  25.370  1.00  0.00    -0.376 OA
BRANCH   5   6
ATOM      6  C   UNL A   1      32.834  26.899  25.875  1.00  0.00     0.202 C 
BRANCH   6   7
ATOM      7  C   UNL A   1      33.631  25.586  25.804  1.00  0.00     0.261 C 
BRANCH   7   8
ATOM      8  O   UNL A   1      33.026  24.516  25.067  1.00  0.00    -0.463 OA
BRANCH   8   9
ATOM      9  C   UNL A   1      32.889  23.318  25.692  1.00  0.00     0.317 C 
ATOM     10  O   UNL A   1      32.262  23.133  26.723  1.00  0.00    -0.251 OA
BRANCH   9  11
ATOM     11  C   UNL A   1      33.591  22.254  24.860  1.00  0.00     0.182 C 
ATOM     12  O   UNL A   1      33.618  23.590  21.592  1.00  0.00    -0.247 OA
ATOM     13  C   UNL A   1      33.442  22.950  22.617  1.00  0.00     0.335 C 
ATOM     14  O   UNL A   1      32.356  22.174  22.888  1.00  0.00    -0.453 OA
ATOM     15  C   UNL A   1      34.382  22.850  23.755  1.00  0.00     0.056 C 
ATOM     16  C   UNL A   1      32.531  21.461  24.128  1.00  0.00     0.226 C 
ATOM     17  C   UNL A   1      35.675  23.197  23.607  1.00  0.00     0.020 C 
BRANCH  16  18
ATOM     18  C   UNL A   1      32.899  19.996  23.905  1.00  0.00    -0.002 A 
ATOM     19  C   UNL A   1      32.203  19.212  22.955  1.00  0.00     0.012 A 
ATOM     20  C   UNL A   1      33.974  19.410  24.588  1.00  0.00     0.057 A 
ATOM     21  C   UNL A   1      32.552  17.876  22.720  1.00  0.00     0.050 A 
ATOM     22  C   UNL A   1      34.318  18.088  24.344  1.00  0.00     0.157 A 
ATOM     23  C   UNL A   1      33.615  17.322  23.419  1.00  0.00     0.157 A 
BRANCH  22  24
ATOM     24  O   UNL A   1      35.376  17.543  25.015  1.00  0.00    -0.504 OA
ATOM     25  H   UNL A   1      35.614  16.649  24.868  1.00  0.00     0.293 HD
ENDBRANCH  22  24
BRANCH  23  26
ATOM     26  O   UNL A   1      34.020  16.031  23.224  1.00  0.00    -0.504 OA
ATOM     27  H   UNL A   1      34.702  15.842  22.610  1.00  0.00     0.293 HD
ENDBRANCH  23  26
ENDBRANCH  16  18
BRANCH  17  28
ATOM     28  C   UNL A   1      36.792  23.065  24.558  1.00  0.00    -0.021 A 
ATOM     29  C   UNL A   1      37.129  24.105  25.441  1.00  0.00     0.012 A 
ATOM     30  C   UNL A   1      37.469  21.842  24.669  1.00  0.00     0.058 A 
ATOM     31  C   UNL A   1      38.141  23.941  26.402  1.00  0.00     0.051 A 
ATOM     32  C   UNL A   1      38.480  21.690  25.617  1.00  0.00     0.157 A 
ATOM     33  C   UNL A   1      38.817  22.729  26.479  1.00  0.00     0.157 A 
BRANCH  32  34
ATOM     34  O   UNL A   1      39.160  20.507  25.684  1.00  0.00    -0.504 OA
ATOM     35  H   UNL A   1      38.933  19.872  26.334  1.00  0.00     0.293 HD
ENDBRANCH  32  34
BRANCH  33  36
ATOM     36  O   UNL A   1      39.819  22.511  27.383  1.00  0.00    -0.504 OA
ATOM     37  H   UNL A   1      39.826  21.725  27.896  1.00  0.00     0.293 HD
ENDBRANCH  33  36
ENDBRANCH  17  28
ENDBRANCH   9  11
ENDBRANCH   8   9
ENDBRANCH   7   8
ENDBRANCH   6   7
ENDBRANCH   5   6
ENDBRANCH   4   5
ENDBRANCH   3   4
ENDBRANCH   2   3
ENDBRANCH   1   2
BRANCH   1  38
ATOM     38  C   UNL A   1      34.702  32.787  28.293  1.00  0.00     0.188 C 
BRANCH  38  39
ATOM     39  O   UNL A   1      34.228  33.957  27.641  1.00  0.00    -0.376 OA
BRANCH  39  40
ATOM     40  C   UNL A   1      34.208  35.181  28.351  1.00  0.00     0.202 C 
BRANCH  40  41
ATOM     41  C   UNL A   1      33.076  35.355  29.372  1.00  0.00     0.261 C 
BRANCH  41  42
ATOM     42  O   UNL A   1      33.421  36.101  30.545  1.00  0.00    -0.460 OA
BRANCH  42  43
ATOM     43  C   UNL A   1      32.952  35.619  31.719  1.00  0.00     0.338 C 
ATOM     44  O   UNL A   1      31.793  35.595  32.090  1.00  0.00    -0.246 OA
BRANCH  43  45
ATOM     45  C   UNL A   1      34.072  34.926  32.382  1.00  0.00     0.060 A 
ATOM     46  C   UNL A   1      35.369  35.441  32.246  1.00  0.00     0.016 A 
ATOM     47  C   UNL A   1      33.828  33.802  33.174  1.00  0.00     0.016 A 
ATOM     48  C   UNL A   1      36.434  34.826  32.899  1.00  0.00     0.010 A 
ATOM     49  C   UNL A   1      34.900  33.164  33.795  1.00  0.00     0.010 A 
ATOM     50  C   UNL A   1      36.208  33.658  33.637  1.00  0.00    -0.014 A 
BRANCH  50  51
ATOM     51  C   UNL A   1      37.352  32.809  34.035  1.00  0.00     0.031 A 
ATOM     52  C   UNL A   1      38.067  33.165  35.308  1.00  0.00     0.074 A 
ATOM     53  C   UNL A   1      37.747  31.763  33.291  1.00  0.00     0.049 A 
ATOM     54  N   UNL A   1      39.168  32.676  35.809  1.00  0.00    -0.248 NA
ATOM     55  C   UNL A   1      37.453  34.230  36.118  1.00  0.00     0.031 C 
ATOM     56  C   UNL A   1      37.082  31.287  32.080  1.00  0.00     0.029 A 
ATOM     57  N   UNL A   1      38.819  30.920  33.442  1.00  0.00    -0.354 N 
ATOM     58  C   UNL A   1      39.389  33.381  36.986  1.00  0.00     0.074 A 
ATOM     59  C   UNL A   1      38.325  34.353  37.105  1.00  0.00     0.031 C 
ATOM     60  C   UNL A   1      37.777  30.247  31.584  1.00  0.00     0.029 A 
ATOM     61  C   UNL A   1      38.960  30.020  32.412  1.00  0.00     0.049 A 
ATOM     62  H   UNL A   1      39.430  30.957  34.214  1.00  0.00     0.167 HD
ATOM     63  C   UNL A   1      40.392  33.227  37.884  1.00  0.00     0.034 A 
ATOM     64  C   UNL A   1      39.956  29.147  32.152  1.00  0.00     0.034 A 
ATOM     65  C   UNL A   1      41.449  32.262  37.731  1.00  0.00     0.049 A 
ATOM     66  C   UNL A   1      41.126  29.070  33.107  1.00  0.00     0.074 A 
ATOM     67  C   UNL A   1      42.514  32.013  38.578  1.00  0.00     0.029 A 
ATOM     68  N   UNL A   1      41.587  31.399  36.652  1.00  0.00    -0.354 N 
ATOM     69  N   UNL A   1      41.336  29.747  34.215  1.00  0.00    -0.248 NA
ATOM     70  C   UNL A   1      42.194  28.114  32.781  1.00  0.00     0.031 C 
ATOM     71  C   UNL A   1      43.340  31.064  37.969  1.00  0.00     0.029 A 
ATOM     72  C   UNL A   1      42.740  30.646  36.792  1.00  0.00     0.049 A 
ATOM     73  H   UNL A   1      40.957  31.332  35.899  1.00  0.00     0.167 HD
ATOM     74  C   UNL A   1      42.536  29.266  34.735  1.00  0.00     0.074 A 
ATOM     75  C   UNL A   1      43.003  28.244  33.823  1.00  0.00     0.031 C 
ATOM     76  C   UNL A   1      43.189  29.628  35.870  1.00  0.00     0.034 A 
BRANCH  63  77
ATOM     77  C   UNL A   1      40.417  34.168  39.063  1.00  0.00     0.023 A 
ATOM     78  C   UNL A   1      39.636  33.945  40.209  1.00  0.00     0.031 A 
ATOM     79  C   UNL A   1      41.213  35.327  39.023  1.00  0.00     0.131 A 
ATOM     80  C   UNL A   1      39.611  34.902  41.234  1.00  0.00     0.055 A 
ATOM     81  C   UNL A   1      41.252  36.230  40.085  1.00  0.00     0.041 A 
ATOM     82  F   UNL A   1      41.955  35.610  37.940  1.00  0.00    -0.206 F 
ATOM     83  C   UNL A   1      40.436  36.028  41.194  1.00  0.00     0.022 A 
BRANCH  80  84
ATOM     84  S   UNL A   1      38.369  34.733  42.545  1.00  0.00     0.124 S 
ATOM     85  O   UNL A   1      38.727  33.441  43.125  1.00  0.00    -0.237 OA
ATOM     86  O   UNL A   1      38.629  35.901  43.379  1.00  0.00    -0.237 OA
ATOM     87  O   UNL A   1      37.100  34.751  41.819  1.00  0.00    -0.744 OA
ENDBRANCH  80  84
ENDBRANCH  63  77
BRANCH  64  88
ATOM     88  C   UNL A   1      39.929  28.313  30.914  1.00  0.00     0.023 A 
ATOM     89  C   UNL A   1      40.711  28.647  29.798  1.00  0.00     0.031 A 
ATOM     90  C   UNL A   1      39.072  27.203  30.807  1.00  0.00     0.131 A 
ATOM     91  C   UNL A   1      40.585  27.911  28.609  1.00  0.00     0.055 A 
ATOM     92  C   UNL A   1      38.997  26.436  29.643  1.00  0.00     0.041 A 
ATOM     93  F   UNL A   1      38.295  26.841  31.840  1.00  0.00    -0.206 F 
ATOM     94  C   UNL A   1      39.746  26.797  28.529  1.00  0.00     0.022 A 
BRANCH  91  95
ATOM     95  S   UNL A   1      41.459  28.496  27.131  1.00  0.00     0.124 S 
ATOM     96  O   UNL A   1      40.366  29.062  26.348  1.00  0.00    -0.237 OA
ATOM     97  O   UNL A   1      42.406  29.450  27.698  1.00  0.00    -0.237 OA
ATOM     98  O   UNL A   1      42.054  27.278  26.585  1.00  0.00    -0.744 OA
ENDBRANCH  91  95
ENDBRANCH  64  88
BRANCH  76  99
ATOM     99  C   UNL A   1      44.445  28.869  36.228  1.00  0.00     0.023 A 
ATOM    100  C   UNL A   1      44.417  27.693  36.995  1.00  0.00     0.031 A 
ATOM    101  C   UNL A   1      45.691  29.321  35.754  1.00  0.00     0.131 A 
ATOM    102  C   UNL A   1      45.616  27.029  37.298  1.00  0.00     0.055 A 
ATOM    103  C   UNL A   1      46.872  28.622  36.004  1.00  0.00     0.041 A 
ATOM    104  F   UNL A   1      45.778  30.442  35.020  1.00  0.00    -0.206 F 
ATOM    105  C   UNL A   1      46.840  27.473  36.789  1.00  0.00     0.022 A 
BRANCH 102 106
ATOM    106  S   UNL A   1      45.567  25.612  38.429  1.00  0.00     0.124 S 
ATOM    107  O   UNL A   1      44.479  24.817  37.871  1.00  0.00    -0.237 OA
ATOM    108  O   UNL A   1      46.906  25.050  38.285  1.00  0.00    -0.237 OA
ATOM    109  O   UNL A   1      45.289  26.221  39.728  1.00  0.00    -0.744 OA
ENDBRANCH 102 106
ENDBRANCH  76  99
ENDBRANCH  50  51
ENDBRANCH  43  45
ENDBRANCH  42  43
ENDBRANCH  41  42
ENDBRANCH  40  41
ENDBRANCH  39  40
ENDBRANCH  38  39
ENDBRANCH   1  38
TORSDOF 29
ENDMDL
MODEL 2
REMARK VINA RESULT:     -10.2      5.966     10.989
REMARK SMILES O=C1O[C@@H](c2ccc(O)c(O)c2)[C@H](C(=O)OCCOCCOCCOCCOC(=O)c2ccc(-c3c4nc(c(-c5cc(S(=O)(=O)[O-])ccc5F)c5ccc([nH]5)c(-c5cc(S(=O)(=O)[O-])ccc5F)c5nc(c(-c6cc(S(=O)(=O)[O-])ccc6F)c6ccc3[nH]6)C=C5)C=C4)cc2)/C1=C\c1ccc(O)c(O)c1
REMARK SMILES IDX 23 1 22 2 21 3 20 4 19 5 18 6 17 7 16 8 14 9 15 10 13 11
REMARK SMILES IDX 1 12 2 13 3 14 94 15 4 16 95 17 5 18 6 19 12 20 7 21 10 22
REMARK SMILES IDX 8 23 11 24 9 26 96 28 97 29 103 30 98 31 101 32 99 33 102 34
REMARK SMILES IDX 100 36 24 38 25 39 26 40 27 41 28 42 29 43 30 44 31 45 32 46
REMARK SMILES IDX 93 47 33 48 92 49 34 50 35 51 36 52 86 53 37 54 91 55 85 56
REMARK SMILES IDX 87 57 38 58 90 59 84 60 83 61 39 63 71 64 51 65 70 66 52 67
REMARK SMILES IDX 55 68 69 69 88 70 53 71 54 72 68 74 89 75 56 76 40 77 41 78
REMARK SMILES IDX 49 79 42 80 48 81 50 82 47 83 43 84 44 85 45 86 46 87 72 88
REMARK SMILES IDX 73 89 81 90 74 91 80 92 82 93 79 94 75 95 76 96 77 97 78 98
REMARK SMILES IDX 57 99 58 100 66 101 59 102 65 103 67 104 64 105 60 106
REMARK SMILES IDX 61 107 62 108 63 109
REMARK H PARENT 11 25 9 27 102 35 100 37 87 62 55 73
REMARK Flexibility Score: inf
ROOT
ATOM      1  C   UNL A   1      43.549  19.790  25.628  1.00  0.00     0.188 C 
ENDROOT
BRANCH   1   2
ATOM      2  O   UNL A   1      42.220  19.354  25.329  1.00  0.00    -0.377 OA
BRANCH   2   3
ATOM      3  C   UNL A   1      41.254  19.457  26.354  1.00  0.00     0.188 C 
BRANCH   3   4
ATOM      4  C   UNL A   1      40.642  20.860  26.536  1.00  0.00     0.188 C 
BRANCH   4   5
ATOM      5  O   UNL A   1      39.345  20.975  25.981  1.00  0.00    -0.376 OA
BRANCH   5   6
ATOM      6  C   UNL A   1      38.798  22.239  25.667  1.00  0.00     0.202 C 
BRANCH   6   7
ATOM      7  C   UNL A   1      37.308  22.411  25.327  1.00  0.00     0.261 C 
BRANCH   7   8
ATOM      8  O   UNL A   1      36.969  23.542  24.516  1.00  0.00    -0.463 OA
BRANCH   8   9
ATOM      9  C   UNL A   1      36.135  23.337  23.464  1.00  0.00     0.317 C 
ATOM     10  O   UNL A   1      36.472  22.880  22.383  1.00  0.00    -0.251 OA
BRANCH   9  11
ATOM     11  C   UNL A   1      34.721  23.712  23.884  1.00  0.00     0.182 C 
ATOM     12  O   UNL A   1      33.024  24.237  20.833  1.00  0.00    -0.247 OA
ATOM     13  C   UNL A   1      33.576  24.316  21.919  1.00  0.00     0.335 C 
ATOM     14  O   UNL A   1      34.143  25.442  22.437  1.00  0.00    -0.453 OA
ATOM     15  C   UNL A   1      33.710  23.228  22.912  1.00  0.00     0.056 C 
ATOM     16  C   UNL A   1      34.590  25.216  23.788  1.00  0.00     0.226 C 
ATOM     17  C   UNL A   1      32.929  22.133  22.836  1.00  0.00     0.020 C 
BRANCH  16  18
ATOM     18  C   UNL A   1      33.641  25.821  24.819  1.00  0.00    -0.002 A 
ATOM     19  C   UNL A   1      33.675  27.205  25.109  1.00  0.00     0.012 A 
ATOM     20  C   UNL A   1      32.672  25.033  25.457  1.00  0.00     0.057 A 
ATOM     21  C   UNL A   1      32.788  27.777  26.031  1.00  0.00     0.050 A 
ATOM     22  C   UNL A   1      31.792  25.609  26.363  1.00  0.00     0.157 A 
ATOM     23  C   UNL A   1      31.847  26.969  26.653  1.00  0.00     0.157 A 
BRANCH  22  24
ATOM     24  O   UNL A   1      30.850  24.822  26.964  1.00  0.00    -0.504 OA
ATOM     25  H   UNL A   1      31.078  23.965  27.265  1.00  0.00     0.293 HD
ENDBRANCH  22  24
BRANCH  23  26
ATOM     26  O   UNL A   1      30.939  27.465  27.547  1.00  0.00    -0.504 OA
ATOM     27  H   UNL A   1      30.562  26.901  28.193  1.00  0.00     0.293 HD
ENDBRANCH  23  26
ENDBRANCH  16  18
BRANCH  17  28
ATOM     28  C   UNL A   1      32.813  21.002  23.772  1.00  0.00    -0.021 A 
ATOM     29  C   UNL A   1      32.422  19.726  23.334  1.00  0.00     0.012 A 
ATOM     30  C   UNL A   1      33.206  21.164  25.110  1.00  0.00     0.058 A 
ATOM     31  C   UNL A   1      32.395  18.633  24.218  1.00  0.00     0.051 A 
ATOM     32  C   UNL A   1      33.165  20.078  25.983  1.00  0.00     0.157 A 
ATOM     33  C   UNL A   1      32.764  18.820  25.544  1.00  0.00     0.157 A 
BRANCH  32  34
ATOM     34  O   UNL A   1      33.509  20.262  27.292  1.00  0.00    -0.504 OA
ATOM     35  H   UNL A   1      34.380  20.073  27.579  1.00  0.00     0.293 HD
ENDBRANCH  32  34
BRANCH  33  36
ATOM     36  O   UNL A   1      32.747  17.801  26.456  1.00  0.00    -0.504 OA
ATOM     37  H   UNL A   1      31.939  17.373  26.666  1.00  0.00     0.293 HD
ENDBRANCH  33  36
ENDBRANCH  17  28
ENDBRANCH   9  11
ENDBRANCH   8   9
ENDBRANCH   7   8
ENDBRANCH   6   7
ENDBRANCH   5   6
ENDBRANCH   4   5
ENDBRANCH   3   4
ENDBRANCH   2   3
ENDBRANCH   1   2
BRANCH   1  38
ATOM     38  C   UNL A   1      44.476  20.472  24.579  1.00  0.00     0.188 C 
BRANCH  38  39
ATOM     39  O   UNL A   1      44.381  21.887  24.481  1.00  0.00    -0.376 OA
BRANCH  39  40
ATOM     40  C   UNL A   1      43.852  22.619  25.571  1.00  0.00     0.202 C 
BRANCH  40  41
ATOM     41  C   UNL A   1      44.167  24.121  25.596  1.00  0.00     0.261 C 
BRANCH  41  42
ATOM     42  O   UNL A   1      43.152  24.966  25.042  1.00  0.00    -0.460 OA
BRANCH  42  43
ATOM     43  C   UNL A   1      42.135  25.299  25.871  1.00  0.00     0.338 C 
ATOM     44  O   UNL A   1      41.233  24.576  26.249  1.00  0.00    -0.246 OA
BRANCH  43  45
ATOM     45  C   UNL A   1      42.435  26.640  26.407  1.00  0.00     0.060 A 
ATOM     46  C   UNL A   1      43.349  26.764  27.462  1.00  0.00     0.016 A 
ATOM     47  C   UNL A   1      41.849  27.769  25.831  1.00  0.00     0.016 A 
ATOM     48  C   UNL A   1      43.678  28.024  27.953  1.00  0.00     0.010 A 
ATOM     49  C   UNL A   1      42.148  29.028  26.351  1.00  0.00     0.010 A 
ATOM     50  C   UNL A   1      43.042  29.156  27.429  1.00  0.00    -0.014 A 
BRANCH  50  51
ATOM     51  C   UNL A   1      43.110  30.440  28.160  1.00  0.00     0.031 A 
ATOM     52  C   UNL A   1      44.255  31.358  27.840  1.00  0.00     0.074 A 
ATOM     53  C   UNL A   1      42.191  30.778  29.080  1.00  0.00     0.049 A 
ATOM     54  N   UNL A   1      44.621  32.467  28.422  1.00  0.00    -0.248 NA
ATOM     55  C   UNL A   1      45.109  30.957  26.709  1.00  0.00     0.031 C 
ATOM     56  C   UNL A   1      41.003  29.996  29.416  1.00  0.00     0.029 A 
ATOM     57  N   UNL A   1      42.127  31.866  29.914  1.00  0.00    -0.354 N 
ATOM     58  C   UNL A   1      45.756  32.891  27.740  1.00  0.00     0.074 A 
ATOM     59  C   UNL A   1      46.034  31.902  26.722  1.00  0.00     0.031 C 
ATOM     60  C   UNL A   1      40.338  30.622  30.404  1.00  0.00     0.029 A 
ATOM     61  C   UNL A   1      41.080  31.816  30.804  1.00  0.00     0.049 A 
ATOM     62  H   UNL A   1      42.770  32.611  29.879  1.00  0.00     0.167 HD
ATOM     63  C   UNL A   1      46.495  34.007  27.948  1.00  0.00     0.034 A 
ATOM     64  C   UNL A   1      40.787  32.622  31.845  1.00  0.00     0.034 A 
ATOM     65  C   UNL A   1      46.205  34.967  28.981  1.00  0.00     0.049 A 
ATOM     66  C   UNL A   1      41.691  33.801  32.133  1.00  0.00     0.074 A 
ATOM     67  C   UNL A   1      46.880  36.136  29.282  1.00  0.00     0.029 A 
ATOM     68  N   UNL A   1      45.164  34.861  29.894  1.00  0.00    -0.354 N 
ATOM     69  N   UNL A   1      42.769  34.192  31.490  1.00  0.00    -0.248 NA
ATOM     70  C   UNL A   1      41.341  34.646  33.283  1.00  0.00     0.031 C 
ATOM     71  C   UNL A   1      46.303  36.688  30.428  1.00  0.00     0.029 A 
ATOM     72  C   UNL A   1      45.204  35.921  30.784  1.00  0.00     0.049 A 
ATOM     73  H   UNL A   1      44.496  34.138  29.907  1.00  0.00     0.167 HD
ATOM     74  C   UNL A   1      43.198  35.351  32.135  1.00  0.00     0.074 A 
ATOM     75  C   UNL A   1      42.264  35.595  33.213  1.00  0.00     0.031 C 
ATOM     76  C   UNL A   1      44.261  36.148  31.854  1.00  0.00     0.034 A 
BRANCH  63  77
ATOM     77  C   UNL A   1      47.716  34.201  27.084  1.00  0.00     0.023 A 
ATOM     78  C   UNL A   1      48.974  33.693  27.449  1.00  0.00     0.031 A 
ATOM     79  C   UNL A   1      47.624  34.938  25.890  1.00  0.00     0.131 A 
ATOM     80  C   UNL A   1      50.101  33.991  26.668  1.00  0.00     0.055 A 
ATOM     81  C   UNL A   1      48.733  35.154  25.071  1.00  0.00     0.041 A 
ATOM     82  F   UNL A   1      46.455  35.475  25.506  1.00  0.00    -0.206 F 
ATOM     83  C   UNL A   1      49.985  34.692  25.466  1.00  0.00     0.022 A 
BRANCH  80  84
ATOM     84  S   UNL A   1      51.741  33.585  27.327  1.00  0.00     0.124 S 
ATOM     85  O   UNL A   1      52.242  32.655  26.318  1.00  0.00    -0.237 OA
ATOM     86  O   UNL A   1      52.394  34.888  27.375  1.00  0.00    -0.237 OA
ATOM     87  O   UNL A   1      51.449  32.984  28.627  1.00  0.00    -0.744 OA
ENDBRANCH  80  84
ENDBRANCH  63  77
BRANCH  64  88
ATOM     88  C   UNL A   1      39.624  32.323  32.732  1.00  0.00     0.023 A 
ATOM     89  C   UNL A   1      38.386  32.956  32.542  1.00  0.00     0.031 A 
ATOM     90  C   UNL A   1      39.751  31.443  33.822  1.00  0.00     0.131 A 
ATOM     91  C   UNL A   1      37.341  32.740  33.456  1.00  0.00     0.055 A 
ATOM     92  C   UNL A   1      38.691  31.183  34.691  1.00  0.00     0.041 A 
ATOM     93  F   UNL A   1      40.914  30.815  34.057  1.00  0.00    -0.206 F 
ATOM     94  C   UNL A   1      37.479  31.845  34.519  1.00  0.00     0.022 A 
BRANCH  91  95
ATOM     95  S   UNL A   1      35.830  33.729  33.294  1.00  0.00     0.124 S 
ATOM     96  O   UNL A   1      35.017  33.204  34.385  1.00  0.00    -0.237 OA
ATOM     97  O   UNL A   1      36.338  35.087  33.465  1.00  0.00    -0.237 OA
ATOM     98  O   UNL A   1      35.356  33.407  31.950  1.00  0.00    -0.744 OA
ENDBRANCH  91  95
ENDBRANCH  64  88
BRANCH  76  99
ATOM     99  C   UNL A   1      44.436  37.399  32.683  1.00  0.00     0.023 A 
ATOM    100  C   UNL A   1      43.949  38.648  32.266  1.00  0.00     0.031 A 
ATOM    101  C   UNL A   1      45.076  37.321  33.935  1.00  0.00     0.131 A 
ATOM    102  C   UNL A   1      44.141  39.778  33.077  1.00  0.00     0.055 A 
ATOM    103  C   UNL A   1      45.206  38.434  34.765  1.00  0.00     0.041 A 
ATOM    104  F   UNL A   1      45.564  36.154  34.382  1.00  0.00    -0.206 F 
ATOM    105  C   UNL A   1      44.746  39.675  34.334  1.00  0.00     0.022 A 
BRANCH 102 106
ATOM    106  S   UNL A   1      43.653  41.404  32.439  1.00  0.00     0.124 S 
ATOM    107  O   UNL A   1      44.133  41.345  31.062  1.00  0.00    -0.237 OA
ATOM    108  O   UNL A   1      42.205  41.387  32.611  1.00  0.00    -0.237 OA
ATOM    109  O   UNL A   1      44.368  42.340  33.305  1.00  0.00    -0.744 OA
ENDBRANCH 102 106
ENDBRANCH  76  99
ENDBRANCH  50  51
ENDBRANCH  43  45
ENDBRANCH  42  43
ENDBRANCH  41  42
ENDBRANCH  40  41
ENDBRANCH  39  40
ENDBRANCH  38  39
ENDBRANCH   1  38
TORSDOF 29
ENDMDL
MODEL 3
REMARK VINA RESULT:      -9.9      3.643      4.302
REMARK SMILES O=C1O[C@@H](c2ccc(O)c(O)c2)[C@H](C(=O)OCCOCCOCCOCCOC(=O)c2ccc(-c3c4nc(c(-c5cc(S(=O)(=O)[O-])ccc5F)c5ccc([nH]5)c(-c5cc(S(=O)(=O)[O-])ccc5F)c5nc(c(-c6cc(S(=O)(=O)[O-])ccc6F)c6ccc3[nH]6)C=C5)C=C4)cc2)/C1=C\c1ccc(O)c(O)c1
REMARK SMILES IDX 23 1 22 2 21 3 20 4 19 5 18 6 17 7 16 8 14 9 15 10 13 11
REMARK SMILES IDX 1 12 2 13 3 14 94 15 4 16 95 17 5 18 6 19 12 20 7 21 10 22
REMARK SMILES IDX 8 23 11 24 9 26 96 28 97 29 103 30 98 31 101 32 99 33 102 34
REMARK SMILES IDX 100 36 24 38 25 39 26 40 27 41 28 42 29 43 30 44 31 45 32 46
REMARK SMILES IDX 93 47 33 48 92 49 34 50 35 51 36 52 86 53 37 54 91 55 85 56
REMARK SMILES IDX 87 57 38 58 90 59 84 60 83 61 39 63 71 64 51 65 70 66 52 67
REMARK SMILES IDX 55 68 69 69 88 70 53 71 54 72 68 74 89 75 56 76 40 77 41 78
REMARK SMILES IDX 49 79 42 80 48 81 50 82 47 83 43 84 44 85 45 86 46 87 72 88
REMARK SMILES IDX 73 89 81 90 74 91 80 92 82 93 79 94 75 95 76 96 77 97 78 98
REMARK SMILES IDX 57 99 58 100 66 101 59 102 65 103 67 104 64 105 60 106
REMARK SMILES IDX 61 107 62 108 63 109
REMARK H PARENT 11 25 9 27 102 35 100 37 87 62 55 73
REMARK Flexibility Score: inf
ROOT
ATOM      1  C   UNL A   1      34.936  31.718  27.602  1.00  0.00     0.188 C 
ENDROOT
BRANCH   1   2
ATOM      2  O   UNL A   1      35.119  30.482  28.297  1.00  0.00    -0.377 OA
BRANCH   2   3
ATOM      3  C   UNL A   1      34.772  29.295  27.616  1.00  0.00     0.188 C 
BRANCH   3   4
ATOM      4  C   UNL A   1      33.641  29.443  26.579  1.00  0.00     0.188 C 
BRANCH   4   5
ATOM      5  O   UNL A   1      33.547  28.339  25.698  1.00  0.00    -0.376 OA
BRANCH   5   6
ATOM      6  C   UNL A   1      33.327  27.033  26.190  1.00  0.00     0.202 C 
BRANCH   6   7
ATOM      7  C   UNL A   1      34.073  25.818  25.612  1.00  0.00     0.261 C 
BRANCH   7   8
ATOM      8  O   UNL A   1      33.260  24.806  25.006  1.00  0.00    -0.463 OA
BRANCH   8   9
ATOM      9  C   UNL A   1      33.008  23.684  25.729  1.00  0.00     0.317 C 
ATOM     10  O   UNL A   1      32.389  23.653  26.781  1.00  0.00    -0.251 OA
BRANCH   9  11
ATOM     11  C   UNL A   1      33.568  22.485  24.976  1.00  0.00     0.182 C 
ATOM     12  O   UNL A   1      33.827  23.604  21.638  1.00  0.00    -0.247 OA
ATOM     13  C   UNL A   1      33.549  23.058  22.695  1.00  0.00     0.335 C 
ATOM     14  O   UNL A   1      32.363  22.455  22.985  1.00  0.00    -0.453 OA
ATOM     15  C   UNL A   1      34.450  22.899  23.857  1.00  0.00     0.056 C 
ATOM     16  C   UNL A   1      32.420  21.802  24.268  1.00  0.00     0.226 C 
ATOM     17  C   UNL A   1      35.780  23.056  23.719  1.00  0.00     0.020 C 
BRANCH  16  18
ATOM     18  C   UNL A   1      32.585  20.289  24.139  1.00  0.00    -0.002 A 
ATOM     19  C   UNL A   1      33.131  19.528  25.198  1.00  0.00     0.012 A 
ATOM     20  C   UNL A   1      32.141  19.611  22.994  1.00  0.00     0.057 A 
ATOM     21  C   UNL A   1      33.259  18.136  25.102  1.00  0.00     0.050 A 
ATOM     22  C   UNL A   1      32.264  18.231  22.911  1.00  0.00     0.157 A 
ATOM     23  C   UNL A   1      32.820  17.495  23.953  1.00  0.00     0.157 A 
BRANCH  22  24
ATOM     24  O   UNL A   1      31.815  17.592  21.790  1.00  0.00    -0.504 OA
ATOM     25  H   UNL A   1      30.910  17.639  21.554  1.00  0.00     0.293 HD
ENDBRANCH  22  24
BRANCH  23  26
ATOM     26  O   UNL A   1      32.896  16.138  23.802  1.00  0.00    -0.504 OA
ATOM     27  H   UNL A   1      32.114  15.635  23.689  1.00  0.00     0.293 HD
ENDBRANCH  23  26
ENDBRANCH  16  18
BRANCH  17  28
ATOM     28  C   UNL A   1      36.854  22.831  24.701  1.00  0.00    -0.021 A 
ATOM     29  C   UNL A   1      37.509  21.592  24.799  1.00  0.00     0.012 A 
ATOM     30  C   UNL A   1      37.316  23.901  25.483  1.00  0.00     0.058 A 
ATOM     31  C   UNL A   1      38.589  21.411  25.681  1.00  0.00     0.051 A 
ATOM     32  C   UNL A   1      38.380  23.710  26.363  1.00  0.00     0.157 A 
ATOM     33  C   UNL A   1      39.015  22.476  26.464  1.00  0.00     0.157 A 
BRANCH  32  34
ATOM     34  O   UNL A   1      38.790  24.750  27.149  1.00  0.00    -0.504 OA
ATOM     35  H   UNL A   1      38.930  25.596  26.772  1.00  0.00     0.293 HD
ENDBRANCH  32  34
BRANCH  33  36
ATOM     36  O   UNL A   1      40.051  22.361  27.349  1.00  0.00    -0.504 OA
ATOM     37  H   UNL A   1      40.581  21.587  27.354  1.00  0.00     0.293 HD
ENDBRANCH  33  36
ENDBRANCH  17  28
ENDBRANCH   9  11
ENDBRANCH   8   9
ENDBRANCH   7   8
ENDBRANCH   6   7
ENDBRANCH   5   6
ENDBRANCH   4   5
ENDBRANCH   3   4
ENDBRANCH   2   3
ENDBRANCH   1   2
BRANCH   1  38
ATOM     38  C   UNL A   1      35.169  33.108  28.265  1.00  0.00     0.188 C 
BRANCH  38  39
ATOM     39  O   UNL A   1      34.819  34.244  27.487  1.00  0.00    -0.376 OA
BRANCH  39  40
ATOM     40  C   UNL A   1      34.448  35.441  28.145  1.00  0.00     0.202 C 
BRANCH  40  41
ATOM     41  C   UNL A   1      33.067  35.450  28.813  1.00  0.00     0.261 C 
BRANCH  41  42
ATOM     42  O   UNL A   1      32.895  36.423  29.849  1.00  0.00    -0.460 OA
BRANCH  42  43
ATOM     43  C   UNL A   1      32.482  35.952  31.049  1.00  0.00     0.338 C 
ATOM     44  O   UNL A   1      31.333  35.789  31.415  1.00  0.00    -0.246 OA
BRANCH  43  45
ATOM     45  C   UNL A   1      33.680  35.465  31.758  1.00  0.00     0.060 A 
ATOM     46  C   UNL A   1      34.330  36.316  32.662  1.00  0.00     0.016 A 
ATOM     47  C   UNL A   1      34.121  34.155  31.564  1.00  0.00     0.016 A 
ATOM     48  C   UNL A   1      35.437  35.860  33.373  1.00  0.00     0.010 A 
ATOM     49  C   UNL A   1      35.253  33.712  32.246  1.00  0.00     0.010 A 
ATOM     50  C   UNL A   1      35.929  34.571  33.131  1.00  0.00    -0.014 A 
BRANCH  50  51
ATOM     51  C   UNL A   1      37.282  34.203  33.602  1.00  0.00     0.031 A 
ATOM     52  C   UNL A   1      37.445  33.894  35.063  1.00  0.00     0.074 A 
ATOM     53  C   UNL A   1      38.330  34.148  32.764  1.00  0.00     0.049 A 
ATOM     54  N   UNL A   1      38.532  33.679  35.752  1.00  0.00    -0.248 NA
ATOM     55  C   UNL A   1      36.205  33.833  35.854  1.00  0.00     0.031 C 
ATOM     56  C   UNL A   1      38.270  34.357  31.319  1.00  0.00     0.029 A 
ATOM     57  N   UNL A   1      39.658  33.915  33.017  1.00  0.00    -0.354 N 
ATOM     58  C   UNL A   1      38.111  33.470  37.061  1.00  0.00     0.074 A 
ATOM     59  C   UNL A   1      36.672  33.617  37.072  1.00  0.00     0.031 C 
ATOM     60  C   UNL A   1      39.514  34.264  30.815  1.00  0.00     0.029 A 
ATOM     61  C   UNL A   1      40.461  34.042  31.907  1.00  0.00     0.049 A 
ATOM     62  H   UNL A   1      40.005  33.679  33.908  1.00  0.00     0.167 HD
ATOM     63  C   UNL A   1      38.861  33.180  38.150  1.00  0.00     0.034 A 
ATOM     64  C   UNL A   1      41.805  34.024  31.801  1.00  0.00     0.034 A 
ATOM     65  C   UNL A   1      40.295  33.056  38.113  1.00  0.00     0.049 A 
ATOM     66  C   UNL A   1      42.633  33.813  33.050  1.00  0.00     0.074 A 
ATOM     67  C   UNL A   1      41.160  32.761  39.152  1.00  0.00     0.029 A 
ATOM     68  N   UNL A   1      41.079  33.238  36.981  1.00  0.00    -0.354 N 
ATOM     69  N   UNL A   1      42.230  33.625  34.287  1.00  0.00    -0.248 NA
ATOM     70  C   UNL A   1      44.094  33.811  32.891  1.00  0.00     0.031 C 
ATOM     71  C   UNL A   1      42.467  32.852  38.668  1.00  0.00     0.029 A 
ATOM     72  C   UNL A   1      42.418  33.102  37.305  1.00  0.00     0.049 A 
ATOM     73  H   UNL A   1      40.734  33.434  36.081  1.00  0.00     0.167 HD
ATOM     74  C   UNL A   1      43.386  33.442  35.042  1.00  0.00     0.074 A 
ATOM     75  C   UNL A   1      44.501  33.540  34.124  1.00  0.00     0.031 C 
ATOM     76  C   UNL A   1      43.517  33.202  36.373  1.00  0.00     0.034 A 
BRANCH  63  77
ATOM     77  C   UNL A   1      38.144  33.048  39.471  1.00  0.00     0.023 A 
ATOM     78  C   UNL A   1      38.250  34.025  40.475  1.00  0.00     0.031 A 
ATOM     79  C   UNL A   1      37.370  31.907  39.741  1.00  0.00     0.131 A 
ATOM     80  C   UNL A   1      37.653  33.808  41.726  1.00  0.00     0.055 A 
ATOM     81  C   UNL A   1      36.704  31.739  40.956  1.00  0.00     0.041 A 
ATOM     82  F   UNL A   1      37.259  30.924  38.832  1.00  0.00    -0.206 F 
ATOM     83  C   UNL A   1      36.856  32.686  41.964  1.00  0.00     0.022 A 
BRANCH  80  84
ATOM     84  S   UNL A   1      38.063  34.935  43.087  1.00  0.00     0.124 S 
ATOM     85  O   UNL A   1      38.572  36.097  42.363  1.00  0.00    -0.237 OA
ATOM     86  O   UNL A   1      36.776  35.109  43.751  1.00  0.00    -0.237 OA
ATOM     87  O   UNL A   1      39.067  34.198  43.851  1.00  0.00    -0.744 OA
ENDBRANCH  80  84
ENDBRANCH  63  77
BRANCH  64  88
ATOM     88  C   UNL A   1      42.466  34.263  30.484  1.00  0.00     0.023 A 
ATOM     89  C   UNL A   1      42.680  35.565  30.006  1.00  0.00     0.031 A 
ATOM     90  C   UNL A   1      42.836  33.190  29.654  1.00  0.00     0.131 A 
ATOM     91  C   UNL A   1      43.202  35.762  28.717  1.00  0.00     0.055 A 
ATOM     92  C   UNL A   1      43.413  33.390  28.398  1.00  0.00     0.041 A 
ATOM     93  F   UNL A   1      42.647  31.923  30.055  1.00  0.00    -0.206 F 
ATOM     94  C   UNL A   1      43.586  34.683  27.917  1.00  0.00     0.022 A 
BRANCH  91  95
ATOM     95  S   UNL A   1      43.274  37.450  28.060  1.00  0.00     0.124 S 
ATOM     96  O   UNL A   1      43.555  38.223  29.264  1.00  0.00    -0.237 OA
ATOM     97  O   UNL A   1      44.362  37.350  27.091  1.00  0.00    -0.237 OA
ATOM     98  O   UNL A   1      41.946  37.648  27.485  1.00  0.00    -0.744 OA
ENDBRANCH  91  95
ENDBRANCH  64  88
BRANCH  76  99
ATOM     99  C   UNL A   1      44.909  32.962  36.908  1.00  0.00     0.023 A 
ATOM    100  C   UNL A   1      45.717  34.005  37.390  1.00  0.00     0.031 A 
ATOM    101  C   UNL A   1      45.416  31.650  36.966  1.00  0.00     0.131 A 
ATOM    102  C   UNL A   1      47.003  33.723  37.875  1.00  0.00     0.055 A 
ATOM    103  C   UNL A   1      46.670  31.369  37.509  1.00  0.00     0.041 A 
ATOM    104  F   UNL A   1      44.690  30.615  36.516  1.00  0.00    -0.206 F 
ATOM    105  C   UNL A   1      47.476  32.410  37.959  1.00  0.00     0.022 A 
BRANCH 102 106
ATOM    106  S   UNL A   1      48.086  35.106  38.331  1.00  0.00     0.124 S 
ATOM    107  O   UNL A   1      47.550  36.191  37.517  1.00  0.00    -0.237 OA
ATOM    108  O   UNL A   1      47.863  35.217  39.769  1.00  0.00    -0.237 OA
ATOM    109  O   UNL A   1      49.417  34.639  37.945  1.00  0.00    -0.744 OA
ENDBRANCH 102 106
ENDBRANCH  76  99
ENDBRANCH  50  51
ENDBRANCH  43  45
ENDBRANCH  42  43
ENDBRANCH  41  42
ENDBRANCH  40  41
ENDBRANCH  39  40
ENDBRANCH  38  39
ENDBRANCH   1  38
TORSDOF 29
ENDMDL
