MODEL 1
REMARK VINA RESULT:     -10.3      0.000      0.000
REMARK SMILES O=C(OCCOCCOCCOCCOC(=O)c1cccnc1Nc1cccc(C(F)(F)F)c1)c1ccc(-c2c3nc(c(-c4cc(S(=O)(=O)[O-])ccc4F)c4ccc([nH]4)c(-c4cc(S(=O)(=O)[O-])ccc4F)c4nc(c(-c5cc(S(=O)(=O)[O-])ccc5F)c5ccc2[nH]5)C=C4)C=C3)cc1
REMARK SMILES IDX 9 1 8 2 7 3 6 4 5 5 4 6 3 7 2 8 1 9 35 10 36 11 97 12 37 13
REMARK SMILES IDX 96 14 38 15 39 16 40 17 90 18 41 19 95 20 89 21 91 22 42 23
REMARK SMILES IDX 94 24 88 25 87 26 43 28 75 29 55 30 74 31 56 32 59 33 73 34
REMARK SMILES IDX 92 35 57 36 58 37 72 39 93 40 60 41 44 42 45 43 53 44 46 45
REMARK SMILES IDX 52 46 54 47 51 48 47 49 48 50 49 51 50 52 76 53 77 54 85 55
REMARK SMILES IDX 78 56 84 57 86 58 83 59 79 60 80 61 81 62 82 63 61 64 62 65
REMARK SMILES IDX 70 66 63 67 69 68 71 69 68 70 64 71 65 72 66 73 67 74 10 75
REMARK SMILES IDX 11 76 12 77 13 78 14 79 15 80 16 81 17 82 18 83 19 84 23 85
REMARK SMILES IDX 20 86 22 87 21 88 24 89 25 91 26 92 34 93 27 94 29 95 28 96
REMARK SMILES IDX 30 97 31 98 32 99 33 100
REMARK H PARENT 91 27 59 38 24 90
REMARK Flexibility Score: inf
ROOT
ATOM      1  O   UNL A   1      34.757  20.953  24.610  1.00  0.00    -0.377 OA
ENDROOT
BRANCH   1   2
ATOM      2  C   UNL A   1      35.734  21.086  25.636  1.00  0.00     0.188 C 
BRANCH   2   3
ATOM      3  C   UNL A   1      36.867  22.060  25.321  1.00  0.00     0.188 C 
BRANCH   3   4
ATOM      4  O   UNL A   1      38.088  21.370  25.080  1.00  0.00    -0.376 OA
BRANCH   4   5
ATOM      5  C   UNL A   1      38.009  19.954  24.920  1.00  0.00     0.202 C 
BRANCH   5   6
ATOM      6  C   UNL A   1      39.230  19.185  25.414  1.00  0.00     0.261 C 
BRANCH   6   7
ATOM      7  O   UNL A   1      39.690  19.647  26.688  1.00  0.00    -0.460 OA
BRANCH   7   8
ATOM      8  C   UNL A   1      40.868  20.256  26.970  1.00  0.00     0.338 C 
ATOM      9  O   UNL A   1      41.884  19.560  26.985  1.00  0.00    -0.246 OA
BRANCH   8  10
ATOM     10  C   UNL A   1      41.025  21.717  27.271  1.00  0.00     0.060 A 
ATOM     11  C   UNL A   1      40.370  22.769  26.626  1.00  0.00     0.016 A 
ATOM     12  C   UNL A   1      41.860  22.039  28.353  1.00  0.00     0.016 A 
ATOM     13  C   UNL A   1      40.550  24.088  27.000  1.00  0.00     0.010 A 
ATOM     14  C   UNL A   1      42.058  23.367  28.740  1.00  0.00     0.010 A 
ATOM     15  C   UNL A   1      41.418  24.393  28.036  1.00  0.00    -0.014 A 
BRANCH  15  16
ATOM     16  C   UNL A   1      41.834  25.796  28.160  1.00  0.00     0.031 A 
ATOM     17  C   UNL A   1      43.138  26.168  27.528  1.00  0.00     0.074 A 
ATOM     18  C   UNL A   1      40.983  26.712  28.651  1.00  0.00     0.049 A 
ATOM     19  N   UNL A   1      43.802  27.286  27.581  1.00  0.00    -0.248 NA
ATOM     20  C   UNL A   1      43.781  25.122  26.710  1.00  0.00     0.031 C 
ATOM     21  C   UNL A   1      39.610  26.440  29.089  1.00  0.00     0.029 A 
ATOM     22  N   UNL A   1      41.133  28.058  28.835  1.00  0.00    -0.354 N 
ATOM     23  C   UNL A   1      44.961  27.064  26.847  1.00  0.00     0.074 A 
ATOM     24  C   UNL A   1      44.914  25.706  26.362  1.00  0.00     0.031 C 
ATOM     25  C   UNL A   1      39.045  27.591  29.490  1.00  0.00     0.029 A 
ATOM     26  C   UNL A   1      40.043  28.652  29.426  1.00  0.00     0.049 A 
ATOM     27  H   UNL A   1      41.942  28.552  28.571  1.00  0.00     0.167 HD
ATOM     28  C   UNL A   1      45.976  27.932  26.624  1.00  0.00     0.034 A 
ATOM     29  C   UNL A   1      39.912  29.899  29.915  1.00  0.00     0.034 A 
ATOM     30  C   UNL A   1      45.958  29.272  27.151  1.00  0.00     0.049 A 
ATOM     31  C   UNL A   1      41.111  30.808  29.788  1.00  0.00     0.074 A 
ATOM     32  C   UNL A   1      46.940  30.240  27.105  1.00  0.00     0.029 A 
ATOM     33  N   UNL A   1      44.877  29.825  27.837  1.00  0.00    -0.354 N 
ATOM     34  N   UNL A   1      42.270  30.568  29.211  1.00  0.00    -0.248 NA
ATOM     35  C   UNL A   1      40.998  32.141  30.384  1.00  0.00     0.031 C 
ATOM     36  C   UNL A   1      46.481  31.349  27.826  1.00  0.00     0.029 A 
ATOM     37  C   UNL A   1      45.177  31.111  28.243  1.00  0.00     0.049 A 
ATOM     38  H   UNL A   1      44.023  29.366  28.007  1.00  0.00     0.167 HD
ATOM     39  C   UNL A   1      43.016  31.731  29.352  1.00  0.00     0.074 A 
ATOM     40  C   UNL A   1      42.166  32.675  30.056  1.00  0.00     0.031 C 
ATOM     41  C   UNL A   1      44.284  32.007  28.945  1.00  0.00     0.034 A 
BRANCH  28  42
ATOM     42  C   UNL A   1      47.190  27.389  25.912  1.00  0.00     0.023 A 
ATOM     43  C   UNL A   1      48.245  26.759  26.600  1.00  0.00     0.031 A 
ATOM     44  C   UNL A   1      47.357  27.629  24.536  1.00  0.00     0.131 A 
ATOM     45  C   UNL A   1      49.452  26.488  25.934  1.00  0.00     0.055 A 
ATOM     46  C   UNL A   1      48.525  27.270  23.860  1.00  0.00     0.041 A 
ATOM     47  F   UNL A   1      46.405  28.261  23.833  1.00  0.00    -0.206 F 
ATOM     48  C   UNL A   1      49.590  26.714  24.563  1.00  0.00     0.022 A 
BRANCH  45  49
ATOM     49  S   UNL A   1      50.902  26.016  26.921  1.00  0.00     0.124 S 
ATOM     50  O   UNL A   1      50.971  27.114  27.884  1.00  0.00    -0.237 OA
ATOM     51  O   UNL A   1      50.511  24.720  27.461  1.00  0.00    -0.237 OA
ATOM     52  O   UNL A   1      51.988  25.985  25.944  1.00  0.00    -0.744 OA
ENDBRANCH  45  49
ENDBRANCH  28  42
BRANCH  29  53
ATOM     53  C   UNL A   1      38.673  30.316  30.635  1.00  0.00     0.023 A 
ATOM     54  C   UNL A   1      37.626  30.976  29.973  1.00  0.00     0.031 A 
ATOM     55  C   UNL A   1      38.534  30.096  32.020  1.00  0.00     0.131 A 
ATOM     56  C   UNL A   1      36.509  31.424  30.700  1.00  0.00     0.055 A 
ATOM     57  C   UNL A   1      37.396  30.491  32.726  1.00  0.00     0.041 A 
ATOM     58  F   UNL A   1      39.504  29.480  32.713  1.00  0.00    -0.206 F 
ATOM     59  C   UNL A   1      36.380  31.173  32.067  1.00  0.00     0.022 A 
BRANCH  56  60
ATOM     60  S   UNL A   1      35.262  32.429  29.847  1.00  0.00     0.124 S 
ATOM     61  O   UNL A   1      36.074  33.514  29.306  1.00  0.00    -0.237 OA
ATOM     62  O   UNL A   1      34.724  31.483  28.875  1.00  0.00    -0.237 OA
ATOM     63  O   UNL A   1      34.343  32.812  30.915  1.00  0.00    -0.744 OA
ENDBRANCH  56  60
ENDBRANCH  29  53
BRANCH  41  64
ATOM     64  C   UNL A   1      44.783  33.402  29.204  1.00  0.00     0.023 A 
ATOM     65  C   UNL A   1      44.403  34.485  28.396  1.00  0.00     0.031 A 
ATOM     66  C   UNL A   1      45.644  33.645  30.290  1.00  0.00     0.131 A 
ATOM     67  C   UNL A   1      44.931  35.757  28.652  1.00  0.00     0.055 A 
ATOM     68  C   UNL A   1      46.106  34.926  30.583  1.00  0.00     0.041 A 
ATOM     69  F   UNL A   1      46.037  32.640  31.090  1.00  0.00    -0.206 F 
ATOM     70  C   UNL A   1      45.760  35.989  29.753  1.00  0.00     0.022 A 
BRANCH  67  71
ATOM     71  S   UNL A   1      44.597  37.085  27.466  1.00  0.00     0.124 S 
ATOM     72  O   UNL A   1      45.877  37.198  26.772  1.00  0.00    -0.237 OA
ATOM     73  O   UNL A   1      43.494  36.537  26.683  1.00  0.00    -0.237 OA
ATOM     74  O   UNL A   1      44.250  38.223  28.315  1.00  0.00    -0.744 OA
ENDBRANCH  67  71
ENDBRANCH  41  64
ENDBRANCH  15  16
ENDBRANCH   8  10
ENDBRANCH   7   8
ENDBRANCH   6   7
ENDBRANCH   5   6
ENDBRANCH   4   5
ENDBRANCH   3   4
ENDBRANCH   2   3
ENDBRANCH   1   2
BRANCH   1  75
ATOM     75  C   UNL A   1      33.673  20.068  24.878  1.00  0.00     0.188 C 
BRANCH  75  76
ATOM     76  C   UNL A   1      32.225  20.580  24.692  1.00  0.00     0.188 C 
BRANCH  76  77
ATOM     77  O   UNL A   1      32.066  21.965  24.946  1.00  0.00    -0.376 OA
BRANCH  77  78
ATOM     78  C   UNL A   1      31.740  22.297  26.289  1.00  0.00     0.202 C 
BRANCH  78  79
ATOM     79  C   UNL A   1      31.844  23.789  26.630  1.00  0.00     0.261 C 
BRANCH  79  80
ATOM     80  O   UNL A   1      32.099  24.719  25.551  1.00  0.00    -0.460 OA
BRANCH  80  81
ATOM     81  C   UNL A   1      31.251  25.734  25.262  1.00  0.00     0.341 C 
ATOM     82  O   UNL A   1      30.057  25.659  25.033  1.00  0.00    -0.246 OA
BRANCH  81  83
ATOM     83  C   UNL A   1      31.993  27.010  25.417  1.00  0.00     0.102 A 
ATOM     84  C   UNL A   1      32.655  27.244  26.631  1.00  0.00     0.021 A 
ATOM     85  C   UNL A   1      31.976  28.023  24.437  1.00  0.00     0.144 A 
ATOM     86  C   UNL A   1      33.306  28.452  26.838  1.00  0.00     0.021 A 
ATOM     87  N   UNL A   1      32.634  29.194  24.648  1.00  0.00    -0.238 NA
ATOM     88  C   UNL A   1      33.279  29.381  25.818  1.00  0.00     0.113 A 
BRANCH  85  89
ATOM     89  N   UNL A   1      31.135  27.958  23.303  1.00  0.00    -0.340 N 
ATOM     90  H   UNL A   1      31.448  27.412  22.545  1.00  0.00     0.168 HD
BRANCH  89  91
ATOM     91  C   UNL A   1      29.889  28.604  23.158  1.00  0.00     0.040 A 
ATOM     92  C   UNL A   1      28.684  27.929  23.388  1.00  0.00     0.026 A 
ATOM     93  C   UNL A   1      29.836  29.909  22.661  1.00  0.00     0.039 A 
ATOM     94  C   UNL A   1      27.454  28.542  23.122  1.00  0.00     0.003 A 
ATOM     95  C   UNL A   1      28.610  30.540  22.391  1.00  0.00     0.058 A 
ATOM     96  C   UNL A   1      27.416  29.840  22.617  1.00  0.00     0.013 A 
BRANCH  95  97
ATOM     97  C   UNL A   1      28.578  31.946  21.851  1.00  0.00     0.416 C 
ATOM     98  F   UNL A   1      29.637  32.694  22.267  1.00  0.00    -0.166 F 
ATOM     99  F   UNL A   1      28.608  31.984  20.489  1.00  0.00    -0.166 F 
ATOM    100  F   UNL A   1      27.465  32.645  22.212  1.00  0.00    -0.166 F 
ENDBRANCH  95  97
ENDBRANCH  89  91
ENDBRANCH  85  89
ENDBRANCH  81  83
ENDBRANCH  80  81
ENDBRANCH  79  80
ENDBRANCH  78  79
ENDBRANCH  77  78
ENDBRANCH  76  77
ENDBRANCH  75  76
ENDBRANCH   1  75
TORSDOF 26
ENDMDL
MODEL 2
REMARK VINA RESULT:     -10.0      2.600      8.038
REMARK SMILES O=C(OCCOCCOCCOCCOC(=O)c1cccnc1Nc1cccc(C(F)(F)F)c1)c1ccc(-c2c3nc(c(-c4cc(S(=O)(=O)[O-])ccc4F)c4ccc([nH]4)c(-c4cc(S(=O)(=O)[O-])ccc4F)c4nc(c(-c5cc(S(=O)(=O)[O-])ccc5F)c5ccc2[nH]5)C=C4)C=C3)cc1
REMARK SMILES IDX 9 1 8 2 7 3 6 4 5 5 4 6 3 7 2 8 1 9 35 10 36 11 97 12 37 13
REMARK SMILES IDX 96 14 38 15 39 16 40 17 90 18 41 19 95 20 89 21 91 22 42 23
REMARK SMILES IDX 94 24 88 25 87 26 43 28 75 29 55 30 74 31 56 32 59 33 73 34
REMARK SMILES IDX 92 35 57 36 58 37 72 39 93 40 60 41 44 42 45 43 53 44 46 45
REMARK SMILES IDX 52 46 54 47 51 48 47 49 48 50 49 51 50 52 76 53 77 54 85 55
REMARK SMILES IDX 78 56 84 57 86 58 83 59 79 60 80 61 81 62 82 63 61 64 62 65
REMARK SMILES IDX 70 66 63 67 69 68 71 69 68 70 64 71 65 72 66 73 67 74 10 75
REMARK SMILES IDX 11 76 12 77 13 78 14 79 15 80 16 81 17 82 18 83 19 84 23 85
REMARK SMILES IDX 20 86 22 87 21 88 24 89 25 91 26 92 34 93 27 94 29 95 28 96
REMARK SMILES IDX 30 97 31 98 32 99 33 100
REMARK H PARENT 91 27 59 38 24 90
REMARK Flexibility Score: inf
ROOT
ATOM      1  O   UNL A   1      31.383  22.138  25.097  1.00  0.00    -0.377 OA
ENDROOT
BRANCH   1   2
ATOM      2  C   UNL A   1      32.537  21.383  25.448  1.00  0.00     0.188 C 
BRANCH   2   3
ATOM      3  C   UNL A   1      33.346  20.857  24.265  1.00  0.00     0.188 C 
BRANCH   3   4
ATOM      4  O   UNL A   1      34.711  20.661  24.620  1.00  0.00    -0.376 OA
BRANCH   4   5
ATOM      5  C   UNL A   1      35.573  21.794  24.521  1.00  0.00     0.202 C 
BRANCH   5   6
ATOM      6  C   UNL A   1      37.061  21.463  24.461  1.00  0.00     0.261 C 
BRANCH   6   7
ATOM      7  O   UNL A   1      37.653  21.360  25.760  1.00  0.00    -0.460 OA
BRANCH   7   8
ATOM      8  C   UNL A   1      38.955  21.542  26.091  1.00  0.00     0.338 C 
ATOM      9  O   UNL A   1      39.711  20.574  25.995  1.00  0.00    -0.246 OA
BRANCH   8  10
ATOM     10  C   UNL A   1      39.543  22.835  26.572  1.00  0.00     0.060 A 
ATOM     11  C   UNL A   1      39.125  24.118  26.212  1.00  0.00     0.016 A 
ATOM     12  C   UNL A   1      40.565  22.731  27.531  1.00  0.00     0.016 A 
ATOM     13  C   UNL A   1      39.705  25.258  26.739  1.00  0.00     0.010 A 
ATOM     14  C   UNL A   1      41.167  23.871  28.068  1.00  0.00     0.010 A 
ATOM     15  C   UNL A   1      40.748  25.137  27.644  1.00  0.00    -0.014 A 
BRANCH  15  16
ATOM     16  C   UNL A   1      41.544  26.344  27.900  1.00  0.00     0.031 A 
ATOM     17  C   UNL A   1      40.959  27.346  28.845  1.00  0.00     0.074 A 
ATOM     18  C   UNL A   1      42.806  26.431  27.447  1.00  0.00     0.049 A 
ATOM     19  N   UNL A   1      41.376  28.538  29.159  1.00  0.00    -0.248 NA
ATOM     20  C   UNL A   1      39.726  26.933  29.541  1.00  0.00     0.031 C 
ATOM     21  C   UNL A   1      43.506  25.385  26.695  1.00  0.00     0.029 A 
ATOM     22  N   UNL A   1      43.733  27.426  27.580  1.00  0.00    -0.354 N 
ATOM     23  C   UNL A   1      40.432  29.037  30.050  1.00  0.00     0.074 A 
ATOM     24  C   UNL A   1      39.421  28.023  30.224  1.00  0.00     0.031 C 
ATOM     25  C   UNL A   1      44.757  25.799  26.435  1.00  0.00     0.029 A 
ATOM     26  C   UNL A   1      44.909  27.167  26.917  1.00  0.00     0.049 A 
ATOM     27  H   UNL A   1      43.573  28.247  28.098  1.00  0.00     0.167 HD
ATOM     28  C   UNL A   1      40.423  30.252  30.648  1.00  0.00     0.034 A 
ATOM     29  C   UNL A   1      45.953  27.983  26.681  1.00  0.00     0.034 A 
ATOM     30  C   UNL A   1      41.464  31.219  30.417  1.00  0.00     0.049 A 
ATOM     31  C   UNL A   1      45.856  29.386  27.232  1.00  0.00     0.074 A 
ATOM     32  C   UNL A   1      41.556  32.523  30.860  1.00  0.00     0.029 A 
ATOM     33  N   UNL A   1      42.605  30.969  29.657  1.00  0.00    -0.354 N 
ATOM     34  N   UNL A   1      44.904  29.919  27.969  1.00  0.00    -0.248 NA
ATOM     35  C   UNL A   1      46.957  30.299  26.915  1.00  0.00     0.031 C 
ATOM     36  C   UNL A   1      42.715  33.081  30.306  1.00  0.00     0.029 A 
ATOM     37  C   UNL A   1      43.395  32.101  29.595  1.00  0.00     0.049 A 
ATOM     38  H   UNL A   1      42.818  30.110  29.227  1.00  0.00     0.167 HD
ATOM     39  C   UNL A   1      45.303  31.224  28.226  1.00  0.00     0.074 A 
ATOM     40  C   UNL A   1      46.591  31.389  27.574  1.00  0.00     0.031 C 
ATOM     41  C   UNL A   1      44.675  32.204  28.928  1.00  0.00     0.034 A 
BRANCH  28  42
ATOM     42  C   UNL A   1      39.201  30.599  31.463  1.00  0.00     0.023 A 
ATOM     43  C   UNL A   1      38.150  31.379  30.944  1.00  0.00     0.031 A 
ATOM     44  C   UNL A   1      39.151  30.256  32.826  1.00  0.00     0.131 A 
ATOM     45  C   UNL A   1      37.155  31.874  31.805  1.00  0.00     0.055 A 
ATOM     46  C   UNL A   1      38.108  30.674  33.655  1.00  0.00     0.041 A 
ATOM     47  F   UNL A   1      40.142  29.547  33.388  1.00  0.00    -0.206 F 
ATOM     48  C   UNL A   1      37.112  31.505  33.151  1.00  0.00     0.022 A 
BRANCH  45  49
ATOM     49  S   UNL A   1      36.032  33.160  31.186  1.00  0.00     0.124 S 
ATOM     50  O   UNL A   1      36.864  33.818  30.180  1.00  0.00    -0.237 OA
ATOM     51  O   UNL A   1      34.910  32.383  30.674  1.00  0.00    -0.237 OA
ATOM     52  O   UNL A   1      35.746  33.966  32.370  1.00  0.00    -0.744 OA
ENDBRANCH  45  49
ENDBRANCH  28  42
BRANCH  29  53
ATOM     53  C   UNL A   1      47.095  27.543  25.828  1.00  0.00     0.023 A 
ATOM     54  C   UNL A   1      47.187  27.911  24.476  1.00  0.00     0.031 A 
ATOM     55  C   UNL A   1      48.103  26.704  26.345  1.00  0.00     0.131 A 
ATOM     56  C   UNL A   1      48.235  27.413  23.683  1.00  0.00     0.055 A 
ATOM     57  C   UNL A   1      49.174  26.260  25.568  1.00  0.00     0.041 A 
ATOM     58  F   UNL A   1      48.067  26.307  27.627  1.00  0.00    -0.206 F 
ATOM     59  C   UNL A   1      49.237  26.603  24.223  1.00  0.00     0.022 A 
BRANCH  56  60
ATOM     60  S   UNL A   1      48.221  27.763  21.903  1.00  0.00     0.124 S 
ATOM     61  O   UNL A   1      48.355  26.424  21.336  1.00  0.00    -0.237 OA
ATOM     62  O   UNL A   1      46.922  28.405  21.731  1.00  0.00    -0.237 OA
ATOM     63  O   UNL A   1      49.376  28.637  21.717  1.00  0.00    -0.744 OA
ENDBRANCH  56  60
ENDBRANCH  29  53
BRANCH  41  64
ATOM     64  C   UNL A   1      45.414  33.507  29.069  1.00  0.00     0.023 A 
ATOM     65  C   UNL A   1      45.126  34.612  28.253  1.00  0.00     0.031 A 
ATOM     66  C   UNL A   1      46.414  33.640  30.049  1.00  0.00     0.131 A 
ATOM     67  C   UNL A   1      45.873  35.788  28.394  1.00  0.00     0.055 A 
ATOM     68  C   UNL A   1      47.102  34.837  30.233  1.00  0.00     0.041 A 
ATOM     69  F   UNL A   1      46.726  32.609  30.852  1.00  0.00    -0.206 F 
ATOM     70  C   UNL A   1      46.842  35.916  29.393  1.00  0.00     0.022 A 
BRANCH  67  71
ATOM     71  S   UNL A   1      45.629  37.115  27.185  1.00  0.00     0.124 S 
ATOM     72  O   UNL A   1      46.119  38.281  27.915  1.00  0.00    -0.237 OA
ATOM     73  O   UNL A   1      46.451  36.674  26.064  1.00  0.00    -0.237 OA
ATOM     74  O   UNL A   1      44.187  37.096  26.943  1.00  0.00    -0.744 OA
ENDBRANCH  67  71
ENDBRANCH  41  64
ENDBRANCH  15  16
ENDBRANCH   8  10
ENDBRANCH   7   8
ENDBRANCH   6   7
ENDBRANCH   5   6
ENDBRANCH   4   5
ENDBRANCH   3   4
ENDBRANCH   2   3
ENDBRANCH   1   2
BRANCH   1  75
ATOM     75  C   UNL A   1      30.330  22.170  26.054  1.00  0.00     0.188 C 
BRANCH  75  76
ATOM     76  C   UNL A   1      30.209  23.392  26.994  1.00  0.00     0.188 C 
BRANCH  76  77
ATOM     77  O   UNL A   1      31.063  24.469  26.652  1.00  0.00    -0.376 OA
BRANCH  77  78
ATOM     78  C   UNL A   1      30.634  25.251  25.546  1.00  0.00     0.202 C 
BRANCH  78  79
ATOM     79  C   UNL A   1      31.622  25.315  24.376  1.00  0.00     0.261 C 
BRANCH  79  80
ATOM     80  O   UNL A   1      32.583  26.398  24.352  1.00  0.00    -0.460 OA
BRANCH  80  81
ATOM     81  C   UNL A   1      32.736  27.199  23.272  1.00  0.00     0.341 C 
ATOM     82  O   UNL A   1      33.527  27.062  22.355  1.00  0.00    -0.246 OA
BRANCH  81  83
ATOM     83  C   UNL A   1      31.662  28.221  23.302  1.00  0.00     0.102 A 
ATOM     84  C   UNL A   1      31.137  28.661  22.078  1.00  0.00     0.021 A 
ATOM     85  C   UNL A   1      31.222  28.829  24.496  1.00  0.00     0.144 A 
ATOM     86  C   UNL A   1      30.176  29.662  22.062  1.00  0.00     0.021 A 
ATOM     87  N   UNL A   1      30.267  29.795  24.464  1.00  0.00    -0.238 NA
ATOM     88  C   UNL A   1      29.766  30.182  23.272  1.00  0.00     0.113 A 
BRANCH  85  89
ATOM     89  N   UNL A   1      31.873  28.614  25.732  1.00  0.00    -0.340 N 
ATOM     90  H   UNL A   1      31.828  27.706  26.111  1.00  0.00     0.168 HD
BRANCH  89  91
ATOM     91  C   UNL A   1      32.582  29.584  26.473  1.00  0.00     0.040 A 
ATOM     92  C   UNL A   1      32.114  30.898  26.594  1.00  0.00     0.026 A 
ATOM     93  C   UNL A   1      33.838  29.274  27.001  1.00  0.00     0.039 A 
ATOM     94  C   UNL A   1      32.885  31.881  27.226  1.00  0.00     0.003 A 
ATOM     95  C   UNL A   1      34.625  30.247  27.640  1.00  0.00     0.058 A 
ATOM     96  C   UNL A   1      34.140  31.559  27.739  1.00  0.00     0.013 A 
BRANCH  95  97
ATOM     97  C   UNL A   1      35.977  29.890  28.199  1.00  0.00     0.416 C 
ATOM     98  F   UNL A   1      36.574  28.871  27.520  1.00  0.00    -0.166 F 
ATOM     99  F   UNL A   1      36.853  30.933  28.152  1.00  0.00    -0.166 F 
ATOM    100  F   UNL A   1      35.943  29.498  29.503  1.00  0.00    -0.166 F 
ENDBRANCH  95  97
ENDBRANCH  89  91
ENDBRANCH  85  89
ENDBRANCH  81  83
ENDBRANCH  80  81
ENDBRANCH  79  80
ENDBRANCH  78  79
ENDBRANCH  77  78
ENDBRANCH  76  77
ENDBRANCH  75  76
ENDBRANCH   1  75
TORSDOF 26
ENDMDL
MODEL 3
REMARK VINA RESULT:      -9.9      1.905      8.124
REMARK SMILES O=C(OCCOCCOCCOCCOC(=O)c1cccnc1Nc1cccc(C(F)(F)F)c1)c1ccc(-c2c3nc(c(-c4cc(S(=O)(=O)[O-])ccc4F)c4ccc([nH]4)c(-c4cc(S(=O)(=O)[O-])ccc4F)c4nc(c(-c5cc(S(=O)(=O)[O-])ccc5F)c5ccc2[nH]5)C=C4)C=C3)cc1
REMARK SMILES IDX 9 1 8 2 7 3 6 4 5 5 4 6 3 7 2 8 1 9 35 10 36 11 97 12 37 13
REMARK SMILES IDX 96 14 38 15 39 16 40 17 90 18 41 19 95 20 89 21 91 22 42 23
REMARK SMILES IDX 94 24 88 25 87 26 43 28 75 29 55 30 74 31 56 32 59 33 73 34
REMARK SMILES IDX 92 35 57 36 58 37 72 39 93 40 60 41 44 42 45 43 53 44 46 45
REMARK SMILES IDX 52 46 54 47 51 48 47 49 48 50 49 51 50 52 76 53 77 54 85 55
REMARK SMILES IDX 78 56 84 57 86 58 83 59 79 60 80 61 81 62 82 63 61 64 62 65
REMARK SMILES IDX 70 66 63 67 69 68 71 69 68 70 64 71 65 72 66 73 67 74 10 75
REMARK SMILES IDX 11 76 12 77 13 78 14 79 15 80 16 81 17 82 18 83 19 84 23 85
REMARK SMILES IDX 20 86 22 87 21 88 24 89 25 91 26 92 34 93 27 94 29 95 28 96
REMARK SMILES IDX 30 97 31 98 32 99 33 100
REMARK H PARENT 91 27 59 38 24 90
REMARK Flexibility Score: inf
ROOT
ATOM      1  O   UNL A   1      31.803  22.176  25.194  1.00  0.00    -0.377 OA
ENDROOT
BRANCH   1   2
ATOM      2  C   UNL A   1      33.009  21.603  25.685  1.00  0.00     0.188 C 
BRANCH   2   3
ATOM      3  C   UNL A   1      33.866  20.906  24.630  1.00  0.00     0.188 C 
BRANCH   3   4
ATOM      4  O   UNL A   1      35.162  20.604  25.135  1.00  0.00    -0.376 OA
BRANCH   4   5
ATOM      5  C   UNL A   1      36.268  21.244  24.501  1.00  0.00     0.202 C 
BRANCH   5   6
ATOM      6  C   UNL A   1      37.632  20.654  24.843  1.00  0.00     0.261 C 
BRANCH   6   7
ATOM      7  O   UNL A   1      38.167  21.177  26.062  1.00  0.00    -0.460 OA
BRANCH   7   8
ATOM      8  C   UNL A   1      39.460  21.478  26.335  1.00  0.00     0.338 C 
ATOM      9  O   UNL A   1      40.297  20.585  26.198  1.00  0.00    -0.246 OA
BRANCH   8  10
ATOM     10  C   UNL A   1      39.948  22.819  26.799  1.00  0.00     0.060 A 
ATOM     11  C   UNL A   1      39.517  24.062  26.331  1.00  0.00     0.016 A 
ATOM     12  C   UNL A   1      40.874  22.808  27.855  1.00  0.00     0.016 A 
ATOM     13  C   UNL A   1      39.998  25.251  26.848  1.00  0.00     0.010 A 
ATOM     14  C   UNL A   1      41.376  24.000  28.384  1.00  0.00     0.010 A 
ATOM     15  C   UNL A   1      40.951  25.223  27.853  1.00  0.00    -0.014 A 
BRANCH  15  16
ATOM     16  C   UNL A   1      41.671  26.476  28.117  1.00  0.00     0.031 A 
ATOM     17  C   UNL A   1      40.956  27.499  28.943  1.00  0.00     0.074 A 
ATOM     18  C   UNL A   1      42.967  26.594  27.785  1.00  0.00     0.049 A 
ATOM     19  N   UNL A   1      41.293  28.722  29.230  1.00  0.00    -0.248 NA
ATOM     20  C   UNL A   1      39.677  27.068  29.539  1.00  0.00     0.031 C 
ATOM     21  C   UNL A   1      43.778  25.543  27.163  1.00  0.00     0.029 A 
ATOM     22  N   UNL A   1      43.837  27.635  27.951  1.00  0.00    -0.354 N 
ATOM     23  C   UNL A   1      40.247  29.225  29.995  1.00  0.00     0.074 A 
ATOM     24  C   UNL A   1      39.264  28.177  30.127  1.00  0.00     0.031 C 
ATOM     25  C   UNL A   1      45.032  25.998  27.003  1.00  0.00     0.029 A 
ATOM     26  C   UNL A   1      45.082  27.394  27.421  1.00  0.00     0.049 A 
ATOM     27  H   UNL A   1      43.595  28.474  28.405  1.00  0.00     0.167 HD
ATOM     28  C   UNL A   1      40.132  30.467  30.521  1.00  0.00     0.034 A 
ATOM     29  C   UNL A   1      46.112  28.242  27.242  1.00  0.00     0.034 A 
ATOM     30  C   UNL A   1      41.152  31.466  30.338  1.00  0.00     0.049 A 
ATOM     31  C   UNL A   1      45.907  29.666  27.702  1.00  0.00     0.074 A 
ATOM     32  C   UNL A   1      41.150  32.794  30.715  1.00  0.00     0.029 A 
ATOM     33  N   UNL A   1      42.372  31.227  29.708  1.00  0.00    -0.354 N 
ATOM     34  N   UNL A   1      44.867  30.193  28.312  1.00  0.00    -0.248 NA
ATOM     35  C   UNL A   1      46.997  30.609  27.442  1.00  0.00     0.031 C 
ATOM     36  C   UNL A   1      42.335  33.373  30.246  1.00  0.00     0.029 A 
ATOM     37  C   UNL A   1      43.120  32.388  29.660  1.00  0.00     0.049 A 
ATOM     38  H   UNL A   1      42.660  30.357  29.349  1.00  0.00     0.167 HD
ATOM     39  C   UNL A   1      45.187  31.527  28.533  1.00  0.00     0.074 A 
ATOM     40  C   UNL A   1      46.526  31.714  28.001  1.00  0.00     0.031 C 
ATOM     41  C   UNL A   1      44.455  32.513  29.115  1.00  0.00     0.034 A 
BRANCH  28  42
ATOM     42  C   UNL A   1      38.822  30.801  31.193  1.00  0.00     0.023 A 
ATOM     43  C   UNL A   1      37.813  31.539  30.544  1.00  0.00     0.031 A 
ATOM     44  C   UNL A   1      38.638  30.494  32.553  1.00  0.00     0.131 A 
ATOM     45  C   UNL A   1      36.722  32.028  31.282  1.00  0.00     0.055 A 
ATOM     46  C   UNL A   1      37.503  30.904  33.256  1.00  0.00     0.041 A 
ATOM     47  F   UNL A   1      39.582  29.828  33.237  1.00  0.00    -0.206 F 
ATOM     48  C   UNL A   1      36.546  31.694  32.626  1.00  0.00     0.022 A 
BRANCH  45  49
ATOM     49  S   UNL A   1      35.639  33.266  30.511  1.00  0.00     0.124 S 
ATOM     50  O   UNL A   1      34.389  32.520  30.374  1.00  0.00    -0.237 OA
ATOM     51  O   UNL A   1      35.634  34.341  31.495  1.00  0.00    -0.237 OA
ATOM     52  O   UNL A   1      36.311  33.575  29.251  1.00  0.00    -0.744 OA
ENDBRANCH  45  49
ENDBRANCH  28  42
BRANCH  29  53
ATOM     53  C   UNL A   1      47.349  27.809  26.529  1.00  0.00     0.023 A 
ATOM     54  C   UNL A   1      48.444  27.266  27.221  1.00  0.00     0.031 A 
ATOM     55  C   UNL A   1      47.475  27.972  25.135  1.00  0.00     0.131 A 
ATOM     56  C   UNL A   1      49.622  26.943  26.527  1.00  0.00     0.055 A 
ATOM     57  C   UNL A   1      48.627  27.594  24.441  1.00  0.00     0.041 A 
ATOM     58  F   UNL A   1      46.469  28.495  24.416  1.00  0.00    -0.206 F 
ATOM     59  C   UNL A   1      49.716  27.089  25.141  1.00  0.00     0.022 A 
BRANCH  56  60
ATOM     60  S   UNL A   1      51.075  26.415  27.477  1.00  0.00     0.124 S 
ATOM     61  O   UNL A   1      51.192  25.014  27.086  1.00  0.00    -0.237 OA
ATOM     62  O   UNL A   1      52.109  27.311  26.973  1.00  0.00    -0.237 OA
ATOM     63  O   UNL A   1      50.676  26.643  28.864  1.00  0.00    -0.744 OA
ENDBRANCH  56  60
ENDBRANCH  29  53
BRANCH  41  64
ATOM     64  C   UNL A   1      45.125  33.853  29.254  1.00  0.00     0.023 A 
ATOM     65  C   UNL A   1      44.852  34.910  28.373  1.00  0.00     0.031 A 
ATOM     66  C   UNL A   1      46.043  34.069  30.298  1.00  0.00     0.131 A 
ATOM     67  C   UNL A   1      45.536  36.124  28.518  1.00  0.00     0.055 A 
ATOM     68  C   UNL A   1      46.664  35.303  30.480  1.00  0.00     0.041 A 
ATOM     69  F   UNL A   1      46.338  33.086  31.165  1.00  0.00    -0.206 F 
ATOM     70  C   UNL A   1      46.421  36.335  29.579  1.00  0.00     0.022 A 
BRANCH  67  71
ATOM     71  S   UNL A   1      45.326  37.391  27.240  1.00  0.00     0.124 S 
ATOM     72  O   UNL A   1      44.004  37.070  26.711  1.00  0.00    -0.237 OA
ATOM     73  O   UNL A   1      45.423  38.629  28.006  1.00  0.00    -0.237 OA
ATOM     74  O   UNL A   1      46.438  37.140  26.324  1.00  0.00    -0.744 OA
ENDBRANCH  67  71
ENDBRANCH  41  64
ENDBRANCH  15  16
ENDBRANCH   8  10
ENDBRANCH   7   8
ENDBRANCH   6   7
ENDBRANCH   5   6
ENDBRANCH   4   5
ENDBRANCH   3   4
ENDBRANCH   2   3
ENDBRANCH   1   2
BRANCH   1  75
ATOM     75  C   UNL A   1      30.649  22.025  26.015  1.00  0.00     0.188 C 
BRANCH  75  76
ATOM     76  C   UNL A   1      30.167  23.229  26.858  1.00  0.00     0.188 C 
BRANCH  76  77
ATOM     77  O   UNL A   1      30.800  24.453  26.530  1.00  0.00    -0.376 OA
BRANCH  77  78
ATOM     78  C   UNL A   1      30.053  25.306  25.673  1.00  0.00     0.202 C 
BRANCH  78  79
ATOM     79  C   UNL A   1      30.684  25.557  24.298  1.00  0.00     0.261 C 
BRANCH  79  80
ATOM     80  O   UNL A   1      31.023  26.918  23.941  1.00  0.00    -0.460 OA
BRANCH  80  81
ATOM     81  C   UNL A   1      30.647  27.467  22.762  1.00  0.00     0.341 C 
ATOM     82  O   UNL A   1      30.817  27.010  21.645  1.00  0.00    -0.246 OA
BRANCH  81  83
ATOM     83  C   UNL A   1      29.840  28.677  23.055  1.00  0.00     0.102 A 
ATOM     84  C   UNL A   1      28.568  28.777  22.472  1.00  0.00     0.021 A 
ATOM     85  C   UNL A   1      30.337  29.759  23.810  1.00  0.00     0.144 A 
ATOM     86  C   UNL A   1      27.809  29.922  22.671  1.00  0.00     0.021 A 
ATOM     87  N   UNL A   1      29.573  30.865  24.010  1.00  0.00    -0.238 NA
ATOM     88  C   UNL A   1      28.345  30.923  23.453  1.00  0.00     0.113 A 
BRANCH  85  89
ATOM     89  N   UNL A   1      31.688  29.832  24.219  1.00  0.00    -0.340 N 
ATOM     90  H   UNL A   1      32.326  30.236  23.587  1.00  0.00     0.168 HD
BRANCH  89  91
ATOM     91  C   UNL A   1      32.205  29.379  25.452  1.00  0.00     0.040 A 
ATOM     92  C   UNL A   1      31.451  28.566  26.306  1.00  0.00     0.026 A 
ATOM     93  C   UNL A   1      33.446  29.841  25.897  1.00  0.00     0.039 A 
ATOM     94  C   UNL A   1      31.925  28.224  27.579  1.00  0.00     0.003 A 
ATOM     95  C   UNL A   1      33.939  29.507  27.170  1.00  0.00     0.058 A 
ATOM     96  C   UNL A   1      33.161  28.700  28.013  1.00  0.00     0.013 A 
BRANCH  95  97
ATOM     97  C   UNL A   1      35.278  30.020  27.629  1.00  0.00     0.416 C 
ATOM     98  F   UNL A   1      36.320  29.337  27.078  1.00  0.00    -0.166 F 
ATOM     99  F   UNL A   1      35.476  31.328  27.302  1.00  0.00    -0.166 F 
ATOM    100  F   UNL A   1      35.458  29.948  28.978  1.00  0.00    -0.166 F 
ENDBRANCH  95  97
ENDBRANCH  89  91
ENDBRANCH  85  89
ENDBRANCH  81  83
ENDBRANCH  80  81
ENDBRANCH  79  80
ENDBRANCH  78  79
ENDBRANCH  77  78
ENDBRANCH  76  77
ENDBRANCH  75  76
ENDBRANCH   1  75
TORSDOF 26
ENDMDL
