MODEL 1
REMARK VINA RESULT:      -9.4      0.000      0.000
REMARK SMILES CC[C@H](C)c1ccccc1Oc1cccc(F)c1C(=O)OCCOCCOCCOCCOC(=O)c1ccc(-c2c3nc(c(-c4cc(S(=O)(=O)[O-])ccc4F)c4ccc([nH]4)c(-c4cc(S(=O)(=O)[O-])ccc4F)c4nc(c(-c5cc(S(=O)(=O)[O-])ccc5F)c5ccc2[nH]5)C=C4)C=C3)cc1
REMARK SMILES IDX 26 1 25 2 24 3 23 4 22 5 21 6 19 7 20 8 18 9 12 10 13 11
REMARK SMILES IDX 14 12 16 13 15 14 17 15 11 16 10 17 5 18 6 19 7 20 9 21 8 22
REMARK SMILES IDX 3 23 4 24 2 25 1 26 27 27 28 28 29 29 30 30 31 31 32 32
REMARK SMILES IDX 33 33 34 34 35 35 36 36 37 37 98 38 38 39 97 40 39 41 40 42
REMARK SMILES IDX 41 43 91 44 42 45 96 46 90 47 92 48 43 49 95 50 89 51 88 52
REMARK SMILES IDX 44 54 76 55 56 56 75 57 57 58 60 59 74 60 93 61 58 62 59 63
REMARK SMILES IDX 73 65 94 66 61 67 45 68 46 69 54 70 47 71 53 72 55 73 52 74
REMARK SMILES IDX 48 75 49 76 50 77 51 78 77 79 78 80 86 81 79 82 85 83 87 84
REMARK SMILES IDX 84 85 80 86 81 87 82 88 83 89 62 90 63 91 71 92 64 93 70 94
REMARK SMILES IDX 72 95 69 96 65 97 66 98 67 99 68 100
REMARK H PARENT 92 53 60 64
REMARK Flexibility Score: inf
ROOT
ATOM      1  C   UNL A   1      40.826  21.485  27.715  1.00  0.00     0.188 C 
ENDROOT
BRANCH   1   2
ATOM      2  C   UNL A   1      39.733  22.210  26.901  1.00  0.00     0.188 C 
BRANCH   2   3
ATOM      3  O   UNL A   1      39.409  21.672  25.640  1.00  0.00    -0.376 OA
BRANCH   3   4
ATOM      4  C   UNL A   1      38.105  21.369  25.188  1.00  0.00     0.202 C 
BRANCH   4   5
ATOM      5  C   UNL A   1      36.788  22.100  25.517  1.00  0.00     0.261 C 
BRANCH   5   6
ATOM      6  O   UNL A   1      35.583  21.712  24.858  1.00  0.00    -0.459 OA
BRANCH   6   7
ATOM      7  C   UNL A   1      34.773  20.993  25.656  1.00  0.00     0.345 C 
ATOM      8  O   UNL A   1      34.575  21.255  26.838  1.00  0.00    -0.246 OA
BRANCH   7   9
ATOM      9  C   UNL A   1      34.034  19.914  24.956  1.00  0.00     0.138 A 
ATOM     10  C   UNL A   1      32.727  19.950  24.461  1.00  0.00     0.144 A 
ATOM     11  C   UNL A   1      32.213  18.805  23.807  1.00  0.00     0.048 A 
ATOM     12  C   UNL A   1      33.011  17.710  23.495  1.00  0.00     0.007 A 
ATOM     13  C   UNL A   1      34.830  18.801  24.609  1.00  0.00     0.141 A 
ATOM     14  C   UNL A   1      34.340  17.725  23.871  1.00  0.00     0.040 A 
ATOM     15  F   UNL A   1      36.120  18.731  24.971  1.00  0.00    -0.206 F 
BRANCH  10  16
ATOM     16  O   UNL A   1      31.818  20.966  24.336  1.00  0.00    -0.456 OA
BRANCH  16  17
ATOM     17  C   UNL A   1      32.077  22.190  23.790  1.00  0.00     0.130 A 
ATOM     18  C   UNL A   1      32.009  23.433  24.461  1.00  0.00    -0.002 A 
ATOM     19  C   UNL A   1      32.592  24.528  23.773  1.00  0.00     0.008 A 
ATOM     20  C   UNL A   1      33.200  24.407  22.514  1.00  0.00     0.001 A 
ATOM     21  C   UNL A   1      32.715  22.072  22.530  1.00  0.00     0.047 A 
ATOM     22  C   UNL A   1      33.262  23.174  21.888  1.00  0.00     0.004 A 
BRANCH  18  23
ATOM     23  C   UNL A   1      31.346  23.787  25.811  1.00  0.00     0.019 C 
ATOM     24  C   UNL A   1      31.873  23.035  27.009  1.00  0.00     0.013 C 
BRANCH  23  25
ATOM     25  C   UNL A   1      31.137  25.274  26.158  1.00  0.00     0.005 C 
ATOM     26  C   UNL A   1      29.773  25.820  25.697  1.00  0.00     0.004 C 
ENDBRANCH  23  25
ENDBRANCH  18  23
ENDBRANCH  16  17
ENDBRANCH  10  16
ENDBRANCH   7   9
ENDBRANCH   6   7
ENDBRANCH   5   6
ENDBRANCH   4   5
ENDBRANCH   3   4
ENDBRANCH   2   3
ENDBRANCH   1   2
BRANCH   1  27
ATOM     27  O   UNL A   1      40.785  20.078  27.793  1.00  0.00    -0.377 OA
BRANCH  27  28
ATOM     28  C   UNL A   1      41.657  19.305  26.978  1.00  0.00     0.188 C 
BRANCH  28  29
ATOM     29  C   UNL A   1      42.420  19.922  25.780  1.00  0.00     0.188 C 
BRANCH  29  30
ATOM     30  O   UNL A   1      43.192  19.022  25.006  1.00  0.00    -0.376 OA
BRANCH  30  31
ATOM     31  C   UNL A   1      44.605  19.080  25.039  1.00  0.00     0.202 C 
BRANCH  31  32
ATOM     32  C   UNL A   1      45.339  20.104  24.159  1.00  0.00     0.261 C 
BRANCH  32  33
ATOM     33  O   UNL A   1      45.476  21.424  24.694  1.00  0.00    -0.460 OA
BRANCH  33  34
ATOM     34  C   UNL A   1      44.761  22.398  24.093  1.00  0.00     0.338 C 
ATOM     35  O   UNL A   1      44.356  22.399  22.939  1.00  0.00    -0.246 OA
BRANCH  34  36
ATOM     36  C   UNL A   1      44.357  23.362  25.135  1.00  0.00     0.060 A 
ATOM     37  C   UNL A   1      44.576  24.729  24.915  1.00  0.00     0.016 A 
ATOM     38  C   UNL A   1      43.730  22.921  26.303  1.00  0.00     0.016 A 
ATOM     39  C   UNL A   1      44.200  25.659  25.879  1.00  0.00     0.010 A 
ATOM     40  C   UNL A   1      43.395  23.850  27.289  1.00  0.00     0.010 A 
ATOM     41  C   UNL A   1      43.667  25.217  27.095  1.00  0.00    -0.014 A 
BRANCH  41  42
ATOM     42  C   UNL A   1      43.669  26.141  28.250  1.00  0.00     0.031 A 
ATOM     43  C   UNL A   1      44.920  26.201  29.085  1.00  0.00     0.074 A 
ATOM     44  C   UNL A   1      42.622  26.936  28.524  1.00  0.00     0.049 A 
ATOM     45  N   UNL A   1      45.163  26.877  30.176  1.00  0.00    -0.248 NA
ATOM     46  C   UNL A   1      46.047  25.375  28.621  1.00  0.00     0.031 C 
ATOM     47  C   UNL A   1      41.392  27.015  27.739  1.00  0.00     0.029 A 
ATOM     48  N   UNL A   1      42.429  27.828  29.548  1.00  0.00    -0.354 N 
ATOM     49  C   UNL A   1      46.468  26.553  30.533  1.00  0.00     0.074 A 
ATOM     50  C   UNL A   1      46.947  25.592  29.565  1.00  0.00     0.031 C 
ATOM     51  C   UNL A   1      40.564  27.900  28.322  1.00  0.00     0.029 A 
ATOM     52  C   UNL A   1      41.186  28.413  29.541  1.00  0.00     0.049 A 
ATOM     53  H   UNL A   1      43.117  28.030  30.223  1.00  0.00     0.167 HD
ATOM     54  C   UNL A   1      47.201  27.023  31.571  1.00  0.00     0.034 A 
ATOM     55  C   UNL A   1      40.610  29.240  30.438  1.00  0.00     0.034 A 
ATOM     56  C   UNL A   1      46.694  27.967  32.536  1.00  0.00     0.049 A 
ATOM     57  C   UNL A   1      41.404  29.664  31.653  1.00  0.00     0.074 A 
ATOM     58  C   UNL A   1      47.342  28.513  33.628  1.00  0.00     0.029 A 
ATOM     59  N   UNL A   1      45.407  28.491  32.534  1.00  0.00    -0.354 N 
ATOM     60  N   UNL A   1      42.636  29.351  31.990  1.00  0.00    -0.248 NA
ATOM     61  C   UNL A   1      40.733  30.558  32.605  1.00  0.00     0.031 C 
ATOM     62  C   UNL A   1      46.424  29.296  34.334  1.00  0.00     0.029 A 
ATOM     63  C   UNL A   1      45.230  29.322  33.629  1.00  0.00     0.049 A 
ATOM     64  H   UNL A   1      44.721  28.300  31.854  1.00  0.00     0.167 HD
ATOM     65  C   UNL A   1      42.895  30.039  33.174  1.00  0.00     0.074 A 
ATOM     66  C   UNL A   1      41.696  30.791  33.484  1.00  0.00     0.031 C 
ATOM     67  C   UNL A   1      44.023  30.058  33.932  1.00  0.00     0.034 A 
BRANCH  54  68
ATOM     68  C   UNL A   1      48.592  26.462  31.745  1.00  0.00     0.023 A 
ATOM     69  C   UNL A   1      48.837  25.296  32.491  1.00  0.00     0.031 A 
ATOM     70  C   UNL A   1      49.697  27.135  31.196  1.00  0.00     0.131 A 
ATOM     71  C   UNL A   1      50.156  24.886  32.734  1.00  0.00     0.055 A 
ATOM     72  C   UNL A   1      51.003  26.670  31.365  1.00  0.00     0.041 A 
ATOM     73  F   UNL A   1      49.531  28.271  30.500  1.00  0.00    -0.206 F 
ATOM     74  C   UNL A   1      51.240  25.548  32.153  1.00  0.00     0.022 A 
BRANCH  71  75
ATOM     75  S   UNL A   1      50.445  23.576  33.958  1.00  0.00     0.124 S 
ATOM     76  O   UNL A   1      50.352  22.376  33.132  1.00  0.00    -0.237 OA
ATOM     77  O   UNL A   1      51.772  23.905  34.463  1.00  0.00    -0.237 OA
ATOM     78  O   UNL A   1      49.351  23.753  34.911  1.00  0.00    -0.744 OA
ENDBRANCH  71  75
ENDBRANCH  54  68
BRANCH  55  79
ATOM     79  C   UNL A   1      39.199  29.686  30.255  1.00  0.00     0.023 A 
ATOM     80  C   UNL A   1      38.896  30.971  29.778  1.00  0.00     0.031 A 
ATOM     81  C   UNL A   1      38.127  28.846  30.607  1.00  0.00     0.131 A 
ATOM     82  C   UNL A   1      37.558  31.393  29.705  1.00  0.00     0.055 A 
ATOM     83  C   UNL A   1      36.797  29.250  30.478  1.00  0.00     0.041 A 
ATOM     84  F   UNL A   1      38.359  27.610  31.076  1.00  0.00    -0.206 F 
ATOM     85  C   UNL A   1      36.508  30.536  30.037  1.00  0.00     0.022 A 
BRANCH  82  86
ATOM     86  S   UNL A   1      37.214  33.117  29.255  1.00  0.00     0.124 S 
ATOM     87  O   UNL A   1      36.440  32.954  28.030  1.00  0.00    -0.237 OA
ATOM     88  O   UNL A   1      36.479  33.592  30.422  1.00  0.00    -0.237 OA
ATOM     89  O   UNL A   1      38.545  33.695  29.083  1.00  0.00    -0.744 OA
ENDBRANCH  82  86
ENDBRANCH  55  79
BRANCH  67  90
ATOM     90  C   UNL A   1      44.032  30.963  35.141  1.00  0.00     0.023 A 
ATOM     91  C   UNL A   1      44.427  32.310  35.064  1.00  0.00     0.031 A 
ATOM     92  C   UNL A   1      43.633  30.465  36.396  1.00  0.00     0.131 A 
ATOM     93  C   UNL A   1      44.470  33.094  36.227  1.00  0.00     0.055 A 
ATOM     94  C   UNL A   1      43.609  31.269  37.535  1.00  0.00     0.041 A 
ATOM     95  F   UNL A   1      43.250  29.186  36.532  1.00  0.00    -0.206 F 
ATOM     96  C   UNL A   1      44.042  32.589  37.458  1.00  0.00     0.022 A 
BRANCH  93  97
ATOM     97  S   UNL A   1      45.190  34.756  36.132  1.00  0.00     0.124 S 
ATOM     98  O   UNL A   1      45.869  34.864  37.419  1.00  0.00    -0.237 OA
ATOM     99  O   UNL A   1      46.056  34.657  34.962  1.00  0.00    -0.237 OA
ATOM    100  O   UNL A   1      44.026  35.626  35.971  1.00  0.00    -0.744 OA
ENDBRANCH  93  97
ENDBRANCH  67  90
ENDBRANCH  41  42
ENDBRANCH  34  36
ENDBRANCH  33  34
ENDBRANCH  32  33
ENDBRANCH  31  32
ENDBRANCH  30  31
ENDBRANCH  29  30
ENDBRANCH  28  29
ENDBRANCH  27  28
ENDBRANCH   1  27
TORSDOF 27
ENDMDL
MODEL 2
REMARK VINA RESULT:      -9.4      2.549      9.082
REMARK SMILES CC[C@H](C)c1ccccc1Oc1cccc(F)c1C(=O)OCCOCCOCCOCCOC(=O)c1ccc(-c2c3nc(c(-c4cc(S(=O)(=O)[O-])ccc4F)c4ccc([nH]4)c(-c4cc(S(=O)(=O)[O-])ccc4F)c4nc(c(-c5cc(S(=O)(=O)[O-])ccc5F)c5ccc2[nH]5)C=C4)C=C3)cc1
REMARK SMILES IDX 26 1 25 2 24 3 23 4 22 5 21 6 19 7 20 8 18 9 12 10 13 11
REMARK SMILES IDX 14 12 16 13 15 14 17 15 11 16 10 17 5 18 6 19 7 20 9 21 8 22
REMARK SMILES IDX 3 23 4 24 2 25 1 26 27 27 28 28 29 29 30 30 31 31 32 32
REMARK SMILES IDX 33 33 34 34 35 35 36 36 37 37 98 38 38 39 97 40 39 41 40 42
REMARK SMILES IDX 41 43 91 44 42 45 96 46 90 47 92 48 43 49 95 50 89 51 88 52
REMARK SMILES IDX 44 54 76 55 56 56 75 57 57 58 60 59 74 60 93 61 58 62 59 63
REMARK SMILES IDX 73 65 94 66 61 67 45 68 46 69 54 70 47 71 53 72 55 73 52 74
REMARK SMILES IDX 48 75 49 76 50 77 51 78 77 79 78 80 86 81 79 82 85 83 87 84
REMARK SMILES IDX 84 85 80 86 81 87 82 88 83 89 62 90 63 91 71 92 64 93 70 94
REMARK SMILES IDX 72 95 69 96 65 97 66 98 67 99 68 100
REMARK H PARENT 92 53 60 64
REMARK Flexibility Score: inf
ROOT
ATOM      1  C   UNL A   1      31.336  26.502  22.240  1.00  0.00     0.188 C 
ENDROOT
BRANCH   1   2
ATOM      2  C   UNL A   1      30.492  25.774  23.306  1.00  0.00     0.188 C 
BRANCH   2   3
ATOM      3  O   UNL A   1      31.190  25.149  24.360  1.00  0.00    -0.376 OA
BRANCH   3   4
ATOM      4  C   UNL A   1      30.706  24.981  25.677  1.00  0.00     0.202 C 
BRANCH   4   5
ATOM      5  C   UNL A   1      31.137  23.934  26.724  1.00  0.00     0.261 C 
BRANCH   5   6
ATOM      6  O   UNL A   1      31.778  22.733  26.297  1.00  0.00    -0.459 OA
BRANCH   6   7
ATOM      7  C   UNL A   1      32.766  22.357  27.131  1.00  0.00     0.345 C 
ATOM      8  O   UNL A   1      32.664  22.365  28.353  1.00  0.00    -0.246 OA
BRANCH   7   9
ATOM      9  C   UNL A   1      33.963  21.812  26.445  1.00  0.00     0.138 A 
ATOM     10  C   UNL A   1      34.043  20.681  25.626  1.00  0.00     0.144 A 
ATOM     11  C   UNL A   1      35.291  20.340  25.054  1.00  0.00     0.048 A 
ATOM     12  C   UNL A   1      36.400  21.175  25.144  1.00  0.00     0.007 A 
ATOM     13  C   UNL A   1      35.095  22.653  26.503  1.00  0.00     0.141 A 
ATOM     14  C   UNL A   1      36.288  22.358  25.847  1.00  0.00     0.040 A 
ATOM     15  F   UNL A   1      35.070  23.802  27.197  1.00  0.00    -0.206 F 
BRANCH  10  16
ATOM     16  O   UNL A   1      33.085  19.853  25.104  1.00  0.00    -0.456 OA
BRANCH  16  17
ATOM     17  C   UNL A   1      32.839  19.677  23.773  1.00  0.00     0.130 A 
ATOM     18  C   UNL A   1      32.773  18.439  23.094  1.00  0.00    -0.002 A 
ATOM     19  C   UNL A   1      32.228  18.491  21.785  1.00  0.00     0.008 A 
ATOM     20  C   UNL A   1      31.778  19.679  21.189  1.00  0.00     0.001 A 
ATOM     21  C   UNL A   1      32.358  20.868  23.173  1.00  0.00     0.047 A 
ATOM     22  C   UNL A   1      31.843  20.874  21.884  1.00  0.00     0.004 A 
BRANCH  18  23
ATOM     23  C   UNL A   1      33.258  17.043  23.545  1.00  0.00     0.019 C 
ATOM     24  C   UNL A   1      34.407  16.469  22.752  1.00  0.00     0.013 C 
BRANCH  23  25
ATOM     25  C   UNL A   1      33.464  16.790  25.052  1.00  0.00     0.005 C 
ATOM     26  C   UNL A   1      34.848  16.203  25.384  1.00  0.00     0.004 C 
ENDBRANCH  23  25
ENDBRANCH  18  23
ENDBRANCH  16  17
ENDBRANCH  10  16
ENDBRANCH   7   9
ENDBRANCH   6   7
ENDBRANCH   5   6
ENDBRANCH   4   5
ENDBRANCH   3   4
ENDBRANCH   2   3
ENDBRANCH   1   2
BRANCH   1  27
ATOM     27  O   UNL A   1      31.703  27.845  22.471  1.00  0.00    -0.377 OA
BRANCH  27  28
ATOM     28  C   UNL A   1      32.610  28.152  23.522  1.00  0.00     0.188 C 
BRANCH  28  29
ATOM     29  C   UNL A   1      32.354  29.315  24.512  1.00  0.00     0.188 C 
BRANCH  29  30
ATOM     30  O   UNL A   1      31.764  28.960  25.749  1.00  0.00    -0.376 OA
BRANCH  30  31
ATOM     31  C   UNL A   1      32.035  29.715  26.913  1.00  0.00     0.202 C 
BRANCH  31  32
ATOM     32  C   UNL A   1      33.159  30.763  26.890  1.00  0.00     0.261 C 
BRANCH  32  33
ATOM     33  O   UNL A   1      34.057  30.761  28.004  1.00  0.00    -0.460 OA
BRANCH  33  34
ATOM     34  C   UNL A   1      35.025  31.701  28.002  1.00  0.00     0.338 C 
ATOM     35  O   UNL A   1      34.917  32.859  27.624  1.00  0.00    -0.246 OA
BRANCH  34  36
ATOM     36  C   UNL A   1      36.176  31.156  28.747  1.00  0.00     0.060 A 
ATOM     37  C   UNL A   1      37.398  31.844  28.706  1.00  0.00     0.016 A 
ATOM     38  C   UNL A   1      36.040  29.995  29.512  1.00  0.00     0.016 A 
ATOM     39  C   UNL A   1      38.497  31.354  29.403  1.00  0.00     0.010 A 
ATOM     40  C   UNL A   1      37.155  29.480  30.174  1.00  0.00     0.010 A 
ATOM     41  C   UNL A   1      38.396  30.137  30.086  1.00  0.00    -0.014 A 
BRANCH  41  42
ATOM     42  C   UNL A   1      39.638  29.422  30.454  1.00  0.00     0.031 A 
ATOM     43  C   UNL A   1      40.371  29.896  31.680  1.00  0.00     0.074 A 
ATOM     44  C   UNL A   1      40.078  28.360  29.759  1.00  0.00     0.049 A 
ATOM     45  N   UNL A   1      41.502  29.486  32.186  1.00  0.00    -0.248 NA
ATOM     46  C   UNL A   1      39.732  30.989  32.432  1.00  0.00     0.031 C 
ATOM     47  C   UNL A   1      39.408  27.771  28.602  1.00  0.00     0.029 A 
ATOM     48  N   UNL A   1      41.202  27.593  29.928  1.00  0.00    -0.354 N 
ATOM     49  C   UNL A   1      41.717  30.275  33.312  1.00  0.00     0.074 A 
ATOM     50  C   UNL A   1      40.618  31.212  33.389  1.00  0.00     0.031 C 
ATOM     51  C   UNL A   1      40.145  26.739  28.155  1.00  0.00     0.029 A 
ATOM     52  C   UNL A   1      41.357  26.625  28.965  1.00  0.00     0.049 A 
ATOM     53  H   UNL A   1      41.836  27.723  30.669  1.00  0.00     0.167 HD
ATOM     54  C   UNL A   1      42.736  30.217  34.203  1.00  0.00     0.034 A 
ATOM     55  C   UNL A   1      42.380  25.773  28.748  1.00  0.00     0.034 A 
ATOM     56  C   UNL A   1      43.832  29.287  34.094  1.00  0.00     0.049 A 
ATOM     57  C   UNL A   1      43.565  25.800  29.687  1.00  0.00     0.074 A 
ATOM     58  C   UNL A   1      44.919  29.135  34.934  1.00  0.00     0.029 A 
ATOM     59  N   UNL A   1      43.990  28.361  33.068  1.00  0.00    -0.354 N 
ATOM     60  N   UNL A   1      43.766  26.552  30.747  1.00  0.00    -0.248 NA
ATOM     61  C   UNL A   1      44.656  24.859  29.405  1.00  0.00     0.031 C 
ATOM     62  C   UNL A   1      45.776  28.184  34.372  1.00  0.00     0.029 A 
ATOM     63  C   UNL A   1      45.177  27.666  33.234  1.00  0.00     0.049 A 
ATOM     64  H   UNL A   1      43.351  28.221  32.332  1.00  0.00     0.167 HD
ATOM     65  C   UNL A   1      44.990  26.148  31.275  1.00  0.00     0.074 A 
ATOM     66  C   UNL A   1      45.473  25.080  30.424  1.00  0.00     0.031 C 
ATOM     67  C   UNL A   1      45.652  26.609  32.370  1.00  0.00     0.034 A 
BRANCH  54  68
ATOM     68  C   UNL A   1      42.736  31.233  35.319  1.00  0.00     0.023 A 
ATOM     69  C   UNL A   1      43.191  32.550  35.128  1.00  0.00     0.031 A 
ATOM     70  C   UNL A   1      42.322  30.862  36.611  1.00  0.00     0.131 A 
ATOM     71  C   UNL A   1      43.295  33.420  36.223  1.00  0.00     0.055 A 
ATOM     72  C   UNL A   1      42.342  31.762  37.678  1.00  0.00     0.041 A 
ATOM     73  F   UNL A   1      41.908  29.611  36.864  1.00  0.00    -0.206 F 
ATOM     74  C   UNL A   1      42.847  33.045  37.492  1.00  0.00     0.022 A 
BRANCH  71  75
ATOM     75  S   UNL A   1      44.181  34.989  36.002  1.00  0.00     0.124 S 
ATOM     76  O   UNL A   1      45.339  34.798  36.871  1.00  0.00    -0.237 OA
ATOM     77  O   UNL A   1      44.450  34.998  34.569  1.00  0.00    -0.237 OA
ATOM     78  O   UNL A   1      43.222  35.990  36.465  1.00  0.00    -0.744 OA
ENDBRANCH  71  75
ENDBRANCH  54  68
BRANCH  55  79
ATOM     79  C   UNL A   1      42.360  24.855  27.572  1.00  0.00     0.023 A 
ATOM     80  C   UNL A   1      41.639  23.651  27.599  1.00  0.00     0.031 A 
ATOM     81  C   UNL A   1      43.108  25.148  26.417  1.00  0.00     0.131 A 
ATOM     82  C   UNL A   1      41.715  22.766  26.511  1.00  0.00     0.055 A 
ATOM     83  C   UNL A   1      43.135  24.291  25.316  1.00  0.00     0.041 A 
ATOM     84  F   UNL A   1      43.823  26.282  26.341  1.00  0.00    -0.206 F 
ATOM     85  C   UNL A   1      42.445  23.085  25.365  1.00  0.00     0.022 A 
BRANCH  82  86
ATOM     86  S   UNL A   1      40.917  21.143  26.654  1.00  0.00     0.124 S 
ATOM     87  O   UNL A   1      40.781  21.006  28.099  1.00  0.00    -0.237 OA
ATOM     88  O   UNL A   1      39.679  21.349  25.909  1.00  0.00    -0.237 OA
ATOM     89  O   UNL A   1      41.875  20.237  26.026  1.00  0.00    -0.744 OA
ENDBRANCH  82  86
ENDBRANCH  55  79
BRANCH  67  90
ATOM     90  C   UNL A   1      46.945  25.921  32.740  1.00  0.00     0.023 A 
ATOM     91  C   UNL A   1      46.987  24.843  33.642  1.00  0.00     0.031 A 
ATOM     92  C   UNL A   1      48.159  26.353  32.174  1.00  0.00     0.131 A 
ATOM     93  C   UNL A   1      48.220  24.274  33.995  1.00  0.00     0.055 A 
ATOM     94  C   UNL A   1      49.374  25.736  32.473  1.00  0.00     0.041 A 
ATOM     95  F   UNL A   1      48.182  27.380  31.309  1.00  0.00    -0.206 F 
ATOM     96  C   UNL A   1      49.411  24.698  33.399  1.00  0.00     0.022 A 
BRANCH  93  97
ATOM     97  S   UNL A   1      48.262  23.038  35.321  1.00  0.00     0.124 S 
ATOM     98  O   UNL A   1      48.376  21.793  34.570  1.00  0.00    -0.237 OA
ATOM     99  O   UNL A   1      49.443  23.434  36.081  1.00  0.00    -0.237 OA
ATOM    100  O   UNL A   1      46.987  23.231  36.011  1.00  0.00    -0.744 OA
ENDBRANCH  93  97
ENDBRANCH  67  90
ENDBRANCH  41  42
ENDBRANCH  34  36
ENDBRANCH  33  34
ENDBRANCH  32  33
ENDBRANCH  31  32
ENDBRANCH  30  31
ENDBRANCH  29  30
ENDBRANCH  28  29
ENDBRANCH  27  28
ENDBRANCH   1  27
TORSDOF 27
ENDMDL
MODEL 3
REMARK VINA RESULT:      -8.9      3.887      6.486
REMARK SMILES CC[C@H](C)c1ccccc1Oc1cccc(F)c1C(=O)OCCOCCOCCOCCOC(=O)c1ccc(-c2c3nc(c(-c4cc(S(=O)(=O)[O-])ccc4F)c4ccc([nH]4)c(-c4cc(S(=O)(=O)[O-])ccc4F)c4nc(c(-c5cc(S(=O)(=O)[O-])ccc5F)c5ccc2[nH]5)C=C4)C=C3)cc1
REMARK SMILES IDX 26 1 25 2 24 3 23 4 22 5 21 6 19 7 20 8 18 9 12 10 13 11
REMARK SMILES IDX 14 12 16 13 15 14 17 15 11 16 10 17 5 18 6 19 7 20 9 21 8 22
REMARK SMILES IDX 3 23 4 24 2 25 1 26 27 27 28 28 29 29 30 30 31 31 32 32
REMARK SMILES IDX 33 33 34 34 35 35 36 36 37 37 98 38 38 39 97 40 39 41 40 42
REMARK SMILES IDX 41 43 91 44 42 45 96 46 90 47 92 48 43 49 95 50 89 51 88 52
REMARK SMILES IDX 44 54 76 55 56 56 75 57 57 58 60 59 74 60 93 61 58 62 59 63
REMARK SMILES IDX 73 65 94 66 61 67 45 68 46 69 54 70 47 71 53 72 55 73 52 74
REMARK SMILES IDX 48 75 49 76 50 77 51 78 77 79 78 80 86 81 79 82 85 83 87 84
REMARK SMILES IDX 84 85 80 86 81 87 82 88 83 89 62 90 63 91 71 92 64 93 70 94
REMARK SMILES IDX 72 95 69 96 65 97 66 98 67 99 68 100
REMARK H PARENT 92 53 60 64
REMARK Flexibility Score: inf
ROOT
ATOM      1  C   UNL A   1      40.677  21.269  27.483  1.00  0.00     0.188 C 
ENDROOT
BRANCH   1   2
ATOM      2  C   UNL A   1      39.927  21.995  26.347  1.00  0.00     0.188 C 
BRANCH   2   3
ATOM      3  O   UNL A   1      38.744  21.394  25.872  1.00  0.00    -0.376 OA
BRANCH   3   4
ATOM      4  C   UNL A   1      37.633  22.082  25.335  1.00  0.00     0.202 C 
BRANCH   4   5
ATOM      5  C   UNL A   1      37.192  23.535  25.602  1.00  0.00     0.261 C 
BRANCH   5   6
ATOM      6  O   UNL A   1      35.942  23.997  25.091  1.00  0.00    -0.459 OA
BRANCH   6   7
ATOM      7  C   UNL A   1      34.894  23.378  25.667  1.00  0.00     0.345 C 
ATOM      8  O   UNL A   1      34.727  23.310  26.879  1.00  0.00    -0.246 OA
BRANCH   7   9
ATOM      9  C   UNL A   1      33.880  22.881  24.704  1.00  0.00     0.138 A 
ATOM     10  C   UNL A   1      33.145  23.621  23.774  1.00  0.00     0.144 A 
ATOM     11  C   UNL A   1      32.230  22.944  22.933  1.00  0.00     0.048 A 
ATOM     12  C   UNL A   1      32.156  21.556  22.886  1.00  0.00     0.007 A 
ATOM     13  C   UNL A   1      33.803  21.474  24.622  1.00  0.00     0.141 A 
ATOM     14  C   UNL A   1      32.976  20.816  23.715  1.00  0.00     0.040 A 
ATOM     15  F   UNL A   1      34.545  20.692  25.421  1.00  0.00    -0.206 F 
BRANCH  10  16
ATOM     16  O   UNL A   1      33.220  24.928  23.371  1.00  0.00    -0.456 OA
BRANCH  16  17
ATOM     17  C   UNL A   1      32.221  25.849  23.499  1.00  0.00     0.130 A 
ATOM     18  C   UNL A   1      31.843  26.510  24.691  1.00  0.00    -0.002 A 
ATOM     19  C   UNL A   1      30.977  27.620  24.522  1.00  0.00     0.008 A 
ATOM     20  C   UNL A   1      30.517  28.051  23.269  1.00  0.00     0.001 A 
ATOM     21  C   UNL A   1      31.771  26.306  22.235  1.00  0.00     0.047 A 
ATOM     22  C   UNL A   1      30.914  27.391  22.118  1.00  0.00     0.004 A 
BRANCH  18  23
ATOM     23  C   UNL A   1      32.191  26.168  26.156  1.00  0.00     0.019 C 
ATOM     24  C   UNL A   1      32.098  27.318  27.130  1.00  0.00     0.013 C 
BRANCH  23  25
ATOM     25  C   UNL A   1      31.589  24.890  26.774  1.00  0.00     0.005 C 
ATOM     26  C   UNL A   1      30.297  24.428  26.075  1.00  0.00     0.004 C 
ENDBRANCH  23  25
ENDBRANCH  18  23
ENDBRANCH  16  17
ENDBRANCH  10  16
ENDBRANCH   7   9
ENDBRANCH   6   7
ENDBRANCH   5   6
ENDBRANCH   4   5
ENDBRANCH   3   4
ENDBRANCH   2   3
ENDBRANCH   1   2
BRANCH   1  27
ATOM     27  O   UNL A   1      40.757  19.861  27.446  1.00  0.00    -0.377 OA
BRANCH  27  28
ATOM     28  C   UNL A   1      41.813  19.238  26.726  1.00  0.00     0.188 C 
BRANCH  28  29
ATOM     29  C   UNL A   1      42.857  20.059  25.929  1.00  0.00     0.188 C 
BRANCH  29  30
ATOM     30  O   UNL A   1      43.470  19.393  24.839  1.00  0.00    -0.376 OA
BRANCH  30  31
ATOM     31  C   UNL A   1      44.870  19.195  24.818  1.00  0.00     0.202 C 
BRANCH  31  32
ATOM     32  C   UNL A   1      45.754  20.145  23.995  1.00  0.00     0.261 C 
BRANCH  32  33
ATOM     33  O   UNL A   1      45.949  21.458  24.528  1.00  0.00    -0.460 OA
BRANCH  33  34
ATOM     34  C   UNL A   1      45.144  22.431  24.053  1.00  0.00     0.338 C 
ATOM     35  O   UNL A   1      44.338  22.330  23.139  1.00  0.00    -0.246 OA
BRANCH  34  36
ATOM     36  C   UNL A   1      45.240  23.579  24.976  1.00  0.00     0.060 A 
ATOM     37  C   UNL A   1      46.477  23.872  25.568  1.00  0.00     0.016 A 
ATOM     38  C   UNL A   1      44.126  24.384  25.223  1.00  0.00     0.016 A 
ATOM     39  C   UNL A   1      46.596  24.951  26.438  1.00  0.00     0.010 A 
ATOM     40  C   UNL A   1      44.234  25.439  26.131  1.00  0.00     0.010 A 
ATOM     41  C   UNL A   1      45.460  25.698  26.771  1.00  0.00    -0.014 A 
BRANCH  41  42
ATOM     42  C   UNL A   1      45.496  26.544  27.984  1.00  0.00     0.031 A 
ATOM     43  C   UNL A   1      45.731  28.018  27.792  1.00  0.00     0.074 A 
ATOM     44  C   UNL A   1      45.279  26.036  29.209  1.00  0.00     0.049 A 
ATOM     45  N   UNL A   1      45.864  28.964  28.682  1.00  0.00    -0.248 NA
ATOM     46  C   UNL A   1      45.834  28.479  26.398  1.00  0.00     0.031 C 
ATOM     47  C   UNL A   1      44.967  24.640  29.503  1.00  0.00     0.029 A 
ATOM     48  N   UNL A   1      45.294  26.647  30.437  1.00  0.00    -0.354 N 
ATOM     49  C   UNL A   1      46.074  30.132  27.957  1.00  0.00     0.074 A 
ATOM     50  C   UNL A   1      46.090  29.767  26.558  1.00  0.00     0.031 C 
ATOM     51  C   UNL A   1      44.835  24.497  30.834  1.00  0.00     0.029 A 
ATOM     52  C   UNL A   1      45.096  25.780  31.484  1.00  0.00     0.049 A 
ATOM     53  H   UNL A   1      45.433  27.614  30.556  1.00  0.00     0.167 HD
ATOM     54  C   UNL A   1      46.232  31.396  28.419  1.00  0.00     0.034 A 
ATOM     55  C   UNL A   1      45.156  25.997  32.815  1.00  0.00     0.034 A 
ATOM     56  C   UNL A   1      46.233  31.734  29.820  1.00  0.00     0.049 A 
ATOM     57  C   UNL A   1      45.448  27.395  33.313  1.00  0.00     0.074 A 
ATOM     58  C   UNL A   1      46.384  32.976  30.406  1.00  0.00     0.029 A 
ATOM     59  N   UNL A   1      46.093  30.819  30.858  1.00  0.00    -0.354 N 
ATOM     60  N   UNL A   1      45.652  28.495  32.624  1.00  0.00    -0.248 NA
ATOM     61  C   UNL A   1      45.510  27.580  34.769  1.00  0.00     0.031 C 
ATOM     62  C   UNL A   1      46.424  32.803  31.794  1.00  0.00     0.029 A 
ATOM     63  C   UNL A   1      46.196  31.466  32.080  1.00  0.00     0.049 A 
ATOM     64  H   UNL A   1      45.942  29.853  30.742  1.00  0.00     0.167 HD
ATOM     65  C   UNL A   1      45.831  29.507  33.565  1.00  0.00     0.074 A 
ATOM     66  C   UNL A   1      45.700  28.887  34.867  1.00  0.00     0.031 C 
ATOM     67  C   UNL A   1      46.073  30.831  33.372  1.00  0.00     0.034 A 
BRANCH  54  68
ATOM     68  C   UNL A   1      46.488  32.478  27.397  1.00  0.00     0.023 A 
ATOM     69  C   UNL A   1      47.780  32.764  26.922  1.00  0.00     0.031 A 
ATOM     70  C   UNL A   1      45.426  33.271  26.929  1.00  0.00     0.131 A 
ATOM     71  C   UNL A   1      47.986  33.861  26.073  1.00  0.00     0.055 A 
ATOM     72  C   UNL A   1      45.626  34.306  26.013  1.00  0.00     0.041 A 
ATOM     73  F   UNL A   1      44.174  33.068  27.370  1.00  0.00    -0.206 F 
ATOM     74  C   UNL A   1      46.915  34.617  25.593  1.00  0.00     0.022 A 
BRANCH  71  75
ATOM     75  S   UNL A   1      49.691  34.391  25.742  1.00  0.00     0.124 S 
ATOM     76  O   UNL A   1      50.056  35.017  27.010  1.00  0.00    -0.237 OA
ATOM     77  O   UNL A   1      50.357  33.132  25.434  1.00  0.00    -0.237 OA
ATOM     78  O   UNL A   1      49.549  35.316  24.619  1.00  0.00    -0.744 OA
ENDBRANCH  71  75
ENDBRANCH  54  68
BRANCH  55  79
ATOM     79  C   UNL A   1      44.984  24.866  33.772  1.00  0.00     0.023 A 
ATOM     80  C   UNL A   1      46.039  23.983  34.053  1.00  0.00     0.031 A 
ATOM     81  C   UNL A   1      43.741  24.620  34.382  1.00  0.00     0.131 A 
ATOM     82  C   UNL A   1      45.820  22.874  34.887  1.00  0.00     0.055 A 
ATOM     83  C   UNL A   1      43.544  23.550  35.255  1.00  0.00     0.041 A 
ATOM     84  F   UNL A   1      42.696  25.429  34.143  1.00  0.00    -0.206 F 
ATOM     85  C   UNL A   1      44.584  22.661  35.501  1.00  0.00     0.022 A 
BRANCH  82  86
ATOM     86  S   UNL A   1      47.152  21.659  35.084  1.00  0.00     0.124 S 
ATOM     87  O   UNL A   1      48.263  22.324  34.413  1.00  0.00    -0.237 OA
ATOM     88  O   UNL A   1      47.250  21.552  36.537  1.00  0.00    -0.237 OA
ATOM     89  O   UNL A   1      46.632  20.472  34.409  1.00  0.00    -0.744 OA
ENDBRANCH  82  86
ENDBRANCH  55  79
BRANCH  67  90
ATOM     90  C   UNL A   1      46.155  31.708  34.600  1.00  0.00     0.023 A 
ATOM     91  C   UNL A   1      45.018  32.311  35.166  1.00  0.00     0.031 A 
ATOM     92  C   UNL A   1      47.399  31.940  35.217  1.00  0.00     0.131 A 
ATOM     93  C   UNL A   1      45.155  33.160  36.274  1.00  0.00     0.055 A 
ATOM     94  C   UNL A   1      47.520  32.727  36.362  1.00  0.00     0.041 A 
ATOM     95  F   UNL A   1      48.520  31.394  34.720  1.00  0.00    -0.206 F 
ATOM     96  C   UNL A   1      46.395  33.355  36.890  1.00  0.00     0.022 A 
BRANCH  93  97
ATOM     97  S   UNL A   1      43.708  34.093  36.843  1.00  0.00     0.124 S 
ATOM     98  O   UNL A   1      43.192  33.234  37.903  1.00  0.00    -0.237 OA
ATOM     99  O   UNL A   1      44.298  35.355  37.275  1.00  0.00    -0.237 OA
ATOM    100  O   UNL A   1      42.865  34.179  35.651  1.00  0.00    -0.744 OA
ENDBRANCH  93  97
ENDBRANCH  67  90
ENDBRANCH  41  42
ENDBRANCH  34  36
ENDBRANCH  33  34
ENDBRANCH  32  33
ENDBRANCH  31  32
ENDBRANCH  30  31
ENDBRANCH  29  30
ENDBRANCH  28  29
ENDBRANCH  27  28
ENDBRANCH   1  27
TORSDOF 27
ENDMDL
