MODEL 1
REMARK VINA RESULT:      -9.9      0.000      0.000
REMARK SMILES Cc1ccccc1[C@@H](C)NS(=O)(=O)CC(=O)OCCOCCOCCOCCOC(=O)c1ccc(-c2c3nc(c(-c4cc(S(=O)(=O)[O-])ccc4F)c4ccc([nH]4)c(-c4cc(S(=O)(=O)[O-])ccc4F)c4nc(c(-c5cc(S(=O)(=O)[O-])ccc5F)c5ccc2[nH]5)C=C4)C=C3)cc1
REMARK SMILES IDX 22 1 21 2 20 3 19 4 18 5 17 6 15 7 16 8 14 9 11 10 12 11
REMARK SMILES IDX 13 12 10 13 8 15 9 16 7 17 1 18 2 19 3 20 4 21 6 22 5 23
REMARK SMILES IDX 23 24 24 25 25 26 26 27 27 28 28 29 29 30 30 31 31 32 32 33
REMARK SMILES IDX 33 34 94 35 34 36 93 37 35 38 36 39 37 40 87 41 38 42 92 43
REMARK SMILES IDX 86 44 88 45 39 46 91 47 85 48 84 49 40 51 72 52 52 53 71 54
REMARK SMILES IDX 53 55 56 56 70 57 89 58 54 59 55 60 69 62 90 63 57 64 41 65
REMARK SMILES IDX 42 66 50 67 43 68 49 69 51 70 48 71 44 72 45 73 46 74 47 75
REMARK SMILES IDX 73 76 74 77 82 78 75 79 81 80 83 81 80 82 76 83 77 84 78 85
REMARK SMILES IDX 79 86 58 87 59 88 67 89 60 90 66 91 68 92 65 93 61 94 62 95
REMARK SMILES IDX 63 96 64 97
REMARK H PARENT 10 14 88 50 56 61
REMARK Flexibility Score: inf
ROOT
ATOM      1  C   UNL A   1      33.172  28.760  23.321  1.00  0.00     0.188 C 
ENDROOT
BRANCH   1   2
ATOM      2  C   UNL A   1      32.423  27.750  22.435  1.00  0.00     0.188 C 
BRANCH   2   3
ATOM      3  O   UNL A   1      31.065  27.835  22.049  1.00  0.00    -0.376 OA
BRANCH   3   4
ATOM      4  C   UNL A   1      30.150  28.096  23.076  1.00  0.00     0.202 C 
BRANCH   4   5
ATOM      5  C   UNL A   1      29.489  26.884  23.702  1.00  0.00     0.261 C 
BRANCH   5   6
ATOM      6  O   UNL A   1      30.329  26.233  24.667  1.00  0.00    -0.462 OA
BRANCH   6   7
ATOM      7  C   UNL A   1      30.661  24.959  24.380  1.00  0.00     0.322 C 
ATOM      8  O   UNL A   1      30.994  24.556  23.271  1.00  0.00    -0.251 OA
BRANCH   7   9
ATOM      9  C   UNL A   1      30.465  24.052  25.529  1.00  0.00     0.276 C 
BRANCH   9  10
ATOM     10  S   UNL A   1      31.943  23.518  26.341  1.00  0.00     0.223 S 
ATOM     11  O   UNL A   1      31.615  23.353  27.755  1.00  0.00    -0.212 OA
ATOM     12  O   UNL A   1      33.000  24.417  25.981  1.00  0.00    -0.212 OA
BRANCH  10  13
ATOM     13  N   UNL A   1      32.407  22.020  25.795  1.00  0.00    -0.207 NA
ATOM     14  H   UNL A   1      33.103  21.698  26.469  1.00  0.00     0.141 HD
BRANCH  13  15
ATOM     15  C   UNL A   1      32.977  21.692  24.478  1.00  0.00     0.096 C 
ATOM     16  C   UNL A   1      32.442  20.372  23.956  1.00  0.00     0.031 C 
BRANCH  15  17
ATOM     17  C   UNL A   1      34.520  21.686  24.441  1.00  0.00    -0.027 A 
ATOM     18  C   UNL A   1      34.771  23.951  23.157  1.00  0.00     0.044 C 
ATOM     19  C   UNL A   1      35.305  22.695  23.811  1.00  0.00    -0.046 A 
ATOM     20  C   UNL A   1      36.713  22.601  23.832  1.00  0.00     0.004 A 
ATOM     21  C   UNL A   1      37.357  21.516  24.414  1.00  0.00     0.000 A 
ATOM     22  C   UNL A   1      35.206  20.610  25.046  1.00  0.00     0.005 A 
ATOM     23  C   UNL A   1      36.603  20.519  25.018  1.00  0.00     0.000 A 
ENDBRANCH  15  17
ENDBRANCH  13  15
ENDBRANCH  10  13
ENDBRANCH   9  10
ENDBRANCH   7   9
ENDBRANCH   6   7
ENDBRANCH   5   6
ENDBRANCH   4   5
ENDBRANCH   3   4
ENDBRANCH   2   3
ENDBRANCH   1   2
BRANCH   1  24
ATOM     24  O   UNL A   1      33.249  28.683  24.724  1.00  0.00    -0.377 OA
BRANCH  24  25
ATOM     25  C   UNL A   1      32.393  29.515  25.473  1.00  0.00     0.188 C 
BRANCH  25  26
ATOM     26  C   UNL A   1      32.092  29.195  26.903  1.00  0.00     0.188 C 
BRANCH  26  27
ATOM     27  O   UNL A   1      33.103  29.857  27.657  1.00  0.00    -0.376 OA
BRANCH  27  28
ATOM     28  C   UNL A   1      33.395  31.168  27.227  1.00  0.00     0.202 C 
BRANCH  28  29
ATOM     29  C   UNL A   1      34.690  31.706  27.837  1.00  0.00     0.261 C 
BRANCH  29  30
ATOM     30  O   UNL A   1      35.727  30.723  27.632  1.00  0.00    -0.460 OA
BRANCH  30  31
ATOM     31  C   UNL A   1      36.889  30.944  28.310  1.00  0.00     0.338 C 
ATOM     32  O   UNL A   1      37.281  32.040  28.679  1.00  0.00    -0.246 OA
BRANCH  31  33
ATOM     33  C   UNL A   1      37.688  29.681  28.402  1.00  0.00     0.060 A 
ATOM     34  C   UNL A   1      37.597  28.876  29.551  1.00  0.00     0.016 A 
ATOM     35  C   UNL A   1      38.706  29.429  27.484  1.00  0.00     0.016 A 
ATOM     36  C   UNL A   1      38.610  27.940  29.858  1.00  0.00     0.010 A 
ATOM     37  C   UNL A   1      39.728  28.542  27.819  1.00  0.00     0.010 A 
ATOM     38  C   UNL A   1      39.737  27.832  29.041  1.00  0.00    -0.014 A 
BRANCH  38  39
ATOM     39  C   UNL A   1      41.037  27.220  29.455  1.00  0.00     0.031 A 
ATOM     40  C   UNL A   1      41.406  25.869  28.916  1.00  0.00     0.074 A 
ATOM     41  C   UNL A   1      42.028  27.993  29.995  1.00  0.00     0.049 A 
ATOM     42  N   UNL A   1      42.526  25.267  29.131  1.00  0.00    -0.248 NA
ATOM     43  C   UNL A   1      40.570  25.100  27.999  1.00  0.00     0.031 C 
ATOM     44  C   UNL A   1      43.483  27.747  30.009  1.00  0.00     0.029 A 
ATOM     45  N   UNL A   1      41.971  29.264  30.583  1.00  0.00    -0.354 N 
ATOM     46  C   UNL A   1      42.728  24.304  28.157  1.00  0.00     0.074 A 
ATOM     47  C   UNL A   1      41.432  24.186  27.538  1.00  0.00     0.031 C 
ATOM     48  C   UNL A   1      44.135  28.689  30.708  1.00  0.00     0.029 A 
ATOM     49  C   UNL A   1      43.112  29.423  31.407  1.00  0.00     0.049 A 
ATOM     50  H   UNL A   1      41.261  29.932  30.446  1.00  0.00     0.167 HD
ATOM     51  C   UNL A   1      44.007  23.850  27.939  1.00  0.00     0.034 A 
ATOM     52  C   UNL A   1      42.966  29.475  32.759  1.00  0.00     0.034 A 
ATOM     53  C   UNL A   1      44.930  24.331  29.003  1.00  0.00     0.049 A 
ATOM     54  C   UNL A   1      43.497  28.158  33.327  1.00  0.00     0.074 A 
ATOM     55  C   UNL A   1      46.168  24.957  29.063  1.00  0.00     0.029 A 
ATOM     56  N   UNL A   1      44.480  24.310  30.328  1.00  0.00    -0.354 N 
ATOM     57  N   UNL A   1      43.635  27.071  32.599  1.00  0.00    -0.248 NA
ATOM     58  C   UNL A   1      44.116  27.993  34.638  1.00  0.00     0.031 C 
ATOM     59  C   UNL A   1      46.335  25.489  30.382  1.00  0.00     0.029 A 
ATOM     60  C   UNL A   1      45.259  25.084  31.159  1.00  0.00     0.049 A 
ATOM     61  H   UNL A   1      43.695  23.800  30.630  1.00  0.00     0.167 HD
ATOM     62  C   UNL A   1      44.473  26.187  33.205  1.00  0.00     0.074 A 
ATOM     63  C   UNL A   1      44.679  26.772  34.523  1.00  0.00     0.031 C 
ATOM     64  C   UNL A   1      45.002  25.078  32.594  1.00  0.00     0.034 A 
BRANCH  51  65
ATOM     65  C   UNL A   1      44.510  23.086  26.697  1.00  0.00     0.023 A 
ATOM     66  C   UNL A   1      44.043  21.771  26.442  1.00  0.00     0.031 A 
ATOM     67  C   UNL A   1      45.465  23.536  25.756  1.00  0.00     0.131 A 
ATOM     68  C   UNL A   1      44.521  20.987  25.362  1.00  0.00     0.055 A 
ATOM     69  C   UNL A   1      45.914  22.773  24.662  1.00  0.00     0.041 A 
ATOM     70  F   UNL A   1      46.039  24.737  25.826  1.00  0.00    -0.206 F 
ATOM     71  C   UNL A   1      45.448  21.489  24.461  1.00  0.00     0.022 A 
BRANCH  68  72
ATOM     72  S   UNL A   1      43.919  19.285  25.149  1.00  0.00     0.124 S 
ATOM     73  O   UNL A   1      44.657  18.848  23.968  1.00  0.00    -0.237 OA
ATOM     74  O   UNL A   1      44.294  18.658  26.412  1.00  0.00    -0.237 OA
ATOM     75  O   UNL A   1      42.479  19.454  24.951  1.00  0.00    -0.744 OA
ENDBRANCH  68  72
ENDBRANCH  51  65
BRANCH  52  76
ATOM     76  C   UNL A   1      41.810  30.391  33.068  1.00  0.00     0.023 A 
ATOM     77  C   UNL A   1      41.980  31.738  32.607  1.00  0.00     0.031 A 
ATOM     78  C   UNL A   1      40.493  29.920  33.158  1.00  0.00     0.131 A 
ATOM     79  C   UNL A   1      40.906  32.448  32.033  1.00  0.00     0.055 A 
ATOM     80  C   UNL A   1      39.412  30.672  32.656  1.00  0.00     0.041 A 
ATOM     81  F   UNL A   1      40.243  28.665  33.559  1.00  0.00    -0.206 F 
ATOM     82  C   UNL A   1      39.624  31.905  32.033  1.00  0.00     0.022 A 
BRANCH  79  83
ATOM     83  S   UNL A   1      41.248  33.923  31.003  1.00  0.00     0.124 S 
ATOM     84  O   UNL A   1      41.074  35.012  31.958  1.00  0.00    -0.237 OA
ATOM     85  O   UNL A   1      42.610  33.696  30.535  1.00  0.00    -0.237 OA
ATOM     86  O   UNL A   1      40.238  33.849  29.946  1.00  0.00    -0.744 OA
ENDBRANCH  79  83
ENDBRANCH  52  76
BRANCH  64  87
ATOM     87  C   UNL A   1      45.330  23.807  33.333  1.00  0.00     0.023 A 
ATOM     88  C   UNL A   1      46.567  23.633  33.950  1.00  0.00     0.031 A 
ATOM     89  C   UNL A   1      44.355  22.812  33.607  1.00  0.00     0.131 A 
ATOM     90  C   UNL A   1      46.840  22.490  34.706  1.00  0.00     0.055 A 
ATOM     91  C   UNL A   1      44.592  21.733  34.458  1.00  0.00     0.041 A 
ATOM     92  F   UNL A   1      43.118  22.853  33.090  1.00  0.00    -0.206 F 
ATOM     93  C   UNL A   1      45.853  21.553  34.999  1.00  0.00     0.022 A 
BRANCH  90  94
ATOM     94  S   UNL A   1      48.555  22.229  35.190  1.00  0.00     0.124 S 
ATOM     95  O   UNL A   1      48.396  21.462  36.424  1.00  0.00    -0.237 OA
ATOM     96  O   UNL A   1      49.095  21.491  34.053  1.00  0.00    -0.237 OA
ATOM     97  O   UNL A   1      49.071  23.584  35.362  1.00  0.00    -0.744 OA
ENDBRANCH  90  94
ENDBRANCH  64  87
ENDBRANCH  38  39
ENDBRANCH  31  33
ENDBRANCH  30  31
ENDBRANCH  29  30
ENDBRANCH  28  29
ENDBRANCH  27  28
ENDBRANCH  26  27
ENDBRANCH  25  26
ENDBRANCH  24  25
ENDBRANCH   1  24
TORSDOF 27
ENDMDL
MODEL 2
REMARK VINA RESULT:      -9.9      3.478      4.719
REMARK SMILES Cc1ccccc1[C@@H](C)NS(=O)(=O)CC(=O)OCCOCCOCCOCCOC(=O)c1ccc(-c2c3nc(c(-c4cc(S(=O)(=O)[O-])ccc4F)c4ccc([nH]4)c(-c4cc(S(=O)(=O)[O-])ccc4F)c4nc(c(-c5cc(S(=O)(=O)[O-])ccc5F)c5ccc2[nH]5)C=C4)C=C3)cc1
REMARK SMILES IDX 22 1 21 2 20 3 19 4 18 5 17 6 15 7 16 8 14 9 11 10 12 11
REMARK SMILES IDX 13 12 10 13 8 15 9 16 7 17 1 18 2 19 3 20 4 21 6 22 5 23
REMARK SMILES IDX 23 24 24 25 25 26 26 27 27 28 28 29 29 30 30 31 31 32 32 33
REMARK SMILES IDX 33 34 94 35 34 36 93 37 35 38 36 39 37 40 87 41 38 42 92 43
REMARK SMILES IDX 86 44 88 45 39 46 91 47 85 48 84 49 40 51 72 52 52 53 71 54
REMARK SMILES IDX 53 55 56 56 70 57 89 58 54 59 55 60 69 62 90 63 57 64 41 65
REMARK SMILES IDX 42 66 50 67 43 68 49 69 51 70 48 71 44 72 45 73 46 74 47 75
REMARK SMILES IDX 73 76 74 77 82 78 75 79 81 80 83 81 80 82 76 83 77 84 78 85
REMARK SMILES IDX 79 86 58 87 59 88 67 89 60 90 66 91 68 92 65 93 61 94 62 95
REMARK SMILES IDX 63 96 64 97
REMARK H PARENT 10 14 88 50 56 61
REMARK Flexibility Score: inf
ROOT
ATOM      1  C   UNL A   1      32.651  31.260  27.259  1.00  0.00     0.188 C 
ENDROOT
BRANCH   1   2
ATOM      2  C   UNL A   1      32.793  29.937  26.487  1.00  0.00     0.188 C 
BRANCH   2   3
ATOM      3  O   UNL A   1      33.293  29.795  25.171  1.00  0.00    -0.376 OA
BRANCH   3   4
ATOM      4  C   UNL A   1      32.440  29.167  24.256  1.00  0.00     0.202 C 
BRANCH   4   5
ATOM      5  C   UNL A   1      31.411  28.223  24.845  1.00  0.00     0.261 C 
BRANCH   5   6
ATOM      6  O   UNL A   1      31.735  26.842  24.618  1.00  0.00    -0.462 OA
BRANCH   6   7
ATOM      7  C   UNL A   1      32.489  26.260  25.570  1.00  0.00     0.322 C 
ATOM      8  O   UNL A   1      33.712  26.316  25.626  1.00  0.00    -0.251 OA
BRANCH   7   9
ATOM      9  C   UNL A   1      31.688  25.429  26.493  1.00  0.00     0.276 C 
BRANCH   9  10
ATOM     10  S   UNL A   1      31.565  23.717  26.065  1.00  0.00     0.223 S 
ATOM     11  O   UNL A   1      30.659  23.631  24.921  1.00  0.00    -0.212 OA
ATOM     12  O   UNL A   1      31.244  22.981  27.252  1.00  0.00    -0.212 OA
BRANCH  10  13
ATOM     13  N   UNL A   1      33.029  23.133  25.542  1.00  0.00    -0.207 NA
ATOM     14  H   UNL A   1      33.441  23.897  25.005  1.00  0.00     0.141 HD
BRANCH  13  15
ATOM     15  C   UNL A   1      33.265  21.929  24.729  1.00  0.00     0.096 C 
ATOM     16  C   UNL A   1      32.330  20.802  25.125  1.00  0.00     0.031 C 
BRANCH  15  17
ATOM     17  C   UNL A   1      34.726  21.431  24.746  1.00  0.00    -0.027 A 
ATOM     18  C   UNL A   1      35.812  23.760  24.253  1.00  0.00     0.044 C 
ATOM     19  C   UNL A   1      35.854  22.266  24.495  1.00  0.00    -0.046 A 
ATOM     20  C   UNL A   1      37.153  21.717  24.535  1.00  0.00     0.004 A 
ATOM     21  C   UNL A   1      37.359  20.362  24.766  1.00  0.00     0.000 A 
ATOM     22  C   UNL A   1      34.971  20.065  25.004  1.00  0.00     0.005 A 
ATOM     23  C   UNL A   1      36.267  19.536  24.998  1.00  0.00     0.000 A 
ENDBRANCH  15  17
ENDBRANCH  13  15
ENDBRANCH  10  13
ENDBRANCH   9  10
ENDBRANCH   7   9
ENDBRANCH   6   7
ENDBRANCH   5   6
ENDBRANCH   4   5
ENDBRANCH   3   4
ENDBRANCH   2   3
ENDBRANCH   1   2
BRANCH   1  24
ATOM     24  O   UNL A   1      33.671  31.840  28.036  1.00  0.00    -0.377 OA
BRANCH  24  25
ATOM     25  C   UNL A   1      33.677  33.244  28.164  1.00  0.00     0.188 C 
BRANCH  25  26
ATOM     26  C   UNL A   1      32.545  34.056  27.617  1.00  0.00     0.188 C 
BRANCH  26  27
ATOM     27  O   UNL A   1      32.463  35.201  28.461  1.00  0.00    -0.376 OA
BRANCH  27  28
ATOM     28  C   UNL A   1      33.586  35.404  29.289  1.00  0.00     0.202 C 
BRANCH  28  29
ATOM     29  C   UNL A   1      33.201  35.925  30.675  1.00  0.00     0.261 C 
BRANCH  29  30
ATOM     30  O   UNL A   1      33.419  34.866  31.631  1.00  0.00    -0.460 OA
BRANCH  30  31
ATOM     31  C   UNL A   1      34.647  34.850  32.222  1.00  0.00     0.338 C 
ATOM     32  O   UNL A   1      35.117  35.769  32.874  1.00  0.00    -0.246 OA
BRANCH  31  33
ATOM     33  C   UNL A   1      35.399  33.615  31.831  1.00  0.00     0.060 A 
ATOM     34  C   UNL A   1      35.288  32.450  32.611  1.00  0.00     0.016 A 
ATOM     35  C   UNL A   1      36.398  33.682  30.861  1.00  0.00     0.016 A 
ATOM     36  C   UNL A   1      36.268  31.436  32.535  1.00  0.00     0.010 A 
ATOM     37  C   UNL A   1      37.389  32.702  30.828  1.00  0.00     0.010 A 
ATOM     38  C   UNL A   1      37.383  31.596  31.709  1.00  0.00    -0.014 A 
BRANCH  38  39
ATOM     39  C   UNL A   1      38.662  30.835  31.843  1.00  0.00     0.031 A 
ATOM     40  C   UNL A   1      38.842  29.575  31.047  1.00  0.00     0.074 A 
ATOM     41  C   UNL A   1      39.776  31.433  32.365  1.00  0.00     0.049 A 
ATOM     42  N   UNL A   1      39.922  28.870  31.012  1.00  0.00    -0.248 NA
ATOM     43  C   UNL A   1      37.838  29.035  30.136  1.00  0.00     0.031 C 
ATOM     44  C   UNL A   1      41.194  31.090  32.147  1.00  0.00     0.029 A 
ATOM     45  N   UNL A   1      39.903  32.585  33.155  1.00  0.00    -0.354 N 
ATOM     46  C   UNL A   1      39.919  28.078  29.876  1.00  0.00     0.074 A 
ATOM     47  C   UNL A   1      38.553  28.157  29.422  1.00  0.00     0.031 C 
ATOM     48  C   UNL A   1      42.006  31.851  32.898  1.00  0.00     0.029 A 
ATOM     49  C   UNL A   1      41.142  32.520  33.836  1.00  0.00     0.049 A 
ATOM     50  H   UNL A   1      39.244  33.313  33.223  1.00  0.00     0.167 HD
ATOM     51  C   UNL A   1      41.118  27.582  29.420  1.00  0.00     0.034 A 
ATOM     52  C   UNL A   1      41.163  32.349  35.185  1.00  0.00     0.034 A 
ATOM     53  C   UNL A   1      42.200  27.809  30.417  1.00  0.00     0.049 A 
ATOM     54  C   UNL A   1      41.638  30.920  35.457  1.00  0.00     0.074 A 
ATOM     55  C   UNL A   1      43.487  28.328  30.414  1.00  0.00     0.029 A 
ATOM     56  N   UNL A   1      41.910  27.590  31.768  1.00  0.00    -0.354 N 
ATOM     57  N   UNL A   1      41.590  29.968  34.550  1.00  0.00    -0.248 NA
ATOM     58  C   UNL A   1      42.390  30.489  36.630  1.00  0.00     0.031 C 
ATOM     59  C   UNL A   1      43.856  28.612  31.768  1.00  0.00     0.029 A 
ATOM     60  C   UNL A   1      42.848  28.153  32.604  1.00  0.00     0.049 A 
ATOM     61  H   UNL A   1      41.124  27.090  32.085  1.00  0.00     0.167 HD
ATOM     62  C   UNL A   1      42.412  28.937  34.888  1.00  0.00     0.074 A 
ATOM     63  C   UNL A   1      42.824  29.271  36.244  1.00  0.00     0.031 C 
ATOM     64  C   UNL A   1      42.763  27.917  34.040  1.00  0.00     0.034 A 
BRANCH  51  65
ATOM     65  C   UNL A   1      41.399  27.011  28.014  1.00  0.00     0.023 A 
ATOM     66  C   UNL A   1      41.699  25.634  27.861  1.00  0.00     0.031 A 
ATOM     67  C   UNL A   1      41.446  27.736  26.801  1.00  0.00     0.131 A 
ATOM     68  C   UNL A   1      42.041  25.061  26.610  1.00  0.00     0.055 A 
ATOM     69  C   UNL A   1      41.749  27.163  25.552  1.00  0.00     0.041 A 
ATOM     70  F   UNL A   1      41.211  29.046  26.732  1.00  0.00    -0.206 F 
ATOM     71  C   UNL A   1      42.054  25.820  25.449  1.00  0.00     0.022 A 
BRANCH  68  72
ATOM     72  S   UNL A   1      42.478  23.300  26.515  1.00  0.00     0.124 S 
ATOM     73  O   UNL A   1      43.642  23.229  27.393  1.00  0.00    -0.237 OA
ATOM     74  O   UNL A   1      41.266  22.647  26.997  1.00  0.00    -0.237 OA
ATOM     75  O   UNL A   1      42.762  23.094  25.095  1.00  0.00    -0.744 OA
ENDBRANCH  68  72
ENDBRANCH  51  65
BRANCH  52  76
ATOM     76  C   UNL A   1      40.139  33.274  35.789  1.00  0.00     0.023 A 
ATOM     77  C   UNL A   1      39.007  32.612  36.367  1.00  0.00     0.031 A 
ATOM     78  C   UNL A   1      40.494  34.512  36.344  1.00  0.00     0.131 A 
ATOM     79  C   UNL A   1      38.452  33.055  37.585  1.00  0.00     0.055 A 
ATOM     80  C   UNL A   1      39.876  34.989  37.518  1.00  0.00     0.041 A 
ATOM     81  F   UNL A   1      41.553  35.190  35.880  1.00  0.00    -0.206 F 
ATOM     82  C   UNL A   1      38.904  34.232  38.177  1.00  0.00     0.022 A 
BRANCH  79  83
ATOM     83  S   UNL A   1      37.380  31.927  38.551  1.00  0.00     0.124 S 
ATOM     84  O   UNL A   1      36.112  32.649  38.569  1.00  0.00    -0.237 OA
ATOM     85  O   UNL A   1      37.402  30.696  37.771  1.00  0.00    -0.237 OA
ATOM     86  O   UNL A   1      38.061  31.824  39.842  1.00  0.00    -0.744 OA
ENDBRANCH  79  83
ENDBRANCH  52  76
BRANCH  64  87
ATOM     87  C   UNL A   1      43.062  26.518  34.513  1.00  0.00     0.023 A 
ATOM     88  C   UNL A   1      44.366  26.028  34.532  1.00  0.00     0.031 A 
ATOM     89  C   UNL A   1      42.083  25.700  35.136  1.00  0.00     0.131 A 
ATOM     90  C   UNL A   1      44.651  24.763  35.050  1.00  0.00     0.055 A 
ATOM     91  C   UNL A   1      42.390  24.490  35.757  1.00  0.00     0.041 A 
ATOM     92  F   UNL A   1      40.788  26.047  35.202  1.00  0.00    -0.206 F 
ATOM     93  C   UNL A   1      43.683  24.000  35.698  1.00  0.00     0.022 A 
BRANCH  90  94
ATOM     94  S   UNL A   1      46.304  24.115  34.741  1.00  0.00     0.124 S 
ATOM     95  O   UNL A   1      47.044  24.648  35.884  1.00  0.00    -0.237 OA
ATOM     96  O   UNL A   1      46.084  22.673  34.749  1.00  0.00    -0.237 OA
ATOM     97  O   UNL A   1      46.659  24.689  33.446  1.00  0.00    -0.744 OA
ENDBRANCH  90  94
ENDBRANCH  64  87
ENDBRANCH  38  39
ENDBRANCH  31  33
ENDBRANCH  30  31
ENDBRANCH  29  30
ENDBRANCH  28  29
ENDBRANCH  27  28
ENDBRANCH  26  27
ENDBRANCH  25  26
ENDBRANCH  24  25
ENDBRANCH   1  24
TORSDOF 27
ENDMDL
MODEL 3
REMARK VINA RESULT:      -9.9      2.446      3.017
REMARK SMILES Cc1ccccc1[C@@H](C)NS(=O)(=O)CC(=O)OCCOCCOCCOCCOC(=O)c1ccc(-c2c3nc(c(-c4cc(S(=O)(=O)[O-])ccc4F)c4ccc([nH]4)c(-c4cc(S(=O)(=O)[O-])ccc4F)c4nc(c(-c5cc(S(=O)(=O)[O-])ccc5F)c5ccc2[nH]5)C=C4)C=C3)cc1
REMARK SMILES IDX 22 1 21 2 20 3 19 4 18 5 17 6 15 7 16 8 14 9 11 10 12 11
REMARK SMILES IDX 13 12 10 13 8 15 9 16 7 17 1 18 2 19 3 20 4 21 6 22 5 23
REMARK SMILES IDX 23 24 24 25 25 26 26 27 27 28 28 29 29 30 30 31 31 32 32 33
REMARK SMILES IDX 33 34 94 35 34 36 93 37 35 38 36 39 37 40 87 41 38 42 92 43
REMARK SMILES IDX 86 44 88 45 39 46 91 47 85 48 84 49 40 51 72 52 52 53 71 54
REMARK SMILES IDX 53 55 56 56 70 57 89 58 54 59 55 60 69 62 90 63 57 64 41 65
REMARK SMILES IDX 42 66 50 67 43 68 49 69 51 70 48 71 44 72 45 73 46 74 47 75
REMARK SMILES IDX 73 76 74 77 82 78 75 79 81 80 83 81 80 82 76 83 77 84 78 85
REMARK SMILES IDX 79 86 58 87 59 88 67 89 60 90 66 91 68 92 65 93 61 94 62 95
REMARK SMILES IDX 63 96 64 97
REMARK H PARENT 10 14 88 50 56 61
REMARK Flexibility Score: inf
ROOT
ATOM      1  C   UNL A   1      31.605  26.381  25.492  1.00  0.00     0.188 C 
ENDROOT
BRANCH   1   2
ATOM      2  C   UNL A   1      30.926  27.384  24.546  1.00  0.00     0.188 C 
BRANCH   2   3
ATOM      3  O   UNL A   1      30.670  27.182  23.168  1.00  0.00    -0.376 OA
BRANCH   3   4
ATOM      4  C   UNL A   1      31.627  27.699  22.285  1.00  0.00     0.202 C 
BRANCH   4   5
ATOM      5  C   UNL A   1      33.070  27.355  22.594  1.00  0.00     0.261 C 
BRANCH   5   6
ATOM      6  O   UNL A   1      33.714  26.657  21.517  1.00  0.00    -0.462 OA
BRANCH   6   7
ATOM      7  C   UNL A   1      33.195  25.450  21.217  1.00  0.00     0.322 C 
ATOM      8  O   UNL A   1      33.092  24.995  20.083  1.00  0.00    -0.251 OA
BRANCH   7   9
ATOM      9  C   UNL A   1      32.640  24.764  22.402  1.00  0.00     0.276 C 
BRANCH   9  10
ATOM     10  S   UNL A   1      33.641  23.470  23.073  1.00  0.00     0.223 S 
ATOM     11  O   UNL A   1      34.997  23.678  22.570  1.00  0.00    -0.212 OA
ATOM     12  O   UNL A   1      32.994  22.219  22.806  1.00  0.00    -0.212 OA
BRANCH  10  13
ATOM     13  N   UNL A   1      33.736  23.595  24.727  1.00  0.00    -0.207 NA
ATOM     14  H   UNL A   1      34.463  24.291  24.897  1.00  0.00     0.141 HD
BRANCH  13  15
ATOM     15  C   UNL A   1      34.018  22.513  25.683  1.00  0.00     0.096 C 
ATOM     16  C   UNL A   1      33.958  23.010  27.116  1.00  0.00     0.031 C 
BRANCH  15  17
ATOM     17  C   UNL A   1      35.356  21.783  25.436  1.00  0.00    -0.027 A 
ATOM     18  C   UNL A   1      36.886  23.849  25.917  1.00  0.00     0.044 C 
ATOM     19  C   UNL A   1      36.632  22.413  25.513  1.00  0.00    -0.046 A 
ATOM     20  C   UNL A   1      37.800  21.658  25.271  1.00  0.00     0.004 A 
ATOM     21  C   UNL A   1      37.733  20.318  24.910  1.00  0.00     0.000 A 
ATOM     22  C   UNL A   1      35.324  20.414  25.092  1.00  0.00     0.005 A 
ATOM     23  C   UNL A   1      36.495  19.697  24.817  1.00  0.00     0.000 A 
ENDBRANCH  15  17
ENDBRANCH  13  15
ENDBRANCH  10  13
ENDBRANCH   9  10
ENDBRANCH   7   9
ENDBRANCH   6   7
ENDBRANCH   5   6
ENDBRANCH   4   5
ENDBRANCH   3   4
ENDBRANCH   2   3
ENDBRANCH   1   2
BRANCH   1  24
ATOM     24  O   UNL A   1      32.910  26.525  25.999  1.00  0.00    -0.377 OA
BRANCH  24  25
ATOM     25  C   UNL A   1      33.194  27.682  26.753  1.00  0.00     0.188 C 
BRANCH  25  26
ATOM     26  C   UNL A   1      32.187  28.217  27.721  1.00  0.00     0.188 C 
BRANCH  26  27
ATOM     27  O   UNL A   1      31.799  29.485  27.197  1.00  0.00    -0.376 OA
BRANCH  27  28
ATOM     28  C   UNL A   1      32.843  30.216  26.595  1.00  0.00     0.202 C 
BRANCH  28  29
ATOM     29  C   UNL A   1      33.221  31.461  27.399  1.00  0.00     0.261 C 
BRANCH  29  30
ATOM     30  O   UNL A   1      34.060  31.050  28.499  1.00  0.00    -0.460 OA
BRANCH  30  31
ATOM     31  C   UNL A   1      35.357  31.462  28.436  1.00  0.00     0.338 C 
ATOM     32  O   UNL A   1      35.714  32.590  28.136  1.00  0.00    -0.246 OA
BRANCH  31  33
ATOM     33  C   UNL A   1      36.284  30.303  28.634  1.00  0.00     0.060 A 
ATOM     34  C   UNL A   1      36.548  29.830  29.933  1.00  0.00     0.016 A 
ATOM     35  C   UNL A   1      37.081  29.856  27.582  1.00  0.00     0.016 A 
ATOM     36  C   UNL A   1      37.697  29.052  30.196  1.00  0.00     0.010 A 
ATOM     37  C   UNL A   1      38.240  29.133  27.858  1.00  0.00     0.010 A 
ATOM     38  C   UNL A   1      38.608  28.776  29.175  1.00  0.00    -0.014 A 
BRANCH  38  39
ATOM     39  C   UNL A   1      40.025  28.349  29.386  1.00  0.00     0.031 A 
ATOM     40  C   UNL A   1      40.413  26.935  29.064  1.00  0.00     0.074 A 
ATOM     41  C   UNL A   1      41.021  29.280  29.505  1.00  0.00     0.049 A 
ATOM     42  N   UNL A   1      41.611  26.463  29.127  1.00  0.00    -0.248 NA
ATOM     43  C   UNL A   1      39.485  25.933  28.548  1.00  0.00     0.031 C 
ATOM     44  C   UNL A   1      42.461  29.129  29.225  1.00  0.00     0.029 A 
ATOM     45  N   UNL A   1      40.956  30.645  29.817  1.00  0.00    -0.354 N 
ATOM     46  C   UNL A   1      41.698  25.320  28.351  1.00  0.00     0.074 A 
ATOM     47  C   UNL A   1      40.319  24.990  28.094  1.00  0.00     0.031 C 
ATOM     48  C   UNL A   1      43.144  30.240  29.542  1.00  0.00     0.029 A 
ATOM     49  C   UNL A   1      42.224  31.051  30.298  1.00  0.00     0.049 A 
ATOM     50  H   UNL A   1      40.165  31.222  29.718  1.00  0.00     0.167 HD
ATOM     51  C   UNL A   1      42.941  24.904  27.934  1.00  0.00     0.034 A 
ATOM     52  C   UNL A   1      42.372  31.397  31.605  1.00  0.00     0.034 A 
ATOM     53  C   UNL A   1      44.016  25.665  28.628  1.00  0.00     0.049 A 
ATOM     54  C   UNL A   1      43.154  30.274  32.289  1.00  0.00     0.074 A 
ATOM     55  C   UNL A   1      45.162  26.359  28.264  1.00  0.00     0.029 A 
ATOM     56  N   UNL A   1      43.870  25.915  29.997  1.00  0.00    -0.354 N 
ATOM     57  N   UNL A   1      43.246  29.062  31.788  1.00  0.00    -0.248 NA
ATOM     58  C   UNL A   1      44.058  30.444  33.422  1.00  0.00     0.031 C 
ATOM     59  C   UNL A   1      45.553  27.183  29.368  1.00  0.00     0.029 A 
ATOM     60  C   UNL A   1      44.724  26.900  30.444  1.00  0.00     0.049 A 
ATOM     61  H   UNL A   1      43.231  25.441  30.575  1.00  0.00     0.167 HD
ATOM     62  C   UNL A   1      44.288  28.386  32.346  1.00  0.00     0.074 A 
ATOM     63  C   UNL A   1      44.712  29.264  33.429  1.00  0.00     0.031 C 
ATOM     64  C   UNL A   1      44.788  27.201  31.868  1.00  0.00     0.034 A 
BRANCH  51  65
ATOM     65  C   UNL A   1      43.241  23.911  26.792  1.00  0.00     0.023 A 
ATOM     66  C   UNL A   1      42.800  22.567  26.894  1.00  0.00     0.031 A 
ATOM     67  C   UNL A   1      43.980  24.173  25.616  1.00  0.00     0.131 A 
ATOM     68  C   UNL A   1      43.106  21.587  25.917  1.00  0.00     0.055 A 
ATOM     69  C   UNL A   1      44.255  23.211  24.627  1.00  0.00     0.041 A 
ATOM     70  F   UNL A   1      44.498  25.370  25.339  1.00  0.00    -0.206 F 
ATOM     71  C   UNL A   1      43.823  21.907  24.774  1.00  0.00     0.022 A 
BRANCH  68  72
ATOM     72  S   UNL A   1      42.560  19.870  26.160  1.00  0.00     0.124 S 
ATOM     73  O   UNL A   1      43.681  19.114  25.610  1.00  0.00    -0.237 OA
ATOM     74  O   UNL A   1      42.382  19.798  27.606  1.00  0.00    -0.237 OA
ATOM     75  O   UNL A   1      41.322  19.792  25.384  1.00  0.00    -0.744 OA
ENDBRANCH  68  72
ENDBRANCH  51  65
BRANCH  52  76
ATOM     76  C   UNL A   1      41.219  32.290  31.984  1.00  0.00     0.023 A 
ATOM     77  C   UNL A   1      40.258  31.682  32.856  1.00  0.00     0.031 A 
ATOM     78  C   UNL A   1      41.358  33.682  32.076  1.00  0.00     0.131 A 
ATOM     79  C   UNL A   1      39.684  32.408  33.920  1.00  0.00     0.055 A 
ATOM     80  C   UNL A   1      40.714  34.414  33.093  1.00  0.00     0.041 A 
ATOM     81  F   UNL A   1      42.250  34.331  31.313  1.00  0.00    -0.206 F 
ATOM     82  C   UNL A   1      39.931  33.771  34.056  1.00  0.00     0.022 A 
BRANCH  79  83
ATOM     83  S   UNL A   1      38.886  31.506  35.300  1.00  0.00     0.124 S 
ATOM     84  O   UNL A   1      37.848  32.441  35.719  1.00  0.00    -0.237 OA
ATOM     85  O   UNL A   1      38.420  30.276  34.671  1.00  0.00    -0.237 OA
ATOM     86  O   UNL A   1      39.974  31.306  36.257  1.00  0.00    -0.744 OA
ENDBRANCH  79  83
ENDBRANCH  52  76
BRANCH  64  87
ATOM     87  C   UNL A   1      45.406  26.150  32.754  1.00  0.00     0.023 A 
ATOM     88  C   UNL A   1      44.638  25.117  33.287  1.00  0.00     0.031 A 
ATOM     89  C   UNL A   1      46.809  26.038  32.937  1.00  0.00     0.131 A 
ATOM     90  C   UNL A   1      45.227  24.097  34.038  1.00  0.00     0.055 A 
ATOM     91  C   UNL A   1      47.404  24.957  33.585  1.00  0.00     0.041 A 
ATOM     92  F   UNL A   1      47.673  26.953  32.470  1.00  0.00    -0.206 F 
ATOM     93  C   UNL A   1      46.609  23.983  34.162  1.00  0.00     0.022 A 
BRANCH  90  94
ATOM     94  S   UNL A   1      44.110  22.999  34.929  1.00  0.00     0.124 S 
ATOM     95  O   UNL A   1      44.924  21.790  35.047  1.00  0.00    -0.237 OA
ATOM     96  O   UNL A   1      43.878  23.727  36.172  1.00  0.00    -0.237 OA
ATOM     97  O   UNL A   1      42.957  22.890  34.040  1.00  0.00    -0.744 OA
ENDBRANCH  90  94
ENDBRANCH  64  87
ENDBRANCH  38  39
ENDBRANCH  31  33
ENDBRANCH  30  31
ENDBRANCH  29  30
ENDBRANCH  28  29
ENDBRANCH  27  28
ENDBRANCH  26  27
ENDBRANCH  25  26
ENDBRANCH  24  25
ENDBRANCH   1  24
TORSDOF 27
ENDMDL
