MODEL 1
REMARK VINA RESULT:      -8.9      0.000      0.000
REMARK SMILES CCOC(=O)c1ccc(-c2ccc(C(=O)OCCOCCOCCOCCOC(=O)c3ccc(-c4c5nc(c(-c6cc(S(=O)(=O)[O-])ccc6F)c6ccc([nH]6)c(-c6cc(S(=O)(=O)[O-])ccc6F)c6nc(c(-c7cc(S(=O)(=O)[O-])ccc7F)c7ccc4[nH]7)C=C6)C=C5)cc3)o2)cc1
REMARK SMILES IDX 21 1 20 2 19 3 18 4 17 5 16 6 14 7 15 8 13 9 10 10 11 11
REMARK SMILES IDX 94 12 12 13 9 14 6 15 7 16 96 17 8 18 95 19 4 20 5 21 3 22
REMARK SMILES IDX 2 23 1 24 22 25 23 26 24 27 25 28 26 29 27 30 28 31 29 32
REMARK SMILES IDX 30 33 31 34 32 35 93 36 33 37 92 38 34 39 35 40 36 41 86 42
REMARK SMILES IDX 37 43 91 44 85 45 87 46 38 47 90 48 84 49 83 50 39 52 71 53
REMARK SMILES IDX 51 54 70 55 52 56 55 57 69 58 88 59 53 60 54 61 68 63 89 64
REMARK SMILES IDX 56 65 40 66 41 67 49 68 42 69 48 70 50 71 47 72 43 73 44 74
REMARK SMILES IDX 45 75 46 76 72 77 73 78 81 79 74 80 80 81 82 82 79 83 75 84
REMARK SMILES IDX 76 85 77 86 78 87 57 88 58 89 66 90 59 91 65 92 67 93 64 94
REMARK SMILES IDX 60 95 61 96 62 97 63 98
REMARK H PARENT 87 51 55 62
REMARK Flexibility Score: inf
ROOT
ATOM      1  C   UNL A   1      31.956  28.469  26.657  1.00  0.00     0.188 C 
ENDROOT
BRANCH   1   2
ATOM      2  C   UNL A   1      31.861  28.675  25.131  1.00  0.00     0.188 C 
BRANCH   2   3
ATOM      3  O   UNL A   1      30.674  28.448  24.375  1.00  0.00    -0.376 OA
BRANCH   3   4
ATOM      4  C   UNL A   1      30.607  27.460  23.360  1.00  0.00     0.202 C 
BRANCH   4   5
ATOM      5  C   UNL A   1      31.347  26.132  23.575  1.00  0.00     0.261 C 
BRANCH   5   6
ATOM      6  O   UNL A   1      30.577  25.104  24.205  1.00  0.00    -0.457 OA
BRANCH   6   7
ATOM      7  C   UNL A   1      30.773  24.943  25.545  1.00  0.00     0.374 C 
ATOM      8  O   UNL A   1      30.026  25.355  26.423  1.00  0.00    -0.242 OA
BRANCH   7   9
ATOM      9  C   UNL A   1      31.945  24.123  25.747  1.00  0.00     0.212 A 
ATOM     10  C   UNL A   1      33.186  22.334  25.431  1.00  0.00     0.135 A 
ATOM     11  C   UNL A   1      33.989  23.244  26.082  1.00  0.00     0.052 A 
ATOM     12  O   UNL A   1      31.939  22.844  25.247  1.00  0.00    -0.449 OA
ATOM     13  C   UNL A   1      33.192  24.394  26.286  1.00  0.00     0.059 A 
BRANCH  10  14
ATOM     14  C   UNL A   1      33.415  20.999  24.921  1.00  0.00     0.017 A 
ATOM     15  C   UNL A   1      33.777  18.330  24.149  1.00  0.00     0.060 A 
ATOM     16  C   UNL A   1      34.850  19.057  24.676  1.00  0.00     0.016 A 
ATOM     17  C   UNL A   1      32.531  18.946  23.979  1.00  0.00     0.016 A 
ATOM     18  C   UNL A   1      34.671  20.392  25.053  1.00  0.00     0.013 A 
ATOM     19  C   UNL A   1      32.353  20.276  24.367  1.00  0.00     0.013 A 
BRANCH  15  20
ATOM     20  C   UNL A   1      33.959  16.884  23.876  1.00  0.00     0.338 C 
ATOM     21  O   UNL A   1      34.036  16.418  22.751  1.00  0.00    -0.246 OA
BRANCH  20  22
ATOM     22  O   UNL A   1      34.042  16.200  25.043  1.00  0.00    -0.462 OA
BRANCH  22  23
ATOM     23  C   UNL A   1      33.213  15.034  25.148  1.00  0.00     0.230 C 
ATOM     24  C   UNL A   1      32.108  15.199  26.176  1.00  0.00     0.049 C 
ENDBRANCH  22  23
ENDBRANCH  20  22
ENDBRANCH  15  20
ENDBRANCH  10  14
ENDBRANCH   7   9
ENDBRANCH   6   7
ENDBRANCH   5   6
ENDBRANCH   4   5
ENDBRANCH   3   4
ENDBRANCH   2   3
ENDBRANCH   1   2
BRANCH   1  25
ATOM     25  O   UNL A   1      33.059  29.094  27.284  1.00  0.00    -0.377 OA
BRANCH  25  26
ATOM     26  C   UNL A   1      33.282  30.451  26.911  1.00  0.00     0.188 C 
BRANCH  26  27
ATOM     27  C   UNL A   1      33.948  31.321  27.985  1.00  0.00     0.188 C 
BRANCH  27  28
ATOM     28  O   UNL A   1      35.106  32.002  27.489  1.00  0.00    -0.376 OA
BRANCH  28  29
ATOM     29  C   UNL A   1      36.326  31.717  28.172  1.00  0.00     0.202 C 
BRANCH  29  30
ATOM     30  C   UNL A   1      36.190  31.730  29.702  1.00  0.00     0.261 C 
BRANCH  30  31
ATOM     31  O   UNL A   1      37.305  31.163  30.411  1.00  0.00    -0.460 OA
BRANCH  31  32
ATOM     32  C   UNL A   1      37.028  30.151  31.263  1.00  0.00     0.338 C 
ATOM     33  O   UNL A   1      35.943  29.632  31.449  1.00  0.00    -0.246 OA
BRANCH  32  34
ATOM     34  C   UNL A   1      38.305  29.638  31.801  1.00  0.00     0.060 A 
ATOM     35  C   UNL A   1      39.339  30.551  32.042  1.00  0.00     0.016 A 
ATOM     36  C   UNL A   1      38.490  28.273  32.040  1.00  0.00     0.016 A 
ATOM     37  C   UNL A   1      40.583  30.093  32.477  1.00  0.00     0.010 A 
ATOM     38  C   UNL A   1      39.741  27.815  32.463  1.00  0.00     0.010 A 
ATOM     39  C   UNL A   1      40.802  28.718  32.646  1.00  0.00    -0.014 A 
BRANCH  39  40
ATOM     40  C   UNL A   1      42.186  28.212  32.812  1.00  0.00     0.031 A 
ATOM     41  C   UNL A   1      42.958  27.836  31.576  1.00  0.00     0.074 A 
ATOM     42  C   UNL A   1      42.749  28.101  34.028  1.00  0.00     0.049 A 
ATOM     43  N   UNL A   1      44.170  27.359  31.465  1.00  0.00    -0.248 NA
ATOM     44  C   UNL A   1      42.263  28.023  30.293  1.00  0.00     0.031 C 
ATOM     45  C   UNL A   1      42.107  28.458  35.292  1.00  0.00     0.029 A 
ATOM     46  N   UNL A   1      43.990  27.646  34.394  1.00  0.00    -0.354 N 
ATOM     47  C   UNL A   1      44.387  27.196  30.101  1.00  0.00     0.074 A 
ATOM     48  C   UNL A   1      43.164  27.583  29.431  1.00  0.00     0.031 C 
ATOM     49  C   UNL A   1      42.960  28.195  36.299  1.00  0.00     0.029 A 
ATOM     50  C   UNL A   1      44.193  27.630  35.754  1.00  0.00     0.049 A 
ATOM     51  H   UNL A   1      44.672  27.358  33.745  1.00  0.00     0.167 HD
ATOM     52  C   UNL A   1      45.506  26.774  29.463  1.00  0.00     0.034 A 
ATOM     53  C   UNL A   1      45.246  27.191  36.472  1.00  0.00     0.034 A 
ATOM     54  C   UNL A   1      46.709  26.363  30.144  1.00  0.00     0.049 A 
ATOM     55  C   UNL A   1      46.452  26.644  35.747  1.00  0.00     0.074 A 
ATOM     56  C   UNL A   1      47.903  25.922  29.599  1.00  0.00     0.029 A 
ATOM     57  N   UNL A   1      46.865  26.325  31.524  1.00  0.00    -0.354 N 
ATOM     58  N   UNL A   1      46.655  26.516  34.454  1.00  0.00    -0.248 NA
ATOM     59  C   UNL A   1      47.576  26.191  36.577  1.00  0.00     0.031 C 
ATOM     60  C   UNL A   1      48.754  25.557  30.649  1.00  0.00     0.029 A 
ATOM     61  C   UNL A   1      48.122  25.838  31.849  1.00  0.00     0.049 A 
ATOM     62  H   UNL A   1      46.183  26.604  32.176  1.00  0.00     0.167 HD
ATOM     63  C   UNL A   1      47.940  25.997  34.320  1.00  0.00     0.074 A 
ATOM     64  C   UNL A   1      48.469  25.846  35.660  1.00  0.00     0.031 C 
ATOM     65  C   UNL A   1      48.627  25.681  33.192  1.00  0.00     0.034 A 
BRANCH  52  66
ATOM     66  C   UNL A   1      45.448  26.692  27.959  1.00  0.00     0.023 A 
ATOM     67  C   UNL A   1      45.032  25.521  27.300  1.00  0.00     0.031 A 
ATOM     68  C   UNL A   1      45.859  27.782  27.171  1.00  0.00     0.131 A 
ATOM     69  C   UNL A   1      45.108  25.441  25.902  1.00  0.00     0.055 A 
ATOM     70  C   UNL A   1      45.860  27.721  25.777  1.00  0.00     0.041 A 
ATOM     71  F   UNL A   1      46.290  28.915  27.746  1.00  0.00    -0.206 F 
ATOM     72  C   UNL A   1      45.497  26.541  25.134  1.00  0.00     0.022 A 
BRANCH  69  73
ATOM     73  S   UNL A   1      44.830  23.833  25.108  1.00  0.00     0.124 S 
ATOM     74  O   UNL A   1      45.128  22.910  26.202  1.00  0.00    -0.237 OA
ATOM     75  O   UNL A   1      43.431  23.917  24.708  1.00  0.00    -0.237 OA
ATOM     76  O   UNL A   1      45.795  23.821  24.011  1.00  0.00    -0.744 OA
ENDBRANCH  69  73
ENDBRANCH  52  66
BRANCH  53  77
ATOM     77  C   UNL A   1      45.206  27.209  37.962  1.00  0.00     0.023 A 
ATOM     78  C   UNL A   1      45.698  28.304  38.691  1.00  0.00     0.031 A 
ATOM     79  C   UNL A   1      44.730  26.098  38.681  1.00  0.00     0.131 A 
ATOM     80  C   UNL A   1      45.746  28.246  40.092  1.00  0.00     0.055 A 
ATOM     81  C   UNL A   1      44.735  26.065  40.077  1.00  0.00     0.041 A 
ATOM     82  F   UNL A   1      44.249  25.026  38.032  1.00  0.00    -0.206 F 
ATOM     83  C   UNL A   1      45.258  27.139  40.790  1.00  0.00     0.022 A 
BRANCH  80  84
ATOM     84  S   UNL A   1      46.530  29.612  40.993  1.00  0.00     0.124 S 
ATOM     85  O   UNL A   1      47.187  30.341  39.914  1.00  0.00    -0.237 OA
ATOM     86  O   UNL A   1      45.379  30.270  41.604  1.00  0.00    -0.237 OA
ATOM     87  O   UNL A   1      47.426  28.934  41.926  1.00  0.00    -0.744 OA
ENDBRANCH  80  84
ENDBRANCH  53  77
BRANCH  65  88
ATOM     88  C   UNL A   1      50.041  25.183  33.366  1.00  0.00     0.023 A 
ATOM     89  C   UNL A   1      50.332  23.816  33.521  1.00  0.00     0.031 A 
ATOM     90  C   UNL A   1      51.112  26.095  33.387  1.00  0.00     0.131 A 
ATOM     91  C   UNL A   1      51.655  23.405  33.740  1.00  0.00     0.055 A 
ATOM     92  C   UNL A   1      52.433  25.674  33.551  1.00  0.00     0.041 A 
ATOM     93  F   UNL A   1      50.891  27.412  33.245  1.00  0.00    -0.206 F 
ATOM     94  C   UNL A   1      52.709  24.323  33.741  1.00  0.00     0.022 A 
BRANCH  91  95
ATOM     95  S   UNL A   1      51.975  21.658  34.110  1.00  0.00     0.124 S 
ATOM     96  O   UNL A   1      51.622  21.577  35.523  1.00  0.00    -0.237 OA
ATOM     97  O   UNL A   1      51.075  20.973  33.187  1.00  0.00    -0.237 OA
ATOM     98  O   UNL A   1      53.399  21.500  33.817  1.00  0.00    -0.744 OA
ENDBRANCH  91  95
ENDBRANCH  65  88
ENDBRANCH  39  40
ENDBRANCH  32  34
ENDBRANCH  31  32
ENDBRANCH  30  31
ENDBRANCH  29  30
ENDBRANCH  28  29
ENDBRANCH  27  28
ENDBRANCH  26  27
ENDBRANCH  25  26
ENDBRANCH   1  25
TORSDOF 27
ENDMDL
MODEL 2
REMARK VINA RESULT:      -8.6      5.931      9.609
REMARK SMILES CCOC(=O)c1ccc(-c2ccc(C(=O)OCCOCCOCCOCCOC(=O)c3ccc(-c4c5nc(c(-c6cc(S(=O)(=O)[O-])ccc6F)c6ccc([nH]6)c(-c6cc(S(=O)(=O)[O-])ccc6F)c6nc(c(-c7cc(S(=O)(=O)[O-])ccc7F)c7ccc4[nH]7)C=C6)C=C5)cc3)o2)cc1
REMARK SMILES IDX 21 1 20 2 19 3 18 4 17 5 16 6 14 7 15 8 13 9 10 10 11 11
REMARK SMILES IDX 94 12 12 13 9 14 6 15 7 16 96 17 8 18 95 19 4 20 5 21 3 22
REMARK SMILES IDX 2 23 1 24 22 25 23 26 24 27 25 28 26 29 27 30 28 31 29 32
REMARK SMILES IDX 30 33 31 34 32 35 93 36 33 37 92 38 34 39 35 40 36 41 86 42
REMARK SMILES IDX 37 43 91 44 85 45 87 46 38 47 90 48 84 49 83 50 39 52 71 53
REMARK SMILES IDX 51 54 70 55 52 56 55 57 69 58 88 59 53 60 54 61 68 63 89 64
REMARK SMILES IDX 56 65 40 66 41 67 49 68 42 69 48 70 50 71 47 72 43 73 44 74
REMARK SMILES IDX 45 75 46 76 72 77 73 78 81 79 74 80 80 81 82 82 79 83 75 84
REMARK SMILES IDX 76 85 77 86 78 87 57 88 58 89 66 90 59 91 65 92 67 93 64 94
REMARK SMILES IDX 60 95 61 96 62 97 63 98
REMARK H PARENT 87 51 55 62
REMARK Flexibility Score: inf
ROOT
ATOM      1  C   UNL A   1      34.445  24.847  25.552  1.00  0.00     0.188 C 
ENDROOT
BRANCH   1   2
ATOM      2  C   UNL A   1      34.735  26.193  24.855  1.00  0.00     0.188 C 
BRANCH   2   3
ATOM      3  O   UNL A   1      33.765  27.225  24.696  1.00  0.00    -0.376 OA
BRANCH   3   4
ATOM      4  C   UNL A   1      32.416  26.945  24.363  1.00  0.00     0.202 C 
BRANCH   4   5
ATOM      5  C   UNL A   1      32.129  26.009  23.181  1.00  0.00     0.261 C 
BRANCH   5   6
ATOM      6  O   UNL A   1      30.780  25.543  23.090  1.00  0.00    -0.457 OA
BRANCH   6   7
ATOM      7  C   UNL A   1      30.085  25.482  24.261  1.00  0.00     0.374 C 
ATOM      8  O   UNL A   1      29.123  26.182  24.549  1.00  0.00    -0.242 OA
BRANCH   7   9
ATOM      9  C   UNL A   1      30.608  24.393  25.054  1.00  0.00     0.212 A 
ATOM     10  C   UNL A   1      31.585  22.443  25.337  1.00  0.00     0.135 A 
ATOM     11  C   UNL A   1      31.534  23.027  26.583  1.00  0.00     0.052 A 
ATOM     12  O   UNL A   1      31.002  23.248  24.409  1.00  0.00    -0.449 OA
ATOM     13  C   UNL A   1      30.905  24.281  26.403  1.00  0.00     0.059 A 
BRANCH  10  14
ATOM     14  C   UNL A   1      32.126  21.191  24.851  1.00  0.00     0.017 A 
ATOM     15  C   UNL A   1      32.944  18.683  23.908  1.00  0.00     0.060 A 
ATOM     16  C   UNL A   1      32.969  18.956  25.281  1.00  0.00     0.016 A 
ATOM     17  C   UNL A   1      32.540  19.674  23.005  1.00  0.00     0.016 A 
ATOM     18  C   UNL A   1      32.569  20.212  25.750  1.00  0.00     0.013 A 
ATOM     19  C   UNL A   1      32.130  20.923  23.479  1.00  0.00     0.013 A 
BRANCH  15  20
ATOM     20  C   UNL A   1      33.252  17.309  23.447  1.00  0.00     0.338 C 
ATOM     21  O   UNL A   1      33.947  17.066  22.474  1.00  0.00    -0.246 OA
BRANCH  20  22
ATOM     22  O   UNL A   1      32.669  16.404  24.271  1.00  0.00    -0.462 OA
BRANCH  22  23
ATOM     23  C   UNL A   1      33.562  15.607  25.062  1.00  0.00     0.230 C 
ATOM     24  C   UNL A   1      32.861  14.432  25.719  1.00  0.00     0.049 C 
ENDBRANCH  22  23
ENDBRANCH  20  22
ENDBRANCH  15  20
ENDBRANCH  10  14
ENDBRANCH   7   9
ENDBRANCH   6   7
ENDBRANCH   5   6
ENDBRANCH   4   5
ENDBRANCH   3   4
ENDBRANCH   2   3
ENDBRANCH   1   2
BRANCH   1  25
ATOM     25  O   UNL A   1      35.571  24.014  25.751  1.00  0.00    -0.377 OA
BRANCH  25  26
ATOM     26  C   UNL A   1      35.900  23.166  24.654  1.00  0.00     0.188 C 
BRANCH  26  27
ATOM     27  C   UNL A   1      35.868  21.663  24.962  1.00  0.00     0.188 C 
BRANCH  27  28
ATOM     28  O   UNL A   1      37.154  21.051  24.810  1.00  0.00    -0.376 OA
BRANCH  28  29
ATOM     29  C   UNL A   1      38.251  21.787  25.352  1.00  0.00     0.202 C 
BRANCH  29  30
ATOM     30  C   UNL A   1      39.172  20.946  26.248  1.00  0.00     0.261 C 
BRANCH  30  31
ATOM     31  O   UNL A   1      39.936  19.944  25.556  1.00  0.00    -0.460 OA
BRANCH  31  32
ATOM     32  C   UNL A   1      41.110  19.582  26.120  1.00  0.00     0.338 C 
ATOM     33  O   UNL A   1      41.517  18.448  26.290  1.00  0.00    -0.246 OA
BRANCH  32  34
ATOM     34  C   UNL A   1      41.917  20.802  26.329  1.00  0.00     0.060 A 
ATOM     35  C   UNL A   1      42.233  21.172  27.641  1.00  0.00     0.016 A 
ATOM     36  C   UNL A   1      42.334  21.584  25.248  1.00  0.00     0.016 A 
ATOM     37  C   UNL A   1      42.927  22.359  27.880  1.00  0.00     0.010 A 
ATOM     38  C   UNL A   1      43.018  22.778  25.490  1.00  0.00     0.010 A 
ATOM     39  C   UNL A   1      43.284  23.188  26.808  1.00  0.00    -0.014 A 
BRANCH  39  40
ATOM     40  C   UNL A   1      43.745  24.572  27.075  1.00  0.00     0.031 A 
ATOM     41  C   UNL A   1      42.767  25.543  27.680  1.00  0.00     0.074 A 
ATOM     42  C   UNL A   1      45.004  24.955  26.799  1.00  0.00     0.049 A 
ATOM     43  N   UNL A   1      42.928  26.803  27.989  1.00  0.00    -0.248 NA
ATOM     44  C   UNL A   1      41.425  25.017  27.971  1.00  0.00     0.031 C 
ATOM     45  C   UNL A   1      46.044  24.097  26.236  1.00  0.00     0.029 A 
ATOM     46  N   UNL A   1      45.616  26.174  26.951  1.00  0.00    -0.354 N 
ATOM     47  C   UNL A   1      41.712  27.220  28.519  1.00  0.00     0.074 A 
ATOM     48  C   UNL A   1      40.812  26.089  28.446  1.00  0.00     0.031 C 
ATOM     49  C   UNL A   1      47.167  24.822  26.078  1.00  0.00     0.029 A 
ATOM     50  C   UNL A   1      46.916  26.198  26.504  1.00  0.00     0.049 A 
ATOM     51  H   UNL A   1      45.167  26.957  27.343  1.00  0.00     0.167 HD
ATOM     52  C   UNL A   1      41.378  28.430  29.031  1.00  0.00     0.034 A 
ATOM     53  C   UNL A   1      47.792  27.220  26.431  1.00  0.00     0.034 A 
ATOM     54  C   UNL A   1      42.275  29.557  29.072  1.00  0.00     0.049 A 
ATOM     55  C   UNL A   1      47.374  28.583  26.929  1.00  0.00     0.074 A 
ATOM     56  C   UNL A   1      42.045  30.827  29.571  1.00  0.00     0.029 A 
ATOM     57  N   UNL A   1      43.573  29.555  28.576  1.00  0.00    -0.354 N 
ATOM     58  N   UNL A   1      46.227  28.959  27.450  1.00  0.00    -0.248 NA
ATOM     59  C   UNL A   1      48.372  29.657  26.837  1.00  0.00     0.031 C 
ATOM     60  C   UNL A   1      43.179  31.609  29.319  1.00  0.00     0.029 A 
ATOM     61  C   UNL A   1      44.144  30.810  28.729  1.00  0.00     0.049 A 
ATOM     62  H   UNL A   1      44.023  28.777  28.176  1.00  0.00     0.167 HD
ATOM     63  C   UNL A   1      46.380  30.305  27.775  1.00  0.00     0.074 A 
ATOM     64  C   UNL A   1      47.731  30.671  27.402  1.00  0.00     0.031 C 
ATOM     65  C   UNL A   1      45.489  31.160  28.338  1.00  0.00     0.034 A 
BRANCH  52  66
ATOM     66  C   UNL A   1      39.967  28.593  29.536  1.00  0.00     0.023 A 
ATOM     67  C   UNL A   1      38.934  29.050  28.699  1.00  0.00     0.031 A 
ATOM     68  C   UNL A   1      39.660  28.337  30.884  1.00  0.00     0.131 A 
ATOM     69  C   UNL A   1      37.662  29.308  29.234  1.00  0.00     0.055 A 
ATOM     70  C   UNL A   1      38.374  28.523  31.392  1.00  0.00     0.041 A 
ATOM     71  F   UNL A   1      40.612  27.923  31.734  1.00  0.00    -0.206 F 
ATOM     72  C   UNL A   1      37.369  29.025  30.570  1.00  0.00     0.022 A 
BRANCH  69  73
ATOM     73  S   UNL A   1      36.439  30.154  28.195  1.00  0.00     0.124 S 
ATOM     74  O   UNL A   1      37.073  30.087  26.881  1.00  0.00    -0.237 OA
ATOM     75  O   UNL A   1      35.250  29.329  28.373  1.00  0.00    -0.237 OA
ATOM     76  O   UNL A   1      36.364  31.493  28.776  1.00  0.00    -0.744 OA
ENDBRANCH  69  73
ENDBRANCH  52  66
BRANCH  53  77
ATOM     77  C   UNL A   1      49.143  27.018  25.833  1.00  0.00     0.023 A 
ATOM     78  C   UNL A   1      50.260  26.737  26.635  1.00  0.00     0.031 A 
ATOM     79  C   UNL A   1      49.344  27.165  24.448  1.00  0.00     0.131 A 
ATOM     80  C   UNL A   1      51.536  26.658  26.054  1.00  0.00     0.055 A 
ATOM     81  C   UNL A   1      50.608  27.038  23.870  1.00  0.00     0.041 A 
ATOM     82  F   UNL A   1      48.309  27.433  23.638  1.00  0.00    -0.206 F 
ATOM     83  C   UNL A   1      51.715  26.796  24.676  1.00  0.00     0.022 A 
BRANCH  80  84
ATOM     84  S   UNL A   1      52.974  26.449  27.140  1.00  0.00     0.124 S 
ATOM     85  O   UNL A   1      53.672  27.716  26.956  1.00  0.00    -0.237 OA
ATOM     86  O   UNL A   1      52.344  26.245  28.440  1.00  0.00    -0.237 OA
ATOM     87  O   UNL A   1      53.650  25.277  26.586  1.00  0.00    -0.744 OA
ENDBRANCH  80  84
ENDBRANCH  53  77
BRANCH  65  88
ATOM     88  C   UNL A   1      45.969  32.563  28.623  1.00  0.00     0.023 A 
ATOM     89  C   UNL A   1      45.878  33.587  27.664  1.00  0.00     0.031 A 
ATOM     90  C   UNL A   1      46.537  32.874  29.872  1.00  0.00     0.131 A 
ATOM     91  C   UNL A   1      46.393  34.860  27.952  1.00  0.00     0.055 A 
ATOM     92  C   UNL A   1      46.997  34.156  30.172  1.00  0.00     0.041 A 
ATOM     93  F   UNL A   1      46.649  31.933  30.824  1.00  0.00    -0.206 F 
ATOM     94  C   UNL A   1      46.937  35.155  29.205  1.00  0.00     0.022 A 
BRANCH  91  95
ATOM     95  S   UNL A   1      46.418  36.108  26.635  1.00  0.00     0.124 S 
ATOM     96  O   UNL A   1      45.245  36.914  26.958  1.00  0.00    -0.237 OA
ATOM     97  O   UNL A   1      47.711  36.752  26.840  1.00  0.00    -0.237 OA
ATOM     98  O   UNL A   1      46.308  35.317  25.410  1.00  0.00    -0.744 OA
ENDBRANCH  91  95
ENDBRANCH  65  88
ENDBRANCH  39  40
ENDBRANCH  32  34
ENDBRANCH  31  32
ENDBRANCH  30  31
ENDBRANCH  29  30
ENDBRANCH  28  29
ENDBRANCH  27  28
ENDBRANCH  26  27
ENDBRANCH  25  26
ENDBRANCH   1  25
TORSDOF 27
ENDMDL
MODEL 3
REMARK VINA RESULT:      -8.0      6.497     10.336
REMARK SMILES CCOC(=O)c1ccc(-c2ccc(C(=O)OCCOCCOCCOCCOC(=O)c3ccc(-c4c5nc(c(-c6cc(S(=O)(=O)[O-])ccc6F)c6ccc([nH]6)c(-c6cc(S(=O)(=O)[O-])ccc6F)c6nc(c(-c7cc(S(=O)(=O)[O-])ccc7F)c7ccc4[nH]7)C=C6)C=C5)cc3)o2)cc1
REMARK SMILES IDX 21 1 20 2 19 3 18 4 17 5 16 6 14 7 15 8 13 9 10 10 11 11
REMARK SMILES IDX 94 12 12 13 9 14 6 15 7 16 96 17 8 18 95 19 4 20 5 21 3 22
REMARK SMILES IDX 2 23 1 24 22 25 23 26 24 27 25 28 26 29 27 30 28 31 29 32
REMARK SMILES IDX 30 33 31 34 32 35 93 36 33 37 92 38 34 39 35 40 36 41 86 42
REMARK SMILES IDX 37 43 91 44 85 45 87 46 38 47 90 48 84 49 83 50 39 52 71 53
REMARK SMILES IDX 51 54 70 55 52 56 55 57 69 58 88 59 53 60 54 61 68 63 89 64
REMARK SMILES IDX 56 65 40 66 41 67 49 68 42 69 48 70 50 71 47 72 43 73 44 74
REMARK SMILES IDX 45 75 46 76 72 77 73 78 81 79 74 80 80 81 82 82 79 83 75 84
REMARK SMILES IDX 76 85 77 86 78 87 57 88 58 89 66 90 59 91 65 92 67 93 64 94
REMARK SMILES IDX 60 95 61 96 62 97 63 98
REMARK H PARENT 87 51 55 62
REMARK Flexibility Score: inf
ROOT
ATOM      1  C   UNL A   1      33.296  37.344  32.018  1.00  0.00     0.188 C 
ENDROOT
BRANCH   1   2
ATOM      2  C   UNL A   1      32.579  36.127  31.395  1.00  0.00     0.188 C 
BRANCH   2   3
ATOM      3  O   UNL A   1      32.784  35.691  30.054  1.00  0.00    -0.376 OA
BRANCH   3   4
ATOM      4  C   UNL A   1      34.080  35.441  29.534  1.00  0.00     0.202 C 
BRANCH   4   5
ATOM      5  C   UNL A   1      34.220  34.508  28.324  1.00  0.00     0.261 C 
BRANCH   5   6
ATOM      6  O   UNL A   1      33.705  33.187  28.513  1.00  0.00    -0.457 OA
BRANCH   6   7
ATOM      7  C   UNL A   1      34.433  32.369  29.325  1.00  0.00     0.374 C 
ATOM      8  O   UNL A   1      34.501  32.463  30.544  1.00  0.00    -0.242 OA
BRANCH   7   9
ATOM      9  C   UNL A   1      35.021  31.322  28.522  1.00  0.00     0.212 A 
ATOM     10  C   UNL A   1      36.586  29.864  28.011  1.00  0.00     0.135 A 
ATOM     11  C   UNL A   1      35.504  29.556  27.215  1.00  0.00     0.052 A 
ATOM     12  O   UNL A   1      36.315  30.947  28.785  1.00  0.00    -0.449 OA
ATOM     13  C   UNL A   1      34.498  30.494  27.543  1.00  0.00     0.059 A 
BRANCH  10  14
ATOM     14  C   UNL A   1      37.895  29.269  28.174  1.00  0.00     0.017 A 
ATOM     15  C   UNL A   1      40.357  27.941  28.338  1.00  0.00     0.060 A 
ATOM     16  C   UNL A   1      39.374  27.713  29.307  1.00  0.00     0.016 A 
ATOM     17  C   UNL A   1      40.121  28.857  27.304  1.00  0.00     0.016 A 
ATOM     18  C   UNL A   1      38.148  28.383  29.229  1.00  0.00     0.013 A 
ATOM     19  C   UNL A   1      38.892  29.515  27.224  1.00  0.00     0.013 A 
BRANCH  15  20
ATOM     20  C   UNL A   1      41.596  27.128  28.370  1.00  0.00     0.338 C 
ATOM     21  O   UNL A   1      41.818  26.275  29.214  1.00  0.00    -0.246 OA
BRANCH  20  22
ATOM     22  O   UNL A   1      42.398  27.466  27.331  1.00  0.00    -0.462 OA
BRANCH  22  23
ATOM     23  C   UNL A   1      43.734  27.862  27.671  1.00  0.00     0.230 C 
ATOM     24  C   UNL A   1      43.959  29.353  27.494  1.00  0.00     0.049 C 
ENDBRANCH  22  23
ENDBRANCH  20  22
ENDBRANCH  15  20
ENDBRANCH  10  14
ENDBRANCH   7   9
ENDBRANCH   6   7
ENDBRANCH   5   6
ENDBRANCH   4   5
ENDBRANCH   3   4
ENDBRANCH   2   3
ENDBRANCH   1   2
BRANCH   1  25
ATOM     25  O   UNL A   1      34.477  37.047  32.737  1.00  0.00    -0.377 OA
BRANCH  25  26
ATOM     26  C   UNL A   1      34.470  35.801  33.429  1.00  0.00     0.188 C 
BRANCH  26  27
ATOM     27  C   UNL A   1      35.550  34.805  32.986  1.00  0.00     0.188 C 
BRANCH  27  28
ATOM     28  O   UNL A   1      35.347  33.502  33.545  1.00  0.00    -0.376 OA
BRANCH  28  29
ATOM     29  C   UNL A   1      36.489  32.919  34.173  1.00  0.00     0.202 C 
BRANCH  29  30
ATOM     30  C   UNL A   1      36.890  31.561  33.580  1.00  0.00     0.261 C 
BRANCH  30  31
ATOM     31  O   UNL A   1      38.040  30.952  34.191  1.00  0.00    -0.460 OA
BRANCH  31  32
ATOM     32  C   UNL A   1      38.676  30.002  33.470  1.00  0.00     0.338 C 
ATOM     33  O   UNL A   1      38.295  28.863  33.269  1.00  0.00    -0.246 OA
BRANCH  32  34
ATOM     34  C   UNL A   1      39.831  30.630  32.796  1.00  0.00     0.060 A 
ATOM     35  C   UNL A   1      39.921  30.533  31.403  1.00  0.00     0.016 A 
ATOM     36  C   UNL A   1      40.827  31.281  33.530  1.00  0.00     0.016 A 
ATOM     37  C   UNL A   1      41.036  31.046  30.741  1.00  0.00     0.010 A 
ATOM     38  C   UNL A   1      41.950  31.783  32.867  1.00  0.00     0.010 A 
ATOM     39  C   UNL A   1      42.076  31.634  31.475  1.00  0.00    -0.014 A 
BRANCH  39  40
ATOM     40  C   UNL A   1      43.377  31.902  30.816  1.00  0.00     0.031 A 
ATOM     41  C   UNL A   1      43.583  33.247  30.172  1.00  0.00     0.074 A 
ATOM     42  C   UNL A   1      44.356  30.981  30.799  1.00  0.00     0.049 A 
ATOM     43  N   UNL A   1      44.621  33.710  29.525  1.00  0.00    -0.248 NA
ATOM     44  C   UNL A   1      42.462  34.194  30.271  1.00  0.00     0.031 C 
ATOM     45  C   UNL A   1      44.280  29.656  31.411  1.00  0.00     0.029 A 
ATOM     46  N   UNL A   1      45.607  31.023  30.237  1.00  0.00    -0.354 N 
ATOM     47  C   UNL A   1      44.282  35.004  29.146  1.00  0.00     0.074 A 
ATOM     48  C   UNL A   1      42.926  35.234  29.598  1.00  0.00     0.031 C 
ATOM     49  C   UNL A   1      45.434  29.004  31.179  1.00  0.00     0.029 A 
ATOM     50  C   UNL A   1      46.317  29.855  30.383  1.00  0.00     0.049 A 
ATOM     51  H   UNL A   1      45.963  31.815  29.773  1.00  0.00     0.167 HD
ATOM     52  C   UNL A   1      45.035  35.923  28.493  1.00  0.00     0.034 A 
ATOM     53  C   UNL A   1      47.532  29.510  29.910  1.00  0.00     0.034 A 
ATOM     54  C   UNL A   1      46.374  35.672  28.022  1.00  0.00     0.049 A 
ATOM     55  C   UNL A   1      48.322  30.519  29.110  1.00  0.00     0.074 A 
ATOM     56  C   UNL A   1      47.230  36.530  27.354  1.00  0.00     0.029 A 
ATOM     57  N   UNL A   1      47.048  34.464  28.156  1.00  0.00    -0.354 N 
ATOM     58  N   UNL A   1      48.000  31.749  28.778  1.00  0.00    -0.248 NA
ATOM     59  C   UNL A   1      49.643  30.094  28.629  1.00  0.00     0.031 C 
ATOM     60  C   UNL A   1      48.393  35.822  27.027  1.00  0.00     0.029 A 
ATOM     61  C   UNL A   1      48.294  34.544  27.554  1.00  0.00     0.049 A 
ATOM     62  H   UNL A   1      46.692  33.668  28.612  1.00  0.00     0.167 HD
ATOM     63  C   UNL A   1      49.093  32.252  28.078  1.00  0.00     0.074 A 
ATOM     64  C   UNL A   1      50.086  31.198  28.044  1.00  0.00     0.031 C 
ATOM     65  C   UNL A   1      49.267  33.478  27.519  1.00  0.00     0.034 A 
BRANCH  52  66
ATOM     66  C   UNL A   1      44.394  37.259  28.212  1.00  0.00     0.023 A 
ATOM     67  C   UNL A   1      44.560  38.352  29.080  1.00  0.00     0.031 A 
ATOM     68  C   UNL A   1      43.567  37.428  27.088  1.00  0.00     0.131 A 
ATOM     69  C   UNL A   1      43.850  39.541  28.852  1.00  0.00     0.055 A 
ATOM     70  C   UNL A   1      42.923  38.638  26.825  1.00  0.00     0.041 A 
ATOM     71  F   UNL A   1      43.352  36.411  26.239  1.00  0.00    -0.206 F 
ATOM     72  C   UNL A   1      43.050  39.699  27.718  1.00  0.00     0.022 A 
BRANCH  69  73
ATOM     73  S   UNL A   1      43.872  40.824  30.134  1.00  0.00     0.124 S 
ATOM     74  O   UNL A   1      44.361  40.077  31.290  1.00  0.00    -0.237 OA
ATOM     75  O   UNL A   1      44.790  41.811  29.576  1.00  0.00    -0.237 OA
ATOM     76  O   UNL A   1      42.476  41.247  30.218  1.00  0.00    -0.744 OA
ENDBRANCH  69  73
ENDBRANCH  52  66
BRANCH  53  77
ATOM     77  C   UNL A   1      48.072  28.140  30.139  1.00  0.00     0.023 A 
ATOM     78  C   UNL A   1      48.876  27.851  31.254  1.00  0.00     0.031 A 
ATOM     79  C   UNL A   1      47.840  27.111  29.209  1.00  0.00     0.131 A 
ATOM     80  C   UNL A   1      49.458  26.581  31.386  1.00  0.00     0.055 A 
ATOM     81  C   UNL A   1      48.381  25.835  29.370  1.00  0.00     0.041 A 
ATOM     82  F   UNL A   1      47.077  27.335  28.127  1.00  0.00    -0.206 F 
ATOM     83  C   UNL A   1      49.207  25.568  30.457  1.00  0.00     0.022 A 
BRANCH  80  84
ATOM     84  S   UNL A   1      50.615  26.291  32.753  1.00  0.00     0.124 S 
ATOM     85  O   UNL A   1      51.709  25.606  32.076  1.00  0.00    -0.237 OA
ATOM     86  O   UNL A   1      50.891  27.650  33.207  1.00  0.00    -0.237 OA
ATOM     87  O   UNL A   1      49.843  25.470  33.683  1.00  0.00    -0.744 OA
ENDBRANCH  80  84
ENDBRANCH  53  77
BRANCH  65  88
ATOM     88  C   UNL A   1      50.599  33.751  26.864  1.00  0.00     0.023 A 
ATOM     89  C   UNL A   1      50.922  33.233  25.597  1.00  0.00     0.031 A 
ATOM     90  C   UNL A   1      51.562  34.534  27.525  1.00  0.00     0.131 A 
ATOM     91  C   UNL A   1      52.195  33.463  25.054  1.00  0.00     0.055 A 
ATOM     92  C   UNL A   1      52.806  34.805  26.955  1.00  0.00     0.041 A 
ATOM     93  F   UNL A   1      51.305  35.053  28.737  1.00  0.00    -0.206 F 
ATOM     94  C   UNL A   1      53.134  34.259  25.718  1.00  0.00     0.022 A 
BRANCH  91  95
ATOM     95  S   UNL A   1      52.642  32.639  23.501  1.00  0.00     0.124 S 
ATOM     96  O   UNL A   1      54.025  32.246  23.753  1.00  0.00    -0.237 OA
ATOM     97  O   UNL A   1      51.672  31.551  23.434  1.00  0.00    -0.237 OA
ATOM     98  O   UNL A   1      52.469  33.685  22.494  1.00  0.00    -0.744 OA
ENDBRANCH  91  95
ENDBRANCH  65  88
ENDBRANCH  39  40
ENDBRANCH  32  34
ENDBRANCH  31  32
ENDBRANCH  30  31
ENDBRANCH  29  30
ENDBRANCH  28  29
ENDBRANCH  27  28
ENDBRANCH  26  27
ENDBRANCH  25  26
ENDBRANCH   1  25
TORSDOF 27
ENDMDL
