MODEL 1
REMARK VINA RESULT:     -10.2      0.000      0.000
REMARK SMILES O=C(OCCOCCOCCOCCOC(=O)[C@H]1CCCCN1c1cc(-c2ccccc2)nc(-c2cccc(Cl)c2)n1)c1ccc(-c2c3nc(c(-c4cc(S(=O)(=O)[O-])ccc4F)c4ccc([nH]4)c(-c4cc(S(=O)(=O)[O-])ccc4F)c4nc(c(-c5cc(S(=O)(=O)[O-])ccc5F)c5ccc2[nH]5)C=C4)C=C3)cc1
REMARK SMILES IDX 8 1 7 2 6 3 5 4 4 5 3 6 2 7 1 8 43 9 44 10 105 11 45 12
REMARK SMILES IDX 104 13 46 14 47 15 48 16 98 17 49 18 103 19 97 20 99 21
REMARK SMILES IDX 50 22 102 23 96 24 95 25 51 27 83 28 63 29 82 30 64 31 67 32
REMARK SMILES IDX 81 33 100 34 65 35 66 36 80 38 101 39 68 40 52 41 53 42
REMARK SMILES IDX 61 43 54 44 60 45 62 46 59 47 55 48 56 49 57 50 58 51 84 52
REMARK SMILES IDX 85 53 93 54 86 55 92 56 94 57 91 58 87 59 88 60 89 61 90 62
REMARK SMILES IDX 69 63 70 64 78 65 71 66 77 67 79 68 76 69 72 70 73 71 74 72
REMARK SMILES IDX 75 73 9 74 10 75 11 76 12 77 13 78 14 79 15 80 16 81 17 82
REMARK SMILES IDX 18 83 19 84 23 85 20 86 22 87 21 88 24 89 25 90 42 91 26 92
REMARK SMILES IDX 34 93 33 94 27 95 28 96 32 97 29 98 31 99 30 100 35 101
REMARK SMILES IDX 36 102 41 103 37 104 39 105 38 106 40 107
REMARK H PARENT 99 26 67 37
REMARK Flexibility Score: inf
ROOT
ATOM      1  C   UNL A   1      38.112  21.028  25.053  1.00  0.00     0.188 C 
ENDROOT
BRANCH   1   2
ATOM      2  C   UNL A   1      39.378  20.530  25.748  1.00  0.00     0.188 C 
BRANCH   2   3
ATOM      3  O   UNL A   1      40.202  21.610  26.187  1.00  0.00    -0.376 OA
BRANCH   3   4
ATOM      4  C   UNL A   1      41.609  21.399  26.014  1.00  0.00     0.202 C 
BRANCH   4   5
ATOM      5  C   UNL A   1      42.083  19.985  26.350  1.00  0.00     0.261 C 
BRANCH   5   6
ATOM      6  O   UNL A   1      43.377  19.686  25.810  1.00  0.00    -0.460 OA
BRANCH   6   7
ATOM      7  C   UNL A   1      44.109  20.410  24.925  1.00  0.00     0.338 C 
ATOM      8  O   UNL A   1      44.262  19.933  23.799  1.00  0.00    -0.246 OA
BRANCH   7   9
ATOM      9  C   UNL A   1      44.824  21.698  25.240  1.00  0.00     0.060 A 
ATOM     10  C   UNL A   1      45.264  22.108  26.501  1.00  0.00     0.016 A 
ATOM     11  C   UNL A   1      45.120  22.541  24.151  1.00  0.00     0.016 A 
ATOM     12  C   UNL A   1      45.991  23.269  26.691  1.00  0.00     0.010 A 
ATOM     13  C   UNL A   1      45.797  23.751  24.334  1.00  0.00     0.010 A 
ATOM     14  C   UNL A   1      46.214  24.116  25.616  1.00  0.00    -0.014 A 
BRANCH  14  15
ATOM     15  C   UNL A   1      46.584  25.494  25.966  1.00  0.00     0.031 A 
ATOM     16  C   UNL A   1      45.478  26.371  26.474  1.00  0.00     0.074 A 
ATOM     17  C   UNL A   1      47.875  25.849  26.040  1.00  0.00     0.049 A 
ATOM     18  N   UNL A   1      45.503  27.623  26.830  1.00  0.00    -0.248 NA
ATOM     19  C   UNL A   1      44.162  25.725  26.626  1.00  0.00     0.031 C 
ATOM     20  C   UNL A   1      49.008  24.961  25.764  1.00  0.00     0.029 A 
ATOM     21  N   UNL A   1      48.455  27.033  26.399  1.00  0.00    -0.354 N 
ATOM     22  C   UNL A   1      44.201  27.923  27.219  1.00  0.00     0.074 A 
ATOM     23  C   UNL A   1      43.414  26.724  27.058  1.00  0.00     0.031 C 
ATOM     24  C   UNL A   1      50.150  25.644  25.950  1.00  0.00     0.029 A 
ATOM     25  C   UNL A   1      49.825  27.026  26.282  1.00  0.00     0.049 A 
ATOM     26  H   UNL A   1      47.941  27.813  26.711  1.00  0.00     0.167 HD
ATOM     27  C   UNL A   1      43.716  29.110  27.649  1.00  0.00     0.034 A 
ATOM     28  C   UNL A   1      50.693  28.052  26.374  1.00  0.00     0.034 A 
ATOM     29  C   UNL A   1      44.553  30.279  27.750  1.00  0.00     0.049 A 
ATOM     30  C   UNL A   1      50.115  29.409  26.700  1.00  0.00     0.074 A 
ATOM     31  C   UNL A   1      44.203  31.578  28.057  1.00  0.00     0.029 A 
ATOM     32  N   UNL A   1      45.928  30.275  27.521  1.00  0.00    -0.354 N 
ATOM     33  N   UNL A   1      48.864  29.731  26.958  1.00  0.00    -0.248 NA
ATOM     34  C   UNL A   1      51.048  30.537  26.738  1.00  0.00     0.031 C 
ATOM     35  C   UNL A   1      45.351  32.370  27.939  1.00  0.00     0.029 A 
ATOM     36  C   UNL A   1      46.436  31.555  27.646  1.00  0.00     0.049 A 
ATOM     37  H   UNL A   1      46.460  29.476  27.302  1.00  0.00     0.167 HD
ATOM     38  C   UNL A   1      48.863  31.100  27.205  1.00  0.00     0.074 A 
ATOM     39  C   UNL A   1      50.243  31.533  27.083  1.00  0.00     0.031 C 
ATOM     40  C   UNL A   1      47.828  31.928  27.504  1.00  0.00     0.034 A 
BRANCH  27  41
ATOM     41  C   UNL A   1      42.225  29.191  27.873  1.00  0.00     0.023 A 
ATOM     42  C   UNL A   1      41.659  29.167  29.163  1.00  0.00     0.031 A 
ATOM     43  C   UNL A   1      41.353  29.130  26.773  1.00  0.00     0.131 A 
ATOM     44  C   UNL A   1      40.275  28.971  29.315  1.00  0.00     0.055 A 
ATOM     45  C   UNL A   1      39.969  29.032  26.933  1.00  0.00     0.041 A 
ATOM     46  F   UNL A   1      41.833  29.110  25.520  1.00  0.00    -0.206 F 
ATOM     47  C   UNL A   1      39.425  28.929  28.209  1.00  0.00     0.022 A 
BRANCH  44  48
ATOM     48  S   UNL A   1      39.636  28.575  30.969  1.00  0.00     0.124 S 
ATOM     49  O   UNL A   1      38.720  27.467  30.670  1.00  0.00    -0.237 OA
ATOM     50  O   UNL A   1      40.827  28.239  31.705  1.00  0.00    -0.237 OA
ATOM     51  O   UNL A   1      38.965  29.818  31.381  1.00  0.00    -0.744 OA
ENDBRANCH  44  48
ENDBRANCH  27  41
BRANCH  28  52
ATOM     52  C   UNL A   1      52.137  27.859  26.044  1.00  0.00     0.023 A 
ATOM     53  C   UNL A   1      52.605  27.843  24.721  1.00  0.00     0.031 A 
ATOM     54  C   UNL A   1      53.079  27.651  27.072  1.00  0.00     0.131 A 
ATOM     55  C   UNL A   1      53.965  27.594  24.462  1.00  0.00     0.055 A 
ATOM     56  C   UNL A   1      54.436  27.460  26.811  1.00  0.00     0.041 A 
ATOM     57  F   UNL A   1      52.693  27.640  28.358  1.00  0.00    -0.206 F 
ATOM     58  C   UNL A   1      54.885  27.420  25.497  1.00  0.00     0.022 A 
BRANCH  55  59
ATOM     59  S   UNL A   1      54.509  27.414  22.739  1.00  0.00     0.124 S 
ATOM     60  O   UNL A   1      53.660  26.325  22.271  1.00  0.00    -0.237 OA
ATOM     61  O   UNL A   1      54.220  28.735  22.190  1.00  0.00    -0.237 OA
ATOM     62  O   UNL A   1      55.929  27.090  22.862  1.00  0.00    -0.744 OA
ENDBRANCH  55  59
ENDBRANCH  28  52
BRANCH  40  63
ATOM     63  C   UNL A   1      48.173  33.371  27.757  1.00  0.00     0.023 A 
ATOM     64  C   UNL A   1      48.265  34.300  26.708  1.00  0.00     0.031 A 
ATOM     65  C   UNL A   1      48.391  33.820  29.071  1.00  0.00     0.131 A 
ATOM     66  C   UNL A   1      48.617  35.627  26.989  1.00  0.00     0.055 A 
ATOM     67  C   UNL A   1      48.674  35.155  29.349  1.00  0.00     0.041 A 
ATOM     68  F   UNL A   1      48.313  32.967  30.106  1.00  0.00    -0.206 F 
ATOM     69  C   UNL A   1      48.801  36.064  28.304  1.00  0.00     0.022 A 
BRANCH  66  70
ATOM     70  S   UNL A   1      48.918  36.754  25.603  1.00  0.00     0.124 S 
ATOM     71  O   UNL A   1      47.591  37.318  25.378  1.00  0.00    -0.237 OA
ATOM     72  O   UNL A   1      49.914  37.668  26.154  1.00  0.00    -0.237 OA
ATOM     73  O   UNL A   1      49.405  35.872  24.545  1.00  0.00    -0.744 OA
ENDBRANCH  66  70
ENDBRANCH  40  63
ENDBRANCH  14  15
ENDBRANCH   7   9
ENDBRANCH   6   7
ENDBRANCH   5   6
ENDBRANCH   4   5
ENDBRANCH   3   4
ENDBRANCH   2   3
ENDBRANCH   1   2
BRANCH   1  74
ATOM     74  O   UNL A   1      37.298  21.955  25.746  1.00  0.00    -0.377 OA
BRANCH  74  75
ATOM     75  C   UNL A   1      36.224  22.562  25.060  1.00  0.00     0.188 C 
BRANCH  75  76
ATOM     76  C   UNL A   1      36.283  22.924  23.577  1.00  0.00     0.188 C 
BRANCH  76  77
ATOM     77  O   UNL A   1      35.120  22.961  22.768  1.00  0.00    -0.376 OA
BRANCH  77  78
ATOM     78  C   UNL A   1      33.868  22.581  23.305  1.00  0.00     0.202 C 
BRANCH  78  79
ATOM     79  C   UNL A   1      32.632  23.182  22.614  1.00  0.00     0.261 C 
BRANCH  79  80
ATOM     80  O   UNL A   1      31.449  23.299  23.434  1.00  0.00    -0.462 OA
BRANCH  80  81
ATOM     81  C   UNL A   1      30.936  24.552  23.623  1.00  0.00     0.328 C 
ATOM     82  O   UNL A   1      30.040  25.036  22.936  1.00  0.00    -0.250 OA
BRANCH  81  83
ATOM     83  C   UNL A   1      31.566  25.328  24.821  1.00  0.00     0.193 C 
ATOM     84  C   UNL A   1      31.896  24.459  26.049  1.00  0.00     0.037 C 
ATOM     85  N   UNL A   1      32.660  26.244  24.457  1.00  0.00    -0.343 N 
ATOM     86  C   UNL A   1      33.357  24.300  26.484  1.00  0.00     0.005 C 
ATOM     87  C   UNL A   1      34.062  25.922  24.631  1.00  0.00     0.119 C 
ATOM     88  C   UNL A   1      34.337  25.369  26.018  1.00  0.00     0.022 C 
BRANCH  85  89
ATOM     89  C   UNL A   1      32.340  27.580  24.607  1.00  0.00     0.134 A 
ATOM     90  C   UNL A   1      31.262  28.080  23.928  1.00  0.00     0.076 A 
ATOM     91  N   UNL A   1      33.039  28.306  25.482  1.00  0.00    -0.211 NA
ATOM     92  C   UNL A   1      30.878  29.363  24.244  1.00  0.00     0.076 A 
ATOM     93  C   UNL A   1      32.602  29.546  25.726  1.00  0.00     0.162 A 
ATOM     94  N   UNL A   1      31.536  30.123  25.147  1.00  0.00    -0.228 NA
BRANCH  92  95
ATOM     95  C   UNL A   1      29.694  29.942  23.608  1.00  0.00     0.000 A 
ATOM     96  C   UNL A   1      29.307  31.261  23.880  1.00  0.00     0.010 A 
ATOM     97  C   UNL A   1      28.964  29.214  22.649  1.00  0.00     0.010 A 
ATOM     98  C   UNL A   1      28.237  31.844  23.198  1.00  0.00     0.001 A 
ATOM     99  C   UNL A   1      27.891  29.792  21.974  1.00  0.00     0.001 A 
ATOM    100  C   UNL A   1      27.532  31.110  22.246  1.00  0.00     0.000 A 
ENDBRANCH  92  95
BRANCH  93 101
ATOM    101  C   UNL A   1      33.317  30.254  26.786  1.00  0.00     0.021 A 
ATOM    102  C   UNL A   1      33.017  31.599  27.077  1.00  0.00     0.012 A 
ATOM    103  C   UNL A   1      34.385  29.648  27.466  1.00  0.00     0.032 A 
ATOM    104  C   UNL A   1      33.750  32.315  28.026  1.00  0.00     0.002 A 
ATOM    105  C   UNL A   1      35.127  30.372  28.399  1.00  0.00     0.041 A 
ATOM    106  C   UNL A   1      34.811  31.699  28.685  1.00  0.00     0.020 A 
ATOM    107  Cl  UNL A   1      36.464  29.628  29.187  1.00  0.00    -0.084 Cl
ENDBRANCH  93 101
ENDBRANCH  85  89
ENDBRANCH  81  83
ENDBRANCH  80  81
ENDBRANCH  79  80
ENDBRANCH  78  79
ENDBRANCH  77  78
ENDBRANCH  76  77
ENDBRANCH  75  76
ENDBRANCH  74  75
ENDBRANCH   1  74
TORSDOF 26
ENDMDL
MODEL 2
REMARK VINA RESULT:      -9.9      4.269      9.282
REMARK SMILES O=C(OCCOCCOCCOCCOC(=O)[C@H]1CCCCN1c1cc(-c2ccccc2)nc(-c2cccc(Cl)c2)n1)c1ccc(-c2c3nc(c(-c4cc(S(=O)(=O)[O-])ccc4F)c4ccc([nH]4)c(-c4cc(S(=O)(=O)[O-])ccc4F)c4nc(c(-c5cc(S(=O)(=O)[O-])ccc5F)c5ccc2[nH]5)C=C4)C=C3)cc1
REMARK SMILES IDX 8 1 7 2 6 3 5 4 4 5 3 6 2 7 1 8 43 9 44 10 105 11 45 12
REMARK SMILES IDX 104 13 46 14 47 15 48 16 98 17 49 18 103 19 97 20 99 21
REMARK SMILES IDX 50 22 102 23 96 24 95 25 51 27 83 28 63 29 82 30 64 31 67 32
REMARK SMILES IDX 81 33 100 34 65 35 66 36 80 38 101 39 68 40 52 41 53 42
REMARK SMILES IDX 61 43 54 44 60 45 62 46 59 47 55 48 56 49 57 50 58 51 84 52
REMARK SMILES IDX 85 53 93 54 86 55 92 56 94 57 91 58 87 59 88 60 89 61 90 62
REMARK SMILES IDX 69 63 70 64 78 65 71 66 77 67 79 68 76 69 72 70 73 71 74 72
REMARK SMILES IDX 75 73 9 74 10 75 11 76 12 77 13 78 14 79 15 80 16 81 17 82
REMARK SMILES IDX 18 83 19 84 23 85 20 86 22 87 21 88 24 89 25 90 42 91 26 92
REMARK SMILES IDX 34 93 33 94 27 95 28 96 32 97 29 98 31 99 30 100 35 101
REMARK SMILES IDX 36 102 41 103 37 104 39 105 38 106 40 107
REMARK H PARENT 99 26 67 37
REMARK Flexibility Score: inf
ROOT
ATOM      1  C   UNL A   1      38.023  23.972  26.060  1.00  0.00     0.188 C 
ENDROOT
BRANCH   1   2
ATOM      2  C   UNL A   1      39.366  23.417  26.530  1.00  0.00     0.188 C 
BRANCH   2   3
ATOM      3  O   UNL A   1      39.652  23.789  27.878  1.00  0.00    -0.376 OA
BRANCH   3   4
ATOM      4  C   UNL A   1      40.885  24.499  28.054  1.00  0.00     0.202 C 
BRANCH   4   5
ATOM      5  C   UNL A   1      42.079  23.885  27.322  1.00  0.00     0.261 C 
BRANCH   5   6
ATOM      6  O   UNL A   1      42.677  24.782  26.377  1.00  0.00    -0.460 OA
BRANCH   6   7
ATOM      7  C   UNL A   1      42.256  26.019  26.007  1.00  0.00     0.338 C 
ATOM      8  O   UNL A   1      41.555  26.095  24.996  1.00  0.00    -0.246 OA
BRANCH   7   9
ATOM      9  C   UNL A   1      42.656  27.307  26.677  1.00  0.00     0.060 A 
ATOM     10  C   UNL A   1      43.457  27.429  27.816  1.00  0.00     0.016 A 
ATOM     11  C   UNL A   1      42.223  28.501  26.067  1.00  0.00     0.016 A 
ATOM     12  C   UNL A   1      43.849  28.656  28.318  1.00  0.00     0.010 A 
ATOM     13  C   UNL A   1      42.556  29.750  26.599  1.00  0.00     0.010 A 
ATOM     14  C   UNL A   1      43.357  29.817  27.741  1.00  0.00    -0.014 A 
BRANCH  14  15
ATOM     15  C   UNL A   1      43.449  31.023  28.575  1.00  0.00     0.031 A 
ATOM     16  C   UNL A   1      44.497  32.022  28.184  1.00  0.00     0.074 A 
ATOM     17  C   UNL A   1      42.495  31.296  29.477  1.00  0.00     0.049 A 
ATOM     18  N   UNL A   1      44.822  33.152  28.744  1.00  0.00    -0.248 NA
ATOM     19  C   UNL A   1      45.265  31.708  26.966  1.00  0.00     0.031 C 
ATOM     20  C   UNL A   1      41.326  30.454  29.745  1.00  0.00     0.029 A 
ATOM     21  N   UNL A   1      42.335  32.368  30.309  1.00  0.00    -0.354 N 
ATOM     22  C   UNL A   1      45.853  33.667  27.965  1.00  0.00     0.074 A 
ATOM     23  C   UNL A   1      46.096  32.731  26.894  1.00  0.00     0.031 C 
ATOM     24  C   UNL A   1      40.577  31.039  30.695  1.00  0.00     0.029 A 
ATOM     25  C   UNL A   1      41.252  32.251  31.148  1.00  0.00     0.049 A 
ATOM     26  H   UNL A   1      42.937  33.147  30.307  1.00  0.00     0.167 HD
ATOM     27  C   UNL A   1      46.543  34.816  28.155  1.00  0.00     0.034 A 
ATOM     28  C   UNL A   1      40.903  33.014  32.200  1.00  0.00     0.034 A 
ATOM     29  C   UNL A   1      46.272  35.687  29.270  1.00  0.00     0.049 A 
ATOM     30  C   UNL A   1      41.778  34.209  32.497  1.00  0.00     0.074 A 
ATOM     31  C   UNL A   1      46.944  36.822  29.672  1.00  0.00     0.029 A 
ATOM     32  N   UNL A   1      45.231  35.491  30.177  1.00  0.00    -0.354 N 
ATOM     33  N   UNL A   1      42.830  34.645  31.835  1.00  0.00    -0.248 NA
ATOM     34  C   UNL A   1      41.437  35.005  33.679  1.00  0.00     0.031 C 
ATOM     35  C   UNL A   1      46.358  37.268  30.864  1.00  0.00     0.029 A 
ATOM     36  C   UNL A   1      45.264  36.464  31.158  1.00  0.00     0.049 A 
ATOM     37  H   UNL A   1      44.569  34.765  30.125  1.00  0.00     0.167 HD
ATOM     38  C   UNL A   1      43.266  35.779  32.512  1.00  0.00     0.074 A 
ATOM     39  C   UNL A   1      42.350  35.965  33.622  1.00  0.00     0.031 C 
ATOM     40  C   UNL A   1      44.323  36.594  32.250  1.00  0.00     0.034 A 
BRANCH  27  41
ATOM     41  C   UNL A   1      47.711  35.064  27.231  1.00  0.00     0.023 A 
ATOM     42  C   UNL A   1      49.007  34.595  27.520  1.00  0.00     0.031 A 
ATOM     43  C   UNL A   1      47.554  35.919  26.126  1.00  0.00     0.131 A 
ATOM     44  C   UNL A   1      50.104  35.074  26.782  1.00  0.00     0.055 A 
ATOM     45  C   UNL A   1      48.637  36.315  25.340  1.00  0.00     0.041 A 
ATOM     46  F   UNL A   1      46.351  36.430  25.824  1.00  0.00    -0.206 F 
ATOM     47  C   UNL A   1      49.925  35.911  25.679  1.00  0.00     0.022 A 
BRANCH  44  48
ATOM     48  S   UNL A   1      51.777  34.745  27.411  1.00  0.00     0.124 S 
ATOM     49  O   UNL A   1      52.547  35.817  26.766  1.00  0.00    -0.237 OA
ATOM     50  O   UNL A   1      51.613  34.846  28.838  1.00  0.00    -0.237 OA
ATOM     51  O   UNL A   1      52.073  33.398  26.899  1.00  0.00    -0.744 OA
ENDBRANCH  44  48
ENDBRANCH  27  41
BRANCH  28  52
ATOM     52  C   UNL A   1      39.773  32.613  33.090  1.00  0.00     0.023 A 
ATOM     53  C   UNL A   1      38.488  33.162  32.959  1.00  0.00     0.031 A 
ATOM     54  C   UNL A   1      39.981  31.680  34.127  1.00  0.00     0.131 A 
ATOM     55  C   UNL A   1      37.474  32.799  33.864  1.00  0.00     0.055 A 
ATOM     56  C   UNL A   1      38.957  31.280  34.986  1.00  0.00     0.041 A 
ATOM     57  F   UNL A   1      41.191  31.129  34.314  1.00  0.00    -0.206 F 
ATOM     58  C   UNL A   1      37.695  31.849  34.864  1.00  0.00     0.022 A 
BRANCH  55  59
ATOM     59  S   UNL A   1      35.872  33.648  33.773  1.00  0.00     0.124 S 
ATOM     60  O   UNL A   1      35.343  33.427  35.114  1.00  0.00    -0.237 OA
ATOM     61  O   UNL A   1      36.272  35.015  33.458  1.00  0.00    -0.237 OA
ATOM     62  O   UNL A   1      35.172  32.943  32.701  1.00  0.00    -0.744 OA
ENDBRANCH  55  59
ENDBRANCH  28  52
BRANCH  40  63
ATOM     63  C   UNL A   1      44.502  37.777  33.164  1.00  0.00     0.023 A 
ATOM     64  C   UNL A   1      43.792  38.972  32.968  1.00  0.00     0.031 A 
ATOM     65  C   UNL A   1      45.382  37.691  34.256  1.00  0.00     0.131 A 
ATOM     66  C   UNL A   1      44.012  40.056  33.828  1.00  0.00     0.055 A 
ATOM     67  C   UNL A   1      45.546  38.750  35.147  1.00  0.00     0.041 A 
ATOM     68  F   UNL A   1      46.083  36.568  34.483  1.00  0.00    -0.206 F 
ATOM     69  C   UNL A   1      44.868  39.945  34.928  1.00  0.00     0.022 A 
BRANCH  66  70
ATOM     70  S   UNL A   1      43.231  41.643  33.438  1.00  0.00     0.124 S 
ATOM     71  O   UNL A   1      43.802  41.947  32.129  1.00  0.00    -0.237 OA
ATOM     72  O   UNL A   1      41.811  41.305  33.451  1.00  0.00    -0.237 OA
ATOM     73  O   UNL A   1      43.670  42.516  34.524  1.00  0.00    -0.744 OA
ENDBRANCH  66  70
ENDBRANCH  40  63
ENDBRANCH  14  15
ENDBRANCH   7   9
ENDBRANCH   6   7
ENDBRANCH   5   6
ENDBRANCH   4   5
ENDBRANCH   3   4
ENDBRANCH   2   3
ENDBRANCH   1   2
BRANCH   1  74
ATOM     74  O   UNL A   1      36.880  23.693  26.847  1.00  0.00    -0.377 OA
BRANCH  74  75
ATOM     75  C   UNL A   1      36.129  22.531  26.567  1.00  0.00     0.188 C 
BRANCH  75  76
ATOM     76  C   UNL A   1      36.673  21.369  25.739  1.00  0.00     0.188 C 
BRANCH  76  77
ATOM     77  O   UNL A   1      36.511  21.311  24.332  1.00  0.00    -0.376 OA
BRANCH  77  78
ATOM     78  C   UNL A   1      35.412  21.953  23.716  1.00  0.00     0.202 C 
BRANCH  78  79
ATOM     79  C   UNL A   1      35.723  23.284  23.009  1.00  0.00     0.261 C 
BRANCH  79  80
ATOM     80  O   UNL A   1      34.587  24.137  22.748  1.00  0.00    -0.462 OA
BRANCH  80  81
ATOM     81  C   UNL A   1      34.159  24.944  23.766  1.00  0.00     0.328 C 
ATOM     82  O   UNL A   1      34.815  25.174  24.778  1.00  0.00    -0.250 OA
BRANCH  81  83
ATOM     83  C   UNL A   1      32.758  25.589  23.527  1.00  0.00     0.193 C 
ATOM     84  C   UNL A   1      31.819  24.771  22.622  1.00  0.00     0.037 C 
ATOM     85  N   UNL A   1      32.092  26.088  24.742  1.00  0.00    -0.343 N 
ATOM     86  C   UNL A   1      30.518  24.207  23.206  1.00  0.00     0.005 C 
ATOM     87  C   UNL A   1      31.040  25.365  25.429  1.00  0.00     0.119 C 
ATOM     88  C   UNL A   1      29.977  24.877  24.461  1.00  0.00     0.022 C 
BRANCH  85  89
ATOM     89  C   UNL A   1      31.993  27.465  24.796  1.00  0.00     0.134 A 
ATOM     90  C   UNL A   1      30.975  28.080  24.118  1.00  0.00     0.076 A 
ATOM     91  N   UNL A   1      32.838  28.131  25.585  1.00  0.00    -0.211 NA
ATOM     92  C   UNL A   1      30.813  29.427  24.345  1.00  0.00     0.076 A 
ATOM     93  C   UNL A   1      32.613  29.439  25.746  1.00  0.00     0.162 A 
ATOM     94  N   UNL A   1      31.624  30.136  25.161  1.00  0.00    -0.228 NA
BRANCH  92  95
ATOM     95  C   UNL A   1      29.706  30.141  23.707  1.00  0.00     0.000 A 
ATOM     96  C   UNL A   1      29.362  31.438  24.111  1.00  0.00     0.010 A 
ATOM     97  C   UNL A   1      29.014  29.571  22.621  1.00  0.00     0.010 A 
ATOM     98  C   UNL A   1      28.371  32.153  23.436  1.00  0.00     0.001 A 
ATOM     99  C   UNL A   1      28.019  30.282  21.952  1.00  0.00     0.001 A 
ATOM    100  C   UNL A   1      27.703  31.576  22.357  1.00  0.00     0.000 A 
ENDBRANCH  92  95
BRANCH  93 101
ATOM    101  C   UNL A   1      33.480  30.099  26.720  1.00  0.00     0.021 A 
ATOM    102  C   UNL A   1      33.178  31.393  27.186  1.00  0.00     0.012 A 
ATOM    103  C   UNL A   1      34.682  29.506  27.135  1.00  0.00     0.032 A 
ATOM    104  C   UNL A   1      34.042  32.072  28.048  1.00  0.00     0.002 A 
ATOM    105  C   UNL A   1      35.551  30.194  27.982  1.00  0.00     0.041 A 
ATOM    106  C   UNL A   1      35.234  31.470  28.444  1.00  0.00     0.020 A 
ATOM    107  Cl  UNL A   1      37.045  29.471  28.441  1.00  0.00    -0.084 Cl
ENDBRANCH  93 101
ENDBRANCH  85  89
ENDBRANCH  81  83
ENDBRANCH  80  81
ENDBRANCH  79  80
ENDBRANCH  78  79
ENDBRANCH  77  78
ENDBRANCH  76  77
ENDBRANCH  75  76
ENDBRANCH  74  75
ENDBRANCH   1  74
TORSDOF 26
ENDMDL
MODEL 3
REMARK VINA RESULT:      -9.4      4.857      9.042
REMARK SMILES O=C(OCCOCCOCCOCCOC(=O)[C@H]1CCCCN1c1cc(-c2ccccc2)nc(-c2cccc(Cl)c2)n1)c1ccc(-c2c3nc(c(-c4cc(S(=O)(=O)[O-])ccc4F)c4ccc([nH]4)c(-c4cc(S(=O)(=O)[O-])ccc4F)c4nc(c(-c5cc(S(=O)(=O)[O-])ccc5F)c5ccc2[nH]5)C=C4)C=C3)cc1
REMARK SMILES IDX 8 1 7 2 6 3 5 4 4 5 3 6 2 7 1 8 43 9 44 10 105 11 45 12
REMARK SMILES IDX 104 13 46 14 47 15 48 16 98 17 49 18 103 19 97 20 99 21
REMARK SMILES IDX 50 22 102 23 96 24 95 25 51 27 83 28 63 29 82 30 64 31 67 32
REMARK SMILES IDX 81 33 100 34 65 35 66 36 80 38 101 39 68 40 52 41 53 42
REMARK SMILES IDX 61 43 54 44 60 45 62 46 59 47 55 48 56 49 57 50 58 51 84 52
REMARK SMILES IDX 85 53 93 54 86 55 92 56 94 57 91 58 87 59 88 60 89 61 90 62
REMARK SMILES IDX 69 63 70 64 78 65 71 66 77 67 79 68 76 69 72 70 73 71 74 72
REMARK SMILES IDX 75 73 9 74 10 75 11 76 12 77 13 78 14 79 15 80 16 81 17 82
REMARK SMILES IDX 18 83 19 84 23 85 20 86 22 87 21 88 24 89 25 90 42 91 26 92
REMARK SMILES IDX 34 93 33 94 27 95 28 96 32 97 29 98 31 99 30 100 35 101
REMARK SMILES IDX 36 102 41 103 37 104 39 105 38 106 40 107
REMARK H PARENT 99 26 67 37
REMARK Flexibility Score: inf
ROOT
ATOM      1  C   UNL A   1      34.387  22.877  25.469  1.00  0.00     0.188 C 
ENDROOT
BRANCH   1   2
ATOM      2  C   UNL A   1      34.062  21.385  25.413  1.00  0.00     0.188 C 
BRANCH   2   3
ATOM      3  O   UNL A   1      35.213  20.603  25.097  1.00  0.00    -0.376 OA
BRANCH   3   4
ATOM      4  C   UNL A   1      36.437  21.344  25.014  1.00  0.00     0.202 C 
BRANCH   4   5
ATOM      5  C   UNL A   1      37.698  20.480  24.977  1.00  0.00     0.261 C 
BRANCH   5   6
ATOM      6  O   UNL A   1      38.759  21.005  25.786  1.00  0.00    -0.460 OA
BRANCH   6   7
ATOM      7  C   UNL A   1      40.035  20.553  25.900  1.00  0.00     0.338 C 
ATOM      8  O   UNL A   1      40.214  19.340  25.774  1.00  0.00    -0.246 OA
BRANCH   7   9
ATOM      9  C   UNL A   1      41.226  21.401  26.260  1.00  0.00     0.060 A 
ATOM     10  C   UNL A   1      42.540  20.951  26.415  1.00  0.00     0.016 A 
ATOM     11  C   UNL A   1      41.000  22.784  26.403  1.00  0.00     0.016 A 
ATOM     12  C   UNL A   1      43.594  21.812  26.662  1.00  0.00     0.010 A 
ATOM     13  C   UNL A   1      42.044  23.661  26.717  1.00  0.00     0.010 A 
ATOM     14  C   UNL A   1      43.339  23.160  26.864  1.00  0.00    -0.014 A 
BRANCH  14  15
ATOM     15  C   UNL A   1      44.405  23.908  27.544  1.00  0.00     0.031 A 
ATOM     16  C   UNL A   1      45.309  24.722  26.667  1.00  0.00     0.074 A 
ATOM     17  C   UNL A   1      44.404  24.022  28.880  1.00  0.00     0.049 A 
ATOM     18  N   UNL A   1      46.339  25.453  26.980  1.00  0.00    -0.248 NA
ATOM     19  C   UNL A   1      44.977  24.730  25.230  1.00  0.00     0.031 C 
ATOM     20  C   UNL A   1      43.410  23.423  29.775  1.00  0.00     0.029 A 
ATOM     21  N   UNL A   1      45.241  24.706  29.716  1.00  0.00    -0.354 N 
ATOM     22  C   UNL A   1      46.797  25.982  25.778  1.00  0.00     0.074 A 
ATOM     23  C   UNL A   1      45.932  25.493  24.732  1.00  0.00     0.031 C 
ATOM     24  C   UNL A   1      43.710  23.755  31.042  1.00  0.00     0.029 A 
ATOM     25  C   UNL A   1      44.950  24.523  31.047  1.00  0.00     0.049 A 
ATOM     26  H   UNL A   1      45.979  25.274  29.396  1.00  0.00     0.167 HD
ATOM     27  C   UNL A   1      47.865  26.790  25.580  1.00  0.00     0.034 A 
ATOM     28  C   UNL A   1      45.659  24.888  32.132  1.00  0.00     0.034 A 
ATOM     29  C   UNL A   1      48.709  27.210  26.669  1.00  0.00     0.049 A 
ATOM     30  C   UNL A   1      46.937  25.655  31.887  1.00  0.00     0.074 A 
ATOM     31  C   UNL A   1      49.886  27.930  26.631  1.00  0.00     0.029 A 
ATOM     32  N   UNL A   1      48.455  26.922  28.008  1.00  0.00    -0.354 N 
ATOM     33  N   UNL A   1      47.445  26.066  30.743  1.00  0.00    -0.248 NA
ATOM     34  C   UNL A   1      47.742  25.998  33.062  1.00  0.00     0.031 C 
ATOM     35  C   UNL A   1      50.382  28.008  27.938  1.00  0.00     0.029 A 
ATOM     36  C   UNL A   1      49.471  27.417  28.804  1.00  0.00     0.049 A 
ATOM     37  H   UNL A   1      47.667  26.435  28.340  1.00  0.00     0.167 HD
ATOM     38  C   UNL A   1      48.623  26.731  31.063  1.00  0.00     0.074 A 
ATOM     39  C   UNL A   1      48.736  26.681  32.510  1.00  0.00     0.031 C 
ATOM     40  C   UNL A   1      49.532  27.329  30.248  1.00  0.00     0.034 A 
BRANCH  27  41
ATOM     41  C   UNL A   1      48.218  27.105  24.146  1.00  0.00     0.023 A 
ATOM     42  C   UNL A   1      49.477  26.792  23.599  1.00  0.00     0.031 A 
ATOM     43  C   UNL A   1      47.336  27.871  23.365  1.00  0.00     0.131 A 
ATOM     44  C   UNL A   1      49.857  27.339  22.360  1.00  0.00     0.055 A 
ATOM     45  C   UNL A   1      47.685  28.331  22.094  1.00  0.00     0.041 A 
ATOM     46  F   UNL A   1      46.137  28.235  23.846  1.00  0.00    -0.206 F 
ATOM     47  C   UNL A   1      48.960  28.085  21.594  1.00  0.00     0.022 A 
BRANCH  44  48
ATOM     48  S   UNL A   1      51.601  27.225  21.865  1.00  0.00     0.124 S 
ATOM     49  O   UNL A   1      51.980  28.642  21.803  1.00  0.00    -0.237 OA
ATOM     50  O   UNL A   1      52.190  26.452  22.927  1.00  0.00    -0.237 OA
ATOM     51  O   UNL A   1      51.538  26.559  20.554  1.00  0.00    -0.744 OA
ENDBRANCH  44  48
ENDBRANCH  27  41
BRANCH  28  52
ATOM     52  C   UNL A   1      45.248  24.441  33.497  1.00  0.00     0.023 A 
ATOM     53  C   UNL A   1      45.824  23.324  34.122  1.00  0.00     0.031 A 
ATOM     54  C   UNL A   1      44.226  25.122  34.190  1.00  0.00     0.131 A 
ATOM     55  C   UNL A   1      45.357  22.906  35.381  1.00  0.00     0.055 A 
ATOM     56  C   UNL A   1      43.805  24.736  35.464  1.00  0.00     0.041 A 
ATOM     57  F   UNL A   1      43.624  26.188  33.641  1.00  0.00    -0.206 F 
ATOM     58  C   UNL A   1      44.364  23.614  36.062  1.00  0.00     0.022 A 
BRANCH  55  59
ATOM     59  S   UNL A   1      46.005  21.366  36.089  1.00  0.00     0.124 S 
ATOM     60  O   UNL A   1      45.542  21.455  37.469  1.00  0.00    -0.237 OA
ATOM     61  O   UNL A   1      45.358  20.355  35.259  1.00  0.00    -0.237 OA
ATOM     62  O   UNL A   1      47.450  21.487  35.906  1.00  0.00    -0.744 OA
ENDBRANCH  55  59
ENDBRANCH  28  52
BRANCH  40  63
ATOM     63  C   UNL A   1      50.696  28.006  30.921  1.00  0.00     0.023 A 
ATOM     64  C   UNL A   1      50.595  29.311  31.429  1.00  0.00     0.031 A 
ATOM     65  C   UNL A   1      51.914  27.321  31.071  1.00  0.00     0.131 A 
ATOM     66  C   UNL A   1      51.713  29.911  32.023  1.00  0.00     0.055 A 
ATOM     67  C   UNL A   1      53.002  27.899  31.722  1.00  0.00     0.041 A 
ATOM     68  F   UNL A   1      52.058  26.071  30.600  1.00  0.00    -0.206 F 
ATOM     69  C   UNL A   1      52.909  29.205  32.191  1.00  0.00     0.022 A 
BRANCH  66  70
ATOM     70  S   UNL A   1      51.612  31.657  32.492  1.00  0.00     0.124 S 
ATOM     71  O   UNL A   1      52.270  31.658  33.795  1.00  0.00    -0.237 OA
ATOM     72  O   UNL A   1      52.338  32.315  31.410  1.00  0.00    -0.237 OA
ATOM     73  O   UNL A   1      50.175  31.920  32.523  1.00  0.00    -0.744 OA
ENDBRANCH  66  70
ENDBRANCH  40  63
ENDBRANCH  14  15
ENDBRANCH   7   9
ENDBRANCH   6   7
ENDBRANCH   5   6
ENDBRANCH   4   5
ENDBRANCH   3   4
ENDBRANCH   2   3
ENDBRANCH   1   2
BRANCH   1  74
ATOM     74  O   UNL A   1      33.323  23.793  25.289  1.00  0.00    -0.377 OA
BRANCH  74  75
ATOM     75  C   UNL A   1      33.506  25.134  25.689  1.00  0.00     0.188 C 
BRANCH  75  76
ATOM     76  C   UNL A   1      32.859  26.313  24.965  1.00  0.00     0.188 C 
BRANCH  76  77
ATOM     77  O   UNL A   1      32.478  27.495  25.648  1.00  0.00    -0.376 OA
BRANCH  77  78
ATOM     78  C   UNL A   1      33.234  28.680  25.493  1.00  0.00     0.202 C 
BRANCH  78  79
ATOM     79  C   UNL A   1      34.453  28.824  26.422  1.00  0.00     0.261 C 
BRANCH  79  80
ATOM     80  O   UNL A   1      34.194  29.428  27.708  1.00  0.00    -0.462 OA
BRANCH  80  81
ATOM     81  C   UNL A   1      34.010  30.783  27.741  1.00  0.00     0.328 C 
ATOM     82  O   UNL A   1      32.992  31.345  27.347  1.00  0.00    -0.250 OA
BRANCH  81  83
ATOM     83  C   UNL A   1      35.204  31.577  28.357  1.00  0.00     0.193 C 
ATOM     84  C   UNL A   1      35.398  32.994  27.786  1.00  0.00     0.037 C 
ATOM     85  N   UNL A   1      35.280  31.537  29.827  1.00  0.00    -0.343 N 
ATOM     86  C   UNL A   1      35.221  34.205  28.708  1.00  0.00     0.005 C 
ATOM     87  C   UNL A   1      34.826  32.618  30.679  1.00  0.00     0.119 C 
ATOM     88  C   UNL A   1      35.358  33.959  30.205  1.00  0.00     0.022 C 
BRANCH  85  89
ATOM     89  C   UNL A   1      36.358  30.820  30.309  1.00  0.00     0.134 A 
ATOM     90  C   UNL A   1      37.029  29.986  29.457  1.00  0.00     0.076 A 
ATOM     91  N   UNL A   1      36.758  31.041  31.563  1.00  0.00    -0.211 NA
ATOM     92  C   UNL A   1      38.196  29.432  29.931  1.00  0.00     0.076 A 
ATOM     93  C   UNL A   1      37.898  30.458  31.946  1.00  0.00     0.162 A 
ATOM     94  N   UNL A   1      38.657  29.654  31.182  1.00  0.00    -0.228 NA
BRANCH  92  95
ATOM     95  C   UNL A   1      39.003  28.582  29.055  1.00  0.00     0.000 A 
ATOM     96  C   UNL A   1      39.008  27.190  29.213  1.00  0.00     0.010 A 
ATOM     97  C   UNL A   1      39.731  29.138  27.986  1.00  0.00     0.010 A 
ATOM     98  C   UNL A   1      39.701  26.375  28.315  1.00  0.00     0.001 A 
ATOM     99  C   UNL A   1      40.429  28.326  27.094  1.00  0.00     0.001 A 
ATOM    100  C   UNL A   1      40.408  26.943  27.257  1.00  0.00     0.000 A 
ENDBRANCH  92  95
BRANCH  93 101
ATOM    101  C   UNL A   1      38.366  30.835  33.279  1.00  0.00     0.021 A 
ATOM    102  C   UNL A   1      39.403  30.116  33.904  1.00  0.00     0.012 A 
ATOM    103  C   UNL A   1      37.727  31.850  34.008  1.00  0.00     0.032 A 
ATOM    104  C   UNL A   1      39.801  30.408  35.210  1.00  0.00     0.002 A 
ATOM    105  C   UNL A   1      38.114  32.126  35.319  1.00  0.00     0.041 A 
ATOM    106  C   UNL A   1      39.151  31.414  35.921  1.00  0.00     0.020 A 
ATOM    107  Cl  UNL A   1      37.287  33.341  36.215  1.00  0.00    -0.084 Cl
ENDBRANCH  93 101
ENDBRANCH  85  89
ENDBRANCH  81  83
ENDBRANCH  80  81
ENDBRANCH  79  80
ENDBRANCH  78  79
ENDBRANCH  77  78
ENDBRANCH  76  77
ENDBRANCH  75  76
ENDBRANCH  74  75
ENDBRANCH   1  74
TORSDOF 26
ENDMDL
