MODEL 1
REMARK VINA RESULT:      -9.9      0.000      0.000
REMARK SMILES Cc1c(C)c2c(c(C)c1O)CC[C@@](C)(C(=O)OCCOCCOCCOCCOC(=O)c1ccc(-c3c4nc(c(-c5cc(S(=O)(=O)[O-])ccc5F)c5ccc([nH]5)c(-c5cc(S(=O)(=O)[O-])ccc5F)c5nc(c(-c6cc(S(=O)(=O)[O-])ccc6F)c6ccc3[nH]6)C=C5)C=C4)cc1)O2
REMARK SMILES IDX 24 1 23 2 22 3 21 4 20 5 19 6 18 7 17 8 15 9 16 10 13 11
REMARK SMILES IDX 1 12 2 13 3 14 9 15 4 16 5 17 7 18 6 19 95 20 8 21 11 22
REMARK SMILES IDX 12 23 14 24 10 25 25 27 26 28 27 29 28 30 29 31 30 32 31 33
REMARK SMILES IDX 32 34 33 35 94 36 34 37 93 38 35 39 36 40 37 41 87 42 38 43
REMARK SMILES IDX 92 44 86 45 88 46 39 47 91 48 85 49 84 50 40 52 72 53 52 54
REMARK SMILES IDX 71 55 53 56 56 57 70 58 89 59 54 60 55 61 69 63 90 64 57 65
REMARK SMILES IDX 41 66 42 67 50 68 43 69 49 70 51 71 48 72 44 73 45 74 46 75
REMARK SMILES IDX 47 76 73 77 74 78 82 79 75 80 81 81 83 82 80 83 76 84 77 85
REMARK SMILES IDX 78 86 79 87 58 88 59 89 67 90 60 91 66 92 68 93 65 94 61 95
REMARK SMILES IDX 62 96 63 97 64 98
REMARK H PARENT 10 26 88 51 56 62
REMARK Flexibility Score: inf
ROOT
ATOM      1  C   UNL A   1      34.897  31.982  28.775  1.00  0.00     0.188 C 
ENDROOT
BRANCH   1   2
ATOM      2  O   UNL A   1      34.593  30.838  27.980  1.00  0.00    -0.377 OA
BRANCH   2   3
ATOM      3  C   UNL A   1      33.361  30.839  27.288  1.00  0.00     0.188 C 
BRANCH   3   4
ATOM      4  C   UNL A   1      33.276  29.887  26.089  1.00  0.00     0.188 C 
BRANCH   4   5
ATOM      5  O   UNL A   1      32.074  29.711  25.358  1.00  0.00    -0.376 OA
BRANCH   5   6
ATOM      6  C   UNL A   1      31.450  28.443  25.228  1.00  0.00     0.202 C 
BRANCH   6   7
ATOM      7  C   UNL A   1      32.232  27.118  25.249  1.00  0.00     0.261 C 
BRANCH   7   8
ATOM      8  O   UNL A   1      31.634  25.975  24.609  1.00  0.00    -0.460 OA
BRANCH   8   9
ATOM      9  C   UNL A   1      31.240  24.991  25.453  1.00  0.00     0.350 C 
ATOM     10  O   UNL A   1      30.612  25.207  26.490  1.00  0.00    -0.247 OA
BRANCH   9  11
ATOM     11  C   UNL A   1      31.704  23.578  25.045  1.00  0.00     0.203 C 
ATOM     12  C   UNL A   1      37.583  21.796  25.008  1.00  0.00     0.049 C 
ATOM     13  C   UNL A   1      36.093  21.592  25.111  1.00  0.00    -0.002 A 
ATOM     14  C   UNL A   1      35.243  22.693  25.354  1.00  0.00    -0.002 A 
ATOM     15  C   UNL A   1      35.511  20.315  24.999  1.00  0.00     0.122 A 
ATOM     16  C   UNL A   1      35.813  24.072  25.598  1.00  0.00     0.049 C 
ATOM     17  C   UNL A   1      33.845  22.506  25.333  1.00  0.00     0.127 A 
ATOM     18  C   UNL A   1      34.116  20.118  25.065  1.00  0.00    -0.002 A 
ATOM     19  C   UNL A   1      33.270  21.233  25.236  1.00  0.00     0.001 A 
ATOM     20  O   UNL A   1      33.098  23.645  25.407  1.00  0.00    -0.475 OA
ATOM     21  C   UNL A   1      33.533  18.729  24.981  1.00  0.00     0.049 C 
ATOM     22  C   UNL A   1      31.766  21.078  25.280  1.00  0.00     0.044 C 
ATOM     23  C   UNL A   1      31.054  22.363  25.707  1.00  0.00     0.065 C 
ATOM     24  C   UNL A   1      31.529  23.539  23.519  1.00  0.00     0.069 C 
BRANCH  15  25
ATOM     25  O   UNL A   1      36.283  19.194  24.820  1.00  0.00    -0.507 OA
ATOM     26  H   UNL A   1      36.755  19.073  24.020  1.00  0.00     0.293 HD
ENDBRANCH  15  25
ENDBRANCH   9  11
ENDBRANCH   8   9
ENDBRANCH   7   8
ENDBRANCH   6   7
ENDBRANCH   5   6
ENDBRANCH   4   5
ENDBRANCH   3   4
ENDBRANCH   2   3
ENDBRANCH   1   2
BRANCH   1  27
ATOM     27  C   UNL A   1      35.530  33.207  28.082  1.00  0.00     0.188 C 
BRANCH  27  28
ATOM     28  O   UNL A   1      34.583  34.167  27.630  1.00  0.00    -0.376 OA
BRANCH  28  29
ATOM     29  C   UNL A   1      34.365  35.330  28.417  1.00  0.00     0.202 C 
BRANCH  29  30
ATOM     30  C   UNL A   1      33.153  35.349  29.366  1.00  0.00     0.261 C 
BRANCH  30  31
ATOM     31  O   UNL A   1      33.296  36.088  30.589  1.00  0.00    -0.460 OA
BRANCH  31  32
ATOM     32  C   UNL A   1      32.853  35.527  31.734  1.00  0.00     0.338 C 
ATOM     33  O   UNL A   1      31.692  35.412  32.089  1.00  0.00    -0.246 OA
BRANCH  32  34
ATOM     34  C   UNL A   1      34.010  34.878  32.390  1.00  0.00     0.060 A 
ATOM     35  C   UNL A   1      35.275  35.466  32.263  1.00  0.00     0.016 A 
ATOM     36  C   UNL A   1      33.848  33.703  33.129  1.00  0.00     0.016 A 
ATOM     37  C   UNL A   1      36.388  34.862  32.849  1.00  0.00     0.010 A 
ATOM     38  C   UNL A   1      34.969  33.082  33.689  1.00  0.00     0.010 A 
ATOM     39  C   UNL A   1      36.249  33.641  33.520  1.00  0.00    -0.014 A 
BRANCH  39  40
ATOM     40  C   UNL A   1      37.460  32.842  33.831  1.00  0.00     0.031 A 
ATOM     41  C   UNL A   1      38.205  33.160  35.100  1.00  0.00     0.074 A 
ATOM     42  C   UNL A   1      37.859  31.825  33.047  1.00  0.00     0.049 A 
ATOM     43  N   UNL A   1      39.305  32.635  35.571  1.00  0.00    -0.248 NA
ATOM     44  C   UNL A   1      37.624  34.210  35.954  1.00  0.00     0.031 C 
ATOM     45  C   UNL A   1      37.176  31.370  31.837  1.00  0.00     0.029 A 
ATOM     46  N   UNL A   1      38.939  30.984  33.160  1.00  0.00    -0.354 N 
ATOM     47  C   UNL A   1      39.544  33.284  36.777  1.00  0.00     0.074 A 
ATOM     48  C   UNL A   1      38.498  34.268  36.946  1.00  0.00     0.031 C 
ATOM     49  C   UNL A   1      37.851  30.328  31.322  1.00  0.00     0.029 A 
ATOM     50  C   UNL A   1      39.036  30.066  32.139  1.00  0.00     0.049 A 
ATOM     51  H   UNL A   1      39.582  31.032  33.902  1.00  0.00     0.167 HD
ATOM     52  C   UNL A   1      40.538  33.069  37.670  1.00  0.00     0.034 A 
ATOM     53  C   UNL A   1      39.982  29.137  31.888  1.00  0.00     0.034 A 
ATOM     54  C   UNL A   1      41.580  32.092  37.491  1.00  0.00     0.049 A 
ATOM     55  C   UNL A   1      41.152  29.001  32.833  1.00  0.00     0.074 A 
ATOM     56  C   UNL A   1      42.642  31.806  38.331  1.00  0.00     0.029 A 
ATOM     57  N   UNL A   1      41.695  31.246  36.397  1.00  0.00    -0.354 N 
ATOM     58  N   UNL A   1      41.388  29.649  33.951  1.00  0.00    -0.248 NA
ATOM     59  C   UNL A   1      42.183  28.014  32.482  1.00  0.00     0.031 C 
ATOM     60  C   UNL A   1      43.436  30.837  37.713  1.00  0.00     0.029 A 
ATOM     61  C   UNL A   1      42.830  30.462  36.524  1.00  0.00     0.049 A 
ATOM     62  H   UNL A   1      41.064  31.209  35.643  1.00  0.00     0.167 HD
ATOM     63  C   UNL A   1      42.582  29.129  34.447  1.00  0.00     0.074 A 
ATOM     64  C   UNL A   1      43.014  28.112  33.511  1.00  0.00     0.031 C 
ATOM     65  C   UNL A   1      43.256  29.461  35.577  1.00  0.00     0.034 A 
BRANCH  52  66
ATOM     66  C   UNL A   1      40.568  33.933  38.903  1.00  0.00     0.023 A 
ATOM     67  C   UNL A   1      39.812  33.611  40.043  1.00  0.00     0.031 A 
ATOM     68  C   UNL A   1      41.375  35.082  38.944  1.00  0.00     0.131 A 
ATOM     69  C   UNL A   1      39.853  34.451  41.166  1.00  0.00     0.055 A 
ATOM     70  C   UNL A   1      41.461  35.879  40.086  1.00  0.00     0.041 A 
ATOM     71  F   UNL A   1      42.097  35.447  37.872  1.00  0.00    -0.206 F 
ATOM     72  C   UNL A   1      40.691  35.568  41.203  1.00  0.00     0.022 A 
BRANCH  69  73
ATOM     73  S   UNL A   1      38.733  34.108  42.549  1.00  0.00     0.124 S 
ATOM     74  O   UNL A   1      37.932  35.328  42.588  1.00  0.00    -0.237 OA
ATOM     75  O   UNL A   1      38.041  32.903  42.105  1.00  0.00    -0.237 OA
ATOM     76  O   UNL A   1      39.636  33.926  43.684  1.00  0.00    -0.744 OA
ENDBRANCH  69  73
ENDBRANCH  52  66
BRANCH  53  77
ATOM     77  C   UNL A   1      39.884  28.280  30.672  1.00  0.00     0.023 A 
ATOM     78  C   UNL A   1      40.648  28.557  29.528  1.00  0.00     0.031 A 
ATOM     79  C   UNL A   1      39.008  27.180  30.632  1.00  0.00     0.131 A 
ATOM     80  C   UNL A   1      40.509  27.753  28.384  1.00  0.00     0.055 A 
ATOM     81  C   UNL A   1      38.903  26.361  29.507  1.00  0.00     0.041 A 
ATOM     82  F   UNL A   1      38.252  26.875  31.699  1.00  0.00    -0.206 F 
ATOM     83  C   UNL A   1      39.653  26.649  28.371  1.00  0.00     0.022 A 
BRANCH  80  84
ATOM     84  S   UNL A   1      41.445  28.190  26.892  1.00  0.00     0.124 S 
ATOM     85  O   UNL A   1      42.588  28.897  27.457  1.00  0.00    -0.237 OA
ATOM     86  O   UNL A   1      41.721  26.880  26.312  1.00  0.00    -0.237 OA
ATOM     87  O   UNL A   1      40.509  29.018  26.135  1.00  0.00    -0.744 OA
ENDBRANCH  80  84
ENDBRANCH  53  77
BRANCH  65  88
ATOM     88  C   UNL A   1      44.522  28.704  35.889  1.00  0.00     0.023 A 
ATOM     89  C   UNL A   1      44.496  27.492  36.600  1.00  0.00     0.031 A 
ATOM     90  C   UNL A   1      45.760  29.168  35.411  1.00  0.00     0.131 A 
ATOM     91  C   UNL A   1      45.692  26.797  36.835  1.00  0.00     0.055 A 
ATOM     92  C   UNL A   1      46.939  28.447  35.604  1.00  0.00     0.041 A 
ATOM     93  F   UNL A   1      45.839  30.317  34.721  1.00  0.00    -0.206 F 
ATOM     94  C   UNL A   1      46.910  27.256  36.325  1.00  0.00     0.022 A 
BRANCH  91  95
ATOM     95  S   UNL A   1      45.642  25.298  37.851  1.00  0.00     0.124 S 
ATOM     96  O   UNL A   1      44.211  25.014  37.902  1.00  0.00    -0.237 OA
ATOM     97  O   UNL A   1      46.450  24.363  37.075  1.00  0.00    -0.237 OA
ATOM     98  O   UNL A   1      46.236  25.721  39.118  1.00  0.00    -0.744 OA
ENDBRANCH  91  95
ENDBRANCH  65  88
ENDBRANCH  39  40
ENDBRANCH  32  34
ENDBRANCH  31  32
ENDBRANCH  30  31
ENDBRANCH  29  30
ENDBRANCH  28  29
ENDBRANCH  27  28
ENDBRANCH   1  27
TORSDOF 24
ENDMDL
MODEL 2
REMARK VINA RESULT:      -9.8      1.545      7.436
REMARK SMILES Cc1c(C)c2c(c(C)c1O)CC[C@@](C)(C(=O)OCCOCCOCCOCCOC(=O)c1ccc(-c3c4nc(c(-c5cc(S(=O)(=O)[O-])ccc5F)c5ccc([nH]5)c(-c5cc(S(=O)(=O)[O-])ccc5F)c5nc(c(-c6cc(S(=O)(=O)[O-])ccc6F)c6ccc3[nH]6)C=C5)C=C4)cc1)O2
REMARK SMILES IDX 24 1 23 2 22 3 21 4 20 5 19 6 18 7 17 8 15 9 16 10 13 11
REMARK SMILES IDX 1 12 2 13 3 14 9 15 4 16 5 17 7 18 6 19 95 20 8 21 11 22
REMARK SMILES IDX 12 23 14 24 10 25 25 27 26 28 27 29 28 30 29 31 30 32 31 33
REMARK SMILES IDX 32 34 33 35 94 36 34 37 93 38 35 39 36 40 37 41 87 42 38 43
REMARK SMILES IDX 92 44 86 45 88 46 39 47 91 48 85 49 84 50 40 52 72 53 52 54
REMARK SMILES IDX 71 55 53 56 56 57 70 58 89 59 54 60 55 61 69 63 90 64 57 65
REMARK SMILES IDX 41 66 42 67 50 68 43 69 49 70 51 71 48 72 44 73 45 74 46 75
REMARK SMILES IDX 47 76 73 77 74 78 82 79 75 80 81 81 83 82 80 83 76 84 77 85
REMARK SMILES IDX 78 86 79 87 58 88 59 89 67 90 60 91 66 92 68 93 65 94 61 95
REMARK SMILES IDX 62 96 63 97 64 98
REMARK H PARENT 10 26 88 51 56 62
REMARK Flexibility Score: inf
ROOT
ATOM      1  C   UNL A   1      35.035  32.551  28.869  1.00  0.00     0.188 C 
ENDROOT
BRANCH   1   2
ATOM      2  O   UNL A   1      34.943  31.589  27.821  1.00  0.00    -0.377 OA
BRANCH   2   3
ATOM      3  C   UNL A   1      33.667  31.046  27.549  1.00  0.00     0.188 C 
BRANCH   3   4
ATOM      4  C   UNL A   1      33.632  29.938  26.491  1.00  0.00     0.188 C 
BRANCH   4   5
ATOM      5  O   UNL A   1      32.727  29.975  25.399  1.00  0.00    -0.376 OA
BRANCH   5   6
ATOM      6  C   UNL A   1      31.970  28.839  25.009  1.00  0.00     0.202 C 
BRANCH   6   7
ATOM      7  C   UNL A   1      32.577  27.431  24.884  1.00  0.00     0.261 C 
BRANCH   7   8
ATOM      8  O   UNL A   1      31.711  26.362  24.459  1.00  0.00    -0.460 OA
BRANCH   8   9
ATOM      9  C   UNL A   1      31.344  25.503  25.440  1.00  0.00     0.350 C 
ATOM     10  O   UNL A   1      30.889  25.874  26.522  1.00  0.00    -0.247 OA
BRANCH   9  11
ATOM     11  C   UNL A   1      31.608  24.018  25.119  1.00  0.00     0.203 C 
ATOM     12  C   UNL A   1      37.227  21.569  24.692  1.00  0.00     0.049 C 
ATOM     13  C   UNL A   1      35.742  21.548  24.951  1.00  0.00    -0.002 A 
ATOM     14  C   UNL A   1      35.045  22.755  25.174  1.00  0.00    -0.002 A 
ATOM     15  C   UNL A   1      35.018  20.342  25.009  1.00  0.00     0.122 A 
ATOM     16  C   UNL A   1      35.782  24.074  25.239  1.00  0.00     0.049 C 
ATOM     17  C   UNL A   1      33.641  22.731  25.301  1.00  0.00     0.127 A 
ATOM     18  C   UNL A   1      33.624  20.314  25.222  1.00  0.00    -0.002 A 
ATOM     19  C   UNL A   1      32.925  21.530  25.372  1.00  0.00     0.001 A 
ATOM     20  O   UNL A   1      33.032  23.951  25.342  1.00  0.00    -0.475 OA
ATOM     21  C   UNL A   1      32.889  19.000  25.318  1.00  0.00     0.049 C 
ATOM     22  C   UNL A   1      31.425  21.554  25.570  1.00  0.00     0.044 C 
ATOM     23  C   UNL A   1      30.904  22.942  25.945  1.00  0.00     0.065 C 
ATOM     24  C   UNL A   1      31.274  23.880  23.626  1.00  0.00     0.069 C 
BRANCH  15  25
ATOM     25  O   UNL A   1      35.642  19.129  24.860  1.00  0.00    -0.507 OA
ATOM     26  H   UNL A   1      35.139  18.338  24.877  1.00  0.00     0.293 HD
ENDBRANCH  15  25
ENDBRANCH   9  11
ENDBRANCH   8   9
ENDBRANCH   7   8
ENDBRANCH   6   7
ENDBRANCH   5   6
ENDBRANCH   4   5
ENDBRANCH   3   4
ENDBRANCH   2   3
ENDBRANCH   1   2
BRANCH   1  27
ATOM     27  C   UNL A   1      35.478  33.985  28.508  1.00  0.00     0.188 C 
BRANCH  27  28
ATOM     28  O   UNL A   1      34.464  34.761  27.882  1.00  0.00    -0.376 OA
BRANCH  28  29
ATOM     29  C   UNL A   1      34.018  35.945  28.528  1.00  0.00     0.202 C 
BRANCH  29  30
ATOM     30  C   UNL A   1      32.867  35.830  29.544  1.00  0.00     0.261 C 
BRANCH  30  31
ATOM     31  O   UNL A   1      33.114  36.335  30.866  1.00  0.00    -0.460 OA
BRANCH  31  32
ATOM     32  C   UNL A   1      32.926  35.507  31.915  1.00  0.00     0.338 C 
ATOM     33  O   UNL A   1      31.875  35.293  32.496  1.00  0.00    -0.246 OA
BRANCH  32  34
ATOM     34  C   UNL A   1      34.174  34.737  32.105  1.00  0.00     0.060 A 
ATOM     35  C   UNL A   1      34.095  33.441  32.633  1.00  0.00     0.016 A 
ATOM     36  C   UNL A   1      35.413  35.284  31.761  1.00  0.00     0.016 A 
ATOM     37  C   UNL A   1      35.258  32.702  32.848  1.00  0.00     0.010 A 
ATOM     38  C   UNL A   1      36.580  34.554  32.006  1.00  0.00     0.010 A 
ATOM     39  C   UNL A   1      36.509  33.274  32.584  1.00  0.00    -0.014 A 
BRANCH  39  40
ATOM     40  C   UNL A   1      37.730  32.633  33.132  1.00  0.00     0.031 A 
ATOM     41  C   UNL A   1      38.338  31.498  32.350  1.00  0.00     0.074 A 
ATOM     42  C   UNL A   1      38.321  33.074  34.256  1.00  0.00     0.049 A 
ATOM     43  N   UNL A   1      39.374  30.755  32.635  1.00  0.00    -0.248 NA
ATOM     44  C   UNL A   1      37.689  31.163  31.071  1.00  0.00     0.031 C 
ATOM     45  C   UNL A   1      37.873  34.213  35.056  1.00  0.00     0.029 A 
ATOM     46  N   UNL A   1      39.435  32.618  34.915  1.00  0.00    -0.354 N 
ATOM     47  C   UNL A   1      39.506  29.871  31.569  1.00  0.00     0.074 A 
ATOM     48  C   UNL A   1      38.422  30.144  30.653  1.00  0.00     0.031 C 
ATOM     49  C   UNL A   1      38.709  34.369  36.097  1.00  0.00     0.029 A 
ATOM     50  C   UNL A   1      39.727  33.319  36.062  1.00  0.00     0.049 A 
ATOM     51  H   UNL A   1      39.976  31.860  34.596  1.00  0.00     0.167 HD
ATOM     52  C   UNL A   1      40.454  28.927  31.368  1.00  0.00     0.034 A 
ATOM     53  C   UNL A   1      40.693  33.122  36.985  1.00  0.00     0.034 A 
ATOM     54  C   UNL A   1      41.527  28.657  32.289  1.00  0.00     0.049 A 
ATOM     55  C   UNL A   1      41.664  31.980  36.802  1.00  0.00     0.074 A 
ATOM     56  C   UNL A   1      42.532  27.711  32.183  1.00  0.00     0.029 A 
ATOM     57  N   UNL A   1      41.732  29.328  33.486  1.00  0.00    -0.354 N 
ATOM     58  N   UNL A   1      41.754  31.125  35.810  1.00  0.00    -0.248 NA
ATOM     59  C   UNL A   1      42.659  31.774  37.865  1.00  0.00     0.031 C 
ATOM     60  C   UNL A   1      43.302  27.764  33.347  1.00  0.00     0.029 A 
ATOM     61  C   UNL A   1      42.827  28.793  34.145  1.00  0.00     0.049 A 
ATOM     62  H   UNL A   1      41.182  30.072  33.818  1.00  0.00     0.167 HD
ATOM     63  C   UNL A   1      42.831  30.297  36.118  1.00  0.00     0.074 A 
ATOM     64  C   UNL A   1      43.362  30.757  37.385  1.00  0.00     0.031 C 
ATOM     65  C   UNL A   1      43.338  29.253  35.413  1.00  0.00     0.034 A 
BRANCH  52  66
ATOM     66  C   UNL A   1      40.352  28.091  30.120  1.00  0.00     0.023 A 
ATOM     67  C   UNL A   1      41.216  28.289  29.030  1.00  0.00     0.031 A 
ATOM     68  C   UNL A   1      39.390  27.071  30.028  1.00  0.00     0.131 A 
ATOM     69  C   UNL A   1      41.076  27.501  27.878  1.00  0.00     0.055 A 
ATOM     70  C   UNL A   1      39.297  26.248  28.905  1.00  0.00     0.041 A 
ATOM     71  F   UNL A   1      38.525  26.856  31.032  1.00  0.00    -0.206 F 
ATOM     72  C   UNL A   1      40.140  26.466  27.818  1.00  0.00     0.022 A 
BRANCH  69  73
ATOM     73  S   UNL A   1      42.083  27.900  26.424  1.00  0.00     0.124 S 
ATOM     74  O   UNL A   1      41.818  29.327  26.266  1.00  0.00    -0.237 OA
ATOM     75  O   UNL A   1      43.428  27.545  26.864  1.00  0.00    -0.237 OA
ATOM     76  O   UNL A   1      41.525  27.048  25.377  1.00  0.00    -0.744 OA
ENDBRANCH  69  73
ENDBRANCH  52  66
BRANCH  53  77
ATOM     77  C   UNL A   1      40.774  34.004  38.183  1.00  0.00     0.023 A 
ATOM     78  C   UNL A   1      41.564  35.164  38.176  1.00  0.00     0.031 A 
ATOM     79  C   UNL A   1      40.073  33.689  39.362  1.00  0.00     0.131 A 
ATOM     80  C   UNL A   1      41.649  35.958  39.332  1.00  0.00     0.055 A 
ATOM     81  C   UNL A   1      40.129  34.503  40.494  1.00  0.00     0.041 A 
ATOM     82  F   UNL A   1      39.306  32.589  39.421  1.00  0.00    -0.206 F 
ATOM     83  C   UNL A   1      40.927  35.643  40.485  1.00  0.00     0.022 A 
BRANCH  80  84
ATOM     84  S   UNL A   1      42.750  37.401  39.319  1.00  0.00     0.124 S 
ATOM     85  O   UNL A   1      43.165  37.444  37.922  1.00  0.00    -0.237 OA
ATOM     86  O   UNL A   1      41.857  38.468  39.758  1.00  0.00    -0.237 OA
ATOM     87  O   UNL A   1      43.796  37.038  40.272  1.00  0.00    -0.744 OA
ENDBRANCH  80  84
ENDBRANCH  53  77
BRANCH  65  88
ATOM     88  C   UNL A   1      44.544  28.545  35.975  1.00  0.00     0.023 A 
ATOM     89  C   UNL A   1      44.414  27.445  36.840  1.00  0.00     0.031 A 
ATOM     90  C   UNL A   1      45.839  28.935  35.586  1.00  0.00     0.131 A 
ATOM     91  C   UNL A   1      45.561  26.788  37.309  1.00  0.00     0.055 A 
ATOM     92  C   UNL A   1      46.974  28.246  36.017  1.00  0.00     0.041 A 
ATOM     93  F   UNL A   1      46.018  29.976  34.757  1.00  0.00    -0.206 F 
ATOM     94  C   UNL A   1      46.838  27.169  36.888  1.00  0.00     0.022 A 
BRANCH  91  95
ATOM     95  S   UNL A   1      45.365  25.447  38.512  1.00  0.00     0.124 S 
ATOM     96  O   UNL A   1      46.619  25.520  39.254  1.00  0.00    -0.237 OA
ATOM     97  O   UNL A   1      44.168  25.849  39.242  1.00  0.00    -0.237 OA
ATOM     98  O   UNL A   1      45.207  24.257  37.677  1.00  0.00    -0.744 OA
ENDBRANCH  91  95
ENDBRANCH  65  88
ENDBRANCH  39  40
ENDBRANCH  32  34
ENDBRANCH  31  32
ENDBRANCH  30  31
ENDBRANCH  29  30
ENDBRANCH  28  29
ENDBRANCH  27  28
ENDBRANCH   1  27
TORSDOF 24
ENDMDL
MODEL 3
REMARK VINA RESULT:      -9.4      1.989      2.373
REMARK SMILES Cc1c(C)c2c(c(C)c1O)CC[C@@](C)(C(=O)OCCOCCOCCOCCOC(=O)c1ccc(-c3c4nc(c(-c5cc(S(=O)(=O)[O-])ccc5F)c5ccc([nH]5)c(-c5cc(S(=O)(=O)[O-])ccc5F)c5nc(c(-c6cc(S(=O)(=O)[O-])ccc6F)c6ccc3[nH]6)C=C5)C=C4)cc1)O2
REMARK SMILES IDX 24 1 23 2 22 3 21 4 20 5 19 6 18 7 17 8 15 9 16 10 13 11
REMARK SMILES IDX 1 12 2 13 3 14 9 15 4 16 5 17 7 18 6 19 95 20 8 21 11 22
REMARK SMILES IDX 12 23 14 24 10 25 25 27 26 28 27 29 28 30 29 31 30 32 31 33
REMARK SMILES IDX 32 34 33 35 94 36 34 37 93 38 35 39 36 40 37 41 87 42 38 43
REMARK SMILES IDX 92 44 86 45 88 46 39 47 91 48 85 49 84 50 40 52 72 53 52 54
REMARK SMILES IDX 71 55 53 56 56 57 70 58 89 59 54 60 55 61 69 63 90 64 57 65
REMARK SMILES IDX 41 66 42 67 50 68 43 69 49 70 51 71 48 72 44 73 45 74 46 75
REMARK SMILES IDX 47 76 73 77 74 78 82 79 75 80 81 81 83 82 80 83 76 84 77 85
REMARK SMILES IDX 78 86 79 87 58 88 59 89 67 90 60 91 66 92 68 93 65 94 61 95
REMARK SMILES IDX 62 96 63 97 64 98
REMARK H PARENT 10 26 88 51 56 62
REMARK Flexibility Score: inf
ROOT
ATOM      1  C   UNL A   1      34.941  32.612  28.836  1.00  0.00     0.188 C 
ENDROOT
BRANCH   1   2
ATOM      2  O   UNL A   1      34.829  31.722  27.727  1.00  0.00    -0.377 OA
BRANCH   2   3
ATOM      3  C   UNL A   1      33.572  31.117  27.505  1.00  0.00     0.188 C 
BRANCH   3   4
ATOM      4  C   UNL A   1      33.560  29.972  26.487  1.00  0.00     0.188 C 
BRANCH   4   5
ATOM      5  O   UNL A   1      32.649  29.946  25.401  1.00  0.00    -0.376 OA
BRANCH   5   6
ATOM      6  C   UNL A   1      31.897  28.787  25.075  1.00  0.00     0.202 C 
BRANCH   6   7
ATOM      7  C   UNL A   1      32.525  27.388  24.955  1.00  0.00     0.261 C 
BRANCH   7   8
ATOM      8  O   UNL A   1      31.689  26.314  24.485  1.00  0.00    -0.460 OA
BRANCH   8   9
ATOM      9  C   UNL A   1      31.270  25.455  25.445  1.00  0.00     0.350 C 
ATOM     10  O   UNL A   1      30.761  25.827  26.503  1.00  0.00    -0.247 OA
BRANCH   9  11
ATOM     11  C   UNL A   1      31.548  23.971  25.138  1.00  0.00     0.203 C 
ATOM     12  C   UNL A   1      37.189  21.591  24.621  1.00  0.00     0.049 C 
ATOM     13  C   UNL A   1      35.710  21.553  24.913  1.00  0.00    -0.002 A 
ATOM     14  C   UNL A   1      35.001  22.754  25.135  1.00  0.00    -0.002 A 
ATOM     15  C   UNL A   1      35.004  20.338  25.001  1.00  0.00     0.122 A 
ATOM     16  C   UNL A   1      35.722  24.083  25.167  1.00  0.00     0.049 C 
ATOM     17  C   UNL A   1      33.601  22.713  25.292  1.00  0.00     0.127 A 
ATOM     18  C   UNL A   1      33.615  20.295  25.246  1.00  0.00    -0.002 A 
ATOM     19  C   UNL A   1      32.903  21.503  25.394  1.00  0.00     0.001 A 
ATOM     20  O   UNL A   1      32.976  23.925  25.331  1.00  0.00    -0.475 OA
ATOM     21  C   UNL A   1      32.900  18.973  25.374  1.00  0.00     0.049 C 
ATOM     22  C   UNL A   1      31.408  21.510  25.624  1.00  0.00     0.044 C 
ATOM     23  C   UNL A   1      30.876  22.896  25.992  1.00  0.00     0.065 C 
ATOM     24  C   UNL A   1      31.183  23.808  23.654  1.00  0.00     0.069 C 
BRANCH  15  25
ATOM     25  O   UNL A   1      35.641  19.132  24.855  1.00  0.00    -0.507 OA
ATOM     26  H   UNL A   1      35.351  18.387  25.343  1.00  0.00     0.293 HD
ENDBRANCH  15  25
ENDBRANCH   9  11
ENDBRANCH   8   9
ENDBRANCH   7   8
ENDBRANCH   6   7
ENDBRANCH   5   6
ENDBRANCH   4   5
ENDBRANCH   3   4
ENDBRANCH   2   3
ENDBRANCH   1   2
BRANCH   1  27
ATOM     27  C   UNL A   1      35.248  34.097  28.554  1.00  0.00     0.188 C 
BRANCH  27  28
ATOM     28  O   UNL A   1      34.141  34.827  28.038  1.00  0.00    -0.376 OA
BRANCH  28  29
ATOM     29  C   UNL A   1      33.670  35.952  28.766  1.00  0.00     0.202 C 
BRANCH  29  30
ATOM     30  C   UNL A   1      32.529  35.738  29.776  1.00  0.00     0.261 C 
BRANCH  30  31
ATOM     31  O   UNL A   1      32.721  36.269  31.097  1.00  0.00    -0.460 OA
BRANCH  31  32
ATOM     32  C   UNL A   1      32.685  35.416  32.143  1.00  0.00     0.338 C 
ATOM     33  O   UNL A   1      31.707  35.119  32.809  1.00  0.00    -0.246 OA
BRANCH  32  34
ATOM     34  C   UNL A   1      33.997  34.736  32.210  1.00  0.00     0.060 A 
ATOM     35  C   UNL A   1      34.030  33.354  32.444  1.00  0.00     0.016 A 
ATOM     36  C   UNL A   1      35.184  35.451  32.038  1.00  0.00     0.016 A 
ATOM     37  C   UNL A   1      35.253  32.691  32.539  1.00  0.00     0.010 A 
ATOM     38  C   UNL A   1      36.410  34.791  32.164  1.00  0.00     0.010 A 
ATOM     39  C   UNL A   1      36.450  33.414  32.451  1.00  0.00    -0.014 A 
BRANCH  39  40
ATOM     40  C   UNL A   1      37.715  32.779  32.893  1.00  0.00     0.031 A 
ATOM     41  C   UNL A   1      38.173  33.032  34.305  1.00  0.00     0.074 A 
ATOM     42  C   UNL A   1      38.413  31.953  32.092  1.00  0.00     0.049 A 
ATOM     43  N   UNL A   1      39.255  32.625  34.913  1.00  0.00    -0.248 NA
ATOM     44  C   UNL A   1      37.282  33.852  35.145  1.00  0.00     0.031 C 
ATOM     45  C   UNL A   1      38.029  31.569  30.735  1.00  0.00     0.029 A 
ATOM     46  N   UNL A   1      39.590  31.283  32.313  1.00  0.00    -0.354 N 
ATOM     47  C   UNL A   1      39.173  33.132  36.206  1.00  0.00     0.074 A 
ATOM     48  C   UNL A   1      37.956  33.908  36.282  1.00  0.00     0.031 C 
ATOM     49  C   UNL A   1      38.954  30.724  30.245  1.00  0.00     0.029 A 
ATOM     50  C   UNL A   1      40.015  30.541  31.235  1.00  0.00     0.049 A 
ATOM     51  H   UNL A   1      40.084  31.329  33.162  1.00  0.00     0.167 HD
ATOM     52  C   UNL A   1      40.029  32.954  37.238  1.00  0.00     0.034 A 
ATOM     53  C   UNL A   1      41.140  29.813  31.065  1.00  0.00     0.034 A 
ATOM     54  C   UNL A   1      41.242  32.185  37.152  1.00  0.00     0.049 A 
ATOM     55  C   UNL A   1      42.143  29.733  32.191  1.00  0.00     0.074 A 
ATOM     56  C   UNL A   1      42.185  31.955  38.138  1.00  0.00     0.029 A 
ATOM     57  N   UNL A   1      41.684  31.525  36.014  1.00  0.00    -0.354 N 
ATOM     58  N   UNL A   1      42.074  30.250  33.396  1.00  0.00    -0.248 NA
ATOM     59  C   UNL A   1      43.377  28.976  31.933  1.00  0.00     0.031 C 
ATOM     60  C   UNL A   1      43.229  31.215  37.578  1.00  0.00     0.029 A 
ATOM     61  C   UNL A   1      42.904  30.917  36.264  1.00  0.00     0.049 A 
ATOM     62  H   UNL A   1      41.203  31.494  35.157  1.00  0.00     0.167 HD
ATOM     63  C   UNL A   1      43.242  29.859  34.046  1.00  0.00     0.074 A 
ATOM     64  C   UNL A   1      43.996  29.060  33.103  1.00  0.00     0.031 C 
ATOM     65  C   UNL A   1      43.651  30.134  35.311  1.00  0.00     0.034 A 
BRANCH  52  66
ATOM     66  C   UNL A   1      39.701  33.634  38.541  1.00  0.00     0.023 A 
ATOM     67  C   UNL A   1      38.785  33.078  39.450  1.00  0.00     0.031 A 
ATOM     68  C   UNL A   1      40.326  34.844  38.885  1.00  0.00     0.131 A 
ATOM     69  C   UNL A   1      38.493  33.751  40.645  1.00  0.00     0.055 A 
ATOM     70  C   UNL A   1      40.080  35.477  40.104  1.00  0.00     0.041 A 
ATOM     71  F   UNL A   1      41.191  35.429  38.041  1.00  0.00    -0.206 F 
ATOM     72  C   UNL A   1      39.153  34.934  40.989  1.00  0.00     0.022 A 
BRANCH  69  73
ATOM     73  S   UNL A   1      37.178  33.102  41.710  1.00  0.00     0.124 S 
ATOM     74  O   UNL A   1      37.946  32.373  42.715  1.00  0.00    -0.237 OA
ATOM     75  O   UNL A   1      36.514  34.318  42.170  1.00  0.00    -0.237 OA
ATOM     76  O   UNL A   1      36.389  32.266  40.808  1.00  0.00    -0.744 OA
ENDBRANCH  69  73
ENDBRANCH  52  66
BRANCH  53  77
ATOM     77  C   UNL A   1      41.397  29.127  29.768  1.00  0.00     0.023 A 
ATOM     78  C   UNL A   1      40.889  27.843  29.515  1.00  0.00     0.031 A 
ATOM     79  C   UNL A   1      42.173  29.740  28.766  1.00  0.00     0.131 A 
ATOM     80  C   UNL A   1      41.177  27.205  28.296  1.00  0.00     0.055 A 
ATOM     81  C   UNL A   1      42.422  29.119  27.542  1.00  0.00     0.041 A 
ATOM     82  F   UNL A   1      42.684  30.966  28.961  1.00  0.00    -0.206 F 
ATOM     83  C   UNL A   1      41.928  27.840  27.304  1.00  0.00     0.022 A 
BRANCH  80  84
ATOM     84  S   UNL A   1      40.581  25.511  28.036  1.00  0.00     0.124 S 
ATOM     85  O   UNL A   1      39.276  25.554  28.687  1.00  0.00    -0.237 OA
ATOM     86  O   UNL A   1      40.570  25.414  26.581  1.00  0.00    -0.237 OA
ATOM     87  O   UNL A   1      41.587  24.691  28.705  1.00  0.00    -0.744 OA
ENDBRANCH  80  84
ENDBRANCH  53  77
BRANCH  65  88
ATOM     88  C   UNL A   1      44.962  29.547  35.769  1.00  0.00     0.023 A 
ATOM     89  C   UNL A   1      46.165  30.266  35.662  1.00  0.00     0.031 A 
ATOM     90  C   UNL A   1      44.996  28.281  36.380  1.00  0.00     0.131 A 
ATOM     91  C   UNL A   1      47.358  29.701  36.136  1.00  0.00     0.055 A 
ATOM     92  C   UNL A   1      46.178  27.746  36.895  1.00  0.00     0.041 A 
ATOM     93  F   UNL A   1      43.875  27.556  36.512  1.00  0.00    -0.206 F 
ATOM     94  C   UNL A   1      47.370  28.455  36.770  1.00  0.00     0.022 A 
BRANCH  91  95
ATOM     95  S   UNL A   1      48.909  30.603  35.881  1.00  0.00     0.124 S 
ATOM     96  O   UNL A   1      48.438  31.859  35.305  1.00  0.00    -0.237 OA
ATOM     97  O   UNL A   1      49.453  30.686  37.232  1.00  0.00    -0.237 OA
ATOM     98  O   UNL A   1      49.660  29.745  34.966  1.00  0.00    -0.744 OA
ENDBRANCH  91  95
ENDBRANCH  65  88
ENDBRANCH  39  40
ENDBRANCH  32  34
ENDBRANCH  31  32
ENDBRANCH  30  31
ENDBRANCH  29  30
ENDBRANCH  28  29
ENDBRANCH  27  28
ENDBRANCH   1  27
TORSDOF 24
ENDMDL
