MODEL 1
REMARK VINA RESULT:      -7.8      0.000      0.000
REMARK SMILES O=C(OCCOCCOCCOCCOC(=O)[C@@H]1CC[C@H](CNC(=O)C2CCOCC2)O1)c1ccc(-c2c3nc(c(-c4cc(S(=O)(=O)[O-])ccc4F)c4ccc([nH]4)c(-c4cc(S(=O)(=O)[O-])ccc4F)c4nc(c(-c5cc(S(=O)(=O)[O-])ccc5F)c5ccc2[nH]5)C=C4)C=C3)cc1
REMARK SMILES IDX 9 1 8 2 7 3 6 4 5 5 4 6 3 7 2 8 1 9 33 10 34 11 95 12 35 13
REMARK SMILES IDX 94 14 36 15 37 16 38 17 88 18 39 19 93 20 87 21 89 22 40 23
REMARK SMILES IDX 92 24 86 25 85 26 41 28 73 29 53 30 72 31 54 32 57 33 71 34
REMARK SMILES IDX 90 35 55 36 56 37 70 39 91 40 58 41 42 42 43 43 51 44 44 45
REMARK SMILES IDX 50 46 52 47 49 48 45 49 46 50 47 51 48 52 74 53 75 54 83 55
REMARK SMILES IDX 76 56 82 57 84 58 81 59 77 60 78 61 79 62 80 63 59 64 60 65
REMARK SMILES IDX 68 66 61 67 67 68 69 69 66 70 62 71 63 72 64 73 65 74 10 75
REMARK SMILES IDX 11 76 12 77 13 78 14 79 15 80 16 81 17 82 18 83 19 84 32 85
REMARK SMILES IDX 20 86 21 87 22 88 23 89 24 90 25 92 26 93 27 94 31 95 28 96
REMARK SMILES IDX 30 97 29 98
REMARK H PARENT 89 27 57 38 23 91
REMARK Flexibility Score: inf
ROOT
ATOM      1  O   UNL A   1      44.520  29.592  28.026  1.00  0.00    -0.377 OA
ENDROOT
BRANCH   1   2
ATOM      2  C   UNL A   1      44.710  30.275  26.789  1.00  0.00     0.188 C 
BRANCH   2   3
ATOM      3  C   UNL A   1      44.567  31.795  26.869  1.00  0.00     0.188 C 
BRANCH   3   4
ATOM      4  O   UNL A   1      45.007  32.404  25.651  1.00  0.00    -0.376 OA
BRANCH   4   5
ATOM      5  C   UNL A   1      44.019  33.150  24.939  1.00  0.00     0.202 C 
BRANCH   5   6
ATOM      6  C   UNL A   1      43.593  34.441  25.637  1.00  0.00     0.261 C 
BRANCH   6   7
ATOM      7  O   UNL A   1      44.689  35.355  25.763  1.00  0.00    -0.460 OA
BRANCH   7   8
ATOM      8  C   UNL A   1      45.530  35.487  26.820  1.00  0.00     0.338 C 
ATOM      9  O   UNL A   1      46.739  35.545  26.588  1.00  0.00    -0.246 OA
BRANCH   8  10
ATOM     10  C   UNL A   1      45.090  35.585  28.251  1.00  0.00     0.060 A 
ATOM     11  C   UNL A   1      45.601  34.855  29.330  1.00  0.00     0.016 A 
ATOM     12  C   UNL A   1      44.089  36.534  28.525  1.00  0.00     0.016 A 
ATOM     13  C   UNL A   1      45.081  34.979  30.612  1.00  0.00     0.010 A 
ATOM     14  C   UNL A   1      43.565  36.679  29.811  1.00  0.00     0.010 A 
ATOM     15  C   UNL A   1      44.031  35.859  30.845  1.00  0.00    -0.014 A 
BRANCH  15  16
ATOM     16  C   UNL A   1      43.263  35.703  32.090  1.00  0.00     0.031 A 
ATOM     17  C   UNL A   1      43.676  36.557  33.250  1.00  0.00     0.074 A 
ATOM     18  C   UNL A   1      42.172  34.924  32.134  1.00  0.00     0.049 A 
ATOM     19  N   UNL A   1      43.279  36.533  34.490  1.00  0.00    -0.248 NA
ATOM     20  C   UNL A   1      44.683  37.593  32.957  1.00  0.00     0.031 C 
ATOM     21  C   UNL A   1      41.611  34.196  30.995  1.00  0.00     0.029 A 
ATOM     22  N   UNL A   1      41.335  34.624  33.173  1.00  0.00    -0.354 N 
ATOM     23  C   UNL A   1      44.015  37.521  35.136  1.00  0.00     0.074 A 
ATOM     24  C   UNL A   1      44.883  38.123  34.151  1.00  0.00     0.031 C 
ATOM     25  C   UNL A   1      40.523  33.523  31.404  1.00  0.00     0.029 A 
ATOM     26  C   UNL A   1      40.361  33.713  32.843  1.00  0.00     0.049 A 
ATOM     27  H   UNL A   1      41.423  35.022  34.070  1.00  0.00     0.167 HD
ATOM     28  C   UNL A   1      43.973  37.872  36.444  1.00  0.00     0.034 A 
ATOM     29  C   UNL A   1      39.485  33.067  33.639  1.00  0.00     0.034 A 
ATOM     30  C   UNL A   1      43.108  37.209  37.386  1.00  0.00     0.049 A 
ATOM     31  C   UNL A   1      39.531  33.377  35.115  1.00  0.00     0.074 A 
ATOM     32  C   UNL A   1      43.026  37.362  38.756  1.00  0.00     0.029 A 
ATOM     33  N   UNL A   1      42.168  36.243  37.035  1.00  0.00    -0.354 N 
ATOM     34  N   UNL A   1      40.309  34.225  35.755  1.00  0.00    -0.248 NA
ATOM     35  C   UNL A   1      38.601  32.643  35.978  1.00  0.00     0.031 C 
ATOM     36  C   UNL A   1      42.079  36.449  39.237  1.00  0.00     0.029 A 
ATOM     37  C   UNL A   1      41.514  35.778  38.160  1.00  0.00     0.049 A 
ATOM     38  H   UNL A   1      41.994  35.934  36.115  1.00  0.00     0.167 HD
ATOM     39  C   UNL A   1      39.948  34.139  37.096  1.00  0.00     0.074 A 
ATOM     40  C   UNL A   1      38.875  33.163  37.166  1.00  0.00     0.031 C 
ATOM     41  C   UNL A   1      40.449  34.801  38.173  1.00  0.00     0.034 A 
BRANCH  28  42
ATOM     42  C   UNL A   1      44.977  38.905  36.897  1.00  0.00     0.023 A 
ATOM     43  C   UNL A   1      44.753  40.285  36.727  1.00  0.00     0.031 A 
ATOM     44  C   UNL A   1      46.242  38.499  37.360  1.00  0.00     0.131 A 
ATOM     45  C   UNL A   1      45.810  41.193  36.905  1.00  0.00     0.055 A 
ATOM     46  C   UNL A   1      47.259  39.418  37.627  1.00  0.00     0.041 A 
ATOM     47  F   UNL A   1      46.529  37.197  37.510  1.00  0.00    -0.206 F 
ATOM     48  C   UNL A   1      47.056  40.772  37.376  1.00  0.00     0.022 A 
BRANCH  45  49
ATOM     49  S   UNL A   1      45.598  42.897  36.311  1.00  0.00     0.124 S 
ATOM     50  O   UNL A   1      45.906  43.669  37.514  1.00  0.00    -0.237 OA
ATOM     51  O   UNL A   1      46.575  42.981  35.232  1.00  0.00    -0.237 OA
ATOM     52  O   UNL A   1      44.199  42.945  35.892  1.00  0.00    -0.744 OA
ENDBRANCH  45  49
ENDBRANCH  28  42
BRANCH  29  53
ATOM     53  C   UNL A   1      38.580  32.024  33.075  1.00  0.00     0.023 A 
ATOM     54  C   UNL A   1      39.018  30.710  32.850  1.00  0.00     0.031 A 
ATOM     55  C   UNL A   1      37.247  32.336  32.743  1.00  0.00     0.131 A 
ATOM     56  C   UNL A   1      38.138  29.763  32.296  1.00  0.00     0.055 A 
ATOM     57  C   UNL A   1      36.363  31.382  32.238  1.00  0.00     0.041 A 
ATOM     58  F   UNL A   1      36.773  33.579  32.932  1.00  0.00    -0.206 F 
ATOM     59  C   UNL A   1      36.810  30.086  32.003  1.00  0.00     0.022 A 
BRANCH  56  60
ATOM     60  S   UNL A   1      38.766  28.106  31.909  1.00  0.00     0.124 S 
ATOM     61  O   UNL A   1      40.207  28.297  32.027  1.00  0.00    -0.237 OA
ATOM     62  O   UNL A   1      38.139  27.294  32.946  1.00  0.00    -0.237 OA
ATOM     63  O   UNL A   1      38.278  27.864  30.553  1.00  0.00    -0.744 OA
ENDBRANCH  56  60
ENDBRANCH  29  53
BRANCH  41  64
ATOM     64  C   UNL A   1      39.794  34.522  39.499  1.00  0.00     0.023 A 
ATOM     65  C   UNL A   1      40.032  33.332  40.204  1.00  0.00     0.031 A 
ATOM     66  C   UNL A   1      38.941  35.481  40.070  1.00  0.00     0.131 A 
ATOM     67  C   UNL A   1      39.388  33.113  41.430  1.00  0.00     0.055 A 
ATOM     68  C   UNL A   1      38.345  35.281  41.314  1.00  0.00     0.041 A 
ATOM     69  F   UNL A   1      38.686  36.635  39.431  1.00  0.00    -0.206 F 
ATOM     70  C   UNL A   1      38.560  34.087  41.997  1.00  0.00     0.022 A 
BRANCH  67  71
ATOM     71  S   UNL A   1      39.595  31.508  42.246  1.00  0.00     0.124 S 
ATOM     72  O   UNL A   1      40.941  31.129  41.829  1.00  0.00    -0.237 OA
ATOM     73  O   UNL A   1      39.436  31.851  43.656  1.00  0.00    -0.237 OA
ATOM     74  O   UNL A   1      38.518  30.697  41.682  1.00  0.00    -0.744 OA
ENDBRANCH  67  71
ENDBRANCH  41  64
ENDBRANCH  15  16
ENDBRANCH   8  10
ENDBRANCH   7   8
ENDBRANCH   6   7
ENDBRANCH   5   6
ENDBRANCH   4   5
ENDBRANCH   3   4
ENDBRANCH   2   3
ENDBRANCH   1   2
BRANCH   1  75
ATOM     75  C   UNL A   1      43.189  29.187  28.326  1.00  0.00     0.188 C 
BRANCH  75  76
ATOM     76  C   UNL A   1      42.131  29.212  27.193  1.00  0.00     0.188 C 
BRANCH  76  77
ATOM     77  O   UNL A   1      41.684  27.934  26.758  1.00  0.00    -0.376 OA
BRANCH  77  78
ATOM     78  C   UNL A   1      42.357  27.401  25.618  1.00  0.00     0.202 C 
BRANCH  78  79
ATOM     79  C   UNL A   1      42.042  25.927  25.327  1.00  0.00     0.261 C 
BRANCH  79  80
ATOM     80  O   UNL A   1      42.758  25.032  26.199  1.00  0.00    -0.461 OA
BRANCH  80  81
ATOM     81  C   UNL A   1      44.114  25.158  26.272  1.00  0.00     0.335 C 
ATOM     82  O   UNL A   1      44.874  25.075  25.331  1.00  0.00    -0.249 OA
BRANCH  81  83
ATOM     83  C   UNL A   1      44.506  25.550  27.716  1.00  0.00     0.228 C 
ATOM     84  C   UNL A   1      45.676  24.766  28.292  1.00  0.00     0.047 C 
ATOM     85  O   UNL A   1      43.422  25.464  28.658  1.00  0.00    -0.361 OA
ATOM     86  C   UNL A   1      45.269  24.580  29.734  1.00  0.00     0.037 C 
ATOM     87  C   UNL A   1      43.763  24.465  29.633  1.00  0.00     0.138 C 
BRANCH  87  88
ATOM     88  C   UNL A   1      43.235  23.132  29.099  1.00  0.00     0.147 C 
BRANCH  88  89
ATOM     89  N   UNL A   1      41.912  23.180  28.518  1.00  0.00    -0.353 N 
ATOM     90  C   UNL A   1      41.322  22.252  27.712  1.00  0.00     0.223 C 
ATOM     91  H   UNL A   1      41.373  23.977  28.729  1.00  0.00     0.163 HD
ATOM     92  O   UNL A   1      40.132  22.392  27.432  1.00  0.00    -0.275 OA
BRANCH  90  93
ATOM     93  C   UNL A   1      42.175  21.118  27.155  1.00  0.00     0.083 C 
ATOM     94  C   UNL A   1      42.894  21.552  25.874  1.00  0.00     0.042 C 
ATOM     95  C   UNL A   1      41.364  19.851  26.854  1.00  0.00     0.042 C 
ATOM     96  C   UNL A   1      43.729  20.402  25.329  1.00  0.00     0.161 C 
ATOM     97  C   UNL A   1      42.288  18.780  26.292  1.00  0.00     0.161 C 
ATOM     98  O   UNL A   1      42.926  19.245  25.103  1.00  0.00    -0.381 OA
ENDBRANCH  90  93
ENDBRANCH  88  89
ENDBRANCH  87  88
ENDBRANCH  81  83
ENDBRANCH  80  81
ENDBRANCH  79  80
ENDBRANCH  78  79
ENDBRANCH  77  78
ENDBRANCH  76  77
ENDBRANCH  75  76
ENDBRANCH   1  75
TORSDOF 26
ENDMDL
MODEL 2
REMARK VINA RESULT:      -7.6      7.298     13.830
REMARK SMILES O=C(OCCOCCOCCOCCOC(=O)[C@@H]1CC[C@H](CNC(=O)C2CCOCC2)O1)c1ccc(-c2c3nc(c(-c4cc(S(=O)(=O)[O-])ccc4F)c4ccc([nH]4)c(-c4cc(S(=O)(=O)[O-])ccc4F)c4nc(c(-c5cc(S(=O)(=O)[O-])ccc5F)c5ccc2[nH]5)C=C4)C=C3)cc1
REMARK SMILES IDX 9 1 8 2 7 3 6 4 5 5 4 6 3 7 2 8 1 9 33 10 34 11 95 12 35 13
REMARK SMILES IDX 94 14 36 15 37 16 38 17 88 18 39 19 93 20 87 21 89 22 40 23
REMARK SMILES IDX 92 24 86 25 85 26 41 28 73 29 53 30 72 31 54 32 57 33 71 34
REMARK SMILES IDX 90 35 55 36 56 37 70 39 91 40 58 41 42 42 43 43 51 44 44 45
REMARK SMILES IDX 50 46 52 47 49 48 45 49 46 50 47 51 48 52 74 53 75 54 83 55
REMARK SMILES IDX 76 56 82 57 84 58 81 59 77 60 78 61 79 62 80 63 59 64 60 65
REMARK SMILES IDX 68 66 61 67 67 68 69 69 66 70 62 71 63 72 64 73 65 74 10 75
REMARK SMILES IDX 11 76 12 77 13 78 14 79 15 80 16 81 17 82 18 83 19 84 32 85
REMARK SMILES IDX 20 86 21 87 22 88 23 89 24 90 25 92 26 93 27 94 31 95 28 96
REMARK SMILES IDX 30 97 29 98
REMARK H PARENT 89 27 57 38 23 91
REMARK Flexibility Score: inf
ROOT
ATOM      1  O   UNL A   1      33.534  32.386  28.240  1.00  0.00    -0.377 OA
ENDROOT
BRANCH   1   2
ATOM      2  C   UNL A   1      34.158  33.492  28.889  1.00  0.00     0.188 C 
BRANCH   2   3
ATOM      3  C   UNL A   1      35.685  33.441  28.915  1.00  0.00     0.188 C 
BRANCH   3   4
ATOM      4  O   UNL A   1      36.166  33.501  30.261  1.00  0.00    -0.376 OA
BRANCH   4   5
ATOM      5  C   UNL A   1      36.018  32.304  31.026  1.00  0.00     0.202 C 
BRANCH   5   6
ATOM      6  C   UNL A   1      35.349  32.513  32.384  1.00  0.00     0.261 C 
BRANCH   6   7
ATOM      7  O   UNL A   1      36.261  33.072  33.337  1.00  0.00    -0.460 OA
BRANCH   7   8
ATOM      8  C   UNL A   1      37.111  32.399  34.153  1.00  0.00     0.338 C 
ATOM      9  O   UNL A   1      36.872  32.406  35.362  1.00  0.00    -0.246 OA
BRANCH   8  10
ATOM     10  C   UNL A   1      38.311  31.630  33.685  1.00  0.00     0.060 A 
ATOM     11  C   UNL A   1      38.640  30.314  34.026  1.00  0.00     0.016 A 
ATOM     12  C   UNL A   1      39.161  32.302  32.789  1.00  0.00     0.016 A 
ATOM     13  C   UNL A   1      39.811  29.712  33.582  1.00  0.00     0.010 A 
ATOM     14  C   UNL A   1      40.336  31.705  32.325  1.00  0.00     0.010 A 
ATOM     15  C   UNL A   1      40.683  30.424  32.768  1.00  0.00    -0.014 A 
BRANCH  15  16
ATOM     16  C   UNL A   1      42.058  29.922  32.624  1.00  0.00     0.031 A 
ATOM     17  C   UNL A   1      42.360  29.120  31.395  1.00  0.00     0.074 A 
ATOM     18  C   UNL A   1      43.016  30.276  33.494  1.00  0.00     0.049 A 
ATOM     19  N   UNL A   1      43.428  28.445  31.077  1.00  0.00    -0.248 NA
ATOM     20  C   UNL A   1      41.295  29.084  30.376  1.00  0.00     0.031 C 
ATOM     21  C   UNL A   1      42.834  31.194  34.619  1.00  0.00     0.029 A 
ATOM     22  N   UNL A   1      44.334  29.917  33.561  1.00  0.00    -0.354 N 
ATOM     23  C   UNL A   1      43.151  27.870  29.841  1.00  0.00     0.074 A 
ATOM     24  C   UNL A   1      41.814  28.274  29.470  1.00  0.00     0.031 C 
ATOM     25  C   UNL A   1      44.001  31.317  35.273  1.00  0.00     0.029 A 
ATOM     26  C   UNL A   1      44.983  30.429  34.658  1.00  0.00     0.049 A 
ATOM     27  H   UNL A   1      44.773  29.346  32.889  1.00  0.00     0.167 HD
ATOM     28  C   UNL A   1      43.945  27.061  29.100  1.00  0.00     0.034 A 
ATOM     29  C   UNL A   1      46.215  30.153  35.132  1.00  0.00     0.034 A 
ATOM     30  C   UNL A   1      45.258  26.666  29.542  1.00  0.00     0.049 A 
ATOM     31  C   UNL A   1      47.046  29.155  34.363  1.00  0.00     0.074 A 
ATOM     32  C   UNL A   1      46.140  25.768  28.972  1.00  0.00     0.029 A 
ATOM     33  N   UNL A   1      45.874  27.155  30.692  1.00  0.00    -0.354 N 
ATOM     34  N   UNL A   1      46.745  28.512  33.254  1.00  0.00    -0.248 NA
ATOM     35  C   UNL A   1      48.369  28.833  34.907  1.00  0.00     0.031 C 
ATOM     36  C   UNL A   1      47.261  25.674  29.808  1.00  0.00     0.029 A 
ATOM     37  C   UNL A   1      47.114  26.568  30.860  1.00  0.00     0.049 A 
ATOM     38  H   UNL A   1      45.481  27.824  31.300  1.00  0.00     0.167 HD
ATOM     39  C   UNL A   1      47.850  27.722  32.957  1.00  0.00     0.074 A 
ATOM     40  C   UNL A   1      48.827  27.980  34.001  1.00  0.00     0.031 C 
ATOM     41  C   UNL A   1      48.049  26.863  31.922  1.00  0.00     0.034 A 
BRANCH  28  42
ATOM     42  C   UNL A   1      43.336  26.482  27.846  1.00  0.00     0.023 A 
ATOM     43  C   UNL A   1      42.775  25.190  27.819  1.00  0.00     0.031 A 
ATOM     44  C   UNL A   1      43.459  27.168  26.624  1.00  0.00     0.131 A 
ATOM     45  C   UNL A   1      42.471  24.585  26.589  1.00  0.00     0.055 A 
ATOM     46  C   UNL A   1      43.064  26.594  25.414  1.00  0.00     0.041 A 
ATOM     47  F   UNL A   1      44.016  28.388  26.578  1.00  0.00    -0.206 F 
ATOM     48  C   UNL A   1      42.589  25.286  25.387  1.00  0.00     0.022 A 
BRANCH  45  49
ATOM     49  S   UNL A   1      42.119  22.802  26.563  1.00  0.00     0.124 S 
ATOM     50  O   UNL A   1      42.478  22.451  25.190  1.00  0.00    -0.237 OA
ATOM     51  O   UNL A   1      43.001  22.290  27.604  1.00  0.00    -0.237 OA
ATOM     52  O   UNL A   1      40.691  22.728  26.862  1.00  0.00    -0.744 OA
ENDBRANCH  45  49
ENDBRANCH  28  42
BRANCH  29  53
ATOM     53  C   UNL A   1      46.681  30.751  36.417  1.00  0.00     0.023 A 
ATOM     54  C   UNL A   1      46.427  30.134  37.652  1.00  0.00     0.031 A 
ATOM     55  C   UNL A   1      47.390  31.968  36.426  1.00  0.00     0.131 A 
ATOM     56  C   UNL A   1      46.865  30.743  38.842  1.00  0.00     0.055 A 
ATOM     57  C   UNL A   1      47.864  32.545  37.605  1.00  0.00     0.041 A 
ATOM     58  F   UNL A   1      47.657  32.606  35.275  1.00  0.00    -0.206 F 
ATOM     59  C   UNL A   1      47.594  31.935  38.825  1.00  0.00     0.022 A 
BRANCH  56  60
ATOM     60  S   UNL A   1      46.422  29.982  40.428  1.00  0.00     0.124 S 
ATOM     61  O   UNL A   1      45.097  29.444  40.142  1.00  0.00    -0.237 OA
ATOM     62  O   UNL A   1      47.489  29.002  40.603  1.00  0.00    -0.237 OA
ATOM     63  O   UNL A   1      46.451  31.104  41.365  1.00  0.00    -0.744 OA
ENDBRANCH  56  60
ENDBRANCH  29  53
BRANCH  41  64
ATOM     64  C   UNL A   1      49.394  26.193  31.852  1.00  0.00     0.023 A 
ATOM     65  C   UNL A   1      50.468  26.764  31.152  1.00  0.00     0.031 A 
ATOM     66  C   UNL A   1      49.602  24.975  32.522  1.00  0.00     0.131 A 
ATOM     67  C   UNL A   1      51.699  26.094  31.104  1.00  0.00     0.055 A 
ATOM     68  C   UNL A   1      50.843  24.340  32.516  1.00  0.00     0.041 A 
ATOM     69  F   UNL A   1      48.604  24.394  33.207  1.00  0.00    -0.206 F 
ATOM     70  C   UNL A   1      51.898  24.895  31.797  1.00  0.00     0.022 A 
BRANCH  67  71
ATOM     71  S   UNL A   1      53.021  26.777  30.070  1.00  0.00     0.124 S 
ATOM     72  O   UNL A   1      52.915  28.206  30.349  1.00  0.00    -0.237 OA
ATOM     73  O   UNL A   1      54.207  26.111  30.599  1.00  0.00    -0.237 OA
ATOM     74  O   UNL A   1      52.639  26.378  28.718  1.00  0.00    -0.744 OA
ENDBRANCH  67  71
ENDBRANCH  41  64
ENDBRANCH  15  16
ENDBRANCH   8  10
ENDBRANCH   7   8
ENDBRANCH   6   7
ENDBRANCH   5   6
ENDBRANCH   4   5
ENDBRANCH   3   4
ENDBRANCH   2   3
ENDBRANCH   1   2
BRANCH   1  75
ATOM     75  C   UNL A   1      34.358  31.251  27.997  1.00  0.00     0.188 C 
BRANCH  75  76
ATOM     76  C   UNL A   1      33.770  30.062  27.195  1.00  0.00     0.188 C 
BRANCH  76  77
ATOM     77  O   UNL A   1      33.350  30.375  25.874  1.00  0.00    -0.376 OA
BRANCH  77  78
ATOM     78  C   UNL A   1      32.493  29.416  25.256  1.00  0.00     0.202 C 
BRANCH  78  79
ATOM     79  C   UNL A   1      31.610  28.630  26.236  1.00  0.00     0.261 C 
BRANCH  79  80
ATOM     80  O   UNL A   1      31.316  27.302  25.763  1.00  0.00    -0.461 OA
BRANCH  80  81
ATOM     81  C   UNL A   1      32.362  26.464  25.516  1.00  0.00     0.335 C 
ATOM     82  O   UNL A   1      33.212  26.153  26.323  1.00  0.00    -0.249 OA
BRANCH  81  83
ATOM     83  C   UNL A   1      32.214  25.879  24.092  1.00  0.00     0.228 C 
ATOM     84  C   UNL A   1      32.872  26.703  22.995  1.00  0.00     0.047 C 
ATOM     85  O   UNL A   1      30.850  25.644  23.697  1.00  0.00    -0.361 OA
ATOM     86  C   UNL A   1      31.894  26.569  21.852  1.00  0.00     0.037 C 
ATOM     87  C   UNL A   1      30.565  26.490  22.572  1.00  0.00     0.138 C 
BRANCH  87  88
ATOM     88  C   UNL A   1      30.038  27.811  23.139  1.00  0.00     0.147 C 
BRANCH  88  89
ATOM     89  N   UNL A   1      28.609  27.863  23.354  1.00  0.00    -0.353 N 
ATOM     90  C   UNL A   1      27.757  28.881  23.040  1.00  0.00     0.223 C 
ATOM     91  H   UNL A   1      28.203  27.071  23.777  1.00  0.00     0.163 HD
ATOM     92  O   UNL A   1      26.548  28.689  23.161  1.00  0.00    -0.275 OA
BRANCH  90  93
ATOM     93  C   UNL A   1      28.343  30.219  22.606  1.00  0.00     0.083 C 
ATOM     94  C   UNL A   1      27.996  31.320  23.613  1.00  0.00     0.042 C 
ATOM     95  C   UNL A   1      27.865  30.659  21.217  1.00  0.00     0.042 C 
ATOM     96  C   UNL A   1      28.580  32.649  23.155  1.00  0.00     0.161 C 
ATOM     97  C   UNL A   1      28.486  32.006  20.872  1.00  0.00     0.161 C 
ATOM     98  O   UNL A   1      28.126  32.986  21.844  1.00  0.00    -0.381 OA
ENDBRANCH  90  93
ENDBRANCH  88  89
ENDBRANCH  87  88
ENDBRANCH  81  83
ENDBRANCH  80  81
ENDBRANCH  79  80
ENDBRANCH  78  79
ENDBRANCH  77  78
ENDBRANCH  76  77
ENDBRANCH  75  76
ENDBRANCH   1  75
TORSDOF 26
ENDMDL
MODEL 3
REMARK VINA RESULT:      -7.5      6.657     14.707
REMARK SMILES O=C(OCCOCCOCCOCCOC(=O)[C@@H]1CC[C@H](CNC(=O)C2CCOCC2)O1)c1ccc(-c2c3nc(c(-c4cc(S(=O)(=O)[O-])ccc4F)c4ccc([nH]4)c(-c4cc(S(=O)(=O)[O-])ccc4F)c4nc(c(-c5cc(S(=O)(=O)[O-])ccc5F)c5ccc2[nH]5)C=C4)C=C3)cc1
REMARK SMILES IDX 9 1 8 2 7 3 6 4 5 5 4 6 3 7 2 8 1 9 33 10 34 11 95 12 35 13
REMARK SMILES IDX 94 14 36 15 37 16 38 17 88 18 39 19 93 20 87 21 89 22 40 23
REMARK SMILES IDX 92 24 86 25 85 26 41 28 73 29 53 30 72 31 54 32 57 33 71 34
REMARK SMILES IDX 90 35 55 36 56 37 70 39 91 40 58 41 42 42 43 43 51 44 44 45
REMARK SMILES IDX 50 46 52 47 49 48 45 49 46 50 47 51 48 52 74 53 75 54 83 55
REMARK SMILES IDX 76 56 82 57 84 58 81 59 77 60 78 61 79 62 80 63 59 64 60 65
REMARK SMILES IDX 68 66 61 67 67 68 69 69 66 70 62 71 63 72 64 73 65 74 10 75
REMARK SMILES IDX 11 76 12 77 13 78 14 79 15 80 16 81 17 82 18 83 19 84 32 85
REMARK SMILES IDX 20 86 21 87 22 88 23 89 24 90 25 92 26 93 27 94 31 95 28 96
REMARK SMILES IDX 30 97 29 98
REMARK H PARENT 89 27 57 38 23 91
REMARK Flexibility Score: inf
ROOT
ATOM      1  O   UNL A   1      38.422  31.017  29.303  1.00  0.00    -0.377 OA
ENDROOT
BRANCH   1   2
ATOM      2  C   UNL A   1      38.434  29.595  29.420  1.00  0.00     0.188 C 
BRANCH   2   3
ATOM      3  C   UNL A   1      39.273  28.874  28.365  1.00  0.00     0.188 C 
BRANCH   3   4
ATOM      4  O   UNL A   1      38.991  27.471  28.374  1.00  0.00    -0.376 OA
BRANCH   4   5
ATOM      5  C   UNL A   1      40.125  26.611  28.255  1.00  0.00     0.202 C 
BRANCH   5   6
ATOM      6  C   UNL A   1      39.770  25.147  27.997  1.00  0.00     0.261 C 
BRANCH   6   7
ATOM      7  O   UNL A   1      40.819  24.270  28.426  1.00  0.00    -0.460 OA
BRANCH   7   8
ATOM      8  C   UNL A   1      41.902  23.874  27.710  1.00  0.00     0.338 C 
ATOM      9  O   UNL A   1      41.778  22.888  26.982  1.00  0.00    -0.246 OA
BRANCH   8  10
ATOM     10  C   UNL A   1      43.234  24.563  27.731  1.00  0.00     0.060 A 
ATOM     11  C   UNL A   1      44.034  24.792  28.856  1.00  0.00     0.016 A 
ATOM     12  C   UNL A   1      43.730  24.982  26.484  1.00  0.00     0.016 A 
ATOM     13  C   UNL A   1      45.230  25.494  28.775  1.00  0.00     0.010 A 
ATOM     14  C   UNL A   1      44.937  25.678  26.385  1.00  0.00     0.010 A 
ATOM     15  C   UNL A   1      45.660  25.978  27.545  1.00  0.00    -0.014 A 
BRANCH  15  16
ATOM     16  C   UNL A   1      46.703  27.016  27.538  1.00  0.00     0.031 A 
ATOM     17  C   UNL A   1      46.267  28.414  27.857  1.00  0.00     0.074 A 
ATOM     18  C   UNL A   1      47.995  26.693  27.376  1.00  0.00     0.049 A 
ATOM     19  N   UNL A   1      46.931  29.533  27.789  1.00  0.00    -0.248 NA
ATOM     20  C   UNL A   1      44.878  28.561  28.327  1.00  0.00     0.031 C 
ATOM     21  C   UNL A   1      48.511  25.332  27.231  1.00  0.00     0.029 A 
ATOM     22  N   UNL A   1      49.108  27.485  27.317  1.00  0.00    -0.354 N 
ATOM     23  C   UNL A   1      46.030  30.523  28.169  1.00  0.00     0.074 A 
ATOM     24  C   UNL A   1      44.775  29.871  28.462  1.00  0.00     0.031 C 
ATOM     25  C   UNL A   1      49.846  25.386  27.090  1.00  0.00     0.029 A 
ATOM     26  C   UNL A   1      50.262  26.785  27.057  1.00  0.00     0.049 A 
ATOM     27  H   UNL A   1      49.085  28.461  27.448  1.00  0.00     0.167 HD
ATOM     28  C   UNL A   1      46.241  31.859  28.243  1.00  0.00     0.034 A 
ATOM     29  C   UNL A   1      51.496  27.243  26.765  1.00  0.00     0.034 A 
ATOM     30  C   UNL A   1      47.509  32.452  27.903  1.00  0.00     0.049 A 
ATOM     31  C   UNL A   1      51.690  28.740  26.730  1.00  0.00     0.074 A 
ATOM     32  C   UNL A   1      47.855  33.787  27.814  1.00  0.00     0.029 A 
ATOM     33  N   UNL A   1      48.651  31.722  27.584  1.00  0.00    -0.354 N 
ATOM     34  N   UNL A   1      50.811  29.690  26.970  1.00  0.00    -0.248 NA
ATOM     35  C   UNL A   1      53.025  29.229  26.375  1.00  0.00     0.031 C 
ATOM     36  C   UNL A   1      49.187  33.860  27.386  1.00  0.00     0.029 A 
ATOM     37  C   UNL A   1      49.697  32.573  27.280  1.00  0.00     0.049 A 
ATOM     38  H   UNL A   1      48.706  30.738  27.575  1.00  0.00     0.167 HD
ATOM     39  C   UNL A   1      51.493  30.892  26.813  1.00  0.00     0.074 A 
ATOM     40  C   UNL A   1      52.860  30.542  26.468  1.00  0.00     0.031 C 
ATOM     41  C   UNL A   1      51.043  32.168  26.941  1.00  0.00     0.034 A 
BRANCH  28  42
ATOM     42  C   UNL A   1      45.040  32.714  28.570  1.00  0.00     0.023 A 
ATOM     43  C   UNL A   1      44.444  33.557  27.612  1.00  0.00     0.031 A 
ATOM     44  C   UNL A   1      44.585  32.806  29.897  1.00  0.00     0.131 A 
ATOM     45  C   UNL A   1      43.516  34.530  28.018  1.00  0.00     0.055 A 
ATOM     46  C   UNL A   1      43.592  33.712  30.275  1.00  0.00     0.041 A 
ATOM     47  F   UNL A   1      45.137  32.055  30.863  1.00  0.00    -0.206 F 
ATOM     48  C   UNL A   1      43.068  34.598  29.339  1.00  0.00     0.022 A 
BRANCH  45  49
ATOM     49  S   UNL A   1      43.062  35.838  26.841  1.00  0.00     0.124 S 
ATOM     50  O   UNL A   1      42.023  36.553  27.581  1.00  0.00    -0.237 OA
ATOM     51  O   UNL A   1      44.320  36.551  26.659  1.00  0.00    -0.237 OA
ATOM     52  O   UNL A   1      42.586  35.101  25.673  1.00  0.00    -0.744 OA
ENDBRANCH  45  49
ENDBRANCH  28  42
BRANCH  29  53
ATOM     53  C   UNL A   1      52.588  26.293  26.403  1.00  0.00     0.023 A 
ATOM     54  C   UNL A   1      53.629  25.992  27.294  1.00  0.00     0.031 A 
ATOM     55  C   UNL A   1      52.605  25.670  25.140  1.00  0.00     0.131 A 
ATOM     56  C   UNL A   1      54.651  25.107  26.904  1.00  0.00     0.055 A 
ATOM     57  C   UNL A   1      53.595  24.757  24.775  1.00  0.00     0.041 A 
ATOM     58  F   UNL A   1      51.637  25.923  24.245  1.00  0.00    -0.206 F 
ATOM     59  C   UNL A   1      54.632  24.476  25.658  1.00  0.00     0.022 A 
BRANCH  56  60
ATOM     60  S   UNL A   1      56.044  24.828  28.032  1.00  0.00     0.124 S 
ATOM     61  O   UNL A   1      56.252  23.390  27.901  1.00  0.00    -0.237 OA
ATOM     62  O   UNL A   1      57.078  25.681  27.454  1.00  0.00    -0.237 OA
ATOM     63  O   UNL A   1      55.529  25.269  29.326  1.00  0.00    -0.744 OA
ENDBRANCH  56  60
ENDBRANCH  29  53
BRANCH  41  64
ATOM     64  C   UNL A   1      52.059  33.263  26.760  1.00  0.00     0.023 A 
ATOM     65  C   UNL A   1      52.254  33.892  25.521  1.00  0.00     0.031 A 
ATOM     66  C   UNL A   1      52.822  33.695  27.859  1.00  0.00     0.131 A 
ATOM     67  C   UNL A   1      53.223  34.898  25.399  1.00  0.00     0.055 A 
ATOM     68  C   UNL A   1      53.745  34.732  27.745  1.00  0.00     0.041 A 
ATOM     69  F   UNL A   1      52.667  33.123  29.064  1.00  0.00    -0.206 F 
ATOM     70  C   UNL A   1      53.957  35.334  26.507  1.00  0.00     0.022 A 
BRANCH  67  71
ATOM     71  S   UNL A   1      53.558  35.588  23.757  1.00  0.00     0.124 S 
ATOM     72  O   UNL A   1      52.955  34.589  22.881  1.00  0.00    -0.237 OA
ATOM     73  O   UNL A   1      52.881  36.879  23.816  1.00  0.00    -0.237 OA
ATOM     74  O   UNL A   1      55.017  35.657  23.708  1.00  0.00    -0.744 OA
ENDBRANCH  67  71
ENDBRANCH  41  64
ENDBRANCH  15  16
ENDBRANCH   8  10
ENDBRANCH   7   8
ENDBRANCH   6   7
ENDBRANCH   5   6
ENDBRANCH   4   5
ENDBRANCH   3   4
ENDBRANCH   2   3
ENDBRANCH   1   2
BRANCH   1  75
ATOM     75  C   UNL A   1      37.193  31.604  28.888  1.00  0.00     0.188 C 
BRANCH  75  76
ATOM     76  C   UNL A   1      35.869  31.056  29.478  1.00  0.00     0.188 C 
BRANCH  76  77
ATOM     77  O   UNL A   1      34.913  32.046  29.836  1.00  0.00    -0.376 OA
BRANCH  77  78
ATOM     78  C   UNL A   1      34.293  32.725  28.746  1.00  0.00     0.202 C 
BRANCH  78  79
ATOM     79  C   UNL A   1      34.201  34.249  28.916  1.00  0.00     0.261 C 
BRANCH  79  80
ATOM     80  O   UNL A   1      33.070  34.643  29.714  1.00  0.00    -0.461 OA
BRANCH  80  81
ATOM     81  C   UNL A   1      32.874  35.974  29.934  1.00  0.00     0.335 C 
ATOM     82  O   UNL A   1      32.777  36.818  29.069  1.00  0.00    -0.249 OA
BRANCH  81  83
ATOM     83  C   UNL A   1      32.670  36.209  31.450  1.00  0.00     0.228 C 
ATOM     84  C   UNL A   1      33.469  37.369  32.026  1.00  0.00     0.047 C 
ATOM     85  O   UNL A   1      32.942  35.052  32.261  1.00  0.00    -0.361 OA
ATOM     86  C   UNL A   1      33.875  36.847  33.383  1.00  0.00     0.037 C 
ATOM     87  C   UNL A   1      34.049  35.366  33.120  1.00  0.00     0.138 C 
BRANCH  87  88
ATOM     88  C   UNL A   1      35.319  34.973  32.361  1.00  0.00     0.147 C 
BRANCH  88  89
ATOM     89  N   UNL A   1      35.603  33.556  32.327  1.00  0.00    -0.353 N 
ATOM     90  C   UNL A   1      36.341  32.832  33.218  1.00  0.00     0.223 C 
ATOM     91  H   UNL A   1      35.219  33.053  31.572  1.00  0.00     0.163 HD
ATOM     92  O   UNL A   1      36.352  31.607  33.108  1.00  0.00    -0.275 OA
BRANCH  90  93
ATOM     93  C   UNL A   1      37.155  33.577  34.269  1.00  0.00     0.083 C 
ATOM     94  C   UNL A   1      38.412  34.195  33.650  1.00  0.00     0.042 C 
ATOM     95  C   UNL A   1      37.577  32.683  35.442  1.00  0.00     0.042 C 
ATOM     96  C   UNL A   1      39.216  34.922  34.719  1.00  0.00     0.161 C 
ATOM     97  C   UNL A   1      38.394  33.501  36.433  1.00  0.00     0.161 C 
ATOM     98  O   UNL A   1      39.548  34.048  35.797  1.00  0.00    -0.381 OA
ENDBRANCH  90  93
ENDBRANCH  88  89
ENDBRANCH  87  88
ENDBRANCH  81  83
ENDBRANCH  80  81
ENDBRANCH  79  80
ENDBRANCH  78  79
ENDBRANCH  77  78
ENDBRANCH  76  77
ENDBRANCH  75  76
ENDBRANCH   1  75
TORSDOF 26
ENDMDL
