MODEL 1
REMARK VINA RESULT:      -9.1      0.000      0.000
REMARK SMILES C=CC[C@@]1(C(=O)OCCOCCOCCOCCOC(=O)c2ccc(-c3c4nc(c(-c5cc(S(=O)(=O)[O-])ccc5F)c5ccc([nH]5)c(-c5cc(S(=O)(=O)[O-])ccc5F)c5nc(c(-c6cc(S(=O)(=O)[O-])ccc6F)c6ccc3[nH]6)C=C5)C=C4)cc2)CCCN(c2nccc(N3CCC(O)CC3)n2)C1
REMARK SMILES IDX 13 1 12 2 11 3 10 4 9 5 8 6 7 7 5 8 6 9 4 10 85 11 102 12
REMARK SMILES IDX 86 13 88 14 87 15 3 16 2 17 1 18 89 19 90 20 101 21 91 22
REMARK SMILES IDX 93 23 92 24 94 25 95 26 100 27 96 28 99 29 97 30 98 31 14 33
REMARK SMILES IDX 15 34 16 35 17 36 18 37 19 38 20 39 21 40 22 41 23 42 84 43
REMARK SMILES IDX 24 44 83 45 25 46 26 47 27 48 77 49 28 50 82 51 76 52 78 53
REMARK SMILES IDX 29 54 81 55 75 56 74 57 30 59 62 60 42 61 61 62 43 63 46 64
REMARK SMILES IDX 60 65 79 66 44 67 45 68 59 70 80 71 47 72 31 73 32 74 40 75
REMARK SMILES IDX 33 76 39 77 41 78 38 79 34 80 35 81 36 82 37 83 63 84 64 85
REMARK SMILES IDX 72 86 65 87 71 88 73 89 70 90 66 91 67 92 68 93 69 94 48 95
REMARK SMILES IDX 49 96 57 97 50 98 56 99 58 100 55 101 51 102 52 103 53 104
REMARK SMILES IDX 54 105
REMARK H PARENT 98 32 78 58 46 69
REMARK Flexibility Score: inf
ROOT
ATOM      1  O   UNL A   1      31.504  26.889  25.625  1.00  0.00    -0.377 OA
ENDROOT
BRANCH   1   2
ATOM      2  C   UNL A   1      31.496  25.643  26.307  1.00  0.00     0.188 C 
BRANCH   2   3
ATOM      3  C   UNL A   1      30.835  24.370  25.720  1.00  0.00     0.188 C 
BRANCH   3   4
ATOM      4  O   UNL A   1      31.525  23.152  25.929  1.00  0.00    -0.376 OA
BRANCH   4   5
ATOM      5  C   UNL A   1      32.073  22.885  27.206  1.00  0.00     0.202 C 
BRANCH   5   6
ATOM      6  C   UNL A   1      33.408  22.148  27.205  1.00  0.00     0.261 C 
BRANCH   6   7
ATOM      7  O   UNL A   1      34.481  22.979  26.747  1.00  0.00    -0.463 OA
BRANCH   7   8
ATOM      8  C   UNL A   1      35.586  22.426  26.188  1.00  0.00     0.314 C 
ATOM      9  O   UNL A   1      35.857  21.233  26.229  1.00  0.00    -0.252 OA
BRANCH   8  10
ATOM     10  C   UNL A   1      36.339  23.480  25.352  1.00  0.00     0.089 C 
ATOM     11  C   UNL A   1      35.805  24.904  25.636  1.00  0.00     0.023 C 
ATOM     12  C   UNL A   1      36.188  23.166  23.827  1.00  0.00     0.138 C 
ATOM     13  C   UNL A   1      34.447  25.193  25.005  1.00  0.00     0.023 C 
ATOM     14  N   UNL A   1      34.918  23.596  23.230  1.00  0.00    -0.340 N 
ATOM     15  C   UNL A   1      34.482  24.951  23.498  1.00  0.00     0.120 C 
BRANCH  10  16
ATOM     16  C   UNL A   1      37.846  23.356  25.798  1.00  0.00     0.047 C 
BRANCH  16  17
ATOM     17  C   UNL A   1      38.423  24.386  26.738  1.00  0.00    -0.034 C 
ATOM     18  C   UNL A   1      39.384  24.111  27.631  1.00  0.00     0.004 C 
ENDBRANCH  16  17
ENDBRANCH  10  16
BRANCH  14  19
ATOM     19  C   UNL A   1      33.872  22.691  23.120  1.00  0.00     0.227 A 
ATOM     20  N   UNL A   1      32.911  22.951  22.225  1.00  0.00    -0.221 NA
ATOM     21  N   UNL A   1      33.931  21.543  23.820  1.00  0.00    -0.196 NA
ATOM     22  C   UNL A   1      31.923  22.055  22.104  1.00  0.00     0.119 A 
ATOM     23  C   UNL A   1      32.942  20.638  23.655  1.00  0.00     0.134 A 
ATOM     24  C   UNL A   1      31.879  20.892  22.813  1.00  0.00     0.067 A 
BRANCH  23  25
ATOM     25  N   UNL A   1      32.974  19.423  24.328  1.00  0.00    -0.356 N 
ATOM     26  C   UNL A   1      34.213  18.961  24.945  1.00  0.00     0.121 C 
ATOM     27  C   UNL A   1      32.002  18.392  23.962  1.00  0.00     0.121 C 
ATOM     28  C   UNL A   1      34.906  17.943  24.049  1.00  0.00     0.053 C 
ATOM     29  C   UNL A   1      32.661  17.379  23.030  1.00  0.00     0.053 C 
ATOM     30  C   UNL A   1      33.944  16.828  23.644  1.00  0.00     0.118 C 
BRANCH  30  31
ATOM     31  O   UNL A   1      34.584  15.953  22.715  1.00  0.00    -0.393 OA
ATOM     32  H   UNL A   1      34.155  15.083  22.741  1.00  0.00     0.210 HD
ENDBRANCH  30  31
ENDBRANCH  23  25
ENDBRANCH  14  19
ENDBRANCH   8  10
ENDBRANCH   7   8
ENDBRANCH   6   7
ENDBRANCH   5   6
ENDBRANCH   4   5
ENDBRANCH   3   4
ENDBRANCH   2   3
ENDBRANCH   1   2
BRANCH   1  33
ATOM     33  C   UNL A   1      31.535  28.099  26.370  1.00  0.00     0.188 C 
BRANCH  33  34
ATOM     34  C   UNL A   1      31.190  29.431  25.664  1.00  0.00     0.188 C 
BRANCH  34  35
ATOM     35  O   UNL A   1      32.197  30.423  25.760  1.00  0.00    -0.376 OA
BRANCH  35  36
ATOM     36  C   UNL A   1      31.944  31.597  26.505  1.00  0.00     0.202 C 
BRANCH  36  37
ATOM     37  C   UNL A   1      33.109  32.400  27.108  1.00  0.00     0.261 C 
BRANCH  37  38
ATOM     38  O   UNL A   1      32.795  33.324  28.155  1.00  0.00    -0.460 OA
BRANCH  38  39
ATOM     39  C   UNL A   1      33.776  34.165  28.549  1.00  0.00     0.338 C 
ATOM     40  O   UNL A   1      33.675  35.367  28.743  1.00  0.00    -0.246 OA
BRANCH  39  41
ATOM     41  C   UNL A   1      34.945  33.335  28.903  1.00  0.00     0.060 A 
ATOM     42  C   UNL A   1      34.754  32.122  29.579  1.00  0.00     0.016 A 
ATOM     43  C   UNL A   1      36.229  33.758  28.554  1.00  0.00     0.016 A 
ATOM     44  C   UNL A   1      35.852  31.341  29.934  1.00  0.00     0.010 A 
ATOM     45  C   UNL A   1      37.330  32.990  28.938  1.00  0.00     0.010 A 
ATOM     46  C   UNL A   1      37.147  31.796  29.659  1.00  0.00    -0.014 A 
BRANCH  46  47
ATOM     47  C   UNL A   1      38.303  31.153  30.327  1.00  0.00     0.031 A 
ATOM     48  C   UNL A   1      38.533  31.463  31.783  1.00  0.00     0.074 A 
ATOM     49  C   UNL A   1      39.110  30.300  29.672  1.00  0.00     0.049 A 
ATOM     50  N   UNL A   1      39.510  31.096  32.570  1.00  0.00    -0.248 NA
ATOM     51  C   UNL A   1      37.521  32.314  32.432  1.00  0.00     0.031 C 
ATOM     52  C   UNL A   1      38.955  29.882  28.279  1.00  0.00     0.029 A 
ATOM     53  N   UNL A   1      40.232  29.635  30.100  1.00  0.00    -0.354 N 
ATOM     54  C   UNL A   1      39.237  31.678  33.805  1.00  0.00     0.074 A 
ATOM     55  C   UNL A   1      38.024  32.451  33.649  1.00  0.00     0.031 C 
ATOM     56  C   UNL A   1      39.956  29.038  27.964  1.00  0.00     0.029 A 
ATOM     57  C   UNL A   1      40.839  28.888  29.119  1.00  0.00     0.049 A 
ATOM     58  H   UNL A   1      40.570  29.689  31.023  1.00  0.00     0.167 HD
ATOM     59  C   UNL A   1      39.932  31.571  34.963  1.00  0.00     0.034 A 
ATOM     60  C   UNL A   1      41.995  28.193  29.150  1.00  0.00     0.034 A 
ATOM     61  C   UNL A   1      41.149  30.809  35.094  1.00  0.00     0.049 A 
ATOM     62  C   UNL A   1      42.810  28.180  30.423  1.00  0.00     0.074 A 
ATOM     63  C   UNL A   1      41.933  30.625  36.219  1.00  0.00     0.029 A 
ATOM     64  N   UNL A   1      41.767  30.115  34.062  1.00  0.00    -0.354 N 
ATOM     65  N   UNL A   1      42.552  28.741  31.582  1.00  0.00    -0.248 NA
ATOM     66  C   UNL A   1      44.079  27.441  30.384  1.00  0.00     0.031 C 
ATOM     67  C   UNL A   1      43.065  29.893  35.848  1.00  0.00     0.029 A 
ATOM     68  C   UNL A   1      42.941  29.536  34.515  1.00  0.00     0.049 A 
ATOM     69  H   UNL A   1      41.421  30.043  33.143  1.00  0.00     0.167 HD
ATOM     70  C   UNL A   1      43.612  28.392  32.417  1.00  0.00     0.074 A 
ATOM     71  C   UNL A   1      44.502  27.563  31.632  1.00  0.00     0.031 C 
ATOM     72  C   UNL A   1      43.827  28.721  33.717  1.00  0.00     0.034 A 
BRANCH  59  73
ATOM     73  C   UNL A   1      39.423  32.347  36.154  1.00  0.00     0.023 A 
ATOM     74  C   UNL A   1      38.611  31.755  37.136  1.00  0.00     0.031 A 
ATOM     75  C   UNL A   1      39.735  33.713  36.295  1.00  0.00     0.131 A 
ATOM     76  C   UNL A   1      38.081  32.539  38.173  1.00  0.00     0.055 A 
ATOM     77  C   UNL A   1      39.276  34.465  37.376  1.00  0.00     0.041 A 
ATOM     78  F   UNL A   1      40.484  34.341  35.375  1.00  0.00    -0.206 F 
ATOM     79  C   UNL A   1      38.430  33.882  38.315  1.00  0.00     0.022 A 
BRANCH  76  80
ATOM     80  S   UNL A   1      36.811  31.813  39.244  1.00  0.00     0.124 S 
ATOM     81  O   UNL A   1      36.755  30.439  38.749  1.00  0.00    -0.237 OA
ATOM     82  O   UNL A   1      37.381  31.990  40.575  1.00  0.00    -0.237 OA
ATOM     83  O   UNL A   1      35.624  32.618  38.962  1.00  0.00    -0.744 OA
ENDBRANCH  76  80
ENDBRANCH  59  73
BRANCH  60  84
ATOM     84  C   UNL A   1      42.511  27.503  27.933  1.00  0.00     0.023 A 
ATOM     85  C   UNL A   1      42.503  26.102  27.835  1.00  0.00     0.031 A 
ATOM     86  C   UNL A   1      43.131  28.234  26.907  1.00  0.00     0.131 A 
ATOM     87  C   UNL A   1      43.150  25.474  26.759  1.00  0.00     0.055 A 
ATOM     88  C   UNL A   1      43.742  27.603  25.823  1.00  0.00     0.041 A 
ATOM     89  F   UNL A   1      43.162  29.576  26.947  1.00  0.00    -0.206 F 
ATOM     90  C   UNL A   1      43.756  26.215  25.743  1.00  0.00     0.022 A 
BRANCH  87  91
ATOM     91  S   UNL A   1      43.288  23.666  26.757  1.00  0.00     0.124 S 
ATOM     92  O   UNL A   1      44.681  23.478  26.371  1.00  0.00    -0.237 OA
ATOM     93  O   UNL A   1      42.952  23.335  28.139  1.00  0.00    -0.237 OA
ATOM     94  O   UNL A   1      42.298  23.252  25.766  1.00  0.00    -0.744 OA
ENDBRANCH  87  91
ENDBRANCH  60  84
BRANCH  72  95
ATOM     95  C   UNL A   1      45.050  28.133  34.385  1.00  0.00     0.023 A 
ATOM     96  C   UNL A   1      45.008  26.905  35.067  1.00  0.00     0.031 A 
ATOM     97  C   UNL A   1      46.275  28.823  34.341  1.00  0.00     0.131 A 
ATOM     98  C   UNL A   1      46.151  26.436  35.732  1.00  0.00     0.055 A 
ATOM     99  C   UNL A   1      47.428  28.315  34.941  1.00  0.00     0.041 A 
ATOM    100  F   UNL A   1      46.373  30.002  33.707  1.00  0.00    -0.206 F 
ATOM    101  C   UNL A   1      47.366  27.121  35.655  1.00  0.00     0.022 A 
BRANCH  98 102
ATOM    102  S   UNL A   1      46.004  24.970  36.788  1.00  0.00     0.124 S 
ATOM    103  O   UNL A   1      46.480  23.911  35.905  1.00  0.00    -0.237 OA
ATOM    104  O   UNL A   1      46.875  25.303  37.910  1.00  0.00    -0.237 OA
ATOM    105  O   UNL A   1      44.578  24.917  37.106  1.00  0.00    -0.744 OA
ENDBRANCH  98 102
ENDBRANCH  72  95
ENDBRANCH  46  47
ENDBRANCH  39  41
ENDBRANCH  38  39
ENDBRANCH  37  38
ENDBRANCH  36  37
ENDBRANCH  35  36
ENDBRANCH  34  35
ENDBRANCH  33  34
ENDBRANCH   1  33
TORSDOF 28
ENDMDL
MODEL 2
REMARK VINA RESULT:      -9.1      6.339     10.288
REMARK SMILES C=CC[C@@]1(C(=O)OCCOCCOCCOCCOC(=O)c2ccc(-c3c4nc(c(-c5cc(S(=O)(=O)[O-])ccc5F)c5ccc([nH]5)c(-c5cc(S(=O)(=O)[O-])ccc5F)c5nc(c(-c6cc(S(=O)(=O)[O-])ccc6F)c6ccc3[nH]6)C=C5)C=C4)cc2)CCCN(c2nccc(N3CCC(O)CC3)n2)C1
REMARK SMILES IDX 13 1 12 2 11 3 10 4 9 5 8 6 7 7 5 8 6 9 4 10 85 11 102 12
REMARK SMILES IDX 86 13 88 14 87 15 3 16 2 17 1 18 89 19 90 20 101 21 91 22
REMARK SMILES IDX 93 23 92 24 94 25 95 26 100 27 96 28 99 29 97 30 98 31 14 33
REMARK SMILES IDX 15 34 16 35 17 36 18 37 19 38 20 39 21 40 22 41 23 42 84 43
REMARK SMILES IDX 24 44 83 45 25 46 26 47 27 48 77 49 28 50 82 51 76 52 78 53
REMARK SMILES IDX 29 54 81 55 75 56 74 57 30 59 62 60 42 61 61 62 43 63 46 64
REMARK SMILES IDX 60 65 79 66 44 67 45 68 59 70 80 71 47 72 31 73 32 74 40 75
REMARK SMILES IDX 33 76 39 77 41 78 38 79 34 80 35 81 36 82 37 83 63 84 64 85
REMARK SMILES IDX 72 86 65 87 71 88 73 89 70 90 66 91 67 92 68 93 69 94 48 95
REMARK SMILES IDX 49 96 57 97 50 98 56 99 58 100 55 101 51 102 52 103 53 104
REMARK SMILES IDX 54 105
REMARK H PARENT 98 32 78 58 46 69
REMARK Flexibility Score: inf
ROOT
ATOM      1  O   UNL A   1      34.768  31.138  28.504  1.00  0.00    -0.377 OA
ENDROOT
BRANCH   1   2
ATOM      2  C   UNL A   1      34.972  30.083  27.575  1.00  0.00     0.188 C 
BRANCH   2   3
ATOM      3  C   UNL A   1      33.872  29.611  26.589  1.00  0.00     0.188 C 
BRANCH   3   4
ATOM      4  O   UNL A   1      32.580  29.426  27.135  1.00  0.00    -0.376 OA
BRANCH   4   5
ATOM      5  C   UNL A   1      31.821  28.299  26.738  1.00  0.00     0.202 C 
BRANCH   5   6
ATOM      6  C   UNL A   1      32.514  26.951  26.908  1.00  0.00     0.261 C 
BRANCH   6   7
ATOM      7  O   UNL A   1      32.126  26.014  25.897  1.00  0.00    -0.463 OA
BRANCH   7   8
ATOM      8  C   UNL A   1      31.904  24.714  26.215  1.00  0.00     0.314 C 
ATOM      9  O   UNL A   1      31.230  24.342  27.167  1.00  0.00    -0.252 OA
BRANCH   8  10
ATOM     10  C   UNL A   1      32.465  23.797  25.111  1.00  0.00     0.089 C 
ATOM     11  C   UNL A   1      33.800  24.346  24.553  1.00  0.00     0.023 C 
ATOM     12  C   UNL A   1      31.431  23.666  23.943  1.00  0.00     0.138 C 
ATOM     13  C   UNL A   1      33.637  25.555  23.638  1.00  0.00     0.023 C 
ATOM     14  N   UNL A   1      31.415  24.792  23.003  1.00  0.00    -0.340 N 
ATOM     15  C   UNL A   1      32.689  25.243  22.482  1.00  0.00     0.120 C 
BRANCH  10  16
ATOM     16  C   UNL A   1      32.690  22.404  25.812  1.00  0.00     0.047 C 
BRANCH  16  17
ATOM     17  C   UNL A   1      33.239  21.253  25.003  1.00  0.00    -0.034 C 
ATOM     18  C   UNL A   1      32.584  20.097  24.831  1.00  0.00     0.004 C 
ENDBRANCH  16  17
ENDBRANCH  10  16
BRANCH  14  19
ATOM     19  C   UNL A   1      30.496  25.816  23.178  1.00  0.00     0.227 A 
ATOM     20  N   UNL A   1      29.311  25.508  23.719  1.00  0.00    -0.221 NA
ATOM     21  N   UNL A   1      30.874  27.081  22.913  1.00  0.00    -0.196 NA
ATOM     22  C   UNL A   1      28.443  26.509  23.913  1.00  0.00     0.119 A 
ATOM     23  C   UNL A   1      29.995  28.078  23.150  1.00  0.00     0.134 A 
ATOM     24  C   UNL A   1      28.727  27.810  23.624  1.00  0.00     0.067 A 
BRANCH  23  25
ATOM     25  N   UNL A   1      30.349  29.403  22.928  1.00  0.00    -0.356 N 
ATOM     26  C   UNL A   1      30.267  30.374  24.013  1.00  0.00     0.121 C 
ATOM     27  C   UNL A   1      30.262  29.934  21.566  1.00  0.00     0.121 C 
ATOM     28  C   UNL A   1      28.987  31.193  23.898  1.00  0.00     0.053 C 
ATOM     29  C   UNL A   1      28.967  30.726  21.412  1.00  0.00     0.053 C 
ATOM     30  C   UNL A   1      28.846  31.790  22.499  1.00  0.00     0.118 C 
BRANCH  30  31
ATOM     31  O   UNL A   1      27.586  32.453  22.384  1.00  0.00    -0.393 OA
ATOM     32  H   UNL A   1      26.969  32.091  23.039  1.00  0.00     0.210 HD
ENDBRANCH  30  31
ENDBRANCH  23  25
ENDBRANCH  14  19
ENDBRANCH   8  10
ENDBRANCH   7   8
ENDBRANCH   6   7
ENDBRANCH   5   6
ENDBRANCH   4   5
ENDBRANCH   3   4
ENDBRANCH   2   3
ENDBRANCH   1   2
BRANCH   1  33
ATOM     33  C   UNL A   1      34.276  32.391  28.048  1.00  0.00     0.188 C 
BRANCH  33  34
ATOM     34  C   UNL A   1      33.992  33.511  29.077  1.00  0.00     0.188 C 
BRANCH  34  35
ATOM     35  O   UNL A   1      35.140  34.230  29.494  1.00  0.00    -0.376 OA
BRANCH  35  36
ATOM     36  C   UNL A   1      35.985  33.674  30.480  1.00  0.00     0.202 C 
BRANCH  36  37
ATOM     37  C   UNL A   1      35.391  32.864  31.645  1.00  0.00     0.261 C 
BRANCH  37  38
ATOM     38  O   UNL A   1      36.312  32.219  32.531  1.00  0.00    -0.460 OA
BRANCH  38  39
ATOM     39  C   UNL A   1      36.760  30.998  32.171  1.00  0.00     0.338 C 
ATOM     40  O   UNL A   1      36.118  29.959  32.150  1.00  0.00    -0.246 OA
BRANCH  39  41
ATOM     41  C   UNL A   1      38.114  31.178  31.609  1.00  0.00     0.060 A 
ATOM     42  C   UNL A   1      39.147  31.647  32.432  1.00  0.00     0.016 A 
ATOM     43  C   UNL A   1      38.358  30.872  30.270  1.00  0.00     0.016 A 
ATOM     44  C   UNL A   1      40.425  31.840  31.908  1.00  0.00     0.010 A 
ATOM     45  C   UNL A   1      39.630  31.095  29.738  1.00  0.00     0.010 A 
ATOM     46  C   UNL A   1      40.658  31.611  30.547  1.00  0.00    -0.014 A 
BRANCH  46  47
ATOM     47  C   UNL A   1      41.897  32.133  29.922  1.00  0.00     0.031 A 
ATOM     48  C   UNL A   1      43.006  31.155  29.639  1.00  0.00     0.074 A 
ATOM     49  C   UNL A   1      42.026  33.430  29.592  1.00  0.00     0.049 A 
ATOM     50  N   UNL A   1      44.209  31.368  29.175  1.00  0.00    -0.248 NA
ATOM     51  C   UNL A   1      42.713  29.741  29.929  1.00  0.00     0.031 C 
ATOM     52  C   UNL A   1      41.002  34.459  29.769  1.00  0.00     0.029 A 
ATOM     53  N   UNL A   1      43.087  34.103  29.042  1.00  0.00    -0.354 N 
ATOM     54  C   UNL A   1      44.821  30.119  29.127  1.00  0.00     0.074 A 
ATOM     55  C   UNL A   1      43.868  29.161  29.643  1.00  0.00     0.031 C 
ATOM     56  C   UNL A   1      41.491  35.639  29.344  1.00  0.00     0.029 A 
ATOM     57  C   UNL A   1      42.872  35.454  28.902  1.00  0.00     0.049 A 
ATOM     58  H   UNL A   1      43.924  33.661  28.771  1.00  0.00     0.167 HD
ATOM     59  C   UNL A   1      46.062  29.801  28.687  1.00  0.00     0.034 A 
ATOM     60  C   UNL A   1      43.713  36.428  28.495  1.00  0.00     0.034 A 
ATOM     61  C   UNL A   1      47.005  30.773  28.190  1.00  0.00     0.049 A 
ATOM     62  C   UNL A   1      45.130  36.063  28.114  1.00  0.00     0.074 A 
ATOM     63  C   UNL A   1      48.287  30.565  27.712  1.00  0.00     0.029 A 
ATOM     64  N   UNL A   1      46.774  32.141  28.121  1.00  0.00    -0.354 N 
ATOM     65  N   UNL A   1      45.705  34.882  28.082  1.00  0.00    -0.248 NA
ATOM     66  C   UNL A   1      46.011  37.169  27.719  1.00  0.00     0.031 C 
ATOM     67  C   UNL A   1      48.858  31.811  27.435  1.00  0.00     0.029 A 
ATOM     68  C   UNL A   1      47.901  32.791  27.647  1.00  0.00     0.049 A 
ATOM     69  H   UNL A   1      45.931  32.585  28.372  1.00  0.00     0.167 HD
ATOM     70  C   UNL A   1      47.005  35.104  27.631  1.00  0.00     0.074 A 
ATOM     71  C   UNL A   1      47.122  36.528  27.392  1.00  0.00     0.031 C 
ATOM     72  C   UNL A   1      48.009  34.214  27.425  1.00  0.00     0.034 A 
BRANCH  59  73
ATOM     73  C   UNL A   1      46.486  28.356  28.783  1.00  0.00     0.023 A 
ATOM     74  C   UNL A   1      46.300  27.453  27.722  1.00  0.00     0.031 A 
ATOM     75  C   UNL A   1      47.062  27.865  29.970  1.00  0.00     0.131 A 
ATOM     76  C   UNL A   1      46.620  26.097  27.891  1.00  0.00     0.055 A 
ATOM     77  C   UNL A   1      47.457  26.533  30.101  1.00  0.00     0.041 A 
ATOM     78  F   UNL A   1      47.239  28.672  31.028  1.00  0.00    -0.206 F 
ATOM     79  C   UNL A   1      47.222  25.637  29.063  1.00  0.00     0.022 A 
BRANCH  76  80
ATOM     80  S   UNL A   1      46.098  24.918  26.616  1.00  0.00     0.124 S 
ATOM     81  O   UNL A   1      46.322  25.687  25.393  1.00  0.00    -0.237 OA
ATOM     82  O   UNL A   1      46.999  23.793  26.838  1.00  0.00    -0.237 OA
ATOM     83  O   UNL A   1      44.694  24.667  26.936  1.00  0.00    -0.744 OA
ENDBRANCH  76  80
ENDBRANCH  59  73
BRANCH  60  84
ATOM     84  C   UNL A   1      43.290  37.857  28.487  1.00  0.00     0.023 A 
ATOM     85  C   UNL A   1      43.611  38.714  29.552  1.00  0.00     0.031 A 
ATOM     86  C   UNL A   1      42.454  38.348  27.471  1.00  0.00     0.131 A 
ATOM     87  C   UNL A   1      43.056  40.004  29.602  1.00  0.00     0.055 A 
ATOM     88  C   UNL A   1      41.934  39.643  27.511  1.00  0.00     0.041 A 
ATOM     89  F   UNL A   1      42.120  37.573  26.427  1.00  0.00    -0.206 F 
ATOM     90  C   UNL A   1      42.233  40.479  28.580  1.00  0.00     0.022 A 
BRANCH  87  91
ATOM     91  S   UNL A   1      43.335  41.018  31.078  1.00  0.00     0.124 S 
ATOM     92  O   UNL A   1      44.536  40.405  31.633  1.00  0.00    -0.237 OA
ATOM     93  O   UNL A   1      43.499  42.350  30.504  1.00  0.00    -0.237 OA
ATOM     94  O   UNL A   1      42.113  40.827  31.855  1.00  0.00    -0.744 OA
ENDBRANCH  87  91
ENDBRANCH  60  84
BRANCH  72  95
ATOM     95  C   UNL A   1      49.305  34.752  26.863  1.00  0.00     0.023 A 
ATOM     96  C   UNL A   1      50.433  34.973  27.672  1.00  0.00     0.031 A 
ATOM     97  C   UNL A   1      49.405  35.055  25.493  1.00  0.00     0.131 A 
ATOM     98  C   UNL A   1      51.590  35.541  27.117  1.00  0.00     0.055 A 
ATOM     99  C   UNL A   1      50.582  35.551  24.932  1.00  0.00     0.041 A 
ATOM    100  F   UNL A   1      48.358  34.869  24.673  1.00  0.00    -0.206 F 
ATOM    101  C   UNL A   1      51.680  35.811  25.749  1.00  0.00     0.022 A 
BRANCH  98 102
ATOM    102  S   UNL A   1      52.941  36.022  28.225  1.00  0.00     0.124 S 
ATOM    103  O   UNL A   1      52.290  35.988  29.530  1.00  0.00    -0.237 OA
ATOM    104  O   UNL A   1      53.933  34.981  27.981  1.00  0.00    -0.237 OA
ATOM    105  O   UNL A   1      53.315  37.355  27.754  1.00  0.00    -0.744 OA
ENDBRANCH  98 102
ENDBRANCH  72  95
ENDBRANCH  46  47
ENDBRANCH  39  41
ENDBRANCH  38  39
ENDBRANCH  37  38
ENDBRANCH  36  37
ENDBRANCH  35  36
ENDBRANCH  34  35
ENDBRANCH  33  34
ENDBRANCH   1  33
TORSDOF 28
ENDMDL
MODEL 3
REMARK VINA RESULT:      -8.9      5.591      9.758
REMARK SMILES C=CC[C@@]1(C(=O)OCCOCCOCCOCCOC(=O)c2ccc(-c3c4nc(c(-c5cc(S(=O)(=O)[O-])ccc5F)c5ccc([nH]5)c(-c5cc(S(=O)(=O)[O-])ccc5F)c5nc(c(-c6cc(S(=O)(=O)[O-])ccc6F)c6ccc3[nH]6)C=C5)C=C4)cc2)CCCN(c2nccc(N3CCC(O)CC3)n2)C1
REMARK SMILES IDX 13 1 12 2 11 3 10 4 9 5 8 6 7 7 5 8 6 9 4 10 85 11 102 12
REMARK SMILES IDX 86 13 88 14 87 15 3 16 2 17 1 18 89 19 90 20 101 21 91 22
REMARK SMILES IDX 93 23 92 24 94 25 95 26 100 27 96 28 99 29 97 30 98 31 14 33
REMARK SMILES IDX 15 34 16 35 17 36 18 37 19 38 20 39 21 40 22 41 23 42 84 43
REMARK SMILES IDX 24 44 83 45 25 46 26 47 27 48 77 49 28 50 82 51 76 52 78 53
REMARK SMILES IDX 29 54 81 55 75 56 74 57 30 59 62 60 42 61 61 62 43 63 46 64
REMARK SMILES IDX 60 65 79 66 44 67 45 68 59 70 80 71 47 72 31 73 32 74 40 75
REMARK SMILES IDX 33 76 39 77 41 78 38 79 34 80 35 81 36 82 37 83 63 84 64 85
REMARK SMILES IDX 72 86 65 87 71 88 73 89 70 90 66 91 67 92 68 93 69 94 48 95
REMARK SMILES IDX 49 96 57 97 50 98 56 99 58 100 55 101 51 102 52 103 53 104
REMARK SMILES IDX 54 105
REMARK H PARENT 98 32 78 58 46 69
REMARK Flexibility Score: inf
ROOT
ATOM      1  O   UNL A   1      35.017  29.925  28.259  1.00  0.00    -0.377 OA
ENDROOT
BRANCH   1   2
ATOM      2  C   UNL A   1      34.240  30.888  27.563  1.00  0.00     0.188 C 
BRANCH   2   3
ATOM      3  C   UNL A   1      32.943  30.523  26.795  1.00  0.00     0.188 C 
BRANCH   3   4
ATOM      4  O   UNL A   1      32.111  29.550  27.400  1.00  0.00    -0.376 OA
BRANCH   4   5
ATOM      5  C   UNL A   1      32.567  28.213  27.483  1.00  0.00     0.202 C 
BRANCH   5   6
ATOM      6  C   UNL A   1      31.743  27.191  26.708  1.00  0.00     0.261 C 
BRANCH   6   7
ATOM      7  O   UNL A   1      32.537  26.087  26.258  1.00  0.00    -0.463 OA
BRANCH   7   8
ATOM      8  C   UNL A   1      32.065  24.819  26.352  1.00  0.00     0.314 C 
ATOM      9  O   UNL A   1      31.148  24.477  27.087  1.00  0.00    -0.252 OA
BRANCH   8  10
ATOM     10  C   UNL A   1      32.724  23.929  25.280  1.00  0.00     0.089 C 
ATOM     11  C   UNL A   1      34.050  24.548  24.777  1.00  0.00     0.023 C 
ATOM     12  C   UNL A   1      31.752  23.736  24.069  1.00  0.00     0.138 C 
ATOM     13  C   UNL A   1      33.862  25.743  23.848  1.00  0.00     0.023 C 
ATOM     14  N   UNL A   1      31.715  24.856  23.121  1.00  0.00    -0.340 N 
ATOM     15  C   UNL A   1      32.984  25.374  22.654  1.00  0.00     0.120 C 
BRANCH  10  16
ATOM     16  C   UNL A   1      32.994  22.553  25.999  1.00  0.00     0.047 C 
BRANCH  16  17
ATOM     17  C   UNL A   1      32.423  21.287  25.406  1.00  0.00    -0.034 C 
ATOM     18  C   UNL A   1      33.117  20.477  24.596  1.00  0.00     0.004 C 
ENDBRANCH  16  17
ENDBRANCH  10  16
BRANCH  14  19
ATOM     19  C   UNL A   1      30.734  25.829  23.249  1.00  0.00     0.227 A 
ATOM     20  N   UNL A   1      29.559  25.467  23.777  1.00  0.00    -0.221 NA
ATOM     21  N   UNL A   1      31.043  27.105  22.953  1.00  0.00    -0.196 NA
ATOM     22  C   UNL A   1      28.630  26.420  23.926  1.00  0.00     0.119 A 
ATOM     23  C   UNL A   1      30.103  28.055  23.145  1.00  0.00     0.134 A 
ATOM     24  C   UNL A   1      28.844  27.727  23.603  1.00  0.00     0.067 A 
BRANCH  23  25
ATOM     25  N   UNL A   1      30.383  29.392  22.889  1.00  0.00    -0.356 N 
ATOM     26  C   UNL A   1      30.431  30.352  23.987  1.00  0.00     0.121 C 
ATOM     27  C   UNL A   1      30.086  29.930  21.561  1.00  0.00     0.121 C 
ATOM     28  C   UNL A   1      29.125  31.133  24.067  1.00  0.00     0.053 C 
ATOM     29  C   UNL A   1      28.760  30.685  21.604  1.00  0.00     0.053 C 
ATOM     30  C   UNL A   1      28.767  31.736  22.710  1.00  0.00     0.118 C 
BRANCH  30  31
ATOM     31  O   UNL A   1      27.486  32.362  22.785  1.00  0.00    -0.393 OA
ATOM     32  H   UNL A   1      27.274  32.555  23.712  1.00  0.00     0.210 HD
ENDBRANCH  30  31
ENDBRANCH  23  25
ENDBRANCH  14  19
ENDBRANCH   8  10
ENDBRANCH   7   8
ENDBRANCH   6   7
ENDBRANCH   5   6
ENDBRANCH   4   5
ENDBRANCH   3   4
ENDBRANCH   2   3
ENDBRANCH   1   2
BRANCH   1  33
ATOM     33  C   UNL A   1      36.177  30.338  28.970  1.00  0.00     0.188 C 
BRANCH  33  34
ATOM     34  C   UNL A   1      36.726  29.443  30.105  1.00  0.00     0.188 C 
BRANCH  34  35
ATOM     35  O   UNL A   1      36.258  29.783  31.399  1.00  0.00    -0.376 OA
BRANCH  35  36
ATOM     36  C   UNL A   1      35.885  31.118  31.673  1.00  0.00     0.202 C 
BRANCH  36  37
ATOM     37  C   UNL A   1      36.649  31.937  32.726  1.00  0.00     0.261 C 
BRANCH  37  38
ATOM     38  O   UNL A   1      37.558  32.933  32.248  1.00  0.00    -0.460 OA
BRANCH  38  39
ATOM     39  C   UNL A   1      38.701  33.110  32.946  1.00  0.00     0.338 C 
ATOM     40  O   UNL A   1      38.811  33.615  34.053  1.00  0.00    -0.246 OA
BRANCH  39  41
ATOM     41  C   UNL A   1      39.771  32.398  32.219  1.00  0.00     0.060 A 
ATOM     42  C   UNL A   1      40.831  31.826  32.935  1.00  0.00     0.016 A 
ATOM     43  C   UNL A   1      39.714  32.290  30.828  1.00  0.00     0.016 A 
ATOM     44  C   UNL A   1      41.856  31.168  32.258  1.00  0.00     0.010 A 
ATOM     45  C   UNL A   1      40.757  31.658  30.149  1.00  0.00     0.010 A 
ATOM     46  C   UNL A   1      41.848  31.124  30.859  1.00  0.00    -0.014 A 
BRANCH  46  47
ATOM     47  C   UNL A   1      43.083  30.738  30.135  1.00  0.00     0.031 A 
ATOM     48  C   UNL A   1      43.257  29.289  29.768  1.00  0.00     0.074 A 
ATOM     49  C   UNL A   1      44.010  31.649  29.789  1.00  0.00     0.049 A 
ATOM     50  N   UNL A   1      44.272  28.685  29.209  1.00  0.00    -0.248 NA
ATOM     51  C   UNL A   1      42.127  28.399  30.087  1.00  0.00     0.031 C 
ATOM     52  C   UNL A   1      43.926  33.087  30.043  1.00  0.00     0.029 A 
ATOM     53  N   UNL A   1      45.214  31.490  29.152  1.00  0.00    -0.354 N 
ATOM     54  C   UNL A   1      43.910  27.344  29.118  1.00  0.00     0.074 A 
ATOM     55  C   UNL A   1      42.598  27.220  29.713  1.00  0.00     0.031 C 
ATOM     56  C   UNL A   1      45.041  33.678  29.574  1.00  0.00     0.029 A 
ATOM     57  C   UNL A   1      45.930  32.657  29.024  1.00  0.00     0.049 A 
ATOM     58  H   UNL A   1      45.536  30.622  28.818  1.00  0.00     0.167 HD
ATOM     59  C   UNL A   1      44.607  26.314  28.581  1.00  0.00     0.034 A 
ATOM     60  C   UNL A   1      47.175  32.861  28.547  1.00  0.00     0.034 A 
ATOM     61  C   UNL A   1      45.923  26.455  28.006  1.00  0.00     0.049 A 
ATOM     62  C   UNL A   1      47.977  31.678  28.055  1.00  0.00     0.074 A 
ATOM     63  C   UNL A   1      46.719  25.483  27.427  1.00  0.00     0.029 A 
ATOM     64  N   UNL A   1      46.642  27.642  27.949  1.00  0.00    -0.354 N 
ATOM     65  N   UNL A   1      47.633  30.412  27.982  1.00  0.00    -0.248 NA
ATOM     66  C   UNL A   1      49.341  31.956  27.586  1.00  0.00     0.031 C 
ATOM     67  C   UNL A   1      47.949  26.063  27.100  1.00  0.00     0.029 A 
ATOM     68  C   UNL A   1      47.886  27.418  27.383  1.00  0.00     0.049 A 
ATOM     69  H   UNL A   1      46.314  28.516  28.265  1.00  0.00     0.167 HD
ATOM     70  C   UNL A   1      48.728  29.752  27.428  1.00  0.00     0.074 A 
ATOM     71  C   UNL A   1      49.735  30.761  27.174  1.00  0.00     0.031 C 
ATOM     72  C   UNL A   1      48.886  28.432  27.147  1.00  0.00     0.034 A 
BRANCH  59  73
ATOM     73  C   UNL A   1      43.984  24.941  28.650  1.00  0.00     0.023 A 
ATOM     74  C   UNL A   1      43.149  24.451  27.631  1.00  0.00     0.031 A 
ATOM     75  C   UNL A   1      44.207  24.118  29.770  1.00  0.00     0.131 A 
ATOM     76  C   UNL A   1      42.513  23.209  27.784  1.00  0.00     0.055 A 
ATOM     77  C   UNL A   1      43.641  22.847  29.875  1.00  0.00     0.041 A 
ATOM     78  F   UNL A   1      44.973  24.542  30.787  1.00  0.00    -0.206 F 
ATOM     79  C   UNL A   1      42.775  22.392  28.885  1.00  0.00     0.022 A 
BRANCH  76  80
ATOM     80  S   UNL A   1      41.224  22.744  26.596  1.00  0.00     0.124 S 
ATOM     81  O   UNL A   1      40.575  24.029  26.345  1.00  0.00    -0.237 OA
ATOM     82  O   UNL A   1      41.999  22.192  25.490  1.00  0.00    -0.237 OA
ATOM     83  O   UNL A   1      40.412  21.777  27.332  1.00  0.00    -0.744 OA
ENDBRANCH  76  80
ENDBRANCH  59  73
BRANCH  60  84
ATOM     84  C   UNL A   1      47.794  34.217  28.566  1.00  0.00     0.023 A 
ATOM     85  C   UNL A   1      47.657  35.092  27.477  1.00  0.00     0.031 A 
ATOM     86  C   UNL A   1      48.633  34.605  29.624  1.00  0.00     0.131 A 
ATOM     87  C   UNL A   1      48.389  36.290  27.447  1.00  0.00     0.055 A 
ATOM     88  C   UNL A   1      49.330  35.813  29.602  1.00  0.00     0.041 A 
ATOM     89  F   UNL A   1      48.795  33.809  30.693  1.00  0.00    -0.206 F 
ATOM     90  C   UNL A   1      49.213  36.664  28.509  1.00  0.00     0.022 A 
BRANCH  87  91
ATOM     91  S   UNL A   1      48.339  37.308  25.946  1.00  0.00     0.124 S 
ATOM     92  O   UNL A   1      49.110  36.494  25.014  1.00  0.00    -0.237 OA
ATOM     93  O   UNL A   1      46.905  37.398  25.689  1.00  0.00    -0.237 OA
ATOM     94  O   UNL A   1      48.971  38.557  26.364  1.00  0.00    -0.744 OA
ENDBRANCH  87  91
ENDBRANCH  60  84
BRANCH  72  95
ATOM     95  C   UNL A   1      50.178  28.018  26.480  1.00  0.00     0.023 A 
ATOM     96  C   UNL A   1      50.351  28.084  25.087  1.00  0.00     0.031 A 
ATOM     97  C   UNL A   1      51.249  27.541  27.257  1.00  0.00     0.131 A 
ATOM     98  C   UNL A   1      51.544  27.621  24.509  1.00  0.00     0.055 A 
ATOM     99  C   UNL A   1      52.459  27.151  26.683  1.00  0.00     0.041 A 
ATOM    100  F   UNL A   1      51.138  27.452  28.592  1.00  0.00    -0.206 F 
ATOM    101  C   UNL A   1      52.606  27.176  25.299  1.00  0.00     0.022 A 
BRANCH  98 102
ATOM    102  S   UNL A   1      51.648  27.508  22.702  1.00  0.00     0.124 S 
ATOM    103  O   UNL A   1      52.759  26.580  22.521  1.00  0.00    -0.237 OA
ATOM    104  O   UNL A   1      50.329  26.999  22.343  1.00  0.00    -0.237 OA
ATOM    105  O   UNL A   1      51.916  28.884  22.286  1.00  0.00    -0.744 OA
ENDBRANCH  98 102
ENDBRANCH  72  95
ENDBRANCH  46  47
ENDBRANCH  39  41
ENDBRANCH  38  39
ENDBRANCH  37  38
ENDBRANCH  36  37
ENDBRANCH  35  36
ENDBRANCH  34  35
ENDBRANCH  33  34
ENDBRANCH   1  33
TORSDOF 28
ENDMDL
