MODEL 1
REMARK VINA RESULT:      -9.3      0.000      0.000
REMARK SMILES O=C(OCCOCCOCCOCCOC(=O)[C@H]1CC2(CC[NH+](C(=O)C3CC3)CC2)CN1C(=O)CCn1cccn1)c1ccc(-c2c3nc(c(-c4cc(S(=O)(=O)[O-])ccc4F)c4ccc([nH]4)c(-c4cc(S(=O)(=O)[O-])ccc4F)c4nc(c(-c5cc(S(=O)(=O)[O-])ccc5F)c5ccc2[nH]5)C=C4)C=C3)cc1
REMARK SMILES IDX 10 1 9 2 8 3 7 4 6 5 5 6 4 7 3 8 2 9 1 10 42 11 43 12 104 13
REMARK SMILES IDX 44 14 103 15 45 16 46 17 47 18 97 19 48 20 102 21 96 22
REMARK SMILES IDX 98 23 49 24 101 25 95 26 94 27 50 29 82 30 62 31 81 32 63 33
REMARK SMILES IDX 66 34 80 35 99 36 64 37 65 38 79 40 100 41 67 42 51 43 52 44
REMARK SMILES IDX 60 45 53 46 59 47 61 48 58 49 54 50 55 51 56 52 57 53 83 54
REMARK SMILES IDX 84 55 92 56 85 57 91 58 93 59 90 60 86 61 87 62 88 63 89 64
REMARK SMILES IDX 68 65 69 66 77 67 70 68 76 69 78 70 75 71 71 72 72 73 73 74
REMARK SMILES IDX 74 75 11 76 12 77 13 78 14 79 15 80 16 81 17 82 18 83 19 84
REMARK SMILES IDX 32 85 20 86 31 87 21 88 30 89 22 90 29 91 23 92 33 94 34 95
REMARK SMILES IDX 35 96 36 97 37 98 38 99 41 100 39 101 40 102 24 103 25 104
REMARK SMILES IDX 26 105 27 106 28 107
REMARK H PARENT 98 28 66 39 23 93
REMARK Flexibility Score: inf
ROOT
ATOM      1  C   UNL A   1      37.509  32.969  29.934  1.00  0.00     0.188 C 
ENDROOT
BRANCH   1   2
ATOM      2  O   UNL A   1      37.930  31.781  30.550  1.00  0.00    -0.377 OA
BRANCH   2   3
ATOM      3  C   UNL A   1      37.327  31.670  31.826  1.00  0.00     0.188 C 
BRANCH   3   4
ATOM      4  C   UNL A   1      38.099  31.968  33.167  1.00  0.00     0.188 C 
BRANCH   4   5
ATOM      5  O   UNL A   1      37.766  31.857  34.564  1.00  0.00    -0.376 OA
BRANCH   5   6
ATOM      6  C   UNL A   1      37.487  32.756  35.647  1.00  0.00     0.202 C 
BRANCH   6   7
ATOM      7  C   UNL A   1      38.464  33.799  36.195  1.00  0.00     0.261 C 
BRANCH   7   8
ATOM      8  O   UNL A   1      39.825  33.533  35.913  1.00  0.00    -0.460 OA
BRANCH   8   9
ATOM      9  C   UNL A   1      40.729  33.124  36.821  1.00  0.00     0.338 C 
ATOM     10  O   UNL A   1      40.967  33.869  37.772  1.00  0.00    -0.246 OA
BRANCH   9  11
ATOM     11  C   UNL A   1      41.543  31.877  36.684  1.00  0.00     0.060 A 
ATOM     12  C   UNL A   1      42.746  31.557  37.322  1.00  0.00     0.016 A 
ATOM     13  C   UNL A   1      40.907  30.875  35.919  1.00  0.00     0.016 A 
ATOM     14  C   UNL A   1      43.457  30.463  36.912  1.00  0.00     0.010 A 
ATOM     15  C   UNL A   1      41.560  29.721  35.600  1.00  0.00     0.010 A 
ATOM     16  C   UNL A   1      42.894  29.663  35.930  1.00  0.00    -0.014 A 
BRANCH  16  17
ATOM     17  C   UNL A   1      43.713  28.684  35.279  1.00  0.00     0.031 A 
ATOM     18  C   UNL A   1      43.883  27.524  36.183  1.00  0.00     0.074 A 
ATOM     19  C   UNL A   1      44.208  28.970  34.052  1.00  0.00     0.049 A 
ATOM     20  N   UNL A   1      44.912  27.303  36.929  1.00  0.00    -0.248 NA
ATOM     21  C   UNL A   1      42.695  26.756  36.611  1.00  0.00     0.031 C 
ATOM     22  C   UNL A   1      43.951  30.120  33.168  1.00  0.00     0.029 A 
ATOM     23  N   UNL A   1      45.065  28.234  33.295  1.00  0.00    -0.354 N 
ATOM     24  C   UNL A   1      44.628  26.137  37.620  1.00  0.00     0.074 A 
ATOM     25  C   UNL A   1      43.200  26.013  37.599  1.00  0.00     0.031 C 
ATOM     26  C   UNL A   1      44.398  29.853  31.913  1.00  0.00     0.029 A 
ATOM     27  C   UNL A   1      45.118  28.594  31.932  1.00  0.00     0.049 A 
ATOM     28  H   UNL A   1      45.607  27.504  33.670  1.00  0.00     0.167 HD
ATOM     29  C   UNL A   1      45.625  25.230  37.796  1.00  0.00     0.034 A 
ATOM     30  C   UNL A   1      45.727  27.850  30.952  1.00  0.00     0.034 A 
ATOM     31  C   UNL A   1      46.911  25.888  37.655  1.00  0.00     0.049 A 
ATOM     32  C   UNL A   1      46.716  27.002  31.698  1.00  0.00     0.074 A 
ATOM     33  C   UNL A   1      47.547  26.903  38.345  1.00  0.00     0.029 A 
ATOM     34  N   UNL A   1      47.489  25.858  36.402  1.00  0.00    -0.354 N 
ATOM     35  N   UNL A   1      47.723  27.537  32.349  1.00  0.00    -0.248 NA
ATOM     36  C   UNL A   1      46.218  25.741  32.248  1.00  0.00     0.031 C 
ATOM     37  C   UNL A   1      48.106  27.739  37.332  1.00  0.00     0.029 A 
ATOM     38  C   UNL A   1      47.935  27.123  36.089  1.00  0.00     0.049 A 
ATOM     39  H   UNL A   1      47.569  25.064  35.826  1.00  0.00     0.167 HD
ATOM     40  C   UNL A   1      47.704  26.937  33.604  1.00  0.00     0.074 A 
ATOM     41  C   UNL A   1      46.754  25.823  33.474  1.00  0.00     0.031 C 
ATOM     42  C   UNL A   1      48.157  27.584  34.725  1.00  0.00     0.034 A 
BRANCH  29  43
ATOM     43  C   UNL A   1      45.450  23.748  37.556  1.00  0.00     0.023 A 
ATOM     44  C   UNL A   1      45.797  22.902  38.625  1.00  0.00     0.031 A 
ATOM     45  C   UNL A   1      45.294  23.119  36.298  1.00  0.00     0.131 A 
ATOM     46  C   UNL A   1      46.097  21.549  38.405  1.00  0.00     0.055 A 
ATOM     47  C   UNL A   1      45.537  21.758  36.096  1.00  0.00     0.041 A 
ATOM     48  F   UNL A   1      44.985  23.783  35.180  1.00  0.00    -0.206 F 
ATOM     49  C   UNL A   1      45.973  20.970  37.145  1.00  0.00     0.022 A 
BRANCH  46  50
ATOM     50  S   UNL A   1      46.837  20.614  39.764  1.00  0.00     0.124 S 
ATOM     51  O   UNL A   1      45.801  20.715  40.786  1.00  0.00    -0.237 OA
ATOM     52  O   UNL A   1      47.019  19.299  39.157  1.00  0.00    -0.237 OA
ATOM     53  O   UNL A   1      48.069  21.348  40.046  1.00  0.00    -0.744 OA
ENDBRANCH  46  50
ENDBRANCH  29  43
BRANCH  30  54
ATOM     54  C   UNL A   1      45.144  27.468  29.610  1.00  0.00     0.023 A 
ATOM     55  C   UNL A   1      45.812  27.554  28.354  1.00  0.00     0.031 A 
ATOM     56  C   UNL A   1      43.920  26.760  29.603  1.00  0.00     0.131 A 
ATOM     57  C   UNL A   1      45.243  26.957  27.186  1.00  0.00     0.055 A 
ATOM     58  C   UNL A   1      43.382  26.160  28.462  1.00  0.00     0.041 A 
ATOM     59  F   UNL A   1      43.232  26.558  30.738  1.00  0.00    -0.206 F 
ATOM     60  C   UNL A   1      44.043  26.247  27.251  1.00  0.00     0.022 A 
BRANCH  57  61
ATOM     61  S   UNL A   1      46.043  27.055  25.532  1.00  0.00     0.124 S 
ATOM     62  O   UNL A   1      45.667  28.390  25.081  1.00  0.00    -0.237 OA
ATOM     63  O   UNL A   1      47.452  26.846  25.841  1.00  0.00    -0.237 OA
ATOM     64  O   UNL A   1      45.418  25.964  24.780  1.00  0.00    -0.744 OA
ENDBRANCH  57  61
ENDBRANCH  30  54
BRANCH  42  65
ATOM     65  C   UNL A   1      48.883  28.915  34.572  1.00  0.00     0.023 A 
ATOM     66  C   UNL A   1      48.308  30.214  34.553  1.00  0.00     0.031 A 
ATOM     67  C   UNL A   1      50.286  28.833  34.596  1.00  0.00     0.131 A 
ATOM     68  C   UNL A   1      49.148  31.357  34.547  1.00  0.00     0.055 A 
ATOM     69  C   UNL A   1      51.103  29.958  34.628  1.00  0.00     0.041 A 
ATOM     70  F   UNL A   1      50.890  27.634  34.640  1.00  0.00    -0.206 F 
ATOM     71  C   UNL A   1      50.539  31.224  34.598  1.00  0.00     0.022 A 
BRANCH  68  72
ATOM     72  S   UNL A   1      48.466  33.054  34.433  1.00  0.00     0.124 S 
ATOM     73  O   UNL A   1      47.716  33.028  33.183  1.00  0.00    -0.237 OA
ATOM     74  O   UNL A   1      47.673  33.163  35.654  1.00  0.00    -0.237 OA
ATOM     75  O   UNL A   1      49.660  33.902  34.409  1.00  0.00    -0.744 OA
ENDBRANCH  68  72
ENDBRANCH  42  65
ENDBRANCH  16  17
ENDBRANCH   9  11
ENDBRANCH   8   9
ENDBRANCH   7   8
ENDBRANCH   6   7
ENDBRANCH   5   6
ENDBRANCH   4   5
ENDBRANCH   3   4
ENDBRANCH   2   3
ENDBRANCH   1   2
BRANCH   1  76
ATOM     76  C   UNL A   1      36.553  32.753  28.703  1.00  0.00     0.188 C 
BRANCH  76  77
ATOM     77  O   UNL A   1      36.662  31.477  28.105  1.00  0.00    -0.376 OA
BRANCH  77  78
ATOM     78  C   UNL A   1      35.628  30.544  28.360  1.00  0.00     0.202 C 
BRANCH  78  79
ATOM     79  C   UNL A   1      35.613  29.142  27.732  1.00  0.00     0.261 C 
BRANCH  79  80
ATOM     80  O   UNL A   1      34.211  28.688  26.985  1.00  0.00    -0.462 OA
BRANCH  80  81
ATOM     81  C   UNL A   1      32.863  27.233  26.688  1.00  0.00     0.328 C 
ATOM     82  O   UNL A   1      31.678  27.090  27.131  1.00  0.00    -0.250 OA
BRANCH  81  83
ATOM     83  C   UNL A   1      33.261  25.775  25.709  1.00  0.00     0.195 C 
ATOM     84  C   UNL A   1      32.750  24.291  25.849  1.00  0.00     0.046 C 
ATOM     85  N   UNL A   1      33.333  25.937  24.249  1.00  0.00    -0.328 N 
ATOM     86  C   UNL A   1      33.300  23.519  24.642  1.00  0.00     0.001 C 
ATOM     87  C   UNL A   1      33.724  24.647  23.659  1.00  0.00     0.128 C 
ATOM     88  C   UNL A   1      32.226  22.630  23.963  1.00  0.00     0.071 C 
ATOM     89  C   UNL A   1      34.428  22.595  25.150  1.00  0.00     0.071 C 
ATOM     90  C   UNL A   1      31.732  21.476  24.839  1.00  0.00     0.270 C 
ATOM     91  C   UNL A   1      33.876  21.443  26.021  1.00  0.00     0.270 C 
ATOM     92  N   UNL A   1      32.851  20.674  25.312  1.00  0.00    -0.272 N 
ATOM     93  H   UNL A   1      32.866  19.727  25.043  1.00  0.00     0.356 HD
BRANCH  85  94
ATOM     94  C   UNL A   1      32.983  27.003  23.440  1.00  0.00     0.225 C 
ATOM     95  O   UNL A   1      33.769  27.393  22.566  1.00  0.00    -0.275 OA
BRANCH  94  96
ATOM     96  C   UNL A   1      31.680  27.797  23.588  1.00  0.00     0.124 C 
BRANCH  96  97
ATOM     97  C   UNL A   1      30.445  27.199  22.948  1.00  0.00     0.154 C 
BRANCH  97  98
ATOM     98  N   UNL A   1      29.566  28.231  22.462  1.00  0.00    -0.272 N 
ATOM     99  C   UNL A   1      27.903  28.472  23.245  1.00  0.00     0.108 A 
ATOM    100  N   UNL A   1      30.091  29.811  21.599  1.00  0.00    -0.182 NA
ATOM    101  C   UNL A   1      27.455  30.230  23.007  1.00  0.00     0.042 A 
ATOM    102  C   UNL A   1      28.860  31.014  21.898  1.00  0.00     0.135 A 
ENDBRANCH  97  98
ENDBRANCH  96  97
ENDBRANCH  94  96
ENDBRANCH  85  94
BRANCH  92 103
ATOM    103  C   UNL A   1      33.035  19.292  25.216  1.00  0.00     0.315 C 
ATOM    104  O   UNL A   1      32.517  18.540  26.043  1.00  0.00    -0.231 OA
BRANCH 103 105
ATOM    105  C   UNL A   1      33.857  18.601  24.176  1.00  0.00     0.119 C 
ATOM    106  C   UNL A   1      34.348  17.189  24.059  1.00  0.00     0.019 C 
ATOM    107  C   UNL A   1      33.215  17.660  23.185  1.00  0.00     0.019 C 
ENDBRANCH 103 105
ENDBRANCH  92 103
ENDBRANCH  81  83
ENDBRANCH  80  81
ENDBRANCH  79  80
ENDBRANCH  78  79
ENDBRANCH  77  78
ENDBRANCH  76  77
ENDBRANCH   1  76
TORSDOF 29
ENDMDL
MODEL 2
REMARK VINA RESULT:      -8.8      6.731     11.509
REMARK SMILES O=C(OCCOCCOCCOCCOC(=O)[C@H]1CC2(CC[NH+](C(=O)C3CC3)CC2)CN1C(=O)CCn1cccn1)c1ccc(-c2c3nc(c(-c4cc(S(=O)(=O)[O-])ccc4F)c4ccc([nH]4)c(-c4cc(S(=O)(=O)[O-])ccc4F)c4nc(c(-c5cc(S(=O)(=O)[O-])ccc5F)c5ccc2[nH]5)C=C4)C=C3)cc1
REMARK SMILES IDX 10 1 9 2 8 3 7 4 6 5 5 6 4 7 3 8 2 9 1 10 42 11 43 12 104 13
REMARK SMILES IDX 44 14 103 15 45 16 46 17 47 18 97 19 48 20 102 21 96 22
REMARK SMILES IDX 98 23 49 24 101 25 95 26 94 27 50 29 82 30 62 31 81 32 63 33
REMARK SMILES IDX 66 34 80 35 99 36 64 37 65 38 79 40 100 41 67 42 51 43 52 44
REMARK SMILES IDX 60 45 53 46 59 47 61 48 58 49 54 50 55 51 56 52 57 53 83 54
REMARK SMILES IDX 84 55 92 56 85 57 91 58 93 59 90 60 86 61 87 62 88 63 89 64
REMARK SMILES IDX 68 65 69 66 77 67 70 68 76 69 78 70 75 71 71 72 72 73 73 74
REMARK SMILES IDX 74 75 11 76 12 77 13 78 14 79 15 80 16 81 17 82 18 83 19 84
REMARK SMILES IDX 32 85 20 86 31 87 21 88 30 89 22 90 29 91 23 92 33 94 34 95
REMARK SMILES IDX 35 96 36 97 37 98 38 99 41 100 39 101 40 102 24 103 25 104
REMARK SMILES IDX 26 105 27 106 28 107
REMARK H PARENT 98 28 66 39 23 93
REMARK Flexibility Score: inf
ROOT
ATOM      1  C   UNL A   1      37.999  33.067  30.226  1.00  0.00     0.188 C 
ENDROOT
BRANCH   1   2
ATOM      2  O   UNL A   1      38.773  31.953  30.586  1.00  0.00    -0.377 OA
BRANCH   2   3
ATOM      3  C   UNL A   1      38.603  31.685  31.965  1.00  0.00     0.188 C 
BRANCH   3   4
ATOM      4  C   UNL A   1      39.584  32.230  33.071  1.00  0.00     0.188 C 
BRANCH   4   5
ATOM      5  O   UNL A   1      40.032  31.738  34.349  1.00  0.00    -0.376 OA
BRANCH   5   6
ATOM      6  C   UNL A   1      39.689  31.942  35.727  1.00  0.00     0.202 C 
BRANCH   6   7
ATOM      7  C   UNL A   1      39.664  33.300  36.433  1.00  0.00     0.261 C 
BRANCH   7   8
ATOM      8  O   UNL A   1      40.070  34.388  35.625  1.00  0.00    -0.460 OA
BRANCH   8   9
ATOM      9  C   UNL A   1      41.299  34.936  35.638  1.00  0.00     0.338 C 
ATOM     10  O   UNL A   1      41.880  35.019  36.720  1.00  0.00    -0.246 OA
BRANCH   9  11
ATOM     11  C   UNL A   1      41.949  35.551  34.440  1.00  0.00     0.060 A 
ATOM     12  C   UNL A   1      41.929  35.094  33.117  1.00  0.00     0.016 A 
ATOM     13  C   UNL A   1      42.520  36.816  34.699  1.00  0.00     0.016 A 
ATOM     14  C   UNL A   1      42.758  35.667  32.193  1.00  0.00     0.010 A 
ATOM     15  C   UNL A   1      43.252  37.460  33.746  1.00  0.00     0.010 A 
ATOM     16  C   UNL A   1      43.523  36.749  32.600  1.00  0.00    -0.014 A 
BRANCH  16  17
ATOM     17  C   UNL A   1      44.596  37.194  31.762  1.00  0.00     0.031 A 
ATOM     18  C   UNL A   1      44.060  38.146  30.762  1.00  0.00     0.074 A 
ATOM     19  C   UNL A   1      45.831  36.679  31.966  1.00  0.00     0.049 A 
ATOM     20  N   UNL A   1      43.760  37.855  29.541  1.00  0.00    -0.248 NA
ATOM     21  C   UNL A   1      43.429  39.401  31.219  1.00  0.00     0.031 C 
ATOM     22  C   UNL A   1      46.323  35.779  33.023  1.00  0.00     0.029 A 
ATOM     23  N   UNL A   1      46.963  36.891  31.244  1.00  0.00    -0.354 N 
ATOM     24  C   UNL A   1      43.270  39.028  28.990  1.00  0.00     0.074 A 
ATOM     25  C   UNL A   1      42.841  39.828  30.099  1.00  0.00     0.031 C 
ATOM     26  C   UNL A   1      47.681  35.770  33.034  1.00  0.00     0.029 A 
ATOM     27  C   UNL A   1      48.162  36.522  31.891  1.00  0.00     0.049 A 
ATOM     28  H   UNL A   1      46.949  37.275  30.339  1.00  0.00     0.167 HD
ATOM     29  C   UNL A   1      43.626  39.341  27.716  1.00  0.00     0.034 A 
ATOM     30  C   UNL A   1      49.420  36.858  31.454  1.00  0.00     0.034 A 
ATOM     31  C   UNL A   1      44.047  38.140  27.018  1.00  0.00     0.049 A 
ATOM     32  C   UNL A   1      49.236  37.135  29.990  1.00  0.00     0.074 A 
ATOM     33  C   UNL A   1      43.414  36.959  26.681  1.00  0.00     0.029 A 
ATOM     34  N   UNL A   1      45.398  37.859  27.027  1.00  0.00    -0.354 N 
ATOM     35  N   UNL A   1      48.861  36.193  29.156  1.00  0.00    -0.248 NA
ATOM     36  C   UNL A   1      48.824  38.491  29.625  1.00  0.00     0.031 C 
ATOM     37  C   UNL A   1      44.360  35.935  26.991  1.00  0.00     0.029 A 
ATOM     38  C   UNL A   1      45.574  36.531  27.344  1.00  0.00     0.049 A 
ATOM     39  H   UNL A   1      46.119  38.503  26.838  1.00  0.00     0.167 HD
ATOM     40  C   UNL A   1      47.822  36.753  28.419  1.00  0.00     0.074 A 
ATOM     41  C   UNL A   1      47.856  38.185  28.749  1.00  0.00     0.031 C 
ATOM     42  C   UNL A   1      46.808  35.991  27.899  1.00  0.00     0.034 A 
BRANCH  29  43
ATOM     43  C   UNL A   1      44.094  40.717  27.300  1.00  0.00     0.023 A 
ATOM     44  C   UNL A   1      43.503  41.248  26.140  1.00  0.00     0.031 A 
ATOM     45  C   UNL A   1      45.265  41.371  27.750  1.00  0.00     0.131 A 
ATOM     46  C   UNL A   1      44.131  42.274  25.417  1.00  0.00     0.055 A 
ATOM     47  C   UNL A   1      45.855  42.432  27.057  1.00  0.00     0.041 A 
ATOM     48  F   UNL A   1      45.956  40.979  28.825  1.00  0.00    -0.206 F 
ATOM     49  C   UNL A   1      45.306  42.869  25.865  1.00  0.00     0.022 A 
BRANCH  46  50
ATOM     50  S   UNL A   1      43.477  42.678  23.779  1.00  0.00     0.124 S 
ATOM     51  O   UNL A   1      44.617  42.366  22.925  1.00  0.00    -0.237 OA
ATOM     52  O   UNL A   1      42.333  41.777  23.685  1.00  0.00    -0.237 OA
ATOM     53  O   UNL A   1      43.147  44.097  23.890  1.00  0.00    -0.744 OA
ENDBRANCH  46  50
ENDBRANCH  29  43
BRANCH  30  54
ATOM     54  C   UNL A   1      50.539  37.446  32.281  1.00  0.00     0.023 A 
ATOM     55  C   UNL A   1      50.622  38.795  32.737  1.00  0.00     0.031 A 
ATOM     56  C   UNL A   1      51.479  36.553  32.845  1.00  0.00     0.131 A 
ATOM     57  C   UNL A   1      51.611  39.178  33.696  1.00  0.00     0.055 A 
ATOM     58  C   UNL A   1      52.428  36.931  33.800  1.00  0.00     0.041 A 
ATOM     59  F   UNL A   1      51.459  35.245  32.542  1.00  0.00    -0.206 F 
ATOM     60  C   UNL A   1      52.493  38.242  34.235  1.00  0.00     0.022 A 
BRANCH  57  61
ATOM     61  S   UNL A   1      51.786  40.906  34.302  1.00  0.00     0.124 S 
ATOM     62  O   UNL A   1      52.542  41.541  33.229  1.00  0.00    -0.237 OA
ATOM     63  O   UNL A   1      50.401  41.334  34.463  1.00  0.00    -0.237 OA
ATOM     64  O   UNL A   1      52.526  40.759  35.558  1.00  0.00    -0.744 OA
ENDBRANCH  57  61
ENDBRANCH  30  54
BRANCH  42  65
ATOM     65  C   UNL A   1      46.916  34.472  27.955  1.00  0.00     0.023 A 
ATOM     66  C   UNL A   1      46.437  33.611  28.979  1.00  0.00     0.031 A 
ATOM     67  C   UNL A   1      47.421  33.869  26.791  1.00  0.00     0.131 A 
ATOM     68  C   UNL A   1      46.495  32.205  28.802  1.00  0.00     0.055 A 
ATOM     69  C   UNL A   1      47.440  32.490  26.608  1.00  0.00     0.041 A 
ATOM     70  F   UNL A   1      47.865  34.629  25.776  1.00  0.00    -0.206 F 
ATOM     71  C   UNL A   1      46.983  31.652  27.614  1.00  0.00     0.022 A 
BRANCH  68  72
ATOM     72  S   UNL A   1      45.976  31.045  30.121  1.00  0.00     0.124 S 
ATOM     73  O   UNL A   1      46.483  31.674  31.335  1.00  0.00    -0.237 OA
ATOM     74  O   UNL A   1      44.524  31.018  29.972  1.00  0.00    -0.237 OA
ATOM     75  O   UNL A   1      46.645  29.793  29.760  1.00  0.00    -0.744 OA
ENDBRANCH  68  72
ENDBRANCH  42  65
ENDBRANCH  16  17
ENDBRANCH   9  11
ENDBRANCH   8   9
ENDBRANCH   7   8
ENDBRANCH   6   7
ENDBRANCH   5   6
ENDBRANCH   4   5
ENDBRANCH   3   4
ENDBRANCH   2   3
ENDBRANCH   1   2
BRANCH   1  76
ATOM     76  C   UNL A   1      36.960  32.785  29.078  1.00  0.00     0.188 C 
BRANCH  76  77
ATOM     77  O   UNL A   1      37.131  31.535  28.439  1.00  0.00    -0.376 OA
BRANCH  77  78
ATOM     78  C   UNL A   1      36.376  30.442  28.929  1.00  0.00     0.202 C 
BRANCH  78  79
ATOM     79  C   UNL A   1      36.042  29.219  28.060  1.00  0.00     0.261 C 
BRANCH  79  80
ATOM     80  O   UNL A   1      34.510  29.152  27.446  1.00  0.00    -0.462 OA
BRANCH  80  81
ATOM     81  C   UNL A   1      32.901  28.016  27.073  1.00  0.00     0.328 C 
ATOM     82  O   UNL A   1      31.719  28.061  27.547  1.00  0.00    -0.250 OA
BRANCH  81  83
ATOM     83  C   UNL A   1      32.989  26.607  25.955  1.00  0.00     0.195 C 
ATOM     84  C   UNL A   1      32.639  25.091  26.206  1.00  0.00     0.046 C 
ATOM     85  N   UNL A   1      32.517  26.805  24.576  1.00  0.00    -0.328 N 
ATOM     86  C   UNL A   1      32.751  24.382  24.850  1.00  0.00     0.001 C 
ATOM     87  C   UNL A   1      32.731  25.555  23.829  1.00  0.00     0.128 C 
ATOM     88  C   UNL A   1      31.550  23.442  24.568  1.00  0.00     0.071 C 
ATOM     89  C   UNL A   1      34.031  23.520  24.875  1.00  0.00     0.071 C 
ATOM     90  C   UNL A   1      31.467  22.240  25.512  1.00  0.00     0.270 C 
ATOM     91  C   UNL A   1      33.893  22.317  25.836  1.00  0.00     0.270 C 
ATOM     92  N   UNL A   1      32.721  21.500  25.514  1.00  0.00    -0.272 N 
ATOM     93  H   UNL A   1      32.684  20.562  25.217  1.00  0.00     0.356 HD
BRANCH  85  94
ATOM     94  C   UNL A   1      31.842  27.865  23.995  1.00  0.00     0.225 C 
ATOM     95  O   UNL A   1      32.469  28.691  23.318  1.00  0.00    -0.275 OA
BRANCH  94  96
ATOM     96  C   UNL A   1      30.344  28.131  24.181  1.00  0.00     0.124 C 
BRANCH  96  97
ATOM     97  C   UNL A   1      29.446  27.794  23.009  1.00  0.00     0.154 C 
BRANCH  97  98
ATOM     98  N   UNL A   1      28.815  28.980  22.488  1.00  0.00    -0.272 N 
ATOM     99  C   UNL A   1      27.470  29.812  23.456  1.00  0.00     0.108 A 
ATOM    100  N   UNL A   1      29.586  30.206  21.296  1.00  0.00    -0.182 NA
ATOM    101  C   UNL A   1      27.497  31.580  22.986  1.00  0.00     0.042 A 
ATOM    102  C   UNL A   1      28.824  31.755  21.562  1.00  0.00     0.135 A 
ENDBRANCH  97  98
ENDBRANCH  96  97
ENDBRANCH  94  96
ENDBRANCH  85  94
BRANCH  92 103
ATOM    103  C   UNL A   1      32.926  20.135  25.298  1.00  0.00     0.315 C 
ATOM    104  O   UNL A   1      32.961  19.357  26.252  1.00  0.00    -0.231 OA
BRANCH 103 105
ATOM    105  C   UNL A   1      33.145  19.495  23.964  1.00  0.00     0.119 C 
ATOM    106  C   UNL A   1      32.453  18.361  23.269  1.00  0.00     0.019 C 
ATOM    107  C   UNL A   1      32.212  19.775  22.812  1.00  0.00     0.019 C 
ENDBRANCH 103 105
ENDBRANCH  92 103
ENDBRANCH  81  83
ENDBRANCH  80  81
ENDBRANCH  79  80
ENDBRANCH  78  79
ENDBRANCH  77  78
ENDBRANCH  76  77
ENDBRANCH   1  76
TORSDOF 29
ENDMDL
MODEL 3
REMARK VINA RESULT:      -8.4      5.913     14.866
REMARK SMILES O=C(OCCOCCOCCOCCOC(=O)[C@H]1CC2(CC[NH+](C(=O)C3CC3)CC2)CN1C(=O)CCn1cccn1)c1ccc(-c2c3nc(c(-c4cc(S(=O)(=O)[O-])ccc4F)c4ccc([nH]4)c(-c4cc(S(=O)(=O)[O-])ccc4F)c4nc(c(-c5cc(S(=O)(=O)[O-])ccc5F)c5ccc2[nH]5)C=C4)C=C3)cc1
REMARK SMILES IDX 10 1 9 2 8 3 7 4 6 5 5 6 4 7 3 8 2 9 1 10 42 11 43 12 104 13
REMARK SMILES IDX 44 14 103 15 45 16 46 17 47 18 97 19 48 20 102 21 96 22
REMARK SMILES IDX 98 23 49 24 101 25 95 26 94 27 50 29 82 30 62 31 81 32 63 33
REMARK SMILES IDX 66 34 80 35 99 36 64 37 65 38 79 40 100 41 67 42 51 43 52 44
REMARK SMILES IDX 60 45 53 46 59 47 61 48 58 49 54 50 55 51 56 52 57 53 83 54
REMARK SMILES IDX 84 55 92 56 85 57 91 58 93 59 90 60 86 61 87 62 88 63 89 64
REMARK SMILES IDX 68 65 69 66 77 67 70 68 76 69 78 70 75 71 71 72 72 73 73 74
REMARK SMILES IDX 74 75 11 76 12 77 13 78 14 79 15 80 16 81 17 82 18 83 19 84
REMARK SMILES IDX 32 85 20 86 31 87 21 88 30 89 22 90 29 91 23 92 33 94 34 95
REMARK SMILES IDX 35 96 36 97 37 98 38 99 41 100 39 101 40 102 24 103 25 104
REMARK SMILES IDX 26 105 27 106 28 107
REMARK H PARENT 98 28 66 39 23 93
REMARK Flexibility Score: inf
ROOT
ATOM      1  C   UNL A   1      47.829  26.535  28.939  1.00  0.00     0.188 C 
ENDROOT
BRANCH   1   2
ATOM      2  O   UNL A   1      47.016  27.485  28.301  1.00  0.00    -0.377 OA
BRANCH   2   3
ATOM      3  C   UNL A   1      45.916  26.834  27.694  1.00  0.00     0.188 C 
BRANCH   3   4
ATOM      4  C   UNL A   1      46.012  26.115  26.295  1.00  0.00     0.188 C 
BRANCH   4   5
ATOM      5  O   UNL A   1      46.048  24.739  25.871  1.00  0.00    -0.376 OA
BRANCH   5   6
ATOM      6  C   UNL A   1      45.093  23.707  25.584  1.00  0.00     0.202 C 
BRANCH   6   7
ATOM      7  C   UNL A   1      43.835  23.890  24.731  1.00  0.00     0.261 C 
BRANCH   7   8
ATOM      8  O   UNL A   1      42.671  23.291  25.268  1.00  0.00    -0.460 OA
BRANCH   8   9
ATOM      9  C   UNL A   1      42.364  23.252  26.578  1.00  0.00     0.338 C 
ATOM     10  O   UNL A   1      42.438  22.167  27.155  1.00  0.00    -0.246 OA
BRANCH   9  11
ATOM     11  C   UNL A   1      41.829  24.421  27.343  1.00  0.00     0.060 A 
ATOM     12  C   UNL A   1      40.590  25.053  27.197  1.00  0.00     0.016 A 
ATOM     13  C   UNL A   1      42.651  24.805  28.425  1.00  0.00     0.016 A 
ATOM     14  C   UNL A   1      40.359  26.241  27.836  1.00  0.00     0.010 A 
ATOM     15  C   UNL A   1      42.368  25.924  29.152  1.00  0.00     0.010 A 
ATOM     16  C   UNL A   1      41.349  26.717  28.681  1.00  0.00    -0.014 A 
BRANCH  16  17
ATOM     17  C   UNL A   1      41.273  28.072  29.143  1.00  0.00     0.031 A 
ATOM     18  C   UNL A   1      42.349  28.859  28.499  1.00  0.00     0.074 A 
ATOM     19  C   UNL A   1      40.332  28.387  30.064  1.00  0.00     0.049 A 
ATOM     20  N   UNL A   1      43.480  29.159  29.042  1.00  0.00    -0.248 NA
ATOM     21  C   UNL A   1      42.370  28.992  27.028  1.00  0.00     0.031 C 
ATOM     22  C   UNL A   1      39.239  27.574  30.624  1.00  0.00     0.029 A 
ATOM     23  N   UNL A   1      40.136  29.574  30.697  1.00  0.00    -0.354 N 
ATOM     24  C   UNL A   1      44.179  29.867  28.077  1.00  0.00     0.074 A 
ATOM     25  C   UNL A   1      43.589  29.498  26.823  1.00  0.00     0.031 C 
ATOM     26  C   UNL A   1      38.348  28.370  31.269  1.00  0.00     0.029 A 
ATOM     27  C   UNL A   1      38.878  29.719  31.319  1.00  0.00     0.049 A 
ATOM     28  H   UNL A   1      40.821  30.281  30.718  1.00  0.00     0.167 HD
ATOM     29  C   UNL A   1      44.904  30.948  28.467  1.00  0.00     0.034 A 
ATOM     30  C   UNL A   1      38.381  30.902  31.808  1.00  0.00     0.034 A 
ATOM     31  C   UNL A   1      45.199  30.851  29.885  1.00  0.00     0.049 A 
ATOM     32  C   UNL A   1      39.603  31.743  32.041  1.00  0.00     0.074 A 
ATOM     33  C   UNL A   1      45.906  29.947  30.654  1.00  0.00     0.029 A 
ATOM     34  N   UNL A   1      44.323  31.482  30.745  1.00  0.00    -0.354 N 
ATOM     35  N   UNL A   1      40.511  31.401  32.926  1.00  0.00    -0.248 NA
ATOM     36  C   UNL A   1      40.103  32.507  30.898  1.00  0.00     0.031 C 
ATOM     37  C   UNL A   1      45.089  29.729  31.805  1.00  0.00     0.029 A 
ATOM     38  C   UNL A   1      44.013  30.620  31.773  1.00  0.00     0.049 A 
ATOM     39  H   UNL A   1      43.977  32.397  30.641  1.00  0.00     0.167 HD
ATOM     40  C   UNL A   1      41.727  31.515  32.260  1.00  0.00     0.074 A 
ATOM     41  C   UNL A   1      41.407  32.217  31.009  1.00  0.00     0.031 C 
ATOM     42  C   UNL A   1      42.806  30.733  32.582  1.00  0.00     0.034 A 
BRANCH  29  43
ATOM     43  C   UNL A   1      44.870  32.275  27.742  1.00  0.00     0.023 A 
ATOM     44  C   UNL A   1      44.193  33.320  28.396  1.00  0.00     0.031 A 
ATOM     45  C   UNL A   1      45.149  32.484  26.371  1.00  0.00     0.131 A 
ATOM     46  C   UNL A   1      43.717  34.429  27.679  1.00  0.00     0.055 A 
ATOM     47  C   UNL A   1      44.723  33.618  25.675  1.00  0.00     0.041 A 
ATOM     48  F   UNL A   1      45.768  31.581  25.604  1.00  0.00    -0.206 F 
ATOM     49  C   UNL A   1      43.974  34.584  26.321  1.00  0.00     0.022 A 
BRANCH  46  50
ATOM     50  S   UNL A   1      42.591  35.563  28.525  1.00  0.00     0.124 S 
ATOM     51  O   UNL A   1      42.121  36.388  27.418  1.00  0.00    -0.237 OA
ATOM     52  O   UNL A   1      41.618  34.642  29.102  1.00  0.00    -0.237 OA
ATOM     53  O   UNL A   1      43.456  36.241  29.488  1.00  0.00    -0.744 OA
ENDBRANCH  46  50
ENDBRANCH  29  43
BRANCH  30  54
ATOM     54  C   UNL A   1      37.006  31.478  31.561  1.00  0.00     0.023 A 
ATOM     55  C   UNL A   1      36.231  32.224  32.498  1.00  0.00     0.031 A 
ATOM     56  C   UNL A   1      36.523  31.479  30.232  1.00  0.00     0.131 A 
ATOM     57  C   UNL A   1      35.046  32.906  32.080  1.00  0.00     0.055 A 
ATOM     58  C   UNL A   1      35.376  32.168  29.828  1.00  0.00     0.041 A 
ATOM     59  F   UNL A   1      37.201  30.865  29.249  1.00  0.00    -0.206 F 
ATOM     60  C   UNL A   1      34.637  32.891  30.746  1.00  0.00     0.022 A 
BRANCH  57  61
ATOM     61  S   UNL A   1      33.990  33.862  33.245  1.00  0.00     0.124 S 
ATOM     62  O   UNL A   1      32.804  33.022  33.355  1.00  0.00    -0.237 OA
ATOM     63  O   UNL A   1      34.829  33.963  34.433  1.00  0.00    -0.237 OA
ATOM     64  O   UNL A   1      33.769  35.133  32.549  1.00  0.00    -0.744 OA
ENDBRANCH  57  61
ENDBRANCH  30  54
BRANCH  42  65
ATOM     65  C   UNL A   1      42.743  29.856  33.827  1.00  0.00     0.023 A 
ATOM     66  C   UNL A   1      42.541  28.450  33.881  1.00  0.00     0.031 A 
ATOM     67  C   UNL A   1      43.065  30.507  35.029  1.00  0.00     0.131 A 
ATOM     68  C   UNL A   1      42.654  27.769  35.121  1.00  0.00     0.055 A 
ATOM     69  C   UNL A   1      43.213  29.828  36.235  1.00  0.00     0.041 A 
ATOM     70  F   UNL A   1      43.295  31.831  35.039  1.00  0.00    -0.206 F 
ATOM     71  C   UNL A   1      43.002  28.458  36.287  1.00  0.00     0.022 A 
BRANCH  68  72
ATOM     72  S   UNL A   1      42.316  25.975  35.269  1.00  0.00     0.124 S 
ATOM     73  O   UNL A   1      40.864  25.919  35.381  1.00  0.00    -0.237 OA
ATOM     74  O   UNL A   1      42.885  25.439  34.036  1.00  0.00    -0.237 OA
ATOM     75  O   UNL A   1      43.036  25.590  36.485  1.00  0.00    -0.744 OA
ENDBRANCH  68  72
ENDBRANCH  42  65
ENDBRANCH  16  17
ENDBRANCH   9  11
ENDBRANCH   8   9
ENDBRANCH   7   8
ENDBRANCH   6   7
ENDBRANCH   5   6
ENDBRANCH   4   5
ENDBRANCH   3   4
ENDBRANCH   2   3
ENDBRANCH   1   2
BRANCH   1  76
ATOM     76  C   UNL A   1      47.069  25.631  29.978  1.00  0.00     0.188 C 
BRANCH  76  77
ATOM     77  O   UNL A   1      46.762  26.283  31.194  1.00  0.00    -0.376 OA
BRANCH  77  78
ATOM     78  C   UNL A   1      45.856  25.640  32.071  1.00  0.00     0.202 C 
BRANCH  78  79
ATOM     79  C   UNL A   1      46.274  25.142  33.464  1.00  0.00     0.261 C 
BRANCH  79  80
ATOM     80  O   UNL A   1      47.179  26.182  34.374  1.00  0.00    -0.462 OA
BRANCH  80  81
ATOM     81  C   UNL A   1      48.765  27.407  34.442  1.00  0.00     0.328 C 
ATOM     82  O   UNL A   1      50.011  27.166  34.331  1.00  0.00    -0.250 OA
BRANCH  81  83
ATOM     83  C   UNL A   1      48.575  29.165  34.778  1.00  0.00     0.195 C 
ATOM     84  C   UNL A   1      47.973  30.310  33.878  1.00  0.00     0.046 C 
ATOM     85  N   UNL A   1      48.108  29.553  36.118  1.00  0.00    -0.328 N 
ATOM     86  C   UNL A   1      47.923  31.574  34.746  1.00  0.00     0.001 C 
ATOM     87  C   UNL A   1      48.080  31.022  36.192  1.00  0.00     0.128 C 
ATOM     88  C   UNL A   1      46.569  32.322  34.632  1.00  0.00     0.071 C 
ATOM     89  C   UNL A   1      49.034  32.527  34.253  1.00  0.00     0.071 C 
ATOM     90  C   UNL A   1      46.304  32.917  33.246  1.00  0.00     0.270 C 
ATOM     91  C   UNL A   1      48.714  33.106  32.857  1.00  0.00     0.270 C 
ATOM     92  N   UNL A   1      47.409  33.770  32.833  1.00  0.00    -0.272 N 
ATOM     93  H   UNL A   1      47.201  34.718  32.665  1.00  0.00     0.356 HD
BRANCH  85  94
ATOM     94  C   UNL A   1      47.613  28.787  37.159  1.00  0.00     0.225 C 
ATOM     95  O   UNL A   1      46.391  28.615  37.266  1.00  0.00    -0.275 OA
BRANCH  94  96
ATOM     96  C   UNL A   1      48.487  28.164  38.253  1.00  0.00     0.124 C 
BRANCH  96  97
ATOM     97  C   UNL A   1      47.808  27.862  39.572  1.00  0.00     0.154 C 
BRANCH  97  98
ATOM     98  N   UNL A   1      47.473  26.464  39.670  1.00  0.00    -0.272 N 
ATOM     99  C   UNL A   1      45.733  25.956  40.057  1.00  0.00     0.108 A 
ATOM    100  N   UNL A   1      48.367  25.054  38.817  1.00  0.00    -0.182 NA
ATOM    101  C   UNL A   1      45.488  24.300  39.319  1.00  0.00     0.042 A 
ATOM    102  C   UNL A   1      47.221  23.754  38.598  1.00  0.00     0.135 A 
ENDBRANCH  97  98
ENDBRANCH  96  97
ENDBRANCH  94  96
ENDBRANCH  85  94
BRANCH  92 103
ATOM    103  C   UNL A   1      47.367  35.092  32.384  1.00  0.00     0.315 C 
ATOM    104  O   UNL A   1      47.875  35.990  33.057  1.00  0.00    -0.231 OA
BRANCH 103 105
ATOM    105  C   UNL A   1      46.712  35.555  31.121  1.00  0.00     0.119 C 
ATOM    106  C   UNL A   1      47.124  36.558  30.086  1.00  0.00     0.019 C 
ATOM    107  C   UNL A   1      47.213  35.087  29.777  1.00  0.00     0.019 C 
ENDBRANCH 103 105
ENDBRANCH  92 103
ENDBRANCH  81  83
ENDBRANCH  80  81
ENDBRANCH  79  80
ENDBRANCH  78  79
ENDBRANCH  77  78
ENDBRANCH  76  77
ENDBRANCH   1  76
TORSDOF 29
ENDMDL
