MODEL 1
REMARK VINA RESULT:      -8.8      0.000      0.000
REMARK SMILES C[N@@H+]([C@@H]1CCOC2(CCCC2)C1)C(C)(C)C(=O)OCCOCCOCCOCCOC(=O)c1ccc(-c2c3nc(c(-c4cc(S(=O)(=O)[O-])ccc4F)c4ccc([nH]4)c(-c4cc(S(=O)(=O)[O-])ccc4F)c4nc(c(-c5cc(S(=O)(=O)[O-])ccc5F)c5ccc2[nH]5)C=C4)C=C3)cc1
REMARK SMILES IDX 25 1 24 2 23 3 22 4 21 5 20 6 19 7 18 8 16 9 17 10 13 11
REMARK SMILES IDX 14 12 15 13 2 14 1 15 3 17 4 18 12 19 5 20 7 21 6 22 8 23
REMARK SMILES IDX 11 24 9 25 10 26 26 27 27 28 28 29 29 30 30 31 31 32 32 33
REMARK SMILES IDX 33 34 34 35 95 36 35 37 94 38 36 39 37 40 38 41 88 42 39 43
REMARK SMILES IDX 93 44 87 45 89 46 40 47 92 48 86 49 85 50 41 52 73 53 53 54
REMARK SMILES IDX 72 55 54 56 57 57 71 58 90 59 55 60 56 61 70 63 91 64 58 65
REMARK SMILES IDX 42 66 43 67 51 68 44 69 50 70 52 71 49 72 45 73 46 74 47 75
REMARK SMILES IDX 48 76 74 77 75 78 83 79 76 80 82 81 84 82 81 83 77 84 78 85
REMARK SMILES IDX 79 86 80 87 59 88 60 89 68 90 61 91 67 92 69 93 66 94 62 95
REMARK SMILES IDX 63 96 64 97 65 98
REMARK H PARENT 2 16 89 51 57 62
REMARK Flexibility Score: inf
ROOT
ATOM      1  C   UNL A   1      34.066  33.279  28.664  1.00  0.00     0.188 C 
ENDROOT
BRANCH   1   2
ATOM      2  O   UNL A   1      35.005  32.571  29.474  1.00  0.00    -0.377 OA
BRANCH   2   3
ATOM      3  C   UNL A   1      35.538  31.341  29.011  1.00  0.00     0.188 C 
BRANCH   3   4
ATOM      4  C   UNL A   1      35.149  30.893  27.596  1.00  0.00     0.188 C 
BRANCH   4   5
ATOM      5  O   UNL A   1      34.109  29.939  27.558  1.00  0.00    -0.376 OA
BRANCH   5   6
ATOM      6  C   UNL A   1      34.253  28.812  26.709  1.00  0.00     0.202 C 
BRANCH   6   7
ATOM      7  C   UNL A   1      33.219  27.669  26.696  1.00  0.00     0.261 C 
BRANCH   7   8
ATOM      8  O   UNL A   1      31.972  27.931  26.039  1.00  0.00    -0.459 OA
BRANCH   8   9
ATOM      9  C   UNL A   1      31.096  26.906  25.906  1.00  0.00     0.367 C 
ATOM     10  O   UNL A   1      30.632  26.305  26.872  1.00  0.00    -0.245 OA
BRANCH   9  11
ATOM     11  C   UNL A   1      30.758  26.577  24.401  1.00  0.00     0.190 C 
ATOM     12  C   UNL A   1      31.157  27.851  23.625  1.00  0.00     0.092 C 
ATOM     13  C   UNL A   1      29.216  26.427  24.200  1.00  0.00     0.092 C 
BRANCH  11  14
ATOM     14  N   UNL A   1      31.489  25.322  23.906  1.00  0.00    -0.321 N 
ATOM     15  C   UNL A   1      30.555  24.391  23.264  1.00  0.00     0.333 C 
ATOM     16  H   UNL A   1      31.849  24.868  24.745  1.00  0.00     0.349 HD
BRANCH  14  17
ATOM     17  C   UNL A   1      32.749  25.555  23.133  1.00  0.00     0.189 C 
ATOM     18  C   UNL A   1      32.842  25.091  21.670  1.00  0.00     0.093 C 
ATOM     19  C   UNL A   1      34.018  25.050  23.865  1.00  0.00     0.100 C 
ATOM     20  C   UNL A   1      33.286  23.646  21.486  1.00  0.00     0.167 C 
ATOM     21  C   UNL A   1      34.401  23.581  23.636  1.00  0.00     0.074 C 
ATOM     22  O   UNL A   1      34.452  23.309  22.230  1.00  0.00    -0.375 OA
ATOM     23  C   UNL A   1      35.836  23.301  24.170  1.00  0.00     0.036 C 
ATOM     24  C   UNL A   1      33.516  22.577  24.405  1.00  0.00     0.036 C 
ATOM     25  C   UNL A   1      35.698  22.305  25.314  1.00  0.00     0.003 C 
ATOM     26  C   UNL A   1      34.460  21.517  24.956  1.00  0.00     0.003 C 
ENDBRANCH  14  17
ENDBRANCH  11  14
ENDBRANCH   9  11
ENDBRANCH   8   9
ENDBRANCH   7   8
ENDBRANCH   6   7
ENDBRANCH   5   6
ENDBRANCH   4   5
ENDBRANCH   3   4
ENDBRANCH   2   3
ENDBRANCH   1   2
BRANCH   1  27
ATOM     27  C   UNL A   1      34.458  34.562  27.892  1.00  0.00     0.188 C 
BRANCH  27  28
ATOM     28  O   UNL A   1      34.655  35.716  28.692  1.00  0.00    -0.376 OA
BRANCH  28  29
ATOM     29  C   UNL A   1      33.592  36.652  28.767  1.00  0.00     0.202 C 
BRANCH  29  30
ATOM     30  C   UNL A   1      32.743  36.657  30.048  1.00  0.00     0.261 C 
BRANCH  30  31
ATOM     31  O   UNL A   1      32.649  35.416  30.765  1.00  0.00    -0.460 OA
BRANCH  31  32
ATOM     32  C   UNL A   1      32.836  35.436  32.102  1.00  0.00     0.338 C 
ATOM     33  O   UNL A   1      32.051  35.834  32.946  1.00  0.00    -0.246 OA
BRANCH  32  34
ATOM     34  C   UNL A   1      34.087  34.700  32.385  1.00  0.00     0.060 A 
ATOM     35  C   UNL A   1      34.023  33.403  32.912  1.00  0.00     0.016 A 
ATOM     36  C   UNL A   1      35.322  35.290  32.107  1.00  0.00     0.016 A 
ATOM     37  C   UNL A   1      35.198  32.702  33.193  1.00  0.00     0.010 A 
ATOM     38  C   UNL A   1      36.495  34.599  32.414  1.00  0.00     0.010 A 
ATOM     39  C   UNL A   1      36.440  33.315  32.988  1.00  0.00    -0.014 A 
BRANCH  39  40
ATOM     40  C   UNL A   1      37.672  32.729  33.573  1.00  0.00     0.031 A 
ATOM     41  C   UNL A   1      37.975  33.035  35.014  1.00  0.00     0.074 A 
ATOM     42  C   UNL A   1      38.506  31.960  32.852  1.00  0.00     0.049 A 
ATOM     43  N   UNL A   1      39.045  32.769  35.717  1.00  0.00    -0.248 NA
ATOM     44  C   UNL A   1      36.927  33.751  35.760  1.00  0.00     0.031 C 
ATOM     45  C   UNL A   1      38.286  31.538  31.470  1.00  0.00     0.029 A 
ATOM     46  N   UNL A   1      39.721  31.410  33.183  1.00  0.00    -0.354 N 
ATOM     47  C   UNL A   1      38.807  33.298  36.980  1.00  0.00     0.074 A 
ATOM     48  C   UNL A   1      37.503  33.927  36.936  1.00  0.00     0.031 C 
ATOM     49  C   UNL A   1      39.343  30.812  31.064  1.00  0.00     0.029 A 
ATOM     50  C   UNL A   1      40.338  30.764  32.137  1.00  0.00     0.049 A 
ATOM     51  H   UNL A   1      40.113  31.473  34.083  1.00  0.00     0.167 HD
ATOM     52  C   UNL A   1      39.602  33.261  38.077  1.00  0.00     0.034 A 
ATOM     53  C   UNL A   1      41.576  30.234  32.044  1.00  0.00     0.034 A 
ATOM     54  C   UNL A   1      40.904  32.642  38.096  1.00  0.00     0.049 A 
ATOM     55  C   UNL A   1      42.494  30.302  33.246  1.00  0.00     0.074 A 
ATOM     56  C   UNL A   1      41.790  32.536  39.152  1.00  0.00     0.029 A 
ATOM     57  N   UNL A   1      41.512  32.037  37.004  1.00  0.00    -0.354 N 
ATOM     58  N   UNL A   1      42.265  30.811  34.435  1.00  0.00    -0.248 NA
ATOM     59  C   UNL A   1      43.837  29.724  33.093  1.00  0.00     0.031 C 
ATOM     60  C   UNL A   1      42.967  31.949  38.679  1.00  0.00     0.029 A 
ATOM     61  C   UNL A   1      42.779  31.594  37.351  1.00  0.00     0.049 A 
ATOM     62  H   UNL A   1      41.106  31.938  36.113  1.00  0.00     0.167 HD
ATOM     63  C   UNL A   1      43.419  30.576  35.181  1.00  0.00     0.074 A 
ATOM     64  C   UNL A   1      44.341  29.879  34.309  1.00  0.00     0.031 C 
ATOM     65  C   UNL A   1      43.689  30.898  36.472  1.00  0.00     0.034 A 
BRANCH  52  66
ATOM     66  C   UNL A   1      39.111  33.967  39.318  1.00  0.00     0.023 A 
ATOM     67  C   UNL A   1      39.455  35.300  39.600  1.00  0.00     0.031 A 
ATOM     68  C   UNL A   1      38.308  33.283  40.247  1.00  0.00     0.131 A 
ATOM     69  C   UNL A   1      39.059  35.882  40.813  1.00  0.00     0.055 A 
ATOM     70  C   UNL A   1      37.843  33.897  41.411  1.00  0.00     0.041 A 
ATOM     71  F   UNL A   1      37.971  32.000  40.046  1.00  0.00    -0.206 F 
ATOM     72  C   UNL A   1      38.230  35.200  41.708  1.00  0.00     0.022 A 
BRANCH  69  73
ATOM     73  S   UNL A   1      39.765  37.487  41.275  1.00  0.00     0.124 S 
ATOM     74  O   UNL A   1      39.624  37.465  42.728  1.00  0.00    -0.237 OA
ATOM     75  O   UNL A   1      41.127  37.392  40.763  1.00  0.00    -0.237 OA
ATOM     76  O   UNL A   1      38.906  38.451  40.588  1.00  0.00    -0.744 OA
ENDBRANCH  69  73
ENDBRANCH  52  66
BRANCH  53  77
ATOM     77  C   UNL A   1      42.056  29.644  30.759  1.00  0.00     0.023 A 
ATOM     78  C   UNL A   1      42.912  30.357  29.905  1.00  0.00     0.031 A 
ATOM     79  C   UNL A   1      41.611  28.378  30.335  1.00  0.00     0.131 A 
ATOM     80  C   UNL A   1      43.255  29.822  28.652  1.00  0.00     0.055 A 
ATOM     81  C   UNL A   1      42.007  27.824  29.116  1.00  0.00     0.041 A 
ATOM     82  F   UNL A   1      40.783  27.654  31.106  1.00  0.00    -0.206 F 
ATOM     83  C   UNL A   1      42.823  28.554  28.260  1.00  0.00     0.022 A 
BRANCH  80  84
ATOM     84  S   UNL A   1      44.196  30.857  27.495  1.00  0.00     0.124 S 
ATOM     85  O   UNL A   1      43.857  32.198  27.956  1.00  0.00    -0.237 OA
ATOM     86  O   UNL A   1      45.566  30.419  27.743  1.00  0.00    -0.237 OA
ATOM     87  O   UNL A   1      43.651  30.488  26.190  1.00  0.00    -0.744 OA
ENDBRANCH  80  84
ENDBRANCH  53  77
BRANCH  65  88
ATOM     88  C   UNL A   1      45.007  30.438  37.050  1.00  0.00     0.023 A 
ATOM     89  C   UNL A   1      45.155  29.190  37.681  1.00  0.00     0.031 A 
ATOM     90  C   UNL A   1      46.145  31.258  36.933  1.00  0.00     0.131 A 
ATOM     91  C   UNL A   1      46.402  28.816  38.205  1.00  0.00     0.055 A 
ATOM     92  C   UNL A   1      47.396  30.854  37.400  1.00  0.00     0.041 A 
ATOM     93  F   UNL A   1      46.062  32.462  36.344  1.00  0.00    -0.206 F 
ATOM     94  C   UNL A   1      47.528  29.630  38.048  1.00  0.00     0.022 A 
BRANCH  91  95
ATOM     95  S   UNL A   1      46.525  27.281  39.162  1.00  0.00     0.124 S 
ATOM     96  O   UNL A   1      47.624  26.593  38.490  1.00  0.00    -0.237 OA
ATOM     97  O   UNL A   1      46.809  27.771  40.507  1.00  0.00    -0.237 OA
ATOM     98  O   UNL A   1      45.211  26.663  38.993  1.00  0.00    -0.744 OA
ENDBRANCH  91  95
ENDBRANCH  65  88
ENDBRANCH  39  40
ENDBRANCH  32  34
ENDBRANCH  31  32
ENDBRANCH  30  31
ENDBRANCH  29  30
ENDBRANCH  28  29
ENDBRANCH  27  28
ENDBRANCH   1  27
TORSDOF 25
ENDMDL
MODEL 2
REMARK VINA RESULT:      -8.5      2.324      7.639
REMARK SMILES C[N@@H+]([C@@H]1CCOC2(CCCC2)C1)C(C)(C)C(=O)OCCOCCOCCOCCOC(=O)c1ccc(-c2c3nc(c(-c4cc(S(=O)(=O)[O-])ccc4F)c4ccc([nH]4)c(-c4cc(S(=O)(=O)[O-])ccc4F)c4nc(c(-c5cc(S(=O)(=O)[O-])ccc5F)c5ccc2[nH]5)C=C4)C=C3)cc1
REMARK SMILES IDX 25 1 24 2 23 3 22 4 21 5 20 6 19 7 18 8 16 9 17 10 13 11
REMARK SMILES IDX 14 12 15 13 2 14 1 15 3 17 4 18 12 19 5 20 7 21 6 22 8 23
REMARK SMILES IDX 11 24 9 25 10 26 26 27 27 28 28 29 29 30 30 31 31 32 32 33
REMARK SMILES IDX 33 34 34 35 95 36 35 37 94 38 36 39 37 40 38 41 88 42 39 43
REMARK SMILES IDX 93 44 87 45 89 46 40 47 92 48 86 49 85 50 41 52 73 53 53 54
REMARK SMILES IDX 72 55 54 56 57 57 71 58 90 59 55 60 56 61 70 63 91 64 58 65
REMARK SMILES IDX 42 66 43 67 51 68 44 69 50 70 52 71 49 72 45 73 46 74 47 75
REMARK SMILES IDX 48 76 74 77 75 78 83 79 76 80 82 81 84 82 81 83 77 84 78 85
REMARK SMILES IDX 79 86 80 87 59 88 60 89 68 90 61 91 67 92 69 93 66 94 62 95
REMARK SMILES IDX 63 96 64 97 65 98
REMARK H PARENT 2 16 89 51 57 62
REMARK Flexibility Score: inf
ROOT
ATOM      1  C   UNL A   1      34.130  33.318  28.496  1.00  0.00     0.188 C 
ENDROOT
BRANCH   1   2
ATOM      2  O   UNL A   1      35.176  32.646  29.199  1.00  0.00    -0.377 OA
BRANCH   2   3
ATOM      3  C   UNL A   1      35.678  31.418  28.697  1.00  0.00     0.188 C 
BRANCH   3   4
ATOM      4  C   UNL A   1      35.101  30.912  27.368  1.00  0.00     0.188 C 
BRANCH   4   5
ATOM      5  O   UNL A   1      34.014  30.023  27.512  1.00  0.00    -0.376 OA
BRANCH   5   6
ATOM      6  C   UNL A   1      34.145  28.704  27.008  1.00  0.00     0.202 C 
BRANCH   6   7
ATOM      7  C   UNL A   1      32.966  27.711  27.018  1.00  0.00     0.261 C 
BRANCH   7   8
ATOM      8  O   UNL A   1      32.024  27.814  25.942  1.00  0.00    -0.459 OA
BRANCH   8   9
ATOM      9  C   UNL A   1      31.040  26.885  25.867  1.00  0.00     0.367 C 
ATOM     10  O   UNL A   1      30.489  26.427  26.865  1.00  0.00    -0.245 OA
BRANCH   9  11
ATOM     11  C   UNL A   1      30.700  26.467  24.386  1.00  0.00     0.190 C 
ATOM     12  C   UNL A   1      31.153  27.669  23.528  1.00  0.00     0.092 C 
ATOM     13  C   UNL A   1      29.154  26.362  24.181  1.00  0.00     0.092 C 
BRANCH  11  14
ATOM     14  N   UNL A   1      31.385  25.153  23.984  1.00  0.00    -0.321 N 
ATOM     15  C   UNL A   1      30.449  24.267  23.286  1.00  0.00     0.333 C 
ATOM     16  H   UNL A   1      31.642  24.702  24.862  1.00  0.00     0.349 HD
BRANCH  14  17
ATOM     17  C   UNL A   1      32.719  25.283  23.319  1.00  0.00     0.189 C 
ATOM     18  C   UNL A   1      32.946  24.644  21.938  1.00  0.00     0.093 C 
ATOM     19  C   UNL A   1      33.900  24.863  24.229  1.00  0.00     0.100 C 
ATOM     20  C   UNL A   1      33.380  23.185  21.975  1.00  0.00     0.167 C 
ATOM     21  C   UNL A   1      34.277  23.374  24.218  1.00  0.00     0.074 C 
ATOM     22  O   UNL A   1      34.461  22.934  22.866  1.00  0.00    -0.375 OA
ATOM     23  C   UNL A   1      35.648  23.153  24.921  1.00  0.00     0.036 C 
ATOM     24  C   UNL A   1      33.303  22.477  25.010  1.00  0.00     0.036 C 
ATOM     25  C   UNL A   1      35.380  22.304  26.158  1.00  0.00     0.003 C 
ATOM     26  C   UNL A   1      34.168  21.487  25.776  1.00  0.00     0.003 C 
ENDBRANCH  14  17
ENDBRANCH  11  14
ENDBRANCH   9  11
ENDBRANCH   8   9
ENDBRANCH   7   8
ENDBRANCH   6   7
ENDBRANCH   5   6
ENDBRANCH   4   5
ENDBRANCH   3   4
ENDBRANCH   2   3
ENDBRANCH   1   2
BRANCH   1  27
ATOM     27  C   UNL A   1      34.368  34.666  27.772  1.00  0.00     0.188 C 
BRANCH  27  28
ATOM     28  O   UNL A   1      34.528  35.790  28.622  1.00  0.00    -0.376 OA
BRANCH  28  29
ATOM     29  C   UNL A   1      33.390  36.604  28.855  1.00  0.00     0.202 C 
BRANCH  29  30
ATOM     30  C   UNL A   1      32.620  36.385  30.167  1.00  0.00     0.261 C 
BRANCH  30  31
ATOM     31  O   UNL A   1      32.733  35.087  30.772  1.00  0.00    -0.460 OA
BRANCH  31  32
ATOM     32  C   UNL A   1      32.966  35.021  32.100  1.00  0.00     0.338 C 
ATOM     33  O   UNL A   1      32.169  35.242  32.997  1.00  0.00    -0.246 OA
BRANCH  32  34
ATOM     34  C   UNL A   1      34.311  34.433  32.285  1.00  0.00     0.060 A 
ATOM     35  C   UNL A   1      34.432  33.107  32.723  1.00  0.00     0.016 A 
ATOM     36  C   UNL A   1      35.448  35.192  32.003  1.00  0.00     0.016 A 
ATOM     37  C   UNL A   1      35.697  32.544  32.910  1.00  0.00     0.010 A 
ATOM     38  C   UNL A   1      36.711  34.637  32.217  1.00  0.00     0.010 A 
ATOM     39  C   UNL A   1      36.842  33.323  32.702  1.00  0.00    -0.014 A 
BRANCH  39  40
ATOM     40  C   UNL A   1      38.163  32.861  33.198  1.00  0.00     0.031 A 
ATOM     41  C   UNL A   1      38.986  31.990  32.289  1.00  0.00     0.074 A 
ATOM     42  C   UNL A   1      38.618  33.189  34.420  1.00  0.00     0.049 A 
ATOM     43  N   UNL A   1      40.096  31.344  32.532  1.00  0.00    -0.248 NA
ATOM     44  C   UNL A   1      38.475  31.817  30.919  1.00  0.00     0.031 C 
ATOM     45  C   UNL A   1      37.945  34.080  35.362  1.00  0.00     0.029 A 
ATOM     46  N   UNL A   1      39.754  32.793  35.083  1.00  0.00    -0.354 N 
ATOM     47  C   UNL A   1      40.408  30.676  31.354  1.00  0.00     0.074 A 
ATOM     48  C   UNL A   1      39.353  30.971  30.408  1.00  0.00     0.031 C 
ATOM     49  C   UNL A   1      38.671  34.145  36.493  1.00  0.00     0.029 A 
ATOM     50  C   UNL A   1      39.830  33.260  36.375  1.00  0.00     0.049 A 
ATOM     51  H   UNL A   1      40.447  32.227  34.673  1.00  0.00     0.167 HD
ATOM     52  C   UNL A   1      41.479  29.889  31.086  1.00  0.00     0.034 A 
ATOM     53  C   UNL A   1      40.709  32.972  37.359  1.00  0.00     0.034 A 
ATOM     54  C   UNL A   1      42.512  29.595  32.047  1.00  0.00     0.049 A 
ATOM     55  C   UNL A   1      41.835  32.001  37.074  1.00  0.00     0.074 A 
ATOM     56  C   UNL A   1      43.646  28.820  31.880  1.00  0.00     0.029 A 
ATOM     57  N   UNL A   1      42.530  30.051  33.358  1.00  0.00    -0.354 N 
ATOM     58  N   UNL A   1      42.120  31.367  35.960  1.00  0.00    -0.248 NA
ATOM     59  C   UNL A   1      42.759  31.709  38.180  1.00  0.00     0.031 C 
ATOM     60  C   UNL A   1      44.301  28.734  33.112  1.00  0.00     0.029 A 
ATOM     61  C   UNL A   1      43.633  29.539  34.023  1.00  0.00     0.049 A 
ATOM     62  H   UNL A   1      41.859  30.649  33.759  1.00  0.00     0.167 HD
ATOM     63  C   UNL A   1      43.278  30.635  36.221  1.00  0.00     0.074 A 
ATOM     64  C   UNL A   1      43.639  30.908  37.596  1.00  0.00     0.031 C 
ATOM     65  C   UNL A   1      43.984  29.820  35.396  1.00  0.00     0.034 A 
BRANCH  52  66
ATOM     66  C   UNL A   1      41.543  29.241  29.723  1.00  0.00     0.023 A 
ATOM     67  C   UNL A   1      40.921  28.010  29.455  1.00  0.00     0.031 A 
ATOM     68  C   UNL A   1      42.264  29.855  28.683  1.00  0.00     0.131 A 
ATOM     69  C   UNL A   1      41.092  27.398  28.204  1.00  0.00     0.055 A 
ATOM     70  C   UNL A   1      42.357  29.284  27.414  1.00  0.00     0.041 A 
ATOM     71  F   UNL A   1      42.903  31.017  28.888  1.00  0.00    -0.206 F 
ATOM     72  C   UNL A   1      41.781  28.040  27.172  1.00  0.00     0.022 A 
BRANCH  69  73
ATOM     73  S   UNL A   1      40.531  25.687  27.993  1.00  0.00     0.124 S 
ATOM     74  O   UNL A   1      39.371  25.645  28.878  1.00  0.00    -0.237 OA
ATOM     75  O   UNL A   1      40.248  25.621  26.565  1.00  0.00    -0.237 OA
ATOM     76  O   UNL A   1      41.675  24.893  28.440  1.00  0.00    -0.744 OA
ENDBRANCH  69  73
ENDBRANCH  52  66
BRANCH  53  77
ATOM     77  C   UNL A   1      40.539  33.553  38.723  1.00  0.00     0.023 A 
ATOM     78  C   UNL A   1      39.509  33.124  39.575  1.00  0.00     0.031 A 
ATOM     79  C   UNL A   1      41.369  34.597  39.172  1.00  0.00     0.131 A 
ATOM     80  C   UNL A   1      39.304  33.768  40.807  1.00  0.00     0.055 A 
ATOM     81  C   UNL A   1      41.201  35.192  40.425  1.00  0.00     0.041 A 
ATOM     82  F   UNL A   1      42.364  35.057  38.396  1.00  0.00    -0.206 F 
ATOM     83  C   UNL A   1      40.154  34.785  41.245  1.00  0.00     0.022 A 
BRANCH  80  84
ATOM     84  S   UNL A   1      37.843  33.322  41.788  1.00  0.00     0.124 S 
ATOM     85  O   UNL A   1      38.454  32.727  42.971  1.00  0.00    -0.237 OA
ATOM     86  O   UNL A   1      37.200  34.618  41.979  1.00  0.00    -0.237 OA
ATOM     87  O   UNL A   1      37.124  32.392  40.921  1.00  0.00    -0.744 OA
ENDBRANCH  80  84
ENDBRANCH  53  77
BRANCH  65  88
ATOM     88  C   UNL A   1      45.262  29.216  35.931  1.00  0.00     0.023 A 
ATOM     89  C   UNL A   1      46.503  29.867  35.818  1.00  0.00     0.031 A 
ATOM     90  C   UNL A   1      45.224  27.977  36.597  1.00  0.00     0.131 A 
ATOM     91  C   UNL A   1      47.659  29.257  36.328  1.00  0.00     0.055 A 
ATOM     92  C   UNL A   1      46.366  27.405  37.156  1.00  0.00     0.041 A 
ATOM     93  F   UNL A   1      44.067  27.308  36.730  1.00  0.00    -0.206 F 
ATOM     94  C   UNL A   1      47.595  28.042  37.016  1.00  0.00     0.022 A 
BRANCH  91  95
ATOM     95  S   UNL A   1      49.269  30.035  36.019  1.00  0.00     0.124 S 
ATOM     96  O   UNL A   1      49.830  30.112  37.364  1.00  0.00    -0.237 OA
ATOM     97  O   UNL A   1      49.909  29.084  35.116  1.00  0.00    -0.237 OA
ATOM     98  O   UNL A   1      48.920  31.321  35.418  1.00  0.00    -0.744 OA
ENDBRANCH  91  95
ENDBRANCH  65  88
ENDBRANCH  39  40
ENDBRANCH  32  34
ENDBRANCH  31  32
ENDBRANCH  30  31
ENDBRANCH  29  30
ENDBRANCH  28  29
ENDBRANCH  27  28
ENDBRANCH   1  27
TORSDOF 25
ENDMDL
MODEL 3
REMARK VINA RESULT:      -8.2      7.723     11.541
REMARK SMILES C[N@@H+]([C@@H]1CCOC2(CCCC2)C1)C(C)(C)C(=O)OCCOCCOCCOCCOC(=O)c1ccc(-c2c3nc(c(-c4cc(S(=O)(=O)[O-])ccc4F)c4ccc([nH]4)c(-c4cc(S(=O)(=O)[O-])ccc4F)c4nc(c(-c5cc(S(=O)(=O)[O-])ccc5F)c5ccc2[nH]5)C=C4)C=C3)cc1
REMARK SMILES IDX 25 1 24 2 23 3 22 4 21 5 20 6 19 7 18 8 16 9 17 10 13 11
REMARK SMILES IDX 14 12 15 13 2 14 1 15 3 17 4 18 12 19 5 20 7 21 6 22 8 23
REMARK SMILES IDX 11 24 9 25 10 26 26 27 27 28 28 29 29 30 30 31 31 32 32 33
REMARK SMILES IDX 33 34 34 35 95 36 35 37 94 38 36 39 37 40 38 41 88 42 39 43
REMARK SMILES IDX 93 44 87 45 89 46 40 47 92 48 86 49 85 50 41 52 73 53 53 54
REMARK SMILES IDX 72 55 54 56 57 57 71 58 90 59 55 60 56 61 70 63 91 64 58 65
REMARK SMILES IDX 42 66 43 67 51 68 44 69 50 70 52 71 49 72 45 73 46 74 47 75
REMARK SMILES IDX 48 76 74 77 75 78 83 79 76 80 82 81 84 82 81 83 77 84 78 85
REMARK SMILES IDX 79 86 80 87 59 88 60 89 68 90 61 91 67 92 69 93 66 94 62 95
REMARK SMILES IDX 63 96 64 97 65 98
REMARK H PARENT 2 16 89 51 57 62
REMARK Flexibility Score: inf
ROOT
ATOM      1  C   UNL A   1      38.966  28.378  29.495  1.00  0.00     0.188 C 
ENDROOT
BRANCH   1   2
ATOM      2  O   UNL A   1      37.602  28.584  29.865  1.00  0.00    -0.377 OA
BRANCH   2   3
ATOM      3  C   UNL A   1      36.900  29.703  29.349  1.00  0.00     0.188 C 
BRANCH   3   4
ATOM      4  C   UNL A   1      36.394  29.611  27.903  1.00  0.00     0.188 C 
BRANCH   4   5
ATOM      5  O   UNL A   1      35.014  29.870  27.757  1.00  0.00    -0.376 OA
BRANCH   5   6
ATOM      6  C   UNL A   1      34.188  28.858  27.205  1.00  0.00     0.202 C 
BRANCH   6   7
ATOM      7  C   UNL A   1      33.552  29.001  25.809  1.00  0.00     0.261 C 
BRANCH   7   8
ATOM      8  O   UNL A   1      33.142  27.792  25.157  1.00  0.00    -0.459 OA
BRANCH   8   9
ATOM      9  C   UNL A   1      32.584  27.891  23.926  1.00  0.00     0.367 C 
ATOM     10  O   UNL A   1      32.850  28.809  23.154  1.00  0.00    -0.245 OA
BRANCH   9  11
ATOM     11  C   UNL A   1      31.573  26.723  23.613  1.00  0.00     0.190 C 
ATOM     12  C   UNL A   1      31.463  26.705  22.072  1.00  0.00     0.092 C 
ATOM     13  C   UNL A   1      30.142  27.076  24.133  1.00  0.00     0.092 C 
BRANCH  11  14
ATOM     14  N   UNL A   1      32.039  25.382  24.195  1.00  0.00    -0.321 N 
ATOM     15  C   UNL A   1      31.063  24.861  25.157  1.00  0.00     0.333 C 
ATOM     16  H   UNL A   1      32.896  25.592  24.707  1.00  0.00     0.349 HD
BRANCH  14  17
ATOM     17  C   UNL A   1      32.527  24.369  23.207  1.00  0.00     0.189 C 
ATOM     18  C   UNL A   1      31.977  22.934  23.254  1.00  0.00     0.093 C 
ATOM     19  C   UNL A   1      34.072  24.276  23.139  1.00  0.00     0.100 C 
ATOM     20  C   UNL A   1      32.713  21.999  24.205  1.00  0.00     0.167 C 
ATOM     21  C   UNL A   1      34.744  23.318  24.133  1.00  0.00     0.074 C 
ATOM     22  O   UNL A   1      34.127  22.027  24.050  1.00  0.00    -0.375 OA
ATOM     23  C   UNL A   1      36.237  23.095  23.750  1.00  0.00     0.036 C 
ATOM     24  C   UNL A   1      34.807  23.858  25.577  1.00  0.00     0.036 C 
ATOM     25  C   UNL A   1      37.076  23.664  24.888  1.00  0.00     0.003 C 
ATOM     26  C   UNL A   1      36.191  23.503  26.101  1.00  0.00     0.003 C 
ENDBRANCH  14  17
ENDBRANCH  11  14
ENDBRANCH   9  11
ENDBRANCH   8   9
ENDBRANCH   7   8
ENDBRANCH   6   7
ENDBRANCH   5   6
ENDBRANCH   4   5
ENDBRANCH   3   4
ENDBRANCH   2   3
ENDBRANCH   1   2
BRANCH   1  27
ATOM     27  C   UNL A   1      39.515  26.972  29.150  1.00  0.00     0.188 C 
BRANCH  27  28
ATOM     28  O   UNL A   1      39.147  26.473  27.876  1.00  0.00    -0.376 OA
BRANCH  28  29
ATOM     29  C   UNL A   1      40.105  25.701  27.170  1.00  0.00     0.202 C 
BRANCH  29  30
ATOM     30  C   UNL A   1      40.202  24.206  27.514  1.00  0.00     0.261 C 
BRANCH  30  31
ATOM     31  O   UNL A   1      41.477  23.733  27.977  1.00  0.00    -0.460 OA
BRANCH  31  32
ATOM     32  C   UNL A   1      42.445  23.512  27.063  1.00  0.00     0.338 C 
ATOM     33  O   UNL A   1      42.522  22.574  26.286  1.00  0.00    -0.246 OA
BRANCH  32  34
ATOM     34  C   UNL A   1      43.299  24.719  27.023  1.00  0.00     0.060 A 
ATOM     35  C   UNL A   1      43.709  25.237  25.787  1.00  0.00     0.016 A 
ATOM     36  C   UNL A   1      43.675  25.347  28.212  1.00  0.00     0.016 A 
ATOM     37  C   UNL A   1      44.524  26.371  25.738  1.00  0.00     0.010 A 
ATOM     38  C   UNL A   1      44.511  26.464  28.162  1.00  0.00     0.010 A 
ATOM     39  C   UNL A   1      44.966  26.962  26.928  1.00  0.00    -0.014 A 
BRANCH  39  40
ATOM     40  C   UNL A   1      46.075  27.948  26.908  1.00  0.00     0.031 A 
ATOM     41  C   UNL A   1      45.712  29.407  26.866  1.00  0.00     0.074 A 
ATOM     42  C   UNL A   1      47.365  27.569  26.914  1.00  0.00     0.049 A 
ATOM     43  N   UNL A   1      46.478  30.454  26.701  1.00  0.00    -0.248 NA
ATOM     44  C   UNL A   1      44.283  29.725  27.022  1.00  0.00     0.031 C 
ATOM     45  C   UNL A   1      47.842  26.192  27.022  1.00  0.00     0.029 A 
ATOM     46  N   UNL A   1      48.513  28.316  26.809  1.00  0.00    -0.354 N 
ATOM     47  C   UNL A   1      45.624  31.551  26.715  1.00  0.00     0.074 A 
ATOM     48  C   UNL A   1      44.280  31.039  26.875  1.00  0.00     0.031 C 
ATOM     49  C   UNL A   1      49.185  26.190  26.956  1.00  0.00     0.029 A 
ATOM     50  C   UNL A   1      49.660  27.559  26.746  1.00  0.00     0.049 A 
ATOM     51  H   UNL A   1      48.515  29.300  26.781  1.00  0.00     0.167 HD
ATOM     52  C   UNL A   1      45.935  32.866  26.607  1.00  0.00     0.034 A 
ATOM     53  C   UNL A   1      50.937  27.925  26.505  1.00  0.00     0.034 A 
ATOM     54  C   UNL A   1      47.280  33.355  26.434  1.00  0.00     0.049 A 
ATOM     55  C   UNL A   1      51.250  29.387  26.274  1.00  0.00     0.074 A 
ATOM     56  C   UNL A   1      47.711  34.665  26.324  1.00  0.00     0.029 A 
ATOM     57  N   UNL A   1      48.410  32.554  26.330  1.00  0.00    -0.354 N 
ATOM     58  N   UNL A   1      50.436  30.419  26.282  1.00  0.00    -0.248 NA
ATOM     59  C   UNL A   1      52.652  29.736  26.003  1.00  0.00     0.031 C 
ATOM     60  C   UNL A   1      49.084  34.652  26.065  1.00  0.00     0.029 A 
ATOM     61  C   UNL A   1      49.530  33.341  26.116  1.00  0.00     0.049 A 
ATOM     62  H   UNL A   1      48.415  31.572  26.398  1.00  0.00     0.167 HD
ATOM     63  C   UNL A   1      51.236  31.539  26.058  1.00  0.00     0.074 A 
ATOM     64  C   UNL A   1      52.594  31.058  25.921  1.00  0.00     0.031 C 
ATOM     65  C   UNL A   1      50.881  32.847  25.983  1.00  0.00     0.034 A 
BRANCH  52  66
ATOM     66  C   UNL A   1      44.793  33.853  26.605  1.00  0.00     0.023 A 
ATOM     67  C   UNL A   1      44.378  34.513  27.775  1.00  0.00     0.031 A 
ATOM     68  C   UNL A   1      44.089  34.116  25.416  1.00  0.00     0.131 A 
ATOM     69  C   UNL A   1      43.249  35.344  27.745  1.00  0.00     0.055 A 
ATOM     70  C   UNL A   1      43.021  35.013  25.375  1.00  0.00     0.041 A 
ATOM     71  F   UNL A   1      44.421  33.494  24.274  1.00  0.00    -0.206 F 
ATOM     72  C   UNL A   1      42.585  35.622  26.547  1.00  0.00     0.022 A 
BRANCH  69  73
ATOM     73  S   UNL A   1      42.569  35.937  29.318  1.00  0.00     0.124 S 
ATOM     74  O   UNL A   1      43.141  34.985  30.265  1.00  0.00    -0.237 OA
ATOM     75  O   UNL A   1      43.083  37.299  29.391  1.00  0.00    -0.237 OA
ATOM     76  O   UNL A   1      41.123  35.825  29.130  1.00  0.00    -0.744 OA
ENDBRANCH  69  73
ENDBRANCH  52  66
BRANCH  53  77
ATOM     77  C   UNL A   1      52.017  26.897  26.408  1.00  0.00     0.023 A 
ATOM     78  C   UNL A   1      52.945  26.716  27.446  1.00  0.00     0.031 A 
ATOM     79  C   UNL A   1      52.175  26.123  25.244  1.00  0.00     0.131 A 
ATOM     80  C   UNL A   1      54.015  25.822  27.281  1.00  0.00     0.055 A 
ATOM     81  C   UNL A   1      53.206  25.190  25.110  1.00  0.00     0.041 A 
ATOM     82  F   UNL A   1      51.324  26.260  24.214  1.00  0.00    -0.206 F 
ATOM     83  C   UNL A   1      54.142  25.046  26.128  1.00  0.00     0.022 A 
BRANCH  80  84
ATOM     84  S   UNL A   1      55.304  25.764  28.558  1.00  0.00     0.124 S 
ATOM     85  O   UNL A   1      54.518  25.923  29.776  1.00  0.00    -0.237 OA
ATOM     86  O   UNL A   1      55.889  24.445  28.338  1.00  0.00    -0.237 OA
ATOM     87  O   UNL A   1      56.168  26.892  28.220  1.00  0.00    -0.744 OA
ENDBRANCH  80  84
ENDBRANCH  53  77
BRANCH  65  88
ATOM     88  C   UNL A   1      51.986  33.866  25.813  1.00  0.00     0.023 A 
ATOM     89  C   UNL A   1      52.592  34.503  26.909  1.00  0.00     0.031 A 
ATOM     90  C   UNL A   1      52.459  34.175  24.524  1.00  0.00     0.131 A 
ATOM     91  C   UNL A   1      53.610  35.445  26.693  1.00  0.00     0.055 A 
ATOM     92  C   UNL A   1      53.513  35.065  24.319  1.00  0.00     0.041 A 
ATOM     93  F   UNL A   1      51.913  33.600  23.440  1.00  0.00    -0.206 F 
ATOM     94  C   UNL A   1      54.089  35.713  25.407  1.00  0.00     0.022 A 
BRANCH  91  95
ATOM     95  S   UNL A   1      54.256  36.377  28.108  1.00  0.00     0.124 S 
ATOM     96  O   UNL A   1      53.318  36.012  29.165  1.00  0.00    -0.237 OA
ATOM     97  O   UNL A   1      55.608  35.843  28.245  1.00  0.00    -0.237 OA
ATOM     98  O   UNL A   1      54.183  37.768  27.667  1.00  0.00    -0.744 OA
ENDBRANCH  91  95
ENDBRANCH  65  88
ENDBRANCH  39  40
ENDBRANCH  32  34
ENDBRANCH  31  32
ENDBRANCH  30  31
ENDBRANCH  29  30
ENDBRANCH  28  29
ENDBRANCH  27  28
ENDBRANCH   1  27
TORSDOF 25
ENDMDL
