MODEL 1
REMARK VINA RESULT:      -8.5      0.000      0.000
REMARK SMILES C[C@@H]1CC[C@@]1(SC1CCCCC1)C(=O)OCCOCCOCCOCCOC(=O)c1ccc(-c2c3nc(c(-c4cc(S(=O)(=O)[O-])ccc4F)c4ccc([nH]4)c(-c4cc(S(=O)(=O)[O-])ccc4F)c4nc(c(-c5cc(S(=O)(=O)[O-])ccc5F)c5ccc2[nH]5)C=C4)C=C3)cc1
REMARK SMILES IDX 22 1 21 2 20 3 19 4 18 5 17 6 16 7 15 8 13 9 14 10 5 11 1 12
REMARK SMILES IDX 2 13 3 14 4 15 6 16 7 17 8 18 12 19 9 20 11 21 10 22 23 23
REMARK SMILES IDX 24 24 25 25 26 26 27 27 28 28 29 29 30 30 31 31 92 32 32 33
REMARK SMILES IDX 91 34 33 35 34 36 35 37 85 38 36 39 90 40 84 41 86 42 37 43
REMARK SMILES IDX 89 44 83 45 82 46 38 48 70 49 50 50 69 51 51 52 54 53 68 54
REMARK SMILES IDX 87 55 52 56 53 57 67 59 88 60 55 61 39 62 40 63 48 64 41 65
REMARK SMILES IDX 47 66 49 67 46 68 42 69 43 70 44 71 45 72 71 73 72 74 80 75
REMARK SMILES IDX 73 76 79 77 81 78 78 79 74 80 75 81 76 82 77 83 56 84 57 85
REMARK SMILES IDX 65 86 58 87 64 88 66 89 63 90 59 91 60 92 61 93 62 94
REMARK H PARENT 86 47 54 58
REMARK Flexibility Score: inf
ROOT
ATOM      1  C   UNL A   1      35.288  32.157  28.786  1.00  0.00     0.188 C 
ENDROOT
BRANCH   1   2
ATOM      2  O   UNL A   1      36.100  31.464  27.858  1.00  0.00    -0.377 OA
BRANCH   2   3
ATOM      3  C   UNL A   1      35.801  30.097  27.618  1.00  0.00     0.188 C 
BRANCH   3   4
ATOM      4  C   UNL A   1      34.359  29.587  27.353  1.00  0.00     0.188 C 
BRANCH   4   5
ATOM      5  O   UNL A   1      34.219  28.794  26.187  1.00  0.00    -0.376 OA
BRANCH   5   6
ATOM      6  C   UNL A   1      33.262  29.149  25.205  1.00  0.00     0.202 C 
BRANCH   6   7
ATOM      7  C   UNL A   1      32.595  28.023  24.410  1.00  0.00     0.261 C 
BRANCH   7   8
ATOM      8  O   UNL A   1      32.410  26.771  25.092  1.00  0.00    -0.462 OA
BRANCH   8   9
ATOM      9  C   UNL A   1      31.538  25.857  24.575  1.00  0.00     0.322 C 
ATOM     10  O   UNL A   1      30.422  26.175  24.169  1.00  0.00    -0.251 OA
BRANCH   9  11
ATOM     11  C   UNL A   1      32.145  24.393  24.578  1.00  0.00     0.116 C 
ATOM     12  C   UNL A   1      30.659  22.623  26.098  1.00  0.00     0.010 C 
ATOM     13  C   UNL A   1      31.045  23.267  24.783  1.00  0.00     0.013 C 
ATOM     14  C   UNL A   1      31.772  22.390  23.754  1.00  0.00     0.007 C 
ATOM     15  C   UNL A   1      32.518  23.638  23.259  1.00  0.00     0.030 C 
BRANCH  11  16
ATOM     16  S   UNL A   1      33.536  24.286  25.812  1.00  0.00    -0.140 SA
BRANCH  16  17
ATOM     17  C   UNL A   1      34.690  23.060  25.043  1.00  0.00     0.048 C 
ATOM     18  C   UNL A   1      36.063  23.684  24.778  1.00  0.00     0.014 C 
ATOM     19  C   UNL A   1      34.855  21.691  25.716  1.00  0.00     0.014 C 
ATOM     20  C   UNL A   1      36.953  22.741  23.971  1.00  0.00     0.001 C 
ATOM     21  C   UNL A   1      35.768  20.746  24.940  1.00  0.00     0.001 C 
ATOM     22  C   UNL A   1      37.121  21.400  24.679  1.00  0.00     0.000 C 
ENDBRANCH  16  17
ENDBRANCH  11  16
ENDBRANCH   9  11
ENDBRANCH   8   9
ENDBRANCH   7   8
ENDBRANCH   6   7
ENDBRANCH   5   6
ENDBRANCH   4   5
ENDBRANCH   3   4
ENDBRANCH   2   3
ENDBRANCH   1   2
BRANCH   1  23
ATOM     23  C   UNL A   1      35.563  33.672  28.797  1.00  0.00     0.188 C 
BRANCH  23  24
ATOM     24  O   UNL A   1      34.654  34.432  28.022  1.00  0.00    -0.376 OA
BRANCH  24  25
ATOM     25  C   UNL A   1      34.144  35.675  28.473  1.00  0.00     0.202 C 
BRANCH  25  26
ATOM     26  C   UNL A   1      32.931  35.861  29.407  1.00  0.00     0.261 C 
BRANCH  26  27
ATOM     27  O   UNL A   1      32.787  34.998  30.534  1.00  0.00    -0.460 OA
BRANCH  27  28
ATOM     28  C   UNL A   1      32.986  35.535  31.758  1.00  0.00     0.338 C 
ATOM     29  O   UNL A   1      32.248  36.285  32.352  1.00  0.00    -0.246 OA
BRANCH  28  30
ATOM     30  C   UNL A   1      34.168  34.843  32.326  1.00  0.00     0.060 A 
ATOM     31  C   UNL A   1      35.439  35.367  32.058  1.00  0.00     0.016 A 
ATOM     32  C   UNL A   1      34.020  33.734  33.164  1.00  0.00     0.016 A 
ATOM     33  C   UNL A   1      36.567  34.777  32.617  1.00  0.00     0.010 A 
ATOM     34  C   UNL A   1      35.156  33.114  33.688  1.00  0.00     0.010 A 
ATOM     35  C   UNL A   1      36.434  33.619  33.391  1.00  0.00    -0.014 A 
BRANCH  35  36
ATOM     36  C   UNL A   1      37.649  32.828  33.681  1.00  0.00     0.031 A 
ATOM     37  C   UNL A   1      38.448  33.191  34.900  1.00  0.00     0.074 A 
ATOM     38  C   UNL A   1      37.991  31.774  32.923  1.00  0.00     0.049 A 
ATOM     39  N   UNL A   1      39.526  32.636  35.386  1.00  0.00    -0.248 NA
ATOM     40  C   UNL A   1      37.958  34.345  35.670  1.00  0.00     0.031 C 
ATOM     41  C   UNL A   1      37.262  31.312  31.744  1.00  0.00     0.029 A 
ATOM     42  N   UNL A   1      39.044  30.903  33.037  1.00  0.00    -0.354 N 
ATOM     43  C   UNL A   1      39.846  33.374  36.521  1.00  0.00     0.074 A 
ATOM     44  C   UNL A   1      38.875  34.443  36.618  1.00  0.00     0.031 C 
ATOM     45  C   UNL A   1      37.900  30.245  31.233  1.00  0.00     0.029 A 
ATOM     46  C   UNL A   1      39.096  29.972  32.028  1.00  0.00     0.049 A 
ATOM     47  H   UNL A   1      39.699  30.941  33.771  1.00  0.00     0.167 HD
ATOM     48  C   UNL A   1      40.854  33.170  37.404  1.00  0.00     0.034 A 
ATOM     49  C   UNL A   1      40.021  29.029  31.765  1.00  0.00     0.034 A 
ATOM     50  C   UNL A   1      41.828  32.114  37.265  1.00  0.00     0.049 A 
ATOM     51  C   UNL A   1      41.186  28.868  32.710  1.00  0.00     0.074 A 
ATOM     52  C   UNL A   1      42.880  31.795  38.104  1.00  0.00     0.029 A 
ATOM     53  N   UNL A   1      41.888  31.221  36.200  1.00  0.00    -0.354 N 
ATOM     54  N   UNL A   1      41.468  29.546  33.801  1.00  0.00    -0.248 NA
ATOM     55  C   UNL A   1      42.148  27.807  32.395  1.00  0.00     0.031 C 
ATOM     56  C   UNL A   1      43.629  30.778  37.500  1.00  0.00     0.029 A 
ATOM     57  C   UNL A   1      42.989  30.387  36.332  1.00  0.00     0.049 A 
ATOM     58  H   UNL A   1      41.242  31.186  35.458  1.00  0.00     0.167 HD
ATOM     59  C   UNL A   1      42.635  28.981  34.311  1.00  0.00     0.074 A 
ATOM     60  C   UNL A   1      42.983  27.890  33.420  1.00  0.00     0.031 C 
ATOM     61  C   UNL A   1      43.350  29.327  35.415  1.00  0.00     0.034 A 
BRANCH  48  62
ATOM     62  C   UNL A   1      40.982  34.161  38.539  1.00  0.00     0.023 A 
ATOM     63  C   UNL A   1      41.778  35.317  38.432  1.00  0.00     0.031 A 
ATOM     64  C   UNL A   1      40.370  33.901  39.778  1.00  0.00     0.131 A 
ATOM     65  C   UNL A   1      42.023  36.107  39.567  1.00  0.00     0.055 A 
ATOM     66  C   UNL A   1      40.537  34.748  40.876  1.00  0.00     0.041 A 
ATOM     67  F   UNL A   1      39.623  32.800  39.954  1.00  0.00    -0.206 F 
ATOM     68  C   UNL A   1      41.386  35.846  40.781  1.00  0.00     0.022 A 
BRANCH  65  69
ATOM     69  S   UNL A   1      43.343  37.351  39.486  1.00  0.00     0.124 S 
ATOM     70  O   UNL A   1      44.043  37.123  40.749  1.00  0.00    -0.237 OA
ATOM     71  O   UNL A   1      44.064  36.967  38.278  1.00  0.00    -0.237 OA
ATOM     72  O   UNL A   1      42.616  38.617  39.407  1.00  0.00    -0.744 OA
ENDBRANCH  65  69
ENDBRANCH  48  62
BRANCH  49  73
ATOM     73  C   UNL A   1      39.906  28.205  30.529  1.00  0.00     0.023 A 
ATOM     74  C   UNL A   1      40.618  28.517  29.361  1.00  0.00     0.031 A 
ATOM     75  C   UNL A   1      39.062  27.078  30.506  1.00  0.00     0.131 A 
ATOM     76  C   UNL A   1      40.458  27.723  28.213  1.00  0.00     0.055 A 
ATOM     77  C   UNL A   1      38.944  26.264  29.379  1.00  0.00     0.041 A 
ATOM     78  F   UNL A   1      38.357  26.736  31.596  1.00  0.00    -0.206 F 
ATOM     79  C   UNL A   1      39.640  26.590  28.221  1.00  0.00     0.022 A 
BRANCH  76  80
ATOM     80  S   UNL A   1      41.302  28.216  26.685  1.00  0.00     0.124 S 
ATOM     81  O   UNL A   1      40.442  29.289  26.202  1.00  0.00    -0.237 OA
ATOM     82  O   UNL A   1      42.615  28.618  27.180  1.00  0.00    -0.237 OA
ATOM     83  O   UNL A   1      41.292  26.996  25.881  1.00  0.00    -0.744 OA
ENDBRANCH  76  80
ENDBRANCH  49  73
BRANCH  61  84
ATOM     84  C   UNL A   1      44.576  28.497  35.723  1.00  0.00     0.023 A 
ATOM     85  C   UNL A   1      45.843  28.829  35.209  1.00  0.00     0.031 A 
ATOM     86  C   UNL A   1      44.473  27.338  36.513  1.00  0.00     0.131 A 
ATOM     87  C   UNL A   1      46.933  27.970  35.420  1.00  0.00     0.055 A 
ATOM     88  C   UNL A   1      45.580  26.532  36.790  1.00  0.00     0.041 A 
ATOM     89  F   UNL A   1      43.291  26.963  37.029  1.00  0.00    -0.206 F 
ATOM     90  C   UNL A   1      46.815  26.836  36.226  1.00  0.00     0.022 A 
BRANCH  87  91
ATOM     91  S   UNL A   1      48.470  28.278  34.508  1.00  0.00     0.124 S 
ATOM     92  O   UNL A   1      49.172  27.008  34.665  1.00  0.00    -0.237 OA
ATOM     93  O   UNL A   1      47.982  28.577  33.165  1.00  0.00    -0.237 OA
ATOM     94  O   UNL A   1      49.068  29.409  35.216  1.00  0.00    -0.744 OA
ENDBRANCH  87  91
ENDBRANCH  61  84
ENDBRANCH  35  36
ENDBRANCH  28  30
ENDBRANCH  27  28
ENDBRANCH  26  27
ENDBRANCH  25  26
ENDBRANCH  24  25
ENDBRANCH  23  24
ENDBRANCH   1  23
TORSDOF 25
ENDMDL
MODEL 2
REMARK VINA RESULT:      -8.5      2.083      2.409
REMARK SMILES C[C@@H]1CC[C@@]1(SC1CCCCC1)C(=O)OCCOCCOCCOCCOC(=O)c1ccc(-c2c3nc(c(-c4cc(S(=O)(=O)[O-])ccc4F)c4ccc([nH]4)c(-c4cc(S(=O)(=O)[O-])ccc4F)c4nc(c(-c5cc(S(=O)(=O)[O-])ccc5F)c5ccc2[nH]5)C=C4)C=C3)cc1
REMARK SMILES IDX 22 1 21 2 20 3 19 4 18 5 17 6 16 7 15 8 13 9 14 10 5 11 1 12
REMARK SMILES IDX 2 13 3 14 4 15 6 16 7 17 8 18 12 19 9 20 11 21 10 22 23 23
REMARK SMILES IDX 24 24 25 25 26 26 27 27 28 28 29 29 30 30 31 31 92 32 32 33
REMARK SMILES IDX 91 34 33 35 34 36 35 37 85 38 36 39 90 40 84 41 86 42 37 43
REMARK SMILES IDX 89 44 83 45 82 46 38 48 70 49 50 50 69 51 51 52 54 53 68 54
REMARK SMILES IDX 87 55 52 56 53 57 67 59 88 60 55 61 39 62 40 63 48 64 41 65
REMARK SMILES IDX 47 66 49 67 46 68 42 69 43 70 44 71 45 72 71 73 72 74 80 75
REMARK SMILES IDX 73 76 79 77 81 78 78 79 74 80 75 81 76 82 77 83 56 84 57 85
REMARK SMILES IDX 65 86 58 87 64 88 66 89 63 90 59 91 60 92 61 93 62 94
REMARK H PARENT 86 47 54 58
REMARK Flexibility Score: inf
ROOT
ATOM      1  C   UNL A   1      35.121  31.619  28.709  1.00  0.00     0.188 C 
ENDROOT
BRANCH   1   2
ATOM      2  O   UNL A   1      35.361  30.705  27.655  1.00  0.00    -0.377 OA
BRANCH   2   3
ATOM      3  C   UNL A   1      34.305  29.825  27.299  1.00  0.00     0.188 C 
BRANCH   3   4
ATOM      4  C   UNL A   1      33.041  30.298  26.532  1.00  0.00     0.188 C 
BRANCH   4   5
ATOM      5  O   UNL A   1      32.818  29.636  25.297  1.00  0.00    -0.376 OA
BRANCH   5   6
ATOM      6  C   UNL A   1      31.499  29.485  24.809  1.00  0.00     0.202 C 
BRANCH   6   7
ATOM      7  C   UNL A   1      31.003  28.069  24.502  1.00  0.00     0.261 C 
BRANCH   7   8
ATOM      8  O   UNL A   1      31.949  27.000  24.678  1.00  0.00    -0.462 OA
BRANCH   8   9
ATOM      9  C   UNL A   1      31.693  26.035  25.609  1.00  0.00     0.322 C 
ATOM     10  O   UNL A   1      31.069  26.271  26.641  1.00  0.00    -0.251 OA
BRANCH   9  11
ATOM     11  C   UNL A   1      32.294  24.631  25.185  1.00  0.00     0.116 C 
ATOM     12  C   UNL A   1      30.736  22.504  26.024  1.00  0.00     0.010 C 
ATOM     13  C   UNL A   1      31.182  23.516  24.988  1.00  0.00     0.013 C 
ATOM     14  C   UNL A   1      31.950  22.985  23.769  1.00  0.00     0.007 C 
ATOM     15  C   UNL A   1      32.722  24.312  23.713  1.00  0.00     0.030 C 
BRANCH  11  16
ATOM     16  S   UNL A   1      33.630  24.125  26.381  1.00  0.00    -0.140 SA
BRANCH  16  17
ATOM     17  C   UNL A   1      34.665  22.954  25.389  1.00  0.00     0.048 C 
ATOM     18  C   UNL A   1      36.070  23.518  25.159  1.00  0.00     0.014 C 
ATOM     19  C   UNL A   1      34.752  21.492  25.846  1.00  0.00     0.014 C 
ATOM     20  C   UNL A   1      36.861  22.650  24.182  1.00  0.00     0.001 C 
ATOM     21  C   UNL A   1      35.567  20.616  24.900  1.00  0.00     0.001 C 
ATOM     22  C   UNL A   1      36.955  21.209  24.678  1.00  0.00     0.000 C 
ENDBRANCH  16  17
ENDBRANCH  11  16
ENDBRANCH   9  11
ENDBRANCH   8   9
ENDBRANCH   7   8
ENDBRANCH   6   7
ENDBRANCH   5   6
ENDBRANCH   4   5
ENDBRANCH   3   4
ENDBRANCH   2   3
ENDBRANCH   1   2
BRANCH   1  23
ATOM     23  C   UNL A   1      35.758  32.997  28.452  1.00  0.00     0.188 C 
BRANCH  23  24
ATOM     24  O   UNL A   1      34.978  33.855  27.640  1.00  0.00    -0.376 OA
BRANCH  24  25
ATOM     25  C   UNL A   1      34.571  35.138  28.082  1.00  0.00     0.202 C 
BRANCH  25  26
ATOM     26  C   UNL A   1      33.345  35.434  28.969  1.00  0.00     0.261 C 
BRANCH  26  27
ATOM     27  O   UNL A   1      33.038  34.548  30.044  1.00  0.00    -0.460 OA
BRANCH  27  28
ATOM     28  C   UNL A   1      33.132  35.037  31.300  1.00  0.00     0.338 C 
ATOM     29  O   UNL A   1      32.308  35.698  31.887  1.00  0.00    -0.246 OA
BRANCH  28  30
ATOM     30  C   UNL A   1      34.335  34.411  31.899  1.00  0.00     0.060 A 
ATOM     31  C   UNL A   1      35.480  35.199  32.074  1.00  0.00     0.016 A 
ATOM     32  C   UNL A   1      34.312  33.085  32.342  1.00  0.00     0.016 A 
ATOM     33  C   UNL A   1      36.609  34.662  32.681  1.00  0.00     0.010 A 
ATOM     34  C   UNL A   1      35.462  32.532  32.910  1.00  0.00     0.010 A 
ATOM     35  C   UNL A   1      36.622  33.312  33.053  1.00  0.00    -0.014 A 
BRANCH  35  36
ATOM     36  C   UNL A   1      37.923  32.688  33.373  1.00  0.00     0.031 A 
ATOM     37  C   UNL A   1      38.517  32.957  34.725  1.00  0.00     0.074 A 
ATOM     38  C   UNL A   1      38.523  31.849  32.512  1.00  0.00     0.049 A 
ATOM     39  N   UNL A   1      39.623  32.505  35.255  1.00  0.00    -0.248 NA
ATOM     40  C   UNL A   1      37.755  33.866  35.594  1.00  0.00     0.031 C 
ATOM     41  C   UNL A   1      38.011  31.489  31.191  1.00  0.00     0.029 A 
ATOM     42  N   UNL A   1      39.697  31.151  32.625  1.00  0.00    -0.354 N 
ATOM     43  C   UNL A   1      39.691  33.075  36.522  1.00  0.00     0.074 A 
ATOM     44  C   UNL A   1      38.540  33.942  36.656  1.00  0.00     0.031 C 
ATOM     45  C   UNL A   1      38.876  30.643  30.609  1.00  0.00     0.029 A 
ATOM     46  C   UNL A   1      40.016  30.430  31.500  1.00  0.00     0.049 A 
ATOM     47  H   UNL A   1      40.258  31.165  33.434  1.00  0.00     0.167 HD
ATOM     48  C   UNL A   1      40.625  32.884  37.485  1.00  0.00     0.034 A 
ATOM     49  C   UNL A   1      41.117  29.707  31.216  1.00  0.00     0.034 A 
ATOM     50  C   UNL A   1      41.780  32.038  37.312  1.00  0.00     0.049 A 
ATOM     51  C   UNL A   1      42.191  29.572  32.267  1.00  0.00     0.074 A 
ATOM     52  C   UNL A   1      42.783  31.750  38.220  1.00  0.00     0.029 A 
ATOM     53  N   UNL A   1      42.106  31.365  36.138  1.00  0.00    -0.354 N 
ATOM     54  N   UNL A   1      42.235  30.086  33.476  1.00  0.00    -0.248 NA
ATOM     55  C   UNL A   1      43.354  28.749  31.919  1.00  0.00     0.031 C 
ATOM     56  C   UNL A   1      43.758  30.986  37.568  1.00  0.00     0.029 A 
ATOM     57  C   UNL A   1      43.320  30.707  36.282  1.00  0.00     0.049 A 
ATOM     58  H   UNL A   1      41.555  31.357  35.323  1.00  0.00     0.167 HD
ATOM     59  C   UNL A   1      43.427  29.635  34.040  1.00  0.00     0.074 A 
ATOM     60  C   UNL A   1      44.052  28.786  33.044  1.00  0.00     0.031 C 
ATOM     61  C   UNL A   1      43.954  29.894  35.266  1.00  0.00     0.034 A 
BRANCH  48  62
ATOM     62  C   UNL A   1      40.459  33.671  38.766  1.00  0.00     0.023 A 
ATOM     63  C   UNL A   1      39.621  33.231  39.808  1.00  0.00     0.031 A 
ATOM     64  C   UNL A   1      41.080  34.924  38.912  1.00  0.00     0.131 A 
ATOM     65  C   UNL A   1      39.346  34.079  40.892  1.00  0.00     0.055 A 
ATOM     66  C   UNL A   1      40.881  35.719  40.043  1.00  0.00     0.041 A 
ATOM     67  F   UNL A   1      41.867  35.414  37.942  1.00  0.00    -0.206 F 
ATOM     68  C   UNL A   1      39.992  35.309  41.030  1.00  0.00     0.022 A 
BRANCH  65  69
ATOM     69  S   UNL A   1      37.981  33.643  42.007  1.00  0.00     0.124 S 
ATOM     70  O   UNL A   1      37.121  34.820  41.896  1.00  0.00    -0.237 OA
ATOM     71  O   UNL A   1      37.465  32.417  41.408  1.00  0.00    -0.237 OA
ATOM     72  O   UNL A   1      38.636  33.481  43.303  1.00  0.00    -0.744 OA
ENDBRANCH  65  69
ENDBRANCH  48  62
BRANCH  49  73
ATOM     73  C   UNL A   1      41.276  29.102  29.864  1.00  0.00     0.023 A 
ATOM     74  C   UNL A   1      40.796  27.818  29.565  1.00  0.00     0.031 A 
ATOM     75  C   UNL A   1      41.925  29.818  28.840  1.00  0.00     0.131 A 
ATOM     76  C   UNL A   1      40.991  27.281  28.282  1.00  0.00     0.055 A 
ATOM     77  C   UNL A   1      42.072  29.301  27.553  1.00  0.00     0.041 A 
ATOM     78  F   UNL A   1      42.404  31.051  29.073  1.00  0.00    -0.206 F 
ATOM     79  C   UNL A   1      41.610  28.021  27.270  1.00  0.00     0.022 A 
BRANCH  76  80
ATOM     80  S   UNL A   1      40.463  25.576  27.957  1.00  0.00     0.124 S 
ATOM     81  O   UNL A   1      41.618  24.814  28.414  1.00  0.00    -0.237 OA
ATOM     82  O   UNL A   1      39.259  25.471  28.777  1.00  0.00    -0.237 OA
ATOM     83  O   UNL A   1      40.232  25.560  26.514  1.00  0.00    -0.744 OA
ENDBRANCH  76  80
ENDBRANCH  49  73
BRANCH  61  84
ATOM     84  C   UNL A   1      45.272  29.229  35.598  1.00  0.00     0.023 A 
ATOM     85  C   UNL A   1      46.503  29.805  35.235  1.00  0.00     0.031 A 
ATOM     86  C   UNL A   1      45.298  27.986  36.256  1.00  0.00     0.131 A 
ATOM     87  C   UNL A   1      47.698  29.103  35.456  1.00  0.00     0.055 A 
ATOM     88  C   UNL A   1      46.496  27.331  36.549  1.00  0.00     0.041 A 
ATOM     89  F   UNL A   1      44.157  27.381  36.624  1.00  0.00    -0.206 F 
ATOM     90  C   UNL A   1      47.704  27.880  36.130  1.00  0.00     0.022 A 
BRANCH  87  91
ATOM     91  S   UNL A   1      49.228  29.740  34.721  1.00  0.00     0.124 S 
ATOM     92  O   UNL A   1      48.740  30.881  33.952  1.00  0.00    -0.237 OA
ATOM     93  O   UNL A   1      50.031  30.059  35.898  1.00  0.00    -0.237 OA
ATOM     94  O   UNL A   1      49.718  28.618  33.921  1.00  0.00    -0.744 OA
ENDBRANCH  87  91
ENDBRANCH  61  84
ENDBRANCH  35  36
ENDBRANCH  28  30
ENDBRANCH  27  28
ENDBRANCH  26  27
ENDBRANCH  25  26
ENDBRANCH  24  25
ENDBRANCH  23  24
ENDBRANCH   1  23
TORSDOF 25
ENDMDL
MODEL 3
REMARK VINA RESULT:      -8.4      2.232      2.698
REMARK SMILES C[C@@H]1CC[C@@]1(SC1CCCCC1)C(=O)OCCOCCOCCOCCOC(=O)c1ccc(-c2c3nc(c(-c4cc(S(=O)(=O)[O-])ccc4F)c4ccc([nH]4)c(-c4cc(S(=O)(=O)[O-])ccc4F)c4nc(c(-c5cc(S(=O)(=O)[O-])ccc5F)c5ccc2[nH]5)C=C4)C=C3)cc1
REMARK SMILES IDX 22 1 21 2 20 3 19 4 18 5 17 6 16 7 15 8 13 9 14 10 5 11 1 12
REMARK SMILES IDX 2 13 3 14 4 15 6 16 7 17 8 18 12 19 9 20 11 21 10 22 23 23
REMARK SMILES IDX 24 24 25 25 26 26 27 27 28 28 29 29 30 30 31 31 92 32 32 33
REMARK SMILES IDX 91 34 33 35 34 36 35 37 85 38 36 39 90 40 84 41 86 42 37 43
REMARK SMILES IDX 89 44 83 45 82 46 38 48 70 49 50 50 69 51 51 52 54 53 68 54
REMARK SMILES IDX 87 55 52 56 53 57 67 59 88 60 55 61 39 62 40 63 48 64 41 65
REMARK SMILES IDX 47 66 49 67 46 68 42 69 43 70 44 71 45 72 71 73 72 74 80 75
REMARK SMILES IDX 73 76 79 77 81 78 78 79 74 80 75 81 76 82 77 83 56 84 57 85
REMARK SMILES IDX 65 86 58 87 64 88 66 89 63 90 59 91 60 92 61 93 62 94
REMARK H PARENT 86 47 54 58
REMARK Flexibility Score: inf
ROOT
ATOM      1  C   UNL A   1      35.124  31.784  28.950  1.00  0.00     0.188 C 
ENDROOT
BRANCH   1   2
ATOM      2  O   UNL A   1      35.393  30.797  27.972  1.00  0.00    -0.377 OA
BRANCH   2   3
ATOM      3  C   UNL A   1      34.286  30.248  27.274  1.00  0.00     0.188 C 
BRANCH   3   4
ATOM      4  C   UNL A   1      32.864  30.866  27.336  1.00  0.00     0.188 C 
BRANCH   4   5
ATOM      5  O   UNL A   1      31.912  30.241  26.490  1.00  0.00    -0.376 OA
BRANCH   5   6
ATOM      6  C   UNL A   1      32.195  28.973  25.929  1.00  0.00     0.202 C 
BRANCH   6   7
ATOM      7  C   UNL A   1      31.758  27.728  26.706  1.00  0.00     0.261 C 
BRANCH   7   8
ATOM      8  O   UNL A   1      32.456  26.505  26.414  1.00  0.00    -0.462 OA
BRANCH   8   9
ATOM      9  C   UNL A   1      31.758  25.449  25.902  1.00  0.00     0.322 C 
ATOM     10  O   UNL A   1      30.868  24.884  26.536  1.00  0.00    -0.251 OA
BRANCH   9  11
ATOM     11  C   UNL A   1      32.242  25.074  24.441  1.00  0.00     0.116 C 
ATOM     12  C   UNL A   1      31.229  26.776  22.509  1.00  0.00     0.010 C 
ATOM     13  C   UNL A   1      32.311  26.328  23.470  1.00  0.00     0.013 C 
ATOM     14  C   UNL A   1      33.606  25.770  22.864  1.00  0.00     0.007 C 
ATOM     15  C   UNL A   1      33.751  24.854  24.088  1.00  0.00     0.030 C 
BRANCH  11  16
ATOM     16  S   UNL A   1      31.200  23.685  23.764  1.00  0.00    -0.140 SA
BRANCH  16  17
ATOM     17  C   UNL A   1      31.972  22.177  24.509  1.00  0.00     0.048 C 
ATOM     18  C   UNL A   1      32.351  21.159  23.429  1.00  0.00     0.014 C 
ATOM     19  C   UNL A   1      33.138  22.362  25.490  1.00  0.00     0.014 C 
ATOM     20  C   UNL A   1      32.806  19.839  24.048  1.00  0.00     0.001 C 
ATOM     21  C   UNL A   1      33.629  21.050  26.093  1.00  0.00     0.001 C 
ATOM     22  C   UNL A   1      33.984  20.053  24.995  1.00  0.00     0.000 C 
ENDBRANCH  16  17
ENDBRANCH  11  16
ENDBRANCH   9  11
ENDBRANCH   8   9
ENDBRANCH   7   8
ENDBRANCH   6   7
ENDBRANCH   5   6
ENDBRANCH   4   5
ENDBRANCH   3   4
ENDBRANCH   2   3
ENDBRANCH   1   2
BRANCH   1  23
ATOM     23  C   UNL A   1      35.669  33.169  28.557  1.00  0.00     0.188 C 
BRANCH  23  24
ATOM     24  O   UNL A   1      34.915  33.827  27.556  1.00  0.00    -0.376 OA
BRANCH  24  25
ATOM     25  C   UNL A   1      34.407  35.137  27.741  1.00  0.00     0.202 C 
BRANCH  25  26
ATOM     26  C   UNL A   1      33.711  35.656  29.016  1.00  0.00     0.261 C 
BRANCH  26  27
ATOM     27  O   UNL A   1      33.155  34.716  29.933  1.00  0.00    -0.460 OA
BRANCH  27  28
ATOM     28  C   UNL A   1      33.176  35.040  31.245  1.00  0.00     0.338 C 
ATOM     29  O   UNL A   1      32.306  35.602  31.868  1.00  0.00    -0.246 OA
BRANCH  28  30
ATOM     30  C   UNL A   1      34.364  34.365  31.819  1.00  0.00     0.060 A 
ATOM     31  C   UNL A   1      35.588  35.046  31.806  1.00  0.00     0.016 A 
ATOM     32  C   UNL A   1      34.258  33.107  32.422  1.00  0.00     0.016 A 
ATOM     33  C   UNL A   1      36.712  34.467  32.384  1.00  0.00     0.010 A 
ATOM     34  C   UNL A   1      35.397  32.507  32.961  1.00  0.00     0.010 A 
ATOM     35  C   UNL A   1      36.633  33.175  32.916  1.00  0.00    -0.014 A 
BRANCH  35  36
ATOM     36  C   UNL A   1      37.894  32.459  33.206  1.00  0.00     0.031 A 
ATOM     37  C   UNL A   1      38.580  32.748  34.510  1.00  0.00     0.074 A 
ATOM     38  C   UNL A   1      38.376  31.529  32.366  1.00  0.00     0.049 A 
ATOM     39  N   UNL A   1      39.672  32.232  35.009  1.00  0.00    -0.248 NA
ATOM     40  C   UNL A   1      37.943  33.763  35.362  1.00  0.00     0.031 C 
ATOM     41  C   UNL A   1      37.765  31.144  31.095  1.00  0.00     0.029 A 
ATOM     42  N   UNL A   1      39.493  30.740  32.460  1.00  0.00    -0.354 N 
ATOM     43  C   UNL A   1      39.855  32.861  36.237  1.00  0.00     0.074 A 
ATOM     44  C   UNL A   1      38.788  33.829  36.377  1.00  0.00     0.031 C 
ATOM     45  C   UNL A   1      38.526  30.198  30.520  1.00  0.00     0.029 A 
ATOM     46  C   UNL A   1      39.691  29.937  31.364  1.00  0.00     0.049 A 
ATOM     47  H   UNL A   1      40.096  30.750  33.239  1.00  0.00     0.167 HD
ATOM     48  C   UNL A   1      40.820  32.643  37.162  1.00  0.00     0.034 A 
ATOM     49  C   UNL A   1      40.711  29.108  31.069  1.00  0.00     0.034 A 
ATOM     50  C   UNL A   1      41.892  31.694  36.981  1.00  0.00     0.049 A 
ATOM     51  C   UNL A   1      41.826  28.939  32.071  1.00  0.00     0.074 A 
ATOM     52  C   UNL A   1      42.915  31.370  37.853  1.00  0.00     0.029 A 
ATOM     53  N   UNL A   1      42.097  30.934  35.833  1.00  0.00    -0.354 N 
ATOM     54  N   UNL A   1      41.978  29.510  33.245  1.00  0.00    -0.248 NA
ATOM     55  C   UNL A   1      42.897  28.003  31.713  1.00  0.00     0.031 C 
ATOM     56  C   UNL A   1      43.788  30.492  37.199  1.00  0.00     0.029 A 
ATOM     57  C   UNL A   1      43.259  30.184  35.954  1.00  0.00     0.049 A 
ATOM     58  H   UNL A   1      41.504  30.929  35.048  1.00  0.00     0.167 HD
ATOM     59  C   UNL A   1      43.157  28.990  33.774  1.00  0.00     0.074 A 
ATOM     60  C   UNL A   1      43.655  28.039  32.799  1.00  0.00     0.031 C 
ATOM     61  C   UNL A   1      43.769  29.268  34.956  1.00  0.00     0.034 A 
BRANCH  48  62
ATOM     62  C   UNL A   1      40.789  33.507  38.403  1.00  0.00     0.023 A 
ATOM     63  C   UNL A   1      39.852  33.300  39.432  1.00  0.00     0.031 A 
ATOM     64  C   UNL A   1      41.653  34.611  38.518  1.00  0.00     0.131 A 
ATOM     65  C   UNL A   1      39.732  34.238  40.470  1.00  0.00     0.055 A 
ATOM     66  C   UNL A   1      41.595  35.484  39.606  1.00  0.00     0.041 A 
ATOM     67  F   UNL A   1      42.549  34.881  37.555  1.00  0.00    -0.206 F 
ATOM     68  C   UNL A   1      40.615  35.313  40.579  1.00  0.00     0.022 A 
BRANCH  65  69
ATOM     69  S   UNL A   1      38.278  34.146  41.554  1.00  0.00     0.124 S 
ATOM     70  O   UNL A   1      37.843  35.541  41.583  1.00  0.00    -0.237 OA
ATOM     71  O   UNL A   1      37.409  33.221  40.837  1.00  0.00    -0.237 OA
ATOM     72  O   UNL A   1      38.822  33.646  42.815  1.00  0.00    -0.744 OA
ENDBRANCH  65  69
ENDBRANCH  48  62
BRANCH  49  73
ATOM     73  C   UNL A   1      40.747  28.422  29.747  1.00  0.00     0.023 A 
ATOM     74  C   UNL A   1      41.640  28.807  28.735  1.00  0.00     0.031 A 
ATOM     75  C   UNL A   1      39.866  27.356  29.478  1.00  0.00     0.131 A 
ATOM     76  C   UNL A   1      41.619  28.144  27.497  1.00  0.00     0.055 A 
ATOM     77  C   UNL A   1      39.883  26.669  28.265  1.00  0.00     0.041 A 
ATOM     78  F   UNL A   1      38.990  26.950  30.411  1.00  0.00    -0.206 F 
ATOM     79  C   UNL A   1      40.759  27.068  27.262  1.00  0.00     0.022 A 
BRANCH  76  80
ATOM     80  S   UNL A   1      42.705  28.737  26.170  1.00  0.00     0.124 S 
ATOM     81  O   UNL A   1      43.863  27.865  26.320  1.00  0.00    -0.237 OA
ATOM     82  O   UNL A   1      41.883  28.516  24.984  1.00  0.00    -0.237 OA
ATOM     83  O   UNL A   1      42.930  30.140  26.514  1.00  0.00    -0.744 OA
ENDBRANCH  76  80
ENDBRANCH  49  73
BRANCH  61  84
ATOM     84  C   UNL A   1      45.043  28.512  35.260  1.00  0.00     0.023 A 
ATOM     85  C   UNL A   1      45.026  27.263  35.909  1.00  0.00     0.031 A 
ATOM     86  C   UNL A   1      46.295  29.061  34.929  1.00  0.00     0.131 A 
ATOM     87  C   UNL A   1      46.232  26.648  36.278  1.00  0.00     0.055 A 
ATOM     88  C   UNL A   1      47.491  28.403  35.225  1.00  0.00     0.041 A 
ATOM     89  F   UNL A   1      46.381  30.252  34.315  1.00  0.00    -0.206 F 
ATOM     90  C   UNL A   1      47.464  27.199  35.921  1.00  0.00     0.022 A 
BRANCH  87  91
ATOM     91  S   UNL A   1      46.168  25.193  37.359  1.00  0.00     0.124 S 
ATOM     92  O   UNL A   1      45.940  24.116  36.401  1.00  0.00    -0.237 OA
ATOM     93  O   UNL A   1      47.484  25.217  37.992  1.00  0.00    -0.237 OA
ATOM     94  O   UNL A   1      45.046  25.478  38.252  1.00  0.00    -0.744 OA
ENDBRANCH  87  91
ENDBRANCH  61  84
ENDBRANCH  35  36
ENDBRANCH  28  30
ENDBRANCH  27  28
ENDBRANCH  26  27
ENDBRANCH  25  26
ENDBRANCH  24  25
ENDBRANCH  23  24
ENDBRANCH   1  23
TORSDOF 25
ENDMDL
