MODEL 1
REMARK VINA RESULT:      -9.5      0.000      0.000
REMARK SMILES O=C(OCCOCCOCCOCCOC(=O)c1cccnc1N1CC[NH2+]CC1)c1ccc(-c2c3nc(c(-c4cc(S(=O)(=O)[O-])ccc4F)c4ccc([nH]4)c(-c4cc(S(=O)(=O)[O-])ccc4F)c4nc(c(-c5cc(S(=O)(=O)[O-])ccc5F)c5ccc2[nH]5)C=C4)C=C3)cc1
REMARK SMILES IDX 8 1 7 2 6 3 5 4 4 5 3 6 2 7 1 8 30 9 31 10 92 11 32 12 91 13
REMARK SMILES IDX 33 14 34 15 35 16 85 17 36 18 90 19 84 20 86 21 37 22 89 23
REMARK SMILES IDX 83 24 82 25 38 27 70 28 50 29 69 30 51 31 54 32 68 33 87 34
REMARK SMILES IDX 52 35 53 36 67 38 88 39 55 40 39 41 40 42 48 43 41 44 47 45
REMARK SMILES IDX 49 46 46 47 42 48 43 49 44 50 45 51 71 52 72 53 80 54 73 55
REMARK SMILES IDX 79 56 81 57 78 58 74 59 75 60 76 61 77 62 56 63 57 64 65 65
REMARK SMILES IDX 58 66 64 67 66 68 63 69 59 70 60 71 61 72 62 73 9 74 10 75
REMARK SMILES IDX 11 76 12 77 13 78 14 79 15 80 16 81 17 82 18 83 19 84 23 85
REMARK SMILES IDX 20 86 22 87 21 88 24 89 25 90 29 91 26 92 28 93 27 94
REMARK H PARENT 86 26 54 37 27 95 27 96
REMARK Flexibility Score: inf
ROOT
ATOM      1  C   UNL A   1      32.247  28.251  24.955  1.00  0.00     0.188 C 
ENDROOT
BRANCH   1   2
ATOM      2  C   UNL A   1      32.702  29.710  24.939  1.00  0.00     0.188 C 
BRANCH   2   3
ATOM      3  O   UNL A   1      33.002  30.177  26.258  1.00  0.00    -0.376 OA
BRANCH   3   4
ATOM      4  C   UNL A   1      31.874  30.586  27.028  1.00  0.00     0.202 C 
BRANCH   4   5
ATOM      5  C   UNL A   1      31.483  32.042  26.776  1.00  0.00     0.261 C 
BRANCH   5   6
ATOM      6  O   UNL A   1      32.640  32.888  26.821  1.00  0.00    -0.460 OA
BRANCH   6   7
ATOM      7  C   UNL A   1      33.273  33.369  27.917  1.00  0.00     0.338 C 
ATOM      8  O   UNL A   1      32.790  34.361  28.467  1.00  0.00    -0.246 OA
BRANCH   7   9
ATOM      9  C   UNL A   1      34.484  32.746  28.545  1.00  0.00     0.060 A 
ATOM     10  C   UNL A   1      34.544  31.522  29.224  1.00  0.00     0.016 A 
ATOM     11  C   UNL A   1      35.687  33.449  28.361  1.00  0.00     0.016 A 
ATOM     12  C   UNL A   1      35.741  31.049  29.771  1.00  0.00     0.010 A 
ATOM     13  C   UNL A   1      36.891  32.971  28.877  1.00  0.00     0.010 A 
ATOM     14  C   UNL A   1      36.917  31.779  29.611  1.00  0.00    -0.014 A 
BRANCH  14  15
ATOM     15  C   UNL A   1      38.158  31.374  30.302  1.00  0.00     0.031 A 
ATOM     16  C   UNL A   1      39.025  30.347  29.639  1.00  0.00     0.074 A 
ATOM     17  C   UNL A   1      38.475  31.898  31.499  1.00  0.00     0.049 A 
ATOM     18  N   UNL A   1      40.035  29.675  30.120  1.00  0.00    -0.248 NA
ATOM     19  C   UNL A   1      38.698  30.027  28.239  1.00  0.00     0.031 C 
ATOM     20  C   UNL A   1      37.735  32.965  32.174  1.00  0.00     0.029 A 
ATOM     21  N   UNL A   1      39.489  31.592  32.369  1.00  0.00    -0.354 N 
ATOM     22  C   UNL A   1      40.439  28.824  29.097  1.00  0.00     0.074 A 
ATOM     23  C   UNL A   1      39.568  29.067  27.969  1.00  0.00     0.031 C 
ATOM     24  C   UNL A   1      38.305  33.205  33.368  1.00  0.00     0.029 A 
ATOM     25  C   UNL A   1      39.403  32.263  33.568  1.00  0.00     0.049 A 
ATOM     26  H   UNL A   1      40.207  30.953  32.158  1.00  0.00     0.167 HD
ATOM     27  C   UNL A   1      41.440  27.911  29.116  1.00  0.00     0.034 A 
ATOM     28  C   UNL A   1      40.096  32.086  34.712  1.00  0.00     0.034 A 
ATOM     29  C   UNL A   1      42.280  27.696  30.267  1.00  0.00     0.049 A 
ATOM     30  C   UNL A   1      41.147  30.998  34.738  1.00  0.00     0.074 A 
ATOM     31  C   UNL A   1      43.328  26.808  30.420  1.00  0.00     0.029 A 
ATOM     32  N   UNL A   1      42.152  28.378  31.473  1.00  0.00    -0.354 N 
ATOM     33  N   UNL A   1      41.520  30.186  33.773  1.00  0.00    -0.248 NA
ATOM     34  C   UNL A   1      41.859  30.791  36.005  1.00  0.00     0.031 C 
ATOM     35  C   UNL A   1      43.787  26.904  31.739  1.00  0.00     0.029 A 
ATOM     36  C   UNL A   1      43.072  27.899  32.389  1.00  0.00     0.049 A 
ATOM     37  H   UNL A   1      41.500  29.094  31.649  1.00  0.00     0.167 HD
ATOM     38  C   UNL A   1      42.520  29.383  34.315  1.00  0.00     0.074 A 
ATOM     39  C   UNL A   1      42.707  29.824  35.682  1.00  0.00     0.031 C 
ATOM     40  C   UNL A   1      43.219  28.368  33.746  1.00  0.00     0.034 A 
BRANCH  27  41
ATOM     41  C   UNL A   1      41.599  27.031  27.903  1.00  0.00     0.023 A 
ATOM     42  C   UNL A   1      41.167  25.694  27.884  1.00  0.00     0.031 A 
ATOM     43  C   UNL A   1      42.249  27.531  26.759  1.00  0.00     0.131 A 
ATOM     44  C   UNL A   1      41.449  24.885  26.771  1.00  0.00     0.055 A 
ATOM     45  C   UNL A   1      42.462  26.741  25.628  1.00  0.00     0.041 A 
ATOM     46  F   UNL A   1      42.709  28.793  26.732  1.00  0.00    -0.206 F 
ATOM     47  C   UNL A   1      42.074  25.406  25.635  1.00  0.00     0.022 A 
BRANCH  44  48
ATOM     48  S   UNL A   1      41.104  23.106  26.877  1.00  0.00     0.124 S 
ATOM     49  O   UNL A   1      41.855  22.591  25.734  1.00  0.00    -0.237 OA
ATOM     50  O   UNL A   1      41.628  22.759  28.192  1.00  0.00    -0.237 OA
ATOM     51  O   UNL A   1      39.651  23.029  26.743  1.00  0.00    -0.744 OA
ENDBRANCH  44  48
ENDBRANCH  27  41
BRANCH  28  52
ATOM     52  C   UNL A   1      39.766  32.865  35.943  1.00  0.00     0.023 A 
ATOM     53  C   UNL A   1      39.046  32.290  37.002  1.00  0.00     0.031 A 
ATOM     54  C   UNL A   1      40.104  34.229  36.049  1.00  0.00     0.131 A 
ATOM     55  C   UNL A   1      38.645  33.081  38.093  1.00  0.00     0.055 A 
ATOM     56  C   UNL A   1      39.757  34.996  37.163  1.00  0.00     0.041 A 
ATOM     57  F   UNL A   1      40.780  34.841  35.064  1.00  0.00    -0.206 F 
ATOM     58  C   UNL A   1      39.009  34.426  38.188  1.00  0.00     0.022 A 
BRANCH  55  59
ATOM     59  S   UNL A   1      37.537  32.357  39.335  1.00  0.00     0.124 S 
ATOM     60  O   UNL A   1      36.961  33.547  39.950  1.00  0.00    -0.237 OA
ATOM     61  O   UNL A   1      36.636  31.561  38.509  1.00  0.00    -0.237 OA
ATOM     62  O   UNL A   1      38.439  31.588  40.189  1.00  0.00    -0.744 OA
ENDBRANCH  55  59
ENDBRANCH  28  52
BRANCH  40  63
ATOM     63  C   UNL A   1      44.263  27.699  34.602  1.00  0.00     0.023 A 
ATOM     64  C   UNL A   1      45.575  28.197  34.678  1.00  0.00     0.031 A 
ATOM     65  C   UNL A   1      43.933  26.564  35.363  1.00  0.00     0.131 A 
ATOM     66  C   UNL A   1      46.522  27.537  35.473  1.00  0.00     0.055 A 
ATOM     67  C   UNL A   1      44.865  25.945  36.192  1.00  0.00     0.041 A 
ATOM     68  F   UNL A   1      42.691  26.052  35.322  1.00  0.00    -0.206 F 
ATOM     69  C   UNL A   1      46.171  26.426  36.245  1.00  0.00     0.022 A 
BRANCH  66  70
ATOM     70  S   UNL A   1      48.239  28.119  35.444  1.00  0.00     0.124 S 
ATOM     71  O   UNL A   1      48.984  26.872  35.590  1.00  0.00    -0.237 OA
ATOM     72  O   UNL A   1      48.330  28.767  34.140  1.00  0.00    -0.237 OA
ATOM     73  O   UNL A   1      48.312  29.023  36.590  1.00  0.00    -0.744 OA
ENDBRANCH  66  70
ENDBRANCH  40  63
ENDBRANCH  14  15
ENDBRANCH   7   9
ENDBRANCH   6   7
ENDBRANCH   5   6
ENDBRANCH   4   5
ENDBRANCH   3   4
ENDBRANCH   2   3
ENDBRANCH   1   2
BRANCH   1  74
ATOM     74  O   UNL A   1      30.835  28.076  24.910  1.00  0.00    -0.377 OA
BRANCH  74  75
ATOM     75  C   UNL A   1      30.219  28.260  23.634  1.00  0.00     0.188 C 
BRANCH  75  76
ATOM     76  C   UNL A   1      31.112  28.202  22.376  1.00  0.00     0.188 C 
BRANCH  76  77
ATOM     77  O   UNL A   1      30.976  26.983  21.648  1.00  0.00    -0.376 OA
BRANCH  77  78
ATOM     78  C   UNL A   1      31.643  25.862  22.221  1.00  0.00     0.202 C 
BRANCH  78  79
ATOM     79  C   UNL A   1      32.903  25.494  21.441  1.00  0.00     0.261 C 
BRANCH  79  80
ATOM     80  O   UNL A   1      33.915  24.832  22.223  1.00  0.00    -0.460 OA
BRANCH  80  81
ATOM     81  C   UNL A   1      33.750  23.526  22.550  1.00  0.00     0.341 C 
ATOM     82  O   UNL A   1      33.021  22.721  22.001  1.00  0.00    -0.246 OA
BRANCH  81  83
ATOM     83  C   UNL A   1      34.642  23.264  23.702  1.00  0.00     0.102 A 
ATOM     84  C   UNL A   1      35.981  22.938  23.433  1.00  0.00     0.021 A 
ATOM     85  C   UNL A   1      34.176  23.206  25.024  1.00  0.00     0.143 A 
ATOM     86  C   UNL A   1      36.825  22.585  24.474  1.00  0.00     0.021 A 
ATOM     87  N   UNL A   1      35.012  22.866  26.039  1.00  0.00    -0.238 NA
ATOM     88  C   UNL A   1      36.300  22.573  25.750  1.00  0.00     0.113 A 
BRANCH  85  89
ATOM     89  N   UNL A   1      32.838  23.413  25.359  1.00  0.00    -0.345 N 
ATOM     90  C   UNL A   1      32.593  24.695  26.045  1.00  0.00     0.179 C 
ATOM     91  C   UNL A   1      32.167  22.278  26.012  1.00  0.00     0.179 C 
ATOM     92  C   UNL A   1      31.073  24.924  26.242  1.00  0.00     0.282 C 
ATOM     93  C   UNL A   1      30.653  22.559  26.125  1.00  0.00     0.282 C 
ATOM     94  N   UNL A   1      30.362  23.791  26.880  1.00  0.00    -0.343 N 
ATOM     95  H   UNL A   1      29.357  23.969  26.871  1.00  0.00     0.346 HD
ATOM     96  H   UNL A   1      30.672  23.687  27.845  1.00  0.00     0.346 HD
ENDBRANCH  85  89
ENDBRANCH  81  83
ENDBRANCH  80  81
ENDBRANCH  79  80
ENDBRANCH  78  79
ENDBRANCH  77  78
ENDBRANCH  76  77
ENDBRANCH  75  76
ENDBRANCH  74  75
ENDBRANCH   1  74
TORSDOF 24
ENDMDL
MODEL 2
REMARK VINA RESULT:      -9.1      2.436      8.907
REMARK SMILES O=C(OCCOCCOCCOCCOC(=O)c1cccnc1N1CC[NH2+]CC1)c1ccc(-c2c3nc(c(-c4cc(S(=O)(=O)[O-])ccc4F)c4ccc([nH]4)c(-c4cc(S(=O)(=O)[O-])ccc4F)c4nc(c(-c5cc(S(=O)(=O)[O-])ccc5F)c5ccc2[nH]5)C=C4)C=C3)cc1
REMARK SMILES IDX 8 1 7 2 6 3 5 4 4 5 3 6 2 7 1 8 30 9 31 10 92 11 32 12 91 13
REMARK SMILES IDX 33 14 34 15 35 16 85 17 36 18 90 19 84 20 86 21 37 22 89 23
REMARK SMILES IDX 83 24 82 25 38 27 70 28 50 29 69 30 51 31 54 32 68 33 87 34
REMARK SMILES IDX 52 35 53 36 67 38 88 39 55 40 39 41 40 42 48 43 41 44 47 45
REMARK SMILES IDX 49 46 46 47 42 48 43 49 44 50 45 51 71 52 72 53 80 54 73 55
REMARK SMILES IDX 79 56 81 57 78 58 74 59 75 60 76 61 77 62 56 63 57 64 65 65
REMARK SMILES IDX 58 66 64 67 66 68 63 69 59 70 60 71 61 72 62 73 9 74 10 75
REMARK SMILES IDX 11 76 12 77 13 78 14 79 15 80 16 81 17 82 18 83 19 84 23 85
REMARK SMILES IDX 20 86 22 87 21 88 24 89 25 90 29 91 26 92 28 93 27 94
REMARK H PARENT 86 26 54 37 27 95 27 96
REMARK Flexibility Score: inf
ROOT
ATOM      1  C   UNL A   1      40.664  21.013  26.417  1.00  0.00     0.188 C 
ENDROOT
BRANCH   1   2
ATOM      2  C   UNL A   1      41.746  21.439  27.409  1.00  0.00     0.188 C 
BRANCH   2   3
ATOM      3  O   UNL A   1      42.855  22.049  26.741  1.00  0.00    -0.376 OA
BRANCH   3   4
ATOM      4  C   UNL A   1      42.676  22.265  25.343  1.00  0.00     0.202 C 
BRANCH   4   5
ATOM      5  C   UNL A   1      43.975  22.642  24.633  1.00  0.00     0.261 C 
BRANCH   5   6
ATOM      6  O   UNL A   1      44.085  24.066  24.509  1.00  0.00    -0.460 OA
BRANCH   6   7
ATOM      7  C   UNL A   1      44.771  24.918  25.308  1.00  0.00     0.338 C 
ATOM      8  O   UNL A   1      46.001  24.867  25.274  1.00  0.00    -0.246 OA
BRANCH   7   9
ATOM      9  C   UNL A   1      44.140  25.959  26.184  1.00  0.00     0.060 A 
ATOM     10  C   UNL A   1      44.171  27.347  25.996  1.00  0.00     0.016 A 
ATOM     11  C   UNL A   1      43.387  25.463  27.262  1.00  0.00     0.016 A 
ATOM     12  C   UNL A   1      43.543  28.218  26.892  1.00  0.00     0.010 A 
ATOM     13  C   UNL A   1      42.733  26.324  28.143  1.00  0.00     0.010 A 
ATOM     14  C   UNL A   1      42.833  27.710  27.977  1.00  0.00    -0.014 A 
BRANCH  14  15
ATOM     15  C   UNL A   1      42.287  28.610  29.013  1.00  0.00     0.031 A 
ATOM     16  C   UNL A   1      43.090  28.810  30.262  1.00  0.00     0.074 A 
ATOM     17  C   UNL A   1      41.093  29.205  28.839  1.00  0.00     0.049 A 
ATOM     18  N   UNL A   1      42.748  29.367  31.391  1.00  0.00    -0.248 NA
ATOM     19  C   UNL A   1      44.472  28.300  30.233  1.00  0.00     0.031 C 
ATOM     20  C   UNL A   1      40.286  29.135  27.621  1.00  0.00     0.029 A 
ATOM     21  N   UNL A   1      40.341  29.968  29.695  1.00  0.00    -0.354 N 
ATOM     22  C   UNL A   1      43.856  29.238  32.223  1.00  0.00     0.074 A 
ATOM     23  C   UNL A   1      44.881  28.555  31.466  1.00  0.00     0.031 C 
ATOM     24  C   UNL A   1      39.137  29.805  27.818  1.00  0.00     0.029 A 
ATOM     25  C   UNL A   1      39.099  30.288  29.195  1.00  0.00     0.049 A 
ATOM     26  H   UNL A   1      40.658  30.255  30.582  1.00  0.00     0.167 HD
ATOM     27  C   UNL A   1      43.986  29.643  33.509  1.00  0.00     0.034 A 
ATOM     28  C   UNL A   1      38.037  30.852  29.808  1.00  0.00     0.034 A 
ATOM     29  C   UNL A   1      42.934  30.315  34.227  1.00  0.00     0.049 A 
ATOM     30  C   UNL A   1      38.177  31.213  31.270  1.00  0.00     0.074 A 
ATOM     31  C   UNL A   1      42.935  30.780  35.529  1.00  0.00     0.029 A 
ATOM     32  N   UNL A   1      41.681  30.605  33.698  1.00  0.00    -0.354 N 
ATOM     33  N   UNL A   1      39.222  31.080  32.058  1.00  0.00    -0.248 NA
ATOM     34  C   UNL A   1      36.997  31.783  31.931  1.00  0.00     0.031 C 
ATOM     35  C   UNL A   1      41.660  31.287  35.808  1.00  0.00     0.029 A 
ATOM     36  C   UNL A   1      40.885  31.202  34.660  1.00  0.00     0.049 A 
ATOM     37  H   UNL A   1      41.400  30.412  32.775  1.00  0.00     0.167 HD
ATOM     38  C   UNL A   1      38.826  31.564  33.302  1.00  0.00     0.074 A 
ATOM     39  C   UNL A   1      37.457  32.013  33.153  1.00  0.00     0.031 C 
ATOM     40  C   UNL A   1      39.520  31.629  34.467  1.00  0.00     0.034 A 
BRANCH  27  41
ATOM     41  C   UNL A   1      45.263  29.280  34.223  1.00  0.00     0.023 A 
ATOM     42  C   UNL A   1      45.424  28.056  34.895  1.00  0.00     0.031 A 
ATOM     43  C   UNL A   1      46.321  30.207  34.277  1.00  0.00     0.131 A 
ATOM     44  C   UNL A   1      46.587  27.819  35.646  1.00  0.00     0.055 A 
ATOM     45  C   UNL A   1      47.504  29.935  34.966  1.00  0.00     0.041 A 
ATOM     46  F   UNL A   1      46.210  31.403  33.677  1.00  0.00    -0.206 F 
ATOM     47  C   UNL A   1      47.637  28.742  35.667  1.00  0.00     0.022 A 
BRANCH  44  48
ATOM     48  S   UNL A   1      46.659  26.345  36.702  1.00  0.00     0.124 S 
ATOM     49  O   UNL A   1      45.728  25.448  36.021  1.00  0.00    -0.237 OA
ATOM     50  O   UNL A   1      48.067  25.974  36.633  1.00  0.00    -0.237 OA
ATOM     51  O   UNL A   1      46.205  26.831  38.003  1.00  0.00    -0.744 OA
ENDBRANCH  44  48
ENDBRANCH  27  41
BRANCH  28  52
ATOM     52  C   UNL A   1      36.734  31.018  29.097  1.00  0.00     0.023 A 
ATOM     53  C   UNL A   1      36.162  32.285  28.905  1.00  0.00     0.031 A 
ATOM     54  C   UNL A   1      36.000  29.898  28.660  1.00  0.00     0.131 A 
ATOM     55  C   UNL A   1      34.879  32.401  28.342  1.00  0.00     0.055 A 
ATOM     56  C   UNL A   1      34.752  30.022  28.044  1.00  0.00     0.041 A 
ATOM     57  F   UNL A   1      36.486  28.657  28.826  1.00  0.00    -0.206 F 
ATOM     58  C   UNL A   1      34.177  31.279  27.896  1.00  0.00     0.022 A 
BRANCH  55  59
ATOM     59  S   UNL A   1      34.085  34.033  28.307  1.00  0.00     0.124 S 
ATOM     60  O   UNL A   1      32.745  33.703  27.836  1.00  0.00    -0.237 OA
ATOM     61  O   UNL A   1      34.191  34.451  29.700  1.00  0.00    -0.237 OA
ATOM     62  O   UNL A   1      34.908  34.791  27.367  1.00  0.00    -0.744 OA
ENDBRANCH  55  59
ENDBRANCH  28  52
BRANCH  40  63
ATOM     63  C   UNL A   1      38.809  32.235  35.649  1.00  0.00     0.023 A 
ATOM     64  C   UNL A   1      38.269  31.433  36.668  1.00  0.00     0.031 A 
ATOM     65  C   UNL A   1      38.689  33.631  35.762  1.00  0.00     0.131 A 
ATOM     66  C   UNL A   1      37.600  32.033  37.743  1.00  0.00     0.055 A 
ATOM     67  C   UNL A   1      38.070  34.224  36.861  1.00  0.00     0.041 A 
ATOM     68  F   UNL A   1      39.189  34.439  34.812  1.00  0.00    -0.206 F 
ATOM     69  C   UNL A   1      37.514  33.424  37.856  1.00  0.00     0.022 A 
BRANCH  66  70
ATOM     70  S   UNL A   1      36.795  30.970  38.971  1.00  0.00     0.124 S 
ATOM     71  O   UNL A   1      36.743  29.689  38.274  1.00  0.00    -0.237 OA
ATOM     72  O   UNL A   1      37.714  31.043  40.102  1.00  0.00    -0.237 OA
ATOM     73  O   UNL A   1      35.500  31.614  39.184  1.00  0.00    -0.744 OA
ENDBRANCH  66  70
ENDBRANCH  40  63
ENDBRANCH  14  15
ENDBRANCH   7   9
ENDBRANCH   6   7
ENDBRANCH   5   6
ENDBRANCH   4   5
ENDBRANCH   3   4
ENDBRANCH   2   3
ENDBRANCH   1   2
BRANCH   1  74
ATOM     74  O   UNL A   1      39.419  21.684  26.584  1.00  0.00    -0.377 OA
BRANCH  74  75
ATOM     75  C   UNL A   1      39.478  23.109  26.668  1.00  0.00     0.188 C 
BRANCH  75  76
ATOM     76  C   UNL A   1      38.184  23.911  26.410  1.00  0.00     0.188 C 
BRANCH  76  77
ATOM     77  O   UNL A   1      37.691  23.768  25.080  1.00  0.00    -0.376 OA
BRANCH  77  78
ATOM     78  C   UNL A   1      36.343  23.313  24.985  1.00  0.00     0.202 C 
BRANCH  78  79
ATOM     79  C   UNL A   1      35.904  23.150  23.531  1.00  0.00     0.261 C 
BRANCH  79  80
ATOM     80  O   UNL A   1      34.894  24.085  23.107  1.00  0.00    -0.460 OA
BRANCH  80  81
ATOM     81  C   UNL A   1      33.744  23.615  22.563  1.00  0.00     0.341 C 
ATOM     82  O   UNL A   1      33.529  23.393  21.386  1.00  0.00    -0.246 OA
BRANCH  81  83
ATOM     83  C   UNL A   1      32.799  23.414  23.685  1.00  0.00     0.102 A 
ATOM     84  C   UNL A   1      32.674  22.119  24.213  1.00  0.00     0.021 A 
ATOM     85  C   UNL A   1      31.944  24.427  24.148  1.00  0.00     0.143 A 
ATOM     86  C   UNL A   1      31.729  21.864  25.193  1.00  0.00     0.021 A 
ATOM     87  N   UNL A   1      31.025  24.169  25.115  1.00  0.00    -0.238 NA
ATOM     88  C   UNL A   1      30.941  22.916  25.614  1.00  0.00     0.113 A 
BRANCH  85  89
ATOM     89  N   UNL A   1      31.935  25.709  23.603  1.00  0.00    -0.345 N 
ATOM     90  C   UNL A   1      32.825  26.655  24.301  1.00  0.00     0.179 C 
ATOM     91  C   UNL A   1      30.601  26.272  23.333  1.00  0.00     0.179 C 
ATOM     92  C   UNL A   1      32.880  28.008  23.546  1.00  0.00     0.282 C 
ATOM     93  C   UNL A   1      30.740  27.587  22.535  1.00  0.00     0.282 C 
ATOM     94  N   UNL A   1      31.554  28.593  23.241  1.00  0.00    -0.343 N 
ATOM     95  H   UNL A   1      31.670  29.415  22.649  1.00  0.00     0.346 HD
ATOM     96  H   UNL A   1      31.090  28.868  24.106  1.00  0.00     0.346 HD
ENDBRANCH  85  89
ENDBRANCH  81  83
ENDBRANCH  80  81
ENDBRANCH  79  80
ENDBRANCH  78  79
ENDBRANCH  77  78
ENDBRANCH  76  77
ENDBRANCH  75  76
ENDBRANCH  74  75
ENDBRANCH   1  74
TORSDOF 24
ENDMDL
MODEL 3
REMARK VINA RESULT:      -8.9      5.047      8.581
REMARK SMILES O=C(OCCOCCOCCOCCOC(=O)c1cccnc1N1CC[NH2+]CC1)c1ccc(-c2c3nc(c(-c4cc(S(=O)(=O)[O-])ccc4F)c4ccc([nH]4)c(-c4cc(S(=O)(=O)[O-])ccc4F)c4nc(c(-c5cc(S(=O)(=O)[O-])ccc5F)c5ccc2[nH]5)C=C4)C=C3)cc1
REMARK SMILES IDX 8 1 7 2 6 3 5 4 4 5 3 6 2 7 1 8 30 9 31 10 92 11 32 12 91 13
REMARK SMILES IDX 33 14 34 15 35 16 85 17 36 18 90 19 84 20 86 21 37 22 89 23
REMARK SMILES IDX 83 24 82 25 38 27 70 28 50 29 69 30 51 31 54 32 68 33 87 34
REMARK SMILES IDX 52 35 53 36 67 38 88 39 55 40 39 41 40 42 48 43 41 44 47 45
REMARK SMILES IDX 49 46 46 47 42 48 43 49 44 50 45 51 71 52 72 53 80 54 73 55
REMARK SMILES IDX 79 56 81 57 78 58 74 59 75 60 76 61 77 62 56 63 57 64 65 65
REMARK SMILES IDX 58 66 64 67 66 68 63 69 59 70 60 71 61 72 62 73 9 74 10 75
REMARK SMILES IDX 11 76 12 77 13 78 14 79 15 80 16 81 17 82 18 83 19 84 23 85
REMARK SMILES IDX 20 86 22 87 21 88 24 89 25 90 29 91 26 92 28 93 27 94
REMARK H PARENT 86 26 54 37 27 95 27 96
REMARK Flexibility Score: inf
ROOT
ATOM      1  C   UNL A   1      35.229  21.045  25.027  1.00  0.00     0.188 C 
ENDROOT
BRANCH   1   2
ATOM      2  C   UNL A   1      35.897  22.110  24.158  1.00  0.00     0.188 C 
BRANCH   2   3
ATOM      3  O   UNL A   1      37.323  21.990  24.189  1.00  0.00    -0.376 OA
BRANCH   3   4
ATOM      4  C   UNL A   1      37.820  20.857  24.897  1.00  0.00     0.202 C 
BRANCH   4   5
ATOM      5  C   UNL A   1      38.768  21.241  26.032  1.00  0.00     0.261 C 
BRANCH   5   6
ATOM      6  O   UNL A   1      39.946  20.423  26.002  1.00  0.00    -0.460 OA
BRANCH   6   7
ATOM      7  C   UNL A   1      41.175  20.720  26.487  1.00  0.00     0.338 C 
ATOM      8  O   UNL A   1      42.010  19.814  26.521  1.00  0.00    -0.246 OA
BRANCH   7   9
ATOM      9  C   UNL A   1      41.610  22.086  26.928  1.00  0.00     0.060 A 
ATOM     10  C   UNL A   1      41.870  22.503  28.240  1.00  0.00     0.016 A 
ATOM     11  C   UNL A   1      41.840  23.008  25.893  1.00  0.00     0.016 A 
ATOM     12  C   UNL A   1      42.268  23.814  28.523  1.00  0.00     0.010 A 
ATOM     13  C   UNL A   1      42.266  24.308  26.164  1.00  0.00     0.010 A 
ATOM     14  C   UNL A   1      42.454  24.725  27.487  1.00  0.00    -0.014 A 
BRANCH  14  15
ATOM     15  C   UNL A   1      42.732  26.148  27.771  1.00  0.00     0.031 A 
ATOM     16  C   UNL A   1      44.150  26.621  27.659  1.00  0.00     0.074 A 
ATOM     17  C   UNL A   1      41.739  26.975  28.143  1.00  0.00     0.049 A 
ATOM     18  N   UNL A   1      44.686  27.743  28.053  1.00  0.00    -0.248 NA
ATOM     19  C   UNL A   1      45.096  25.689  27.022  1.00  0.00     0.031 C 
ATOM     20  C   UNL A   1      40.320  26.620  28.193  1.00  0.00     0.029 A 
ATOM     21  N   UNL A   1      41.774  28.278  28.569  1.00  0.00    -0.354 N 
ATOM     22  C   UNL A   1      46.039  27.638  27.750  1.00  0.00     0.074 A 
ATOM     23  C   UNL A   1      46.240  26.345  27.136  1.00  0.00     0.031 C 
ATOM     24  C   UNL A   1      39.622  27.673  28.652  1.00  0.00     0.029 A 
ATOM     25  C   UNL A   1      40.551  28.747  28.993  1.00  0.00     0.049 A 
ATOM     26  H   UNL A   1      42.593  28.823  28.573  1.00  0.00     0.167 HD
ATOM     27  C   UNL A   1      47.020  28.543  27.984  1.00  0.00     0.034 A 
ATOM     28  C   UNL A   1      40.238  29.889  29.640  1.00  0.00     0.034 A 
ATOM     29  C   UNL A   1      46.774  29.819  28.606  1.00  0.00     0.049 A 
ATOM     30  C   UNL A   1      41.365  30.843  29.972  1.00  0.00     0.074 A 
ATOM     31  C   UNL A   1      47.674  30.826  28.899  1.00  0.00     0.029 A 
ATOM     32  N   UNL A   1      45.528  30.254  29.044  1.00  0.00    -0.354 N 
ATOM     33  N   UNL A   1      42.646  30.737  29.695  1.00  0.00    -0.248 NA
ATOM     34  C   UNL A   1      41.011  32.059  30.715  1.00  0.00     0.031 C 
ATOM     35  C   UNL A   1      46.984  31.839  29.576  1.00  0.00     0.029 A 
ATOM     36  C   UNL A   1      45.642  31.495  29.644  1.00  0.00     0.049 A 
ATOM     37  H   UNL A   1      44.688  29.751  28.943  1.00  0.00     0.167 HD
ATOM     38  C   UNL A   1      43.246  31.879  30.217  1.00  0.00     0.074 A 
ATOM     39  C   UNL A   1      42.184  32.671  30.804  1.00  0.00     0.031 C 
ATOM     40  C   UNL A   1      44.553  32.246  30.222  1.00  0.00     0.034 A 
BRANCH  27  41
ATOM     41  C   UNL A   1      48.433  28.133  27.656  1.00  0.00     0.023 A 
ATOM     42  C   UNL A   1      49.024  28.410  26.411  1.00  0.00     0.031 A 
ATOM     43  C   UNL A   1      49.183  27.401  28.594  1.00  0.00     0.131 A 
ATOM     44  C   UNL A   1      50.298  27.900  26.114  1.00  0.00     0.055 A 
ATOM     45  C   UNL A   1      50.477  26.958  28.319  1.00  0.00     0.041 A 
ATOM     46  F   UNL A   1      48.658  27.083  29.789  1.00  0.00    -0.206 F 
ATOM     47  C   UNL A   1      51.038  27.195  27.068  1.00  0.00     0.022 A 
BRANCH  44  48
ATOM     48  S   UNL A   1      50.928  28.058  24.419  1.00  0.00     0.124 S 
ATOM     49  O   UNL A   1      51.476  29.412  24.433  1.00  0.00    -0.237 OA
ATOM     50  O   UNL A   1      51.902  26.977  24.341  1.00  0.00    -0.237 OA
ATOM     51  O   UNL A   1      49.736  27.884  23.592  1.00  0.00    -0.744 OA
ENDBRANCH  44  48
ENDBRANCH  27  41
BRANCH  28  52
ATOM     52  C   UNL A   1      38.843  30.156  30.105  1.00  0.00     0.023 A 
ATOM     53  C   UNL A   1      38.046  31.139  29.499  1.00  0.00     0.031 A 
ATOM     54  C   UNL A   1      38.309  29.478  31.219  1.00  0.00     0.131 A 
ATOM     55  C   UNL A   1      36.785  31.452  30.036  1.00  0.00     0.055 A 
ATOM     56  C   UNL A   1      37.031  29.749  31.710  1.00  0.00     0.041 A 
ATOM     57  F   UNL A   1      39.028  28.536  31.851  1.00  0.00    -0.206 F 
ATOM     58  C   UNL A   1      36.266  30.753  31.128  1.00  0.00     0.022 A 
BRANCH  55  59
ATOM     59  S   UNL A   1      35.876  32.870  29.359  1.00  0.00     0.124 S 
ATOM     60  O   UNL A   1      36.183  32.770  27.937  1.00  0.00    -0.237 OA
ATOM     61  O   UNL A   1      34.503  32.561  29.744  1.00  0.00    -0.237 OA
ATOM     62  O   UNL A   1      36.470  34.015  30.046  1.00  0.00    -0.744 OA
ENDBRANCH  55  59
ENDBRANCH  28  52
BRANCH  40  63
ATOM     63  C   UNL A   1      44.884  33.571  30.858  1.00  0.00     0.023 A 
ATOM     64  C   UNL A   1      44.757  34.776  30.146  1.00  0.00     0.031 A 
ATOM     65  C   UNL A   1      45.311  33.626  32.196  1.00  0.00     0.131 A 
ATOM     66  C   UNL A   1      45.090  35.987  30.768  1.00  0.00     0.055 A 
ATOM     67  C   UNL A   1      45.590  34.839  32.824  1.00  0.00     0.041 A 
ATOM     68  F   UNL A   1      45.448  32.501  32.916  1.00  0.00    -0.206 F 
ATOM     69  C   UNL A   1      45.487  36.028  32.107  1.00  0.00     0.022 A 
BRANCH  66  70
ATOM     70  S   UNL A   1      45.049  37.509  29.785  1.00  0.00     0.124 S 
ATOM     71  O   UNL A   1      45.257  37.003  28.432  1.00  0.00    -0.237 OA
ATOM     72  O   UNL A   1      43.719  38.035  30.071  1.00  0.00    -0.237 OA
ATOM     73  O   UNL A   1      46.155  38.297  30.328  1.00  0.00    -0.744 OA
ENDBRANCH  66  70
ENDBRANCH  40  63
ENDBRANCH  14  15
ENDBRANCH   7   9
ENDBRANCH   6   7
ENDBRANCH   5   6
ENDBRANCH   4   5
ENDBRANCH   3   4
ENDBRANCH   2   3
ENDBRANCH   1   2
BRANCH   1  74
ATOM     74  O   UNL A   1      34.045  20.487  24.466  1.00  0.00    -0.377 OA
BRANCH  74  75
ATOM     75  C   UNL A   1      32.953  20.296  25.366  1.00  0.00     0.188 C 
BRANCH  75  76
ATOM     76  C   UNL A   1      32.328  21.541  26.032  1.00  0.00     0.188 C 
BRANCH  76  77
ATOM     77  O   UNL A   1      31.186  22.036  25.337  1.00  0.00    -0.376 OA
BRANCH  77  78
ATOM     78  C   UNL A   1      30.744  23.327  25.748  1.00  0.00     0.202 C 
BRANCH  78  79
ATOM     79  C   UNL A   1      31.861  24.117  26.427  1.00  0.00     0.261 C 
BRANCH  79  80
ATOM     80  O   UNL A   1      32.077  25.432  25.881  1.00  0.00    -0.460 OA
BRANCH  80  81
ATOM     81  C   UNL A   1      31.133  26.388  26.066  1.00  0.00     0.341 C 
ATOM     82  O   UNL A   1      30.469  26.577  27.068  1.00  0.00    -0.246 OA
BRANCH  81  83
ATOM     83  C   UNL A   1      31.075  27.170  24.810  1.00  0.00     0.102 A 
ATOM     84  C   UNL A   1      30.426  26.591  23.707  1.00  0.00     0.021 A 
ATOM     85  C   UNL A   1      31.743  28.393  24.646  1.00  0.00     0.143 A 
ATOM     86  C   UNL A   1      30.437  27.242  22.484  1.00  0.00     0.021 A 
ATOM     87  N   UNL A   1      31.742  29.027  23.444  1.00  0.00    -0.238 NA
ATOM     88  C   UNL A   1      31.095  28.452  22.406  1.00  0.00     0.113 A 
BRANCH  85  89
ATOM     89  N   UNL A   1      32.496  28.980  25.662  1.00  0.00    -0.345 N 
ATOM     90  C   UNL A   1      32.131  30.383  25.932  1.00  0.00     0.179 C 
ATOM     91  C   UNL A   1      33.950  28.775  25.570  1.00  0.00     0.179 C 
ATOM     92  C   UNL A   1      32.896  30.915  27.171  1.00  0.00     0.282 C 
ATOM     93  C   UNL A   1      34.632  29.281  26.860  1.00  0.00     0.282 C 
ATOM     94  N   UNL A   1      34.362  30.706  27.120  1.00  0.00    -0.343 N 
ATOM     95  H   UNL A   1      34.777  30.976  28.012  1.00  0.00     0.346 HD
ATOM     96  H   UNL A   1      34.767  31.277  26.379  1.00  0.00     0.346 HD
ENDBRANCH  85  89
ENDBRANCH  81  83
ENDBRANCH  80  81
ENDBRANCH  79  80
ENDBRANCH  78  79
ENDBRANCH  77  78
ENDBRANCH  76  77
ENDBRANCH  75  76
ENDBRANCH  74  75
ENDBRANCH   1  74
TORSDOF 24
ENDMDL
