MODEL 1
REMARK VINA RESULT:      -6.5      0.000      0.000
REMARK SMILES O=C(OCCOCCOCCOCCOC(=O)c1ccc(-c2c3nc(c(-c4cc(S(=O)(=O)[O-])ccc4F)c4ccc([nH]4)c(-c4cc(S(=O)(=O)[O-])ccc4F)c4nc(c(-c5cc(S(=O)(=O)[O-])ccc5F)c5ccc2[nH]5)C=C4)C=C3)cc1)c1ccc(NC(=O)[C@@H]2CC=CC[C@H]2C(=O)Nc2cccc([N+](=O)[O-])c2)cc1
REMARK SMILES IDX 8 1 7 2 6 3 5 4 4 5 3 6 2 7 1 8 81 9 82 10 107 11 83 12
REMARK SMILES IDX 106 13 84 14 85 15 86 16 87 18 88 19 89 20 93 21 90 22 92 23
REMARK SMILES IDX 91 24 94 25 95 26 96 27 97 29 98 30 105 31 99 32 101 33
REMARK SMILES IDX 100 34 102 35 103 36 104 37 9 38 10 39 11 40 12 41 13 42
REMARK SMILES IDX 14 43 15 44 16 45 17 46 18 47 19 48 80 49 20 50 79 51 21 52
REMARK SMILES IDX 22 53 23 54 73 55 24 56 78 57 72 58 74 59 25 60 77 61 71 62
REMARK SMILES IDX 70 63 26 65 58 66 38 67 57 68 39 69 42 70 56 71 75 72 40 73
REMARK SMILES IDX 41 74 55 76 76 77 43 78 27 79 28 80 36 81 29 82 35 83 37 84
REMARK SMILES IDX 34 85 30 86 31 87 32 88 33 89 59 90 60 91 68 92 61 93 67 94
REMARK SMILES IDX 69 95 66 96 62 97 63 98 64 99 65 100 44 101 45 102 53 103
REMARK SMILES IDX 46 104 52 105 54 106 51 107 47 108 48 109 49 110 50 111
REMARK H PARENT 85 17 96 28 74 64 42 75
REMARK Flexibility Score: inf
ROOT
ATOM      1  C   UNL A   1      45.124  38.869  31.586  1.00  0.00     0.188 C 
ENDROOT
BRANCH   1   2
ATOM      2  C   UNL A   1      44.126  38.179  30.635  1.00  0.00     0.188 C 
BRANCH   2   3
ATOM      3  O   UNL A   1      43.605  38.890  29.504  1.00  0.00    -0.376 OA
BRANCH   3   4
ATOM      4  C   UNL A   1      43.079  38.071  28.463  1.00  0.00     0.202 C 
BRANCH   4   5
ATOM      5  C   UNL A   1      44.039  37.027  27.881  1.00  0.00     0.261 C 
BRANCH   5   6
ATOM      6  O   UNL A   1      43.595  36.428  26.653  1.00  0.00    -0.460 OA
BRANCH   6   7
ATOM      7  C   UNL A   1      43.579  35.145  26.223  1.00  0.00     0.338 C 
ATOM      8  O   UNL A   1      43.147  34.946  25.085  1.00  0.00    -0.246 OA
BRANCH   7   9
ATOM      9  C   UNL A   1      43.975  33.932  27.022  1.00  0.00     0.060 A 
ATOM     10  C   UNL A   1      43.412  33.474  28.208  1.00  0.00     0.018 A 
ATOM     11  C   UNL A   1      45.019  33.152  26.492  1.00  0.00     0.018 A 
ATOM     12  C   UNL A   1      43.783  32.232  28.770  1.00  0.00     0.027 A 
ATOM     13  C   UNL A   1      45.348  31.896  27.029  1.00  0.00     0.027 A 
ATOM     14  C   UNL A   1      44.637  31.373  28.109  1.00  0.00     0.041 A 
BRANCH  14  15
ATOM     15  N   UNL A   1      44.822  30.010  28.394  1.00  0.00    -0.326 N 
ATOM     16  C   UNL A   1      44.121  28.847  28.251  1.00  0.00     0.228 C 
ATOM     17  H   UNL A   1      45.698  29.849  28.811  1.00  0.00     0.169 HD
ATOM     18  O   UNL A   1      44.721  27.845  28.673  1.00  0.00    -0.274 OA
BRANCH  16  19
ATOM     19  C   UNL A   1      42.702  28.702  27.662  1.00  0.00     0.095 C 
ATOM     20  C   UNL A   1      41.675  28.936  28.804  1.00  0.00     0.041 C 
ATOM     21  C   UNL A   1      42.412  27.389  26.901  1.00  0.00     0.095 C 
ATOM     22  C   UNL A   1      40.261  28.543  28.515  1.00  0.00    -0.030 C 
ATOM     23  C   UNL A   1      40.963  26.835  26.864  1.00  0.00     0.041 C 
ATOM     24  C   UNL A   1      39.944  27.582  27.647  1.00  0.00    -0.030 C 
BRANCH  21  25
ATOM     25  C   UNL A   1      42.924  27.331  25.472  1.00  0.00     0.228 C 
ATOM     26  O   UNL A   1      42.431  28.127  24.658  1.00  0.00    -0.274 OA
ATOM     27  N   UNL A   1      43.945  26.525  25.028  1.00  0.00    -0.326 N 
ATOM     28  H   UNL A   1      44.272  26.804  24.142  1.00  0.00     0.169 HD
BRANCH  27  29
ATOM     29  C   UNL A   1      44.646  25.397  25.515  1.00  0.00     0.048 A 
ATOM     30  C   UNL A   1      45.763  25.608  26.331  1.00  0.00     0.026 A 
ATOM     31  C   UNL A   1      44.387  24.083  25.145  1.00  0.00     0.111 A 
ATOM     32  C   UNL A   1      46.530  24.536  26.822  1.00  0.00     0.009 A 
ATOM     33  C   UNL A   1      45.141  23.002  25.628  1.00  0.00     0.271 A 
ATOM     34  C   UNL A   1      46.214  23.222  26.482  1.00  0.00     0.086 A 
BRANCH  33  35
ATOM     35  N   UNL A   1      44.804  21.642  25.179  1.00  0.00     0.062 N 
ATOM     36  O   UNL A   1      45.634  20.745  25.373  1.00  0.00    -0.258 OA
ATOM     37  O   UNL A   1      43.707  21.473  24.623  1.00  0.00    -0.258 OA
ENDBRANCH  33  35
ENDBRANCH  27  29
ENDBRANCH  21  25
ENDBRANCH  16  19
ENDBRANCH  14  15
ENDBRANCH   7   9
ENDBRANCH   6   7
ENDBRANCH   5   6
ENDBRANCH   4   5
ENDBRANCH   3   4
ENDBRANCH   2   3
ENDBRANCH   1   2
BRANCH   1  38
ATOM     38  O   UNL A   1      44.928  40.177  32.077  1.00  0.00    -0.377 OA
BRANCH  38  39
ATOM     39  C   UNL A   1      43.892  40.394  33.001  1.00  0.00     0.188 C 
BRANCH  39  40
ATOM     40  C   UNL A   1      43.732  39.258  34.023  1.00  0.00     0.188 C 
BRANCH  40  41
ATOM     41  O   UNL A   1      42.627  38.371  34.017  1.00  0.00    -0.376 OA
BRANCH  41  42
ATOM     42  C   UNL A   1      42.675  37.155  34.750  1.00  0.00     0.202 C 
BRANCH  42  43
ATOM     43  C   UNL A   1      41.374  36.497  35.249  1.00  0.00     0.261 C 
BRANCH  43  44
ATOM     44  O   UNL A   1      41.531  35.269  35.975  1.00  0.00    -0.460 OA
BRANCH  44  45
ATOM     45  C   UNL A   1      41.078  34.153  35.352  1.00  0.00     0.338 C 
ATOM     46  O   UNL A   1      39.913  33.800  35.240  1.00  0.00    -0.246 OA
BRANCH  45  47
ATOM     47  C   UNL A   1      42.195  33.549  34.585  1.00  0.00     0.060 A 
ATOM     48  C   UNL A   1      41.955  33.193  33.248  1.00  0.00     0.016 A 
ATOM     49  C   UNL A   1      43.473  33.407  35.130  1.00  0.00     0.016 A 
ATOM     50  C   UNL A   1      42.985  32.692  32.454  1.00  0.00     0.010 A 
ATOM     51  C   UNL A   1      44.497  32.862  34.345  1.00  0.00     0.010 A 
ATOM     52  C   UNL A   1      44.250  32.478  33.014  1.00  0.00    -0.014 A 
BRANCH  52  53
ATOM     53  C   UNL A   1      45.209  31.598  32.301  1.00  0.00     0.031 A 
ATOM     54  C   UNL A   1      46.206  32.266  31.391  1.00  0.00     0.074 A 
ATOM     55  C   UNL A   1      45.234  30.265  32.476  1.00  0.00     0.049 A 
ATOM     56  N   UNL A   1      47.116  31.734  30.617  1.00  0.00    -0.248 NA
ATOM     57  C   UNL A   1      46.164  33.737  31.354  1.00  0.00     0.031 C 
ATOM     58  C   UNL A   1      44.367  29.511  33.378  1.00  0.00     0.029 A 
ATOM     59  N   UNL A   1      46.026  29.306  31.892  1.00  0.00    -0.354 N 
ATOM     60  C   UNL A   1      47.748  32.806  29.995  1.00  0.00     0.074 A 
ATOM     61  C   UNL A   1      47.094  34.011  30.455  1.00  0.00     0.031 C 
ATOM     62  C   UNL A   1      44.665  28.203  33.275  1.00  0.00     0.029 A 
ATOM     63  C   UNL A   1      45.715  28.021  32.273  1.00  0.00     0.049 A 
ATOM     64  H   UNL A   1      46.751  29.520  31.260  1.00  0.00     0.167 HD
ATOM     65  C   UNL A   1      48.787  32.789  29.126  1.00  0.00     0.034 A 
ATOM     66  C   UNL A   1      46.202  26.839  31.836  1.00  0.00     0.034 A 
ATOM     67  C   UNL A   1      49.416  31.579  28.660  1.00  0.00     0.049 A 
ATOM     68  C   UNL A   1      47.285  26.838  30.778  1.00  0.00     0.074 A 
ATOM     69  C   UNL A   1      50.475  31.445  27.780  1.00  0.00     0.029 A 
ATOM     70  N   UNL A   1      49.032  30.294  29.020  1.00  0.00    -0.354 N 
ATOM     71  N   UNL A   1      47.880  27.857  30.198  1.00  0.00    -0.248 NA
ATOM     72  C   UNL A   1      47.765  25.527  30.320  1.00  0.00     0.031 C 
ATOM     73  C   UNL A   1      50.675  30.082  27.544  1.00  0.00     0.029 A 
ATOM     74  C   UNL A   1      49.807  29.362  28.350  1.00  0.00     0.049 A 
ATOM     75  H   UNL A   1      48.315  30.078  29.659  1.00  0.00     0.167 HD
ATOM     76  C   UNL A   1      48.826  27.305  29.335  1.00  0.00     0.074 A 
ATOM     77  C   UNL A   1      48.732  25.868  29.483  1.00  0.00     0.031 C 
ATOM     78  C   UNL A   1      49.698  27.929  28.501  1.00  0.00     0.034 A 
BRANCH  65  79
ATOM     79  C   UNL A   1      49.252  34.116  28.582  1.00  0.00     0.023 A 
ATOM     80  C   UNL A   1      48.863  34.575  27.311  1.00  0.00     0.031 A 
ATOM     81  C   UNL A   1      50.134  34.916  29.329  1.00  0.00     0.131 A 
ATOM     82  C   UNL A   1      49.413  35.758  26.796  1.00  0.00     0.055 A 
ATOM     83  C   UNL A   1      50.608  36.137  28.847  1.00  0.00     0.041 A 
ATOM     84  F   UNL A   1      50.564  34.516  30.536  1.00  0.00    -0.206 F 
ATOM     85  C   UNL A   1      50.260  36.557  27.566  1.00  0.00     0.022 A 
BRANCH  82  86
ATOM     86  S   UNL A   1      49.128  36.156  25.049  1.00  0.00     0.124 S 
ATOM     87  O   UNL A   1      48.316  35.021  24.617  1.00  0.00    -0.237 OA
ATOM     88  O   UNL A   1      48.439  37.440  25.127  1.00  0.00    -0.237 OA
ATOM     89  O   UNL A   1      50.475  36.203  24.485  1.00  0.00    -0.744 OA
ENDBRANCH  82  86
ENDBRANCH  65  79
BRANCH  66  90
ATOM     90  C   UNL A   1      45.647  25.550  32.346  1.00  0.00     0.023 A 
ATOM     91  C   UNL A   1      46.123  24.968  33.532  1.00  0.00     0.031 A 
ATOM     92  C   UNL A   1      44.683  24.838  31.609  1.00  0.00     0.131 A 
ATOM     93  C   UNL A   1      45.673  23.695  33.920  1.00  0.00     0.055 A 
ATOM     94  C   UNL A   1      44.194  23.599  32.029  1.00  0.00     0.041 A 
ATOM     95  F   UNL A   1      44.196  25.341  30.463  1.00  0.00    -0.206 F 
ATOM     96  C   UNL A   1      44.702  23.013  33.184  1.00  0.00     0.022 A 
BRANCH  93  97
ATOM     97  S   UNL A   1      46.448  22.898  35.354  1.00  0.00     0.124 S 
ATOM     98  O   UNL A   1      45.998  23.752  36.446  1.00  0.00    -0.237 OA
ATOM     99  O   UNL A   1      45.869  21.560  35.303  1.00  0.00    -0.237 OA
ATOM    100  O   UNL A   1      47.876  22.968  35.051  1.00  0.00    -0.744 OA
ENDBRANCH  93  97
ENDBRANCH  66  90
BRANCH  78 101
ATOM    101  C   UNL A   1      50.660  27.060  27.723  1.00  0.00     0.023 A 
ATOM    102  C   UNL A   1      51.979  26.837  28.155  1.00  0.00     0.031 A 
ATOM    103  C   UNL A   1      50.245  26.443  26.528  1.00  0.00     0.131 A 
ATOM    104  C   UNL A   1      52.852  26.068  27.370  1.00  0.00     0.055 A 
ATOM    105  C   UNL A   1      51.097  25.621  25.788  1.00  0.00     0.041 A 
ATOM    106  F   UNL A   1      48.999  26.621  26.064  1.00  0.00    -0.206 F 
ATOM    107  C   UNL A   1      52.414  25.441  26.201  1.00  0.00     0.022 A 
BRANCH 104 108
ATOM    108  S   UNL A   1      54.602  25.981  27.842  1.00  0.00     0.124 S 
ATOM    109  O   UNL A   1      55.124  27.229  27.297  1.00  0.00    -0.237 OA
ATOM    110  O   UNL A   1      54.529  25.902  29.297  1.00  0.00    -0.237 OA
ATOM    111  O   UNL A   1      55.076  24.767  27.179  1.00  0.00    -0.744 OA
ENDBRANCH 104 108
ENDBRANCH  78 101
ENDBRANCH  52  53
ENDBRANCH  45  47
ENDBRANCH  44  45
ENDBRANCH  43  44
ENDBRANCH  42  43
ENDBRANCH  41  42
ENDBRANCH  40  41
ENDBRANCH  39  40
ENDBRANCH  38  39
ENDBRANCH   1  38
TORSDOF 28
ENDMDL
MODEL 2
REMARK VINA RESULT:      -6.1      4.237      7.749
REMARK SMILES O=C(OCCOCCOCCOCCOC(=O)c1ccc(-c2c3nc(c(-c4cc(S(=O)(=O)[O-])ccc4F)c4ccc([nH]4)c(-c4cc(S(=O)(=O)[O-])ccc4F)c4nc(c(-c5cc(S(=O)(=O)[O-])ccc5F)c5ccc2[nH]5)C=C4)C=C3)cc1)c1ccc(NC(=O)[C@@H]2CC=CC[C@H]2C(=O)Nc2cccc([N+](=O)[O-])c2)cc1
REMARK SMILES IDX 8 1 7 2 6 3 5 4 4 5 3 6 2 7 1 8 81 9 82 10 107 11 83 12
REMARK SMILES IDX 106 13 84 14 85 15 86 16 87 18 88 19 89 20 93 21 90 22 92 23
REMARK SMILES IDX 91 24 94 25 95 26 96 27 97 29 98 30 105 31 99 32 101 33
REMARK SMILES IDX 100 34 102 35 103 36 104 37 9 38 10 39 11 40 12 41 13 42
REMARK SMILES IDX 14 43 15 44 16 45 17 46 18 47 19 48 80 49 20 50 79 51 21 52
REMARK SMILES IDX 22 53 23 54 73 55 24 56 78 57 72 58 74 59 25 60 77 61 71 62
REMARK SMILES IDX 70 63 26 65 58 66 38 67 57 68 39 69 42 70 56 71 75 72 40 73
REMARK SMILES IDX 41 74 55 76 76 77 43 78 27 79 28 80 36 81 29 82 35 83 37 84
REMARK SMILES IDX 34 85 30 86 31 87 32 88 33 89 59 90 60 91 68 92 61 93 67 94
REMARK SMILES IDX 69 95 66 96 62 97 63 98 64 99 65 100 44 101 45 102 53 103
REMARK SMILES IDX 46 104 52 105 54 106 51 107 47 108 48 109 49 110 50 111
REMARK H PARENT 85 17 96 28 74 64 42 75
REMARK Flexibility Score: inf
ROOT
ATOM      1  C   UNL A   1      44.635  28.535  28.050  1.00  0.00     0.188 C 
ENDROOT
BRANCH   1   2
ATOM      2  C   UNL A   1      44.182  27.113  27.660  1.00  0.00     0.188 C 
BRANCH   2   3
ATOM      3  O   UNL A   1      44.282  26.043  28.609  1.00  0.00    -0.376 OA
BRANCH   3   4
ATOM      4  C   UNL A   1      43.411  24.941  28.374  1.00  0.00     0.202 C 
BRANCH   4   5
ATOM      5  C   UNL A   1      44.086  23.626  27.968  1.00  0.00     0.261 C 
BRANCH   5   6
ATOM      6  O   UNL A   1      44.655  23.630  26.649  1.00  0.00    -0.460 OA
BRANCH   6   7
ATOM      7  C   UNL A   1      45.921  23.451  26.206  1.00  0.00     0.338 C 
ATOM      8  O   UNL A   1      46.283  22.287  26.016  1.00  0.00    -0.246 OA
BRANCH   7   9
ATOM      9  C   UNL A   1      46.950  24.528  25.987  1.00  0.00     0.060 A 
ATOM     10  C   UNL A   1      47.330  25.106  24.781  1.00  0.00     0.018 A 
ATOM     11  C   UNL A   1      47.580  25.031  27.138  1.00  0.00     0.018 A 
ATOM     12  C   UNL A   1      48.200  26.218  24.737  1.00  0.00     0.027 A 
ATOM     13  C   UNL A   1      48.406  26.167  27.092  1.00  0.00     0.027 A 
ATOM     14  C   UNL A   1      48.621  26.845  25.892  1.00  0.00     0.041 A 
BRANCH  14  15
ATOM     15  N   UNL A   1      49.203  28.120  25.976  1.00  0.00    -0.326 N 
ATOM     16  C   UNL A   1      50.454  28.663  25.923  1.00  0.00     0.228 C 
ATOM     17  H   UNL A   1      48.519  28.816  26.111  1.00  0.00     0.169 HD
ATOM     18  O   UNL A   1      50.473  29.897  26.057  1.00  0.00    -0.274 OA
BRANCH  16  19
ATOM     19  C   UNL A   1      51.778  27.888  25.747  1.00  0.00     0.095 C 
ATOM     20  C   UNL A   1      51.743  27.172  24.369  1.00  0.00     0.041 C 
ATOM     21  C   UNL A   1      52.150  26.909  26.884  1.00  0.00     0.095 C 
ATOM     22  C   UNL A   1      52.789  26.128  24.137  1.00  0.00    -0.030 C 
ATOM     23  C   UNL A   1      53.004  25.655  26.560  1.00  0.00     0.041 C 
ATOM     24  C   UNL A   1      53.347  25.435  25.130  1.00  0.00    -0.030 C 
BRANCH  21  25
ATOM     25  C   UNL A   1      52.777  27.542  28.115  1.00  0.00     0.228 C 
ATOM     26  O   UNL A   1      53.856  28.134  27.964  1.00  0.00    -0.274 OA
ATOM     27  N   UNL A   1      52.205  27.579  29.365  1.00  0.00    -0.326 N 
ATOM     28  H   UNL A   1      52.656  28.225  29.953  1.00  0.00     0.169 HD
BRANCH  27  29
ATOM     29  C   UNL A   1      51.136  26.926  30.022  1.00  0.00     0.048 A 
ATOM     30  C   UNL A   1      51.364  25.658  30.568  1.00  0.00     0.026 A 
ATOM     31  C   UNL A   1      49.828  27.394  30.063  1.00  0.00     0.111 A 
ATOM     32  C   UNL A   1      50.338  24.934  31.203  1.00  0.00     0.009 A 
ATOM     33  C   UNL A   1      48.795  26.685  30.695  1.00  0.00     0.271 A 
ATOM     34  C   UNL A   1      49.047  25.452  31.282  1.00  0.00     0.086 A 
BRANCH  33  35
ATOM     35  N   UNL A   1      47.436  27.249  30.686  1.00  0.00     0.062 N 
ATOM     36  O   UNL A   1      46.528  26.583  31.199  1.00  0.00    -0.258 OA
ATOM     37  O   UNL A   1      47.276  28.360  30.156  1.00  0.00    -0.258 OA
ENDBRANCH  33  35
ENDBRANCH  27  29
ENDBRANCH  21  25
ENDBRANCH  16  19
ENDBRANCH  14  15
ENDBRANCH   7   9
ENDBRANCH   6   7
ENDBRANCH   5   6
ENDBRANCH   4   5
ENDBRANCH   3   4
ENDBRANCH   2   3
ENDBRANCH   1   2
BRANCH   1  38
ATOM     38  O   UNL A   1      44.067  29.246  29.127  1.00  0.00    -0.377 OA
BRANCH  38  39
ATOM     39  C   UNL A   1      42.668  29.356  29.191  1.00  0.00     0.188 C 
BRANCH  39  40
ATOM     40  C   UNL A   1      42.183  30.653  29.857  1.00  0.00     0.188 C 
BRANCH  40  41
ATOM     41  O   UNL A   1      40.825  30.882  30.193  1.00  0.00    -0.376 OA
BRANCH  41  42
ATOM     42  C   UNL A   1      40.470  31.932  31.080  1.00  0.00     0.202 C 
BRANCH  42  43
ATOM     43  C   UNL A   1      39.301  31.753  32.068  1.00  0.00     0.261 C 
BRANCH  43  44
ATOM     44  O   UNL A   1      39.642  31.214  33.354  1.00  0.00    -0.460 OA
BRANCH  44  45
ATOM     45  C   UNL A   1      39.337  29.906  33.544  1.00  0.00     0.338 C 
ATOM     46  O   UNL A   1      38.250  29.376  33.371  1.00  0.00    -0.246 OA
BRANCH  45  47
ATOM     47  C   UNL A   1      40.596  29.148  33.744  1.00  0.00     0.060 A 
ATOM     48  C   UNL A   1      41.201  29.204  35.010  1.00  0.00     0.016 A 
ATOM     49  C   UNL A   1      41.135  28.333  32.746  1.00  0.00     0.016 A 
ATOM     50  C   UNL A   1      42.343  28.453  35.282  1.00  0.00     0.010 A 
ATOM     51  C   UNL A   1      42.307  27.613  33.005  1.00  0.00     0.010 A 
ATOM     52  C   UNL A   1      42.930  27.692  34.265  1.00  0.00    -0.014 A 
BRANCH  52  53
ATOM     53  C   UNL A   1      44.328  27.223  34.437  1.00  0.00     0.031 A 
ATOM     54  C   UNL A   1      45.424  28.188  34.071  1.00  0.00     0.074 A 
ATOM     55  C   UNL A   1      44.627  26.011  34.936  1.00  0.00     0.049 A 
ATOM     56  N   UNL A   1      46.721  28.019  34.077  1.00  0.00    -0.248 NA
ATOM     57  C   UNL A   1      44.991  29.526  33.637  1.00  0.00     0.031 C 
ATOM     58  C   UNL A   1      43.657  25.016  35.388  1.00  0.00     0.029 A 
ATOM     59  N   UNL A   1      45.845  25.410  35.143  1.00  0.00    -0.354 N 
ATOM     60  C   UNL A   1      47.256  29.227  33.641  1.00  0.00     0.074 A 
ATOM     61  C   UNL A   1      46.144  30.103  33.345  1.00  0.00     0.031 C 
ATOM     62  C   UNL A   1      44.320  23.922  35.806  1.00  0.00     0.029 A 
ATOM     63  C   UNL A   1      45.756  24.121  35.614  1.00  0.00     0.049 A 
ATOM     64  H   UNL A   1      46.703  25.862  34.970  1.00  0.00     0.167 HD
ATOM     65  C   UNL A   1      48.558  29.578  33.506  1.00  0.00     0.034 A 
ATOM     66  C   UNL A   1      46.722  23.202  35.831  1.00  0.00     0.034 A 
ATOM     67  C   UNL A   1      49.656  28.687  33.784  1.00  0.00     0.049 A 
ATOM     68  C   UNL A   1      48.164  23.578  35.566  1.00  0.00     0.074 A 
ATOM     69  C   UNL A   1      51.012  28.938  33.683  1.00  0.00     0.029 A 
ATOM     70  N   UNL A   1      49.524  27.369  34.200  1.00  0.00    -0.354 N 
ATOM     71  N   UNL A   1      48.662  24.724  35.156  1.00  0.00    -0.248 NA
ATOM     72  C   UNL A   1      49.176  22.536  35.796  1.00  0.00     0.031 C 
ATOM     73  C   UNL A   1      51.696  27.750  33.955  1.00  0.00     0.029 A 
ATOM     74  C   UNL A   1      50.773  26.782  34.321  1.00  0.00     0.049 A 
ATOM     75  H   UNL A   1      48.669  26.918  34.382  1.00  0.00     0.167 HD
ATOM     76  C   UNL A   1      50.045  24.546  35.116  1.00  0.00     0.074 A 
ATOM     77  C   UNL A   1      50.301  23.192  35.556  1.00  0.00     0.031 C 
ATOM     78  C   UNL A   1      51.015  25.425  34.755  1.00  0.00     0.034 A 
BRANCH  65  79
ATOM     79  C   UNL A   1      48.848  30.960  32.976  1.00  0.00     0.023 A 
ATOM     80  C   UNL A   1      48.956  31.218  31.598  1.00  0.00     0.031 A 
ATOM     81  C   UNL A   1      49.061  32.027  33.865  1.00  0.00     0.131 A 
ATOM     82  C   UNL A   1      49.343  32.491  31.155  1.00  0.00     0.055 A 
ATOM     83  C   UNL A   1      49.359  33.313  33.414  1.00  0.00     0.041 A 
ATOM     84  F   UNL A   1      49.000  31.834  35.192  1.00  0.00    -0.206 F 
ATOM     85  C   UNL A   1      49.518  33.548  32.051  1.00  0.00     0.022 A 
BRANCH  82  86
ATOM     86  S   UNL A   1      49.768  32.705  29.404  1.00  0.00     0.124 S 
ATOM     87  O   UNL A   1      49.543  31.360  28.880  1.00  0.00    -0.237 OA
ATOM     88  O   UNL A   1      48.819  33.725  28.972  1.00  0.00    -0.237 OA
ATOM     89  O   UNL A   1      51.166  33.127  29.440  1.00  0.00    -0.744 OA
ENDBRANCH  82  86
ENDBRANCH  65  79
BRANCH  66  90
ATOM     90  C   UNL A   1      46.375  21.819  36.275  1.00  0.00     0.023 A 
ATOM     91  C   UNL A   1      46.549  21.415  37.609  1.00  0.00     0.031 A 
ATOM     92  C   UNL A   1      45.935  20.854  35.352  1.00  0.00     0.131 A 
ATOM     93  C   UNL A   1      46.334  20.075  37.972  1.00  0.00     0.055 A 
ATOM     94  C   UNL A   1      45.666  19.536  35.727  1.00  0.00     0.041 A 
ATOM     95  F   UNL A   1      45.757  21.180  34.061  1.00  0.00    -0.206 F 
ATOM     96  C   UNL A   1      45.880  19.136  37.043  1.00  0.00     0.022 A 
BRANCH  93  97
ATOM     97  S   UNL A   1      46.749  19.552  39.659  1.00  0.00     0.124 S 
ATOM     98  O   UNL A   1      45.474  19.022  40.125  1.00  0.00    -0.237 OA
ATOM     99  O   UNL A   1      47.804  18.574  39.419  1.00  0.00    -0.237 OA
ATOM    100  O   UNL A   1      47.185  20.791  40.300  1.00  0.00    -0.744 OA
ENDBRANCH  93  97
ENDBRANCH  66  90
BRANCH  78 101
ATOM    101  C   UNL A   1      52.451  24.966  34.873  1.00  0.00     0.023 A 
ATOM    102  C   UNL A   1      53.197  24.556  33.754  1.00  0.00     0.031 A 
ATOM    103  C   UNL A   1      53.082  24.941  36.130  1.00  0.00     0.131 A 
ATOM    104  C   UNL A   1      54.507  24.085  33.921  1.00  0.00     0.055 A 
ATOM    105  C   UNL A   1      54.411  24.538  36.280  1.00  0.00     0.041 A 
ATOM    106  F   UNL A   1      52.421  25.317  37.236  1.00  0.00    -0.206 F 
ATOM    107  C   UNL A   1      55.127  24.094  35.173  1.00  0.00     0.022 A 
BRANCH 104 108
ATOM    108  S   UNL A   1      55.363  23.362  32.494  1.00  0.00     0.124 S 
ATOM    109  O   UNL A   1      56.740  23.297  32.969  1.00  0.00    -0.237 OA
ATOM    110  O   UNL A   1      54.681  22.082  32.336  1.00  0.00    -0.237 OA
ATOM    111  O   UNL A   1      55.121  24.328  31.423  1.00  0.00    -0.744 OA
ENDBRANCH 104 108
ENDBRANCH  78 101
ENDBRANCH  52  53
ENDBRANCH  45  47
ENDBRANCH  44  45
ENDBRANCH  43  44
ENDBRANCH  42  43
ENDBRANCH  41  42
ENDBRANCH  40  41
ENDBRANCH  39  40
ENDBRANCH  38  39
ENDBRANCH   1  38
TORSDOF 28
ENDMDL
MODEL 3
REMARK VINA RESULT:      -6.0      7.705     12.528
REMARK SMILES O=C(OCCOCCOCCOCCOC(=O)c1ccc(-c2c3nc(c(-c4cc(S(=O)(=O)[O-])ccc4F)c4ccc([nH]4)c(-c4cc(S(=O)(=O)[O-])ccc4F)c4nc(c(-c5cc(S(=O)(=O)[O-])ccc5F)c5ccc2[nH]5)C=C4)C=C3)cc1)c1ccc(NC(=O)[C@@H]2CC=CC[C@H]2C(=O)Nc2cccc([N+](=O)[O-])c2)cc1
REMARK SMILES IDX 8 1 7 2 6 3 5 4 4 5 3 6 2 7 1 8 81 9 82 10 107 11 83 12
REMARK SMILES IDX 106 13 84 14 85 15 86 16 87 18 88 19 89 20 93 21 90 22 92 23
REMARK SMILES IDX 91 24 94 25 95 26 96 27 97 29 98 30 105 31 99 32 101 33
REMARK SMILES IDX 100 34 102 35 103 36 104 37 9 38 10 39 11 40 12 41 13 42
REMARK SMILES IDX 14 43 15 44 16 45 17 46 18 47 19 48 80 49 20 50 79 51 21 52
REMARK SMILES IDX 22 53 23 54 73 55 24 56 78 57 72 58 74 59 25 60 77 61 71 62
REMARK SMILES IDX 70 63 26 65 58 66 38 67 57 68 39 69 42 70 56 71 75 72 40 73
REMARK SMILES IDX 41 74 55 76 76 77 43 78 27 79 28 80 36 81 29 82 35 83 37 84
REMARK SMILES IDX 34 85 30 86 31 87 32 88 33 89 59 90 60 91 68 92 61 93 67 94
REMARK SMILES IDX 69 95 66 96 62 97 63 98 64 99 65 100 44 101 45 102 53 103
REMARK SMILES IDX 46 104 52 105 54 106 51 107 47 108 48 109 49 110 50 111
REMARK H PARENT 85 17 96 28 74 64 42 75
REMARK Flexibility Score: inf
ROOT
ATOM      1  C   UNL A   1      46.511  43.914  37.724  1.00  0.00     0.188 C 
ENDROOT
BRANCH   1   2
ATOM      2  C   UNL A   1      45.425  42.917  38.177  1.00  0.00     0.188 C 
BRANCH   2   3
ATOM      3  O   UNL A   1      44.514  42.363  37.218  1.00  0.00    -0.376 OA
BRANCH   3   4
ATOM      4  C   UNL A   1      44.667  42.847  35.887  1.00  0.00     0.202 C 
BRANCH   4   5
ATOM      5  C   UNL A   1      43.786  42.179  34.825  1.00  0.00     0.261 C 
BRANCH   5   6
ATOM      6  O   UNL A   1      43.090  43.097  33.967  1.00  0.00    -0.460 OA
BRANCH   6   7
ATOM      7  C   UNL A   1      43.110  43.278  32.626  1.00  0.00     0.338 C 
ATOM      8  O   UNL A   1      42.278  44.058  32.158  1.00  0.00    -0.246 OA
BRANCH   7   9
ATOM      9  C   UNL A   1      44.006  42.571  31.644  1.00  0.00     0.060 A 
ATOM     10  C   UNL A   1      44.496  41.272  31.724  1.00  0.00     0.018 A 
ATOM     11  C   UNL A   1      44.367  43.297  30.495  1.00  0.00     0.018 A 
ATOM     12  C   UNL A   1      45.204  40.683  30.653  1.00  0.00     0.027 A 
ATOM     13  C   UNL A   1      45.029  42.690  29.414  1.00  0.00     0.027 A 
ATOM     14  C   UNL A   1      45.342  41.331  29.442  1.00  0.00     0.041 A 
BRANCH  14  15
ATOM     15  N   UNL A   1      45.725  40.740  28.227  1.00  0.00    -0.326 N 
ATOM     16  C   UNL A   1      45.301  40.739  26.929  1.00  0.00     0.228 C 
ATOM     17  H   UNL A   1      46.519  40.170  28.342  1.00  0.00     0.169 HD
ATOM     18  O   UNL A   1      45.987  40.029  26.178  1.00  0.00    -0.274 OA
BRANCH  16  19
ATOM     19  C   UNL A   1      44.077  41.494  26.369  1.00  0.00     0.095 C 
ATOM     20  C   UNL A   1      42.860  40.528  26.386  1.00  0.00     0.041 C 
ATOM     21  C   UNL A   1      44.258  42.150  24.981  1.00  0.00     0.095 C 
ATOM     22  C   UNL A   1      41.659  40.960  25.606  1.00  0.00    -0.030 C 
ATOM     23  C   UNL A   1      43.027  42.323  24.053  1.00  0.00     0.041 C 
ATOM     24  C   UNL A   1      41.740  41.761  24.543  1.00  0.00    -0.030 C 
BRANCH  21  25
ATOM     25  C   UNL A   1      44.983  43.485  24.976  1.00  0.00     0.228 C 
ATOM     26  O   UNL A   1      44.895  44.184  25.997  1.00  0.00    -0.274 OA
ATOM     27  N   UNL A   1      45.793  43.943  23.964  1.00  0.00    -0.326 N 
ATOM     28  H   UNL A   1      46.341  44.708  24.254  1.00  0.00     0.169 HD
BRANCH  27  29
ATOM     29  C   UNL A   1      46.041  43.599  22.615  1.00  0.00     0.048 A 
ATOM     30  C   UNL A   1      47.272  43.018  22.291  1.00  0.00     0.026 A 
ATOM     31  C   UNL A   1      45.201  43.909  21.551  1.00  0.00     0.111 A 
ATOM     32  C   UNL A   1      47.602  42.684  20.965  1.00  0.00     0.009 A 
ATOM     33  C   UNL A   1      45.516  43.580  20.224  1.00  0.00     0.271 A 
ATOM     34  C   UNL A   1      46.717  42.953  19.922  1.00  0.00     0.086 A 
BRANCH  33  35
ATOM     35  N   UNL A   1      44.573  43.951  19.157  1.00  0.00     0.062 N 
ATOM     36  O   UNL A   1      43.421  43.504  19.219  1.00  0.00    -0.258 OA
ATOM     37  O   UNL A   1      44.991  44.687  18.249  1.00  0.00    -0.258 OA
ENDBRANCH  33  35
ENDBRANCH  27  29
ENDBRANCH  21  25
ENDBRANCH  16  19
ENDBRANCH  14  15
ENDBRANCH   7   9
ENDBRANCH   6   7
ENDBRANCH   5   6
ENDBRANCH   4   5
ENDBRANCH   3   4
ENDBRANCH   2   3
ENDBRANCH   1   2
BRANCH   1  38
ATOM     38  O   UNL A   1      47.417  44.513  38.624  1.00  0.00    -0.377 OA
BRANCH  38  39
ATOM     39  C   UNL A   1      48.398  43.705  39.221  1.00  0.00     0.188 C 
BRANCH  39  40
ATOM     40  C   UNL A   1      49.830  44.061  38.793  1.00  0.00     0.188 C 
BRANCH  40  41
ATOM     41  O   UNL A   1      50.602  43.239  37.934  1.00  0.00    -0.376 OA
BRANCH  41  42
ATOM     42  C   UNL A   1      50.283  43.140  36.554  1.00  0.00     0.202 C 
BRANCH  42  43
ATOM     43  C   UNL A   1      49.668  41.845  35.989  1.00  0.00     0.261 C 
BRANCH  43  44
ATOM     44  O   UNL A   1      50.116  40.622  36.593  1.00  0.00    -0.460 OA
BRANCH  44  45
ATOM     45  C   UNL A   1      49.298  40.097  37.537  1.00  0.00     0.338 C 
ATOM     46  O   UNL A   1      49.288  40.367  38.729  1.00  0.00    -0.246 OA
BRANCH  45  47
ATOM     47  C   UNL A   1      48.223  39.329  36.863  1.00  0.00     0.060 A 
ATOM     48  C   UNL A   1      47.004  39.981  36.618  1.00  0.00     0.016 A 
ATOM     49  C   UNL A   1      48.424  38.025  36.402  1.00  0.00     0.016 A 
ATOM     50  C   UNL A   1      45.984  39.338  35.921  1.00  0.00     0.010 A 
ATOM     51  C   UNL A   1      47.383  37.363  35.740  1.00  0.00     0.010 A 
ATOM     52  C   UNL A   1      46.150  38.007  35.522  1.00  0.00    -0.014 A 
BRANCH  52  53
ATOM     53  C   UNL A   1      44.952  37.217  35.144  1.00  0.00     0.031 A 
ATOM     54  C   UNL A   1      44.762  36.918  33.680  1.00  0.00     0.074 A 
ATOM     55  C   UNL A   1      44.084  36.741  36.053  1.00  0.00     0.049 A 
ATOM     56  N   UNL A   1      43.784  36.296  33.076  1.00  0.00    -0.248 NA
ATOM     57  C   UNL A   1      45.826  37.391  32.780  1.00  0.00     0.031 C 
ATOM     58  C   UNL A   1      44.196  36.907  37.501  1.00  0.00     0.029 A 
ATOM     59  N   UNL A   1      42.926  36.020  35.887  1.00  0.00    -0.354 N 
ATOM     60  C   UNL A   1      44.111  36.310  31.724  1.00  0.00     0.074 A 
ATOM     61  C   UNL A   1      45.357  37.034  31.596  1.00  0.00     0.031 C 
ATOM     62  C   UNL A   1      43.140  36.315  38.089  1.00  0.00     0.029 A 
ATOM     63  C   UNL A   1      42.256  35.765  37.060  1.00  0.00     0.049 A 
ATOM     64  H   UNL A   1      42.607  35.714  35.007  1.00  0.00     0.167 HD
ATOM     65  C   UNL A   1      43.439  35.763  30.683  1.00  0.00     0.034 A 
ATOM     66  C   UNL A   1      41.055  35.185  37.272  1.00  0.00     0.034 A 
ATOM     67  C   UNL A   1      42.187  35.063  30.823  1.00  0.00     0.049 A 
ATOM     68  C   UNL A   1      40.265  34.681  36.082  1.00  0.00     0.074 A 
ATOM     69  C   UNL A   1      41.420  34.469  29.837  1.00  0.00     0.029 A 
ATOM     70  N   UNL A   1      41.509  34.879  32.020  1.00  0.00    -0.354 N 
ATOM     71  N   UNL A   1      40.585  34.696  34.807  1.00  0.00    -0.248 NA
ATOM     72  C   UNL A   1      38.954  34.078  36.362  1.00  0.00     0.031 C 
ATOM     73  C   UNL A   1      40.241  34.002  30.424  1.00  0.00     0.029 A 
ATOM     74  C   UNL A   1      40.314  34.216  31.792  1.00  0.00     0.049 A 
ATOM     75  H   UNL A   1      41.830  35.176  32.902  1.00  0.00     0.167 HD
ATOM     76  C   UNL A   1      39.529  34.072  34.143  1.00  0.00     0.074 A 
ATOM     77  C   UNL A   1      38.574  33.682  35.158  1.00  0.00     0.031 C 
ATOM     78  C   UNL A   1      39.366  33.838  32.815  1.00  0.00     0.034 A 
BRANCH  65  79
ATOM     79  C   UNL A   1      44.020  35.964  29.306  1.00  0.00     0.023 A 
ATOM     80  C   UNL A   1      44.843  34.997  28.700  1.00  0.00     0.031 A 
ATOM     81  C   UNL A   1      43.781  37.158  28.605  1.00  0.00     0.131 A 
ATOM     82  C   UNL A   1      45.458  35.275  27.470  1.00  0.00     0.055 A 
ATOM     83  C   UNL A   1      44.325  37.392  27.342  1.00  0.00     0.041 A 
ATOM     84  F   UNL A   1      43.028  38.129  29.146  1.00  0.00    -0.206 F 
ATOM     85  C   UNL A   1      45.182  36.454  26.773  1.00  0.00     0.022 A 
BRANCH  82  86
ATOM     86  S   UNL A   1      46.743  34.144  26.870  1.00  0.00     0.124 S 
ATOM     87  O   UNL A   1      47.484  35.003  25.950  1.00  0.00    -0.237 OA
ATOM     88  O   UNL A   1      47.437  33.776  28.099  1.00  0.00    -0.237 OA
ATOM     89  O   UNL A   1      45.983  33.070  26.235  1.00  0.00    -0.744 OA
ENDBRANCH  82  86
ENDBRANCH  65  79
BRANCH  66  90
ATOM     90  C   UNL A   1      40.486  35.087  38.649  1.00  0.00     0.023 A 
ATOM     91  C   UNL A   1      40.669  33.937  39.434  1.00  0.00     0.031 A 
ATOM     92  C   UNL A   1      39.682  36.116  39.172  1.00  0.00     0.131 A 
ATOM     93  C   UNL A   1      40.017  33.822  40.673  1.00  0.00     0.055 A 
ATOM     94  C   UNL A   1      39.082  36.022  40.430  1.00  0.00     0.041 A 
ATOM     95  F   UNL A   1      39.465  37.235  38.463  1.00  0.00    -0.206 F 
ATOM     96  C   UNL A   1      39.237  34.862  41.183  1.00  0.00     0.022 A 
BRANCH  93  97
ATOM     97  S   UNL A   1      40.126  32.249  41.571  1.00  0.00     0.124 S 
ATOM     98  O   UNL A   1      40.160  32.701  42.956  1.00  0.00    -0.237 OA
ATOM     99  O   UNL A   1      38.905  31.574  41.144  1.00  0.00    -0.237 OA
ATOM    100  O   UNL A   1      41.367  31.659  41.073  1.00  0.00    -0.744 OA
ENDBRANCH  93  97
ENDBRANCH  66  90
BRANCH  78 101
ATOM    101  C   UNL A   1      38.132  33.076  32.388  1.00  0.00     0.023 A 
ATOM    102  C   UNL A   1      38.146  31.684  32.194  1.00  0.00     0.031 A 
ATOM    103  C   UNL A   1      36.920  33.758  32.175  1.00  0.00     0.131 A 
ATOM    104  C   UNL A   1      36.990  31.028  31.744  1.00  0.00     0.055 A 
ATOM    105  C   UNL A   1      35.754  33.090  31.796  1.00  0.00     0.041 A 
ATOM    106  F   UNL A   1      36.845  35.088  32.341  1.00  0.00    -0.206 F 
ATOM    107  C   UNL A   1      35.788  31.718  31.564  1.00  0.00     0.022 A 
BRANCH 104 108
ATOM    108  S   UNL A   1      37.101  29.273  31.296  1.00  0.00     0.124 S 
ATOM    109  O   UNL A   1      35.928  29.105  30.445  1.00  0.00    -0.237 OA
ATOM    110  O   UNL A   1      38.393  29.204  30.622  1.00  0.00    -0.237 OA
ATOM    111  O   UNL A   1      37.037  28.585  32.585  1.00  0.00    -0.744 OA
ENDBRANCH 104 108
ENDBRANCH  78 101
ENDBRANCH  52  53
ENDBRANCH  45  47
ENDBRANCH  44  45
ENDBRANCH  43  44
ENDBRANCH  42  43
ENDBRANCH  41  42
ENDBRANCH  40  41
ENDBRANCH  39  40
ENDBRANCH  38  39
ENDBRANCH   1  38
TORSDOF 28
ENDMDL
