MODEL 1
REMARK VINA RESULT:      -9.3      0.000      0.000
REMARK SMILES Cc1nn(CC(=O)OCCOCCOCCOCCOC(=O)c2ccc(-c3c4nc(c(-c5cc(S(=O)(=O)[O-])ccc5F)c5ccc([nH]5)c(-c5cc(S(=O)(=O)[O-])ccc5F)c5nc(c(-c6cc(S(=O)(=O)[O-])ccc6F)c6ccc3[nH]6)C=C5)C=C4)cc2)c(C)c1NS(=O)(=O)c1cccc2cccnc12
REMARK SMILES IDX 13 1 12 2 11 3 10 4 9 5 8 6 6 7 7 8 5 9 4 10 1 11 2 12 3 13
REMARK SMILES IDX 88 14 86 15 87 16 89 17 90 19 91 20 92 21 93 22 94 23 102 24
REMARK SMILES IDX 95 25 97 26 101 27 96 28 98 29 100 30 99 31 14 32 15 33
REMARK SMILES IDX 16 34 17 35 18 36 19 37 20 38 21 39 22 40 23 41 24 42 85 43
REMARK SMILES IDX 25 44 84 45 26 46 27 47 28 48 78 49 29 50 83 51 77 52 79 53
REMARK SMILES IDX 30 54 82 55 76 56 75 57 31 59 63 60 43 61 62 62 44 63 47 64
REMARK SMILES IDX 61 65 80 66 45 67 46 68 60 70 81 71 48 72 32 73 33 74 41 75
REMARK SMILES IDX 34 76 40 77 42 78 39 79 35 80 36 81 37 82 38 83 64 84 65 85
REMARK SMILES IDX 73 86 66 87 72 88 74 89 71 90 67 91 68 92 69 93 70 94 49 95
REMARK SMILES IDX 50 96 58 97 51 98 57 99 59 100 56 101 52 102 53 103 54 104
REMARK SMILES IDX 55 105
REMARK H PARENT 89 18 79 58 47 69
REMARK Flexibility Score: inf
ROOT
ATOM      1  C   UNL A   1      40.013  30.388  35.563  1.00  0.00     0.188 C 
ENDROOT
BRANCH   1   2
ATOM      2  C   UNL A   1      38.470  30.472  35.536  1.00  0.00     0.188 C 
BRANCH   2   3
ATOM      3  O   UNL A   1      37.762  30.925  36.685  1.00  0.00    -0.376 OA
BRANCH   3   4
ATOM      4  C   UNL A   1      38.111  32.189  37.218  1.00  0.00     0.202 C 
BRANCH   4   5
ATOM      5  C   UNL A   1      37.460  33.430  36.588  1.00  0.00     0.261 C 
BRANCH   5   6
ATOM      6  O   UNL A   1      36.817  33.260  35.292  1.00  0.00    -0.462 OA
BRANCH   6   7
ATOM      7  C   UNL A   1      37.344  33.879  34.204  1.00  0.00     0.327 C 
ATOM      8  O   UNL A   1      37.182  35.081  33.988  1.00  0.00    -0.250 OA
BRANCH   7   9
ATOM      9  C   UNL A   1      38.286  33.065  33.323  1.00  0.00     0.267 C 
BRANCH   9  10
ATOM     10  N   UNL A   1      37.778  32.466  32.092  1.00  0.00    -0.256 N 
ATOM     11  C   UNL A   1      36.657  29.595  30.370  1.00  0.00     0.071 C 
ATOM     12  C   UNL A   1      37.012  30.959  30.840  1.00  0.00     0.084 A 
ATOM     13  N   UNL A   1      37.685  31.116  31.992  1.00  0.00    -0.175 NA
ATOM     14  C   UNL A   1      36.843  32.211  30.165  1.00  0.00     0.093 A 
ATOM     15  C   UNL A   1      37.786  32.983  30.811  1.00  0.00     0.060 A 
ATOM     16  C   UNL A   1      38.776  33.970  30.342  1.00  0.00     0.069 C 
BRANCH  14  17
ATOM     17  N   UNL A   1      36.068  32.385  29.017  1.00  0.00    -0.276 N 
ATOM     18  H   UNL A   1      36.429  31.958  28.206  1.00  0.00     0.180 HD
BRANCH  17  19
ATOM     19  S   UNL A   1      34.618  33.207  28.795  1.00  0.00     0.264 S 
ATOM     20  O   UNL A   1      33.990  33.195  30.106  1.00  0.00    -0.201 OA
ATOM     21  O   UNL A   1      34.940  34.482  28.189  1.00  0.00    -0.201 OA
BRANCH  19  22
ATOM     22  C   UNL A   1      33.514  32.348  27.712  1.00  0.00     0.114 A 
ATOM     23  C   UNL A   1      32.416  33.090  27.230  1.00  0.00     0.024 A 
ATOM     24  C   UNL A   1      33.665  31.000  27.397  1.00  0.00     0.091 A 
ATOM     25  C   UNL A   1      31.361  32.460  26.587  1.00  0.00     0.002 A 
ATOM     26  C   UNL A   1      32.528  30.364  26.827  1.00  0.00     0.002 A 
ATOM     27  N   UNL A   1      34.800  30.299  27.603  1.00  0.00    -0.255 NA
ATOM     28  C   UNL A   1      31.386  31.083  26.454  1.00  0.00     0.010 A 
ATOM     29  C   UNL A   1      32.543  28.988  26.618  1.00  0.00     0.012 A 
ATOM     30  C   UNL A   1      34.833  29.003  27.221  1.00  0.00     0.112 A 
ATOM     31  C   UNL A   1      33.732  28.304  26.760  1.00  0.00     0.021 A 
ENDBRANCH  19  22
ENDBRANCH  17  19
ENDBRANCH  14  17
ENDBRANCH   9  10
ENDBRANCH   7   9
ENDBRANCH   6   7
ENDBRANCH   5   6
ENDBRANCH   4   5
ENDBRANCH   3   4
ENDBRANCH   2   3
ENDBRANCH   1   2
BRANCH   1  32
ATOM     32  O   UNL A   1      40.590  29.312  36.279  1.00  0.00    -0.377 OA
BRANCH  32  33
ATOM     33  C   UNL A   1      41.628  28.615  35.608  1.00  0.00     0.188 C 
BRANCH  33  34
ATOM     34  C   UNL A   1      42.985  28.557  36.338  1.00  0.00     0.188 C 
BRANCH  34  35
ATOM     35  O   UNL A   1      43.114  27.529  37.315  1.00  0.00    -0.376 OA
BRANCH  35  36
ATOM     36  C   UNL A   1      43.067  26.144  37.005  1.00  0.00     0.202 C 
BRANCH  36  37
ATOM     37  C   UNL A   1      44.252  25.239  37.351  1.00  0.00     0.261 C 
BRANCH  37  38
ATOM     38  O   UNL A   1      45.124  24.971  36.273  1.00  0.00    -0.460 OA
BRANCH  38  39
ATOM     39  C   UNL A   1      45.109  23.704  35.839  1.00  0.00     0.338 C 
ATOM     40  O   UNL A   1      45.169  22.680  36.524  1.00  0.00    -0.246 OA
BRANCH  39  41
ATOM     41  C   UNL A   1      45.173  23.707  34.389  1.00  0.00     0.060 A 
ATOM     42  C   UNL A   1      46.104  24.578  33.833  1.00  0.00     0.016 A 
ATOM     43  C   UNL A   1      44.067  23.214  33.679  1.00  0.00     0.016 A 
ATOM     44  C   UNL A   1      45.759  25.190  32.658  1.00  0.00     0.010 A 
ATOM     45  C   UNL A   1      43.720  23.835  32.512  1.00  0.00     0.010 A 
ATOM     46  C   UNL A   1      44.523  24.879  32.072  1.00  0.00    -0.014 A 
BRANCH  46  47
ATOM     47  C   UNL A   1      44.191  25.536  30.834  1.00  0.00     0.031 A 
ATOM     48  C   UNL A   1      43.629  26.865  31.117  1.00  0.00     0.074 A 
ATOM     49  C   UNL A   1      44.428  25.020  29.616  1.00  0.00     0.049 A 
ATOM     50  N   UNL A   1      42.375  27.163  31.174  1.00  0.00    -0.248 NA
ATOM     51  C   UNL A   1      44.514  27.876  31.722  1.00  0.00     0.031 C 
ATOM     52  C   UNL A   1      45.183  23.813  29.279  1.00  0.00     0.029 A 
ATOM     53  N   UNL A   1      44.101  25.529  28.398  1.00  0.00    -0.354 N 
ATOM     54  C   UNL A   1      42.357  28.513  31.478  1.00  0.00     0.074 A 
ATOM     55  C   UNL A   1      43.617  28.787  32.106  1.00  0.00     0.031 C 
ATOM     56  C   UNL A   1      45.440  23.807  27.949  1.00  0.00     0.029 A 
ATOM     57  C   UNL A   1      44.767  24.938  27.327  1.00  0.00     0.049 A 
ATOM     58  H   UNL A   1      43.448  26.257  28.283  1.00  0.00     0.167 HD
ATOM     59  C   UNL A   1      41.507  29.328  30.798  1.00  0.00     0.034 A 
ATOM     60  C   UNL A   1      44.799  25.389  26.042  1.00  0.00     0.034 A 
ATOM     61  C   UNL A   1      40.428  28.552  30.204  1.00  0.00     0.049 A 
ATOM     62  C   UNL A   1      43.591  26.234  25.859  1.00  0.00     0.074 A 
ATOM     63  C   UNL A   1      39.496  27.654  30.691  1.00  0.00     0.029 A 
ATOM     64  N   UNL A   1      40.471  28.341  28.843  1.00  0.00    -0.354 N 
ATOM     65  N   UNL A   1      42.377  25.759  25.902  1.00  0.00    -0.248 NA
ATOM     66  C   UNL A   1      43.700  27.663  26.113  1.00  0.00     0.031 C 
ATOM     67  C   UNL A   1      39.355  26.663  29.673  1.00  0.00     0.029 A 
ATOM     68  C   UNL A   1      40.131  27.039  28.574  1.00  0.00     0.049 A 
ATOM     69  H   UNL A   1      40.707  29.018  28.169  1.00  0.00     0.167 HD
ATOM     70  C   UNL A   1      41.652  26.693  26.626  1.00  0.00     0.074 A 
ATOM     71  C   UNL A   1      42.483  27.895  26.617  1.00  0.00     0.031 C 
ATOM     72  C   UNL A   1      40.596  26.306  27.405  1.00  0.00     0.034 A 
BRANCH  59  73
ATOM     73  C   UNL A   1      41.931  30.682  30.249  1.00  0.00     0.023 A 
ATOM     74  C   UNL A   1      42.715  30.651  29.084  1.00  0.00     0.031 A 
ATOM     75  C   UNL A   1      41.899  31.925  30.928  1.00  0.00     0.131 A 
ATOM     76  C   UNL A   1      43.535  31.738  28.742  1.00  0.00     0.055 A 
ATOM     77  C   UNL A   1      42.671  33.023  30.546  1.00  0.00     0.041 A 
ATOM     78  F   UNL A   1      41.187  32.149  32.036  1.00  0.00    -0.206 F 
ATOM     79  C   UNL A   1      43.529  32.922  29.470  1.00  0.00     0.022 A 
BRANCH  76  80
ATOM     80  S   UNL A   1      44.753  31.490  27.433  1.00  0.00     0.124 S 
ATOM     81  O   UNL A   1      45.624  32.643  27.637  1.00  0.00    -0.237 OA
ATOM     82  O   UNL A   1      45.310  30.189  27.787  1.00  0.00    -0.237 OA
ATOM     83  O   UNL A   1      43.948  31.514  26.215  1.00  0.00    -0.744 OA
ENDBRANCH  76  80
ENDBRANCH  59  73
BRANCH  60  84
ATOM     84  C   UNL A   1      45.959  25.402  25.100  1.00  0.00     0.023 A 
ATOM     85  C   UNL A   1      46.920  26.439  25.081  1.00  0.00     0.031 A 
ATOM     86  C   UNL A   1      46.281  24.237  24.368  1.00  0.00     0.131 A 
ATOM     87  C   UNL A   1      48.134  26.280  24.366  1.00  0.00     0.055 A 
ATOM     88  C   UNL A   1      47.478  24.086  23.664  1.00  0.00     0.041 A 
ATOM     89  F   UNL A   1      45.481  23.159  24.382  1.00  0.00    -0.206 F 
ATOM     90  C   UNL A   1      48.416  25.103  23.670  1.00  0.00     0.022 A 
BRANCH  87  91
ATOM     91  S   UNL A   1      49.422  27.573  24.402  1.00  0.00     0.124 S 
ATOM     92  O   UNL A   1      48.994  28.410  25.515  1.00  0.00    -0.237 OA
ATOM     93  O   UNL A   1      50.642  26.799  24.600  1.00  0.00    -0.237 OA
ATOM     94  O   UNL A   1      49.311  28.204  23.085  1.00  0.00    -0.744 OA
ENDBRANCH  87  91
ENDBRANCH  60  84
BRANCH  72  95
ATOM     95  C   UNL A   1      39.965  24.950  27.132  1.00  0.00     0.023 A 
ATOM     96  C   UNL A   1      38.773  24.720  26.405  1.00  0.00     0.031 A 
ATOM     97  C   UNL A   1      40.661  23.822  27.604  1.00  0.00     0.131 A 
ATOM     98  C   UNL A   1      38.312  23.403  26.201  1.00  0.00     0.055 A 
ATOM     99  C   UNL A   1      40.216  22.520  27.378  1.00  0.00     0.041 A 
ATOM    100  F   UNL A   1      41.810  23.964  28.286  1.00  0.00    -0.206 F 
ATOM    101  C   UNL A   1      39.033  22.306  26.685  1.00  0.00     0.022 A 
BRANCH  98 102
ATOM    102  S   UNL A   1      36.736  23.082  25.342  1.00  0.00     0.124 S 
ATOM    103  O   UNL A   1      35.869  24.163  25.795  1.00  0.00    -0.237 OA
ATOM    104  O   UNL A   1      37.131  23.127  23.936  1.00  0.00    -0.237 OA
ATOM    105  O   UNL A   1      36.352  21.752  25.821  1.00  0.00    -0.744 OA
ENDBRANCH  98 102
ENDBRANCH  72  95
ENDBRANCH  46  47
ENDBRANCH  39  41
ENDBRANCH  38  39
ENDBRANCH  37  38
ENDBRANCH  36  37
ENDBRANCH  35  36
ENDBRANCH  34  35
ENDBRANCH  33  34
ENDBRANCH  32  33
ENDBRANCH   1  32
TORSDOF 27
ENDMDL
MODEL 2
REMARK VINA RESULT:      -9.3      3.705     10.601
REMARK SMILES Cc1nn(CC(=O)OCCOCCOCCOCCOC(=O)c2ccc(-c3c4nc(c(-c5cc(S(=O)(=O)[O-])ccc5F)c5ccc([nH]5)c(-c5cc(S(=O)(=O)[O-])ccc5F)c5nc(c(-c6cc(S(=O)(=O)[O-])ccc6F)c6ccc3[nH]6)C=C5)C=C4)cc2)c(C)c1NS(=O)(=O)c1cccc2cccnc12
REMARK SMILES IDX 13 1 12 2 11 3 10 4 9 5 8 6 6 7 7 8 5 9 4 10 1 11 2 12 3 13
REMARK SMILES IDX 88 14 86 15 87 16 89 17 90 19 91 20 92 21 93 22 94 23 102 24
REMARK SMILES IDX 95 25 97 26 101 27 96 28 98 29 100 30 99 31 14 32 15 33
REMARK SMILES IDX 16 34 17 35 18 36 19 37 20 38 21 39 22 40 23 41 24 42 85 43
REMARK SMILES IDX 25 44 84 45 26 46 27 47 28 48 78 49 29 50 83 51 77 52 79 53
REMARK SMILES IDX 30 54 82 55 76 56 75 57 31 59 63 60 43 61 62 62 44 63 47 64
REMARK SMILES IDX 61 65 80 66 45 67 46 68 60 70 81 71 48 72 32 73 33 74 41 75
REMARK SMILES IDX 34 76 40 77 42 78 39 79 35 80 36 81 37 82 38 83 64 84 65 85
REMARK SMILES IDX 73 86 66 87 72 88 74 89 71 90 67 91 68 92 69 93 70 94 49 95
REMARK SMILES IDX 50 96 58 97 51 98 57 99 59 100 56 101 52 102 53 103 54 104
REMARK SMILES IDX 55 105
REMARK H PARENT 89 18 79 58 47 69
REMARK Flexibility Score: inf
ROOT
ATOM      1  C   UNL A   1      44.562  18.665  25.166  1.00  0.00     0.188 C 
ENDROOT
BRANCH   1   2
ATOM      2  C   UNL A   1      43.277  18.472  26.002  1.00  0.00     0.188 C 
BRANCH   2   3
ATOM      3  O   UNL A   1      42.659  19.593  26.624  1.00  0.00    -0.376 OA
BRANCH   3   4
ATOM      4  C   UNL A   1      41.246  19.614  26.691  1.00  0.00     0.202 C 
BRANCH   4   5
ATOM      5  C   UNL A   1      40.510  20.665  25.843  1.00  0.00     0.261 C 
BRANCH   5   6
ATOM      6  O   UNL A   1      39.790  21.710  26.556  1.00  0.00    -0.462 OA
BRANCH   6   7
ATOM      7  C   UNL A   1      38.519  22.011  26.185  1.00  0.00     0.327 C 
ATOM      8  O   UNL A   1      38.011  23.111  26.409  1.00  0.00    -0.250 OA
BRANCH   7   9
ATOM      9  C   UNL A   1      37.777  20.986  25.333  1.00  0.00     0.267 C 
BRANCH   9  10
ATOM     10  N   UNL A   1      36.378  21.222  24.985  1.00  0.00    -0.256 N 
ATOM     11  C   UNL A   1      33.061  20.022  24.827  1.00  0.00     0.071 C 
ATOM     12  C   UNL A   1      34.321  20.810  24.830  1.00  0.00     0.084 A 
ATOM     13  N   UNL A   1      35.499  20.188  25.001  1.00  0.00    -0.175 NA
ATOM     14  C   UNL A   1      34.507  22.202  24.548  1.00  0.00     0.093 A 
ATOM     15  C   UNL A   1      35.839  22.218  24.194  1.00  0.00     0.060 A 
ATOM     16  C   UNL A   1      36.591  22.896  23.122  1.00  0.00     0.069 C 
BRANCH  14  17
ATOM     17  N   UNL A   1      33.467  23.130  24.459  1.00  0.00    -0.276 N 
ATOM     18  H   UNL A   1      32.797  22.935  23.764  1.00  0.00     0.180 HD
BRANCH  17  19
ATOM     19  S   UNL A   1      33.176  24.528  25.347  1.00  0.00     0.264 S 
ATOM     20  O   UNL A   1      32.301  24.097  26.425  1.00  0.00    -0.201 OA
ATOM     21  O   UNL A   1      34.465  25.097  25.681  1.00  0.00    -0.201 OA
BRANCH  19  22
ATOM     22  C   UNL A   1      32.266  25.734  24.427  1.00  0.00     0.114 A 
ATOM     23  C   UNL A   1      31.800  25.327  23.160  1.00  0.00     0.024 A 
ATOM     24  C   UNL A   1      32.068  27.036  24.881  1.00  0.00     0.091 A 
ATOM     25  C   UNL A   1      31.302  26.251  22.255  1.00  0.00     0.002 A 
ATOM     26  C   UNL A   1      31.648  27.978  23.902  1.00  0.00     0.002 A 
ATOM     27  N   UNL A   1      32.253  27.426  26.159  1.00  0.00    -0.255 NA
ATOM     28  C   UNL A   1      31.297  27.591  22.603  1.00  0.00     0.010 A 
ATOM     29  C   UNL A   1      31.569  29.326  24.236  1.00  0.00     0.012 A 
ATOM     30  C   UNL A   1      31.992  28.712  26.483  1.00  0.00     0.112 A 
ATOM     31  C   UNL A   1      31.683  29.695  25.560  1.00  0.00     0.021 A 
ENDBRANCH  19  22
ENDBRANCH  17  19
ENDBRANCH  14  17
ENDBRANCH   9  10
ENDBRANCH   7   9
ENDBRANCH   6   7
ENDBRANCH   5   6
ENDBRANCH   4   5
ENDBRANCH   3   4
ENDBRANCH   2   3
ENDBRANCH   1   2
BRANCH   1  32
ATOM     32  O   UNL A   1      44.459  19.448  23.990  1.00  0.00    -0.377 OA
BRANCH  32  33
ATOM     33  C   UNL A   1      44.743  20.829  24.147  1.00  0.00     0.188 C 
BRANCH  33  34
ATOM     34  C   UNL A   1      46.190  21.181  24.545  1.00  0.00     0.188 C 
BRANCH  34  35
ATOM     35  O   UNL A   1      46.336  21.860  25.789  1.00  0.00    -0.376 OA
BRANCH  35  36
ATOM     36  C   UNL A   1      45.629  23.045  26.122  1.00  0.00     0.202 C 
BRANCH  36  37
ATOM     37  C   UNL A   1      45.190  24.013  25.021  1.00  0.00     0.261 C 
BRANCH  37  38
ATOM     38  O   UNL A   1      44.053  24.790  25.335  1.00  0.00    -0.460 OA
BRANCH  38  39
ATOM     39  C   UNL A   1      43.016  24.096  25.821  1.00  0.00     0.338 C 
ATOM     40  O   UNL A   1      42.607  22.998  25.438  1.00  0.00    -0.246 OA
BRANCH  39  41
ATOM     41  C   UNL A   1      42.319  24.920  26.793  1.00  0.00     0.060 A 
ATOM     42  C   UNL A   1      41.350  25.769  26.271  1.00  0.00     0.016 A 
ATOM     43  C   UNL A   1      42.931  25.130  28.039  1.00  0.00     0.016 A 
ATOM     44  C   UNL A   1      41.211  26.994  26.867  1.00  0.00     0.010 A 
ATOM     45  C   UNL A   1      42.798  26.358  28.624  1.00  0.00     0.010 A 
ATOM     46  C   UNL A   1      42.014  27.302  27.974  1.00  0.00    -0.014 A 
BRANCH  46  47
ATOM     47  C   UNL A   1      41.841  28.597  28.581  1.00  0.00     0.031 A 
ATOM     48  C   UNL A   1      42.872  29.518  28.078  1.00  0.00     0.074 A 
ATOM     49  C   UNL A   1      40.843  28.911  29.425  1.00  0.00     0.049 A 
ATOM     50  N   UNL A   1      43.982  29.809  28.666  1.00  0.00    -0.248 NA
ATOM     51  C   UNL A   1      42.833  29.888  26.652  1.00  0.00     0.031 C 
ATOM     52  C   UNL A   1      39.674  28.105  29.778  1.00  0.00     0.029 A 
ATOM     53  N   UNL A   1      40.628  30.075  30.092  1.00  0.00    -0.354 N 
ATOM     54  C   UNL A   1      44.605  30.695  27.804  1.00  0.00     0.074 A 
ATOM     55  C   UNL A   1      44.039  30.440  26.510  1.00  0.00     0.031 C 
ATOM     56  C   UNL A   1      38.771  28.889  30.415  1.00  0.00     0.029 A 
ATOM     57  C   UNL A   1      39.348  30.209  30.622  1.00  0.00     0.049 A 
ATOM     58  H   UNL A   1      41.321  30.768  30.191  1.00  0.00     0.167 HD
ATOM     59  C   UNL A   1      45.183  31.813  28.316  1.00  0.00     0.034 A 
ATOM     60  C   UNL A   1      38.796  31.344  31.138  1.00  0.00     0.034 A 
ATOM     61  C   UNL A   1      45.458  31.636  29.735  1.00  0.00     0.049 A 
ATOM     62  C   UNL A   1      39.926  32.210  31.559  1.00  0.00     0.074 A 
ATOM     63  C   UNL A   1      46.146  30.696  30.482  1.00  0.00     0.029 A 
ATOM     64  N   UNL A   1      44.638  32.292  30.628  1.00  0.00    -0.354 N 
ATOM     65  N   UNL A   1      40.742  31.895  32.528  1.00  0.00    -0.248 NA
ATOM     66  C   UNL A   1      40.450  33.180  30.608  1.00  0.00     0.031 C 
ATOM     67  C   UNL A   1      45.391  30.539  31.683  1.00  0.00     0.029 A 
ATOM     68  C   UNL A   1      44.331  31.448  31.666  1.00  0.00     0.049 A 
ATOM     69  H   UNL A   1      44.324  33.219  30.537  1.00  0.00     0.167 HD
ATOM     70  C   UNL A   1      42.001  32.247  32.065  1.00  0.00     0.074 A 
ATOM     71  C   UNL A   1      41.744  33.145  30.941  1.00  0.00     0.031 C 
ATOM     72  C   UNL A   1      43.109  31.544  32.452  1.00  0.00     0.034 A 
BRANCH  59  73
ATOM     73  C   UNL A   1      45.012  33.187  27.688  1.00  0.00     0.023 A 
ATOM     74  C   UNL A   1      46.141  33.707  27.034  1.00  0.00     0.031 A 
ATOM     75  C   UNL A   1      43.976  34.119  27.946  1.00  0.00     0.131 A 
ATOM     76  C   UNL A   1      46.277  35.089  26.824  1.00  0.00     0.055 A 
ATOM     77  C   UNL A   1      44.094  35.485  27.679  1.00  0.00     0.041 A 
ATOM     78  F   UNL A   1      42.819  33.801  28.534  1.00  0.00    -0.206 F 
ATOM     79  C   UNL A   1      45.266  35.985  27.152  1.00  0.00     0.022 A 
BRANCH  76  80
ATOM     80  S   UNL A   1      47.890  35.700  26.290  1.00  0.00     0.124 S 
ATOM     81  O   UNL A   1      47.699  37.142  26.418  1.00  0.00    -0.237 OA
ATOM     82  O   UNL A   1      48.780  35.078  27.264  1.00  0.00    -0.237 OA
ATOM     83  O   UNL A   1      48.006  35.197  24.925  1.00  0.00    -0.744 OA
ENDBRANCH  76  80
ENDBRANCH  59  73
BRANCH  60  84
ATOM     84  C   UNL A   1      37.397  31.842  30.976  1.00  0.00     0.023 A 
ATOM     85  C   UNL A   1      36.615  32.300  32.063  1.00  0.00     0.031 A 
ATOM     86  C   UNL A   1      36.896  32.119  29.684  1.00  0.00     0.131 A 
ATOM     87  C   UNL A   1      35.406  33.004  31.831  1.00  0.00     0.055 A 
ATOM     88  C   UNL A   1      35.704  32.813  29.462  1.00  0.00     0.041 A 
ATOM     89  F   UNL A   1      37.593  31.805  28.581  1.00  0.00    -0.206 F 
ATOM     90  C   UNL A   1      34.960  33.270  30.535  1.00  0.00     0.022 A 
BRANCH  87  91
ATOM     91  S   UNL A   1      34.429  33.677  33.219  1.00  0.00     0.124 S 
ATOM     92  O   UNL A   1      33.132  33.041  33.024  1.00  0.00    -0.237 OA
ATOM     93  O   UNL A   1      35.196  33.249  34.383  1.00  0.00    -0.237 OA
ATOM     94  O   UNL A   1      34.444  35.121  32.979  1.00  0.00    -0.744 OA
ENDBRANCH  87  91
ENDBRANCH  60  84
BRANCH  72  95
ATOM     95  C   UNL A   1      43.008  30.681  33.699  1.00  0.00     0.023 A 
ATOM     96  C   UNL A   1      42.401  29.406  33.779  1.00  0.00     0.031 A 
ATOM     97  C   UNL A   1      43.620  31.179  34.865  1.00  0.00     0.131 A 
ATOM     98  C   UNL A   1      42.402  28.698  34.999  1.00  0.00     0.055 A 
ATOM     99  C   UNL A   1      43.641  30.465  36.062  1.00  0.00     0.041 A 
ATOM    100  F   UNL A   1      44.231  32.375  34.857  1.00  0.00    -0.206 F 
ATOM    101  C   UNL A   1      43.022  29.226  36.137  1.00  0.00     0.022 A 
BRANCH  98 102
ATOM    102  S   UNL A   1      41.554  27.091  35.152  1.00  0.00     0.124 S 
ATOM    103  O   UNL A   1      40.631  27.078  34.023  1.00  0.00    -0.237 OA
ATOM    104  O   UNL A   1      42.663  26.143  35.081  1.00  0.00    -0.237 OA
ATOM    105  O   UNL A   1      40.908  27.171  36.465  1.00  0.00    -0.744 OA
ENDBRANCH  98 102
ENDBRANCH  72  95
ENDBRANCH  46  47
ENDBRANCH  39  41
ENDBRANCH  38  39
ENDBRANCH  37  38
ENDBRANCH  36  37
ENDBRANCH  35  36
ENDBRANCH  34  35
ENDBRANCH  33  34
ENDBRANCH  32  33
ENDBRANCH   1  32
TORSDOF 27
ENDMDL
MODEL 3
REMARK VINA RESULT:      -8.6      3.887     10.599
REMARK SMILES Cc1nn(CC(=O)OCCOCCOCCOCCOC(=O)c2ccc(-c3c4nc(c(-c5cc(S(=O)(=O)[O-])ccc5F)c5ccc([nH]5)c(-c5cc(S(=O)(=O)[O-])ccc5F)c5nc(c(-c6cc(S(=O)(=O)[O-])ccc6F)c6ccc3[nH]6)C=C5)C=C4)cc2)c(C)c1NS(=O)(=O)c1cccc2cccnc12
REMARK SMILES IDX 13 1 12 2 11 3 10 4 9 5 8 6 6 7 7 8 5 9 4 10 1 11 2 12 3 13
REMARK SMILES IDX 88 14 86 15 87 16 89 17 90 19 91 20 92 21 93 22 94 23 102 24
REMARK SMILES IDX 95 25 97 26 101 27 96 28 98 29 100 30 99 31 14 32 15 33
REMARK SMILES IDX 16 34 17 35 18 36 19 37 20 38 21 39 22 40 23 41 24 42 85 43
REMARK SMILES IDX 25 44 84 45 26 46 27 47 28 48 78 49 29 50 83 51 77 52 79 53
REMARK SMILES IDX 30 54 82 55 76 56 75 57 31 59 63 60 43 61 62 62 44 63 47 64
REMARK SMILES IDX 61 65 80 66 45 67 46 68 60 70 81 71 48 72 32 73 33 74 41 75
REMARK SMILES IDX 34 76 40 77 42 78 39 79 35 80 36 81 37 82 38 83 64 84 65 85
REMARK SMILES IDX 73 86 66 87 72 88 74 89 71 90 67 91 68 92 69 93 70 94 49 95
REMARK SMILES IDX 50 96 58 97 51 98 57 99 59 100 56 101 52 102 53 103 54 104
REMARK SMILES IDX 55 105
REMARK H PARENT 89 18 79 58 47 69
REMARK Flexibility Score: inf
ROOT
ATOM      1  C   UNL A   1      44.216  19.173  25.563  1.00  0.00     0.188 C 
ENDROOT
BRANCH   1   2
ATOM      2  C   UNL A   1      42.920  18.999  26.387  1.00  0.00     0.188 C 
BRANCH   2   3
ATOM      3  O   UNL A   1      42.179  20.143  26.796  1.00  0.00    -0.376 OA
BRANCH   3   4
ATOM      4  C   UNL A   1      40.767  20.066  26.748  1.00  0.00     0.202 C 
BRANCH   4   5
ATOM      5  C   UNL A   1      40.035  21.026  25.797  1.00  0.00     0.261 C 
BRANCH   5   6
ATOM      6  O   UNL A   1      39.282  22.117  26.402  1.00  0.00    -0.462 OA
BRANCH   6   7
ATOM      7  C   UNL A   1      38.024  22.377  25.964  1.00  0.00     0.327 C 
ATOM      8  O   UNL A   1      37.493  23.480  26.101  1.00  0.00    -0.250 OA
BRANCH   7   9
ATOM      9  C   UNL A   1      37.329  21.292  25.146  1.00  0.00     0.267 C 
BRANCH   9  10
ATOM     10  N   UNL A   1      35.891  21.386  24.906  1.00  0.00    -0.256 N 
ATOM     11  C   UNL A   1      32.704  19.870  25.021  1.00  0.00     0.071 C 
ATOM     12  C   UNL A   1      33.878  20.776  24.917  1.00  0.00     0.084 A 
ATOM     13  N   UNL A   1      35.120  20.273  25.001  1.00  0.00    -0.175 NA
ATOM     14  C   UNL A   1      33.905  22.174  24.607  1.00  0.00     0.093 A 
ATOM     15  C   UNL A   1      35.199  22.312  24.149  1.00  0.00     0.060 A 
ATOM     16  C   UNL A   1      35.796  23.040  23.015  1.00  0.00     0.069 C 
BRANCH  14  17
ATOM     17  N   UNL A   1      32.777  22.996  24.590  1.00  0.00    -0.276 N 
ATOM     18  H   UNL A   1      32.086  22.737  23.938  1.00  0.00     0.180 HD
BRANCH  17  19
ATOM     19  S   UNL A   1      32.408  24.359  25.504  1.00  0.00     0.264 S 
ATOM     20  O   UNL A   1      31.055  24.122  25.979  1.00  0.00    -0.201 OA
ATOM     21  O   UNL A   1      33.469  24.520  26.476  1.00  0.00    -0.201 OA
BRANCH  19  22
ATOM     22  C   UNL A   1      32.335  25.829  24.523  1.00  0.00     0.114 A 
ATOM     23  C   UNL A   1      33.574  26.402  24.169  1.00  0.00     0.024 A 
ATOM     24  C   UNL A   1      31.134  26.439  24.167  1.00  0.00     0.091 A 
ATOM     25  C   UNL A   1      33.639  27.675  23.625  1.00  0.00     0.002 A 
ATOM     26  C   UNL A   1      31.231  27.779  23.704  1.00  0.00     0.002 A 
ATOM     27  N   UNL A   1      29.929  25.835  24.244  1.00  0.00    -0.255 NA
ATOM     28  C   UNL A   1      32.466  28.393  23.463  1.00  0.00     0.010 A 
ATOM     29  C   UNL A   1      30.070  28.510  23.468  1.00  0.00     0.012 A 
ATOM     30  C   UNL A   1      28.839  26.521  23.834  1.00  0.00     0.112 A 
ATOM     31  C   UNL A   1      28.856  27.857  23.474  1.00  0.00     0.021 A 
ENDBRANCH  19  22
ENDBRANCH  17  19
ENDBRANCH  14  17
ENDBRANCH   9  10
ENDBRANCH   7   9
ENDBRANCH   6   7
ENDBRANCH   5   6
ENDBRANCH   4   5
ENDBRANCH   3   4
ENDBRANCH   2   3
ENDBRANCH   1   2
BRANCH   1  32
ATOM     32  O   UNL A   1      44.132  19.947  24.380  1.00  0.00    -0.377 OA
BRANCH  32  33
ATOM     33  C   UNL A   1      44.453  21.322  24.523  1.00  0.00     0.188 C 
BRANCH  33  34
ATOM     34  C   UNL A   1      45.899  21.637  24.956  1.00  0.00     0.188 C 
BRANCH  34  35
ATOM     35  O   UNL A   1      46.029  22.379  26.165  1.00  0.00    -0.376 OA
BRANCH  35  36
ATOM     36  C   UNL A   1      45.345  23.598  26.413  1.00  0.00     0.202 C 
BRANCH  36  37
ATOM     37  C   UNL A   1      44.983  24.527  25.251  1.00  0.00     0.261 C 
BRANCH  37  38
ATOM     38  O   UNL A   1      43.830  25.315  25.462  1.00  0.00    -0.460 OA
BRANCH  38  39
ATOM     39  C   UNL A   1      42.763  24.642  25.909  1.00  0.00     0.338 C 
ATOM     40  O   UNL A   1      42.332  23.565  25.492  1.00  0.00    -0.246 OA
BRANCH  39  41
ATOM     41  C   UNL A   1      42.068  25.464  26.883  1.00  0.00     0.060 A 
ATOM     42  C   UNL A   1      41.352  26.535  26.359  1.00  0.00     0.016 A 
ATOM     43  C   UNL A   1      42.497  25.410  28.218  1.00  0.00     0.016 A 
ATOM     44  C   UNL A   1      41.327  27.687  27.098  1.00  0.00     0.010 A 
ATOM     45  C   UNL A   1      42.481  26.565  28.948  1.00  0.00     0.010 A 
ATOM     46  C   UNL A   1      41.983  27.709  28.337  1.00  0.00    -0.014 A 
BRANCH  46  47
ATOM     47  C   UNL A   1      41.935  28.935  29.093  1.00  0.00     0.031 A 
ATOM     48  C   UNL A   1      43.020  29.825  28.655  1.00  0.00     0.074 A 
ATOM     49  C   UNL A   1      40.993  29.224  30.007  1.00  0.00     0.049 A 
ATOM     50  N   UNL A   1      44.168  29.960  29.226  1.00  0.00    -0.248 NA
ATOM     51  C   UNL A   1      42.965  30.360  27.283  1.00  0.00     0.031 C 
ATOM     52  C   UNL A   1      39.774  28.475  30.315  1.00  0.00     0.029 A 
ATOM     53  N   UNL A   1      40.894  30.317  30.810  1.00  0.00    -0.354 N 
ATOM     54  C   UNL A   1      44.833  30.889  28.445  1.00  0.00     0.074 A 
ATOM     55  C   UNL A   1      44.208  30.830  27.155  1.00  0.00     0.031 C 
ATOM     56  C   UNL A   1      38.959  29.248  31.073  1.00  0.00     0.029 A 
ATOM     57  C   UNL A   1      39.647  30.487  31.403  1.00  0.00     0.049 A 
ATOM     58  H   UNL A   1      41.644  30.939  30.958  1.00  0.00     0.167 HD
ATOM     59  C   UNL A   1      45.517  31.893  29.056  1.00  0.00     0.034 A 
ATOM     60  C   UNL A   1      39.206  31.593  32.066  1.00  0.00     0.034 A 
ATOM     61  C   UNL A   1      45.821  31.532  30.433  1.00  0.00     0.049 A 
ATOM     62  C   UNL A   1      40.415  32.315  32.536  1.00  0.00     0.074 A 
ATOM     63  C   UNL A   1      46.454  30.462  31.040  1.00  0.00     0.029 A 
ATOM     64  N   UNL A   1      45.087  32.141  31.428  1.00  0.00    -0.354 N 
ATOM     65  N   UNL A   1      41.233  31.829  33.428  1.00  0.00    -0.248 NA
ATOM     66  C   UNL A   1      40.985  33.345  31.679  1.00  0.00     0.031 C 
ATOM     67  C   UNL A   1      45.728  30.226  32.246  1.00  0.00     0.029 A 
ATOM     68  C   UNL A   1      44.745  31.210  32.375  1.00  0.00     0.049 A 
ATOM     69  H   UNL A   1      44.845  33.095  31.454  1.00  0.00     0.167 HD
ATOM     70  C   UNL A   1      42.501  32.134  32.957  1.00  0.00     0.074 A 
ATOM     71  C   UNL A   1      42.282  33.173  31.952  1.00  0.00     0.031 C 
ATOM     72  C   UNL A   1      43.560  31.308  33.216  1.00  0.00     0.034 A 
BRANCH  59  73
ATOM     73  C   UNL A   1      45.437  33.340  28.594  1.00  0.00     0.023 A 
ATOM     74  C   UNL A   1      44.233  34.006  28.871  1.00  0.00     0.031 A 
ATOM     75  C   UNL A   1      46.289  33.985  27.663  1.00  0.00     0.131 A 
ATOM     76  C   UNL A   1      43.849  35.135  28.130  1.00  0.00     0.055 A 
ATOM     77  C   UNL A   1      45.927  35.144  26.974  1.00  0.00     0.041 A 
ATOM     78  F   UNL A   1      47.485  33.514  27.299  1.00  0.00    -0.206 F 
ATOM     79  C   UNL A   1      44.682  35.704  27.174  1.00  0.00     0.022 A 
BRANCH  76  80
ATOM     80  S   UNL A   1      42.152  35.722  28.315  1.00  0.00     0.124 S 
ATOM     81  O   UNL A   1      41.812  36.037  26.931  1.00  0.00    -0.237 OA
ATOM     82  O   UNL A   1      41.495  34.556  28.893  1.00  0.00    -0.237 OA
ATOM     83  O   UNL A   1      42.288  36.870  29.208  1.00  0.00    -0.744 OA
ENDBRANCH  76  80
ENDBRANCH  59  73
BRANCH  60  84
ATOM     84  C   UNL A   1      37.847  32.213  32.019  1.00  0.00     0.023 A 
ATOM     85  C   UNL A   1      37.153  32.449  30.809  1.00  0.00     0.031 A 
ATOM     86  C   UNL A   1      37.095  32.347  33.208  1.00  0.00     0.131 A 
ATOM     87  C   UNL A   1      35.776  32.788  30.825  1.00  0.00     0.055 A 
ATOM     88  C   UNL A   1      35.739  32.681  33.218  1.00  0.00     0.041 A 
ATOM     89  F   UNL A   1      37.628  32.067  34.407  1.00  0.00    -0.206 F 
ATOM     90  C   UNL A   1      35.070  32.891  32.026  1.00  0.00     0.022 A 
BRANCH  87  91
ATOM     91  S   UNL A   1      34.844  33.011  29.272  1.00  0.00     0.124 S 
ATOM     92  O   UNL A   1      33.672  33.756  29.715  1.00  0.00    -0.237 OA
ATOM     93  O   UNL A   1      35.795  33.731  28.433  1.00  0.00    -0.237 OA
ATOM     94  O   UNL A   1      34.568  31.639  28.838  1.00  0.00    -0.744 OA
ENDBRANCH  87  91
ENDBRANCH  60  84
BRANCH  72  95
ATOM     95  C   UNL A   1      43.430  30.316  34.362  1.00  0.00     0.023 A 
ATOM     96  C   UNL A   1      43.105  28.945  34.239  1.00  0.00     0.031 A 
ATOM     97  C   UNL A   1      43.708  30.801  35.653  1.00  0.00     0.131 A 
ATOM     98  C   UNL A   1      43.044  28.128  35.387  1.00  0.00     0.055 A 
ATOM     99  C   UNL A   1      43.671  29.985  36.783  1.00  0.00     0.041 A 
ATOM    100  F   UNL A   1      44.041  32.089  35.843  1.00  0.00    -0.206 F 
ATOM    101  C   UNL A   1      43.328  28.647  36.655  1.00  0.00     0.022 A 
BRANCH  98 102
ATOM    102  S   UNL A   1      42.545  26.378  35.268  1.00  0.00     0.124 S 
ATOM    103  O   UNL A   1      42.838  26.028  33.883  1.00  0.00    -0.237 OA
ATOM    104  O   UNL A   1      43.387  25.743  36.279  1.00  0.00    -0.237 OA
ATOM    105  O   UNL A   1      41.118  26.408  35.600  1.00  0.00    -0.744 OA
ENDBRANCH  98 102
ENDBRANCH  72  95
ENDBRANCH  46  47
ENDBRANCH  39  41
ENDBRANCH  38  39
ENDBRANCH  37  38
ENDBRANCH  36  37
ENDBRANCH  35  36
ENDBRANCH  34  35
ENDBRANCH  33  34
ENDBRANCH  32  33
ENDBRANCH   1  32
TORSDOF 27
ENDMDL
