MODEL 1
REMARK VINA RESULT:      -8.2      0.000      0.000
REMARK SMILES [NH3+][C@@]1(C(=O)OCCOCCOCCOCCOC(=O)c2ccc(-c3c4nc(c(-c5cc(S(=O)(=O)[O-])ccc5F)c5ccc([nH]5)c(-c5cc(S(=O)(=O)[O-])ccc5F)c5nc(c(-c6cc(S(=O)(=O)[O-])ccc6F)c6ccc3[nH]6)C=C5)C=C4)cc2)CC[C@@H](Sc2ccc(Cl)c(Cl)c2)C1
REMARK SMILES IDX 12 1 11 2 10 3 9 4 8 5 7 6 6 7 5 8 3 9 4 10 2 11 83 12 95 13
REMARK SMILES IDX 84 14 85 15 1 16 86 20 87 21 88 22 94 23 89 24 92 25 90 26
REMARK SMILES IDX 93 27 91 28 13 29 14 30 15 31 16 32 17 33 18 34 19 35 20 36
REMARK SMILES IDX 21 37 82 38 22 39 81 40 23 41 24 42 25 43 75 44 26 45 80 46
REMARK SMILES IDX 74 47 76 48 27 49 79 50 73 51 72 52 28 54 60 55 40 56 59 57
REMARK SMILES IDX 41 58 44 59 58 60 77 61 42 62 43 63 57 65 78 66 45 67 29 68
REMARK SMILES IDX 30 69 38 70 31 71 37 72 39 73 36 74 32 75 33 76 34 77 35 78
REMARK SMILES IDX 61 79 62 80 70 81 63 82 69 83 71 84 68 85 64 86 65 87 66 88
REMARK SMILES IDX 67 89 46 90 47 91 55 92 48 93 54 94 56 95 53 96 49 97 50 98
REMARK SMILES IDX 51 99 52 100
REMARK H PARENT 1 17 1 18 1 19 76 53 44 64
REMARK Flexibility Score: inf
ROOT
ATOM      1  C   UNL A   1      44.129  18.807  25.009  1.00  0.00     0.188 C 
ENDROOT
BRANCH   1   2
ATOM      2  O   UNL A   1      44.196  20.115  24.470  1.00  0.00    -0.377 OA
BRANCH   2   3
ATOM      3  C   UNL A   1      45.236  20.893  25.002  1.00  0.00     0.188 C 
BRANCH   3   4
ATOM      4  C   UNL A   1      45.842  22.075  24.253  1.00  0.00     0.188 C 
BRANCH   4   5
ATOM      5  O   UNL A   1      45.078  23.237  23.999  1.00  0.00    -0.376 OA
BRANCH   5   6
ATOM      6  C   UNL A   1      44.024  23.736  24.798  1.00  0.00     0.202 C 
BRANCH   6   7
ATOM      7  C   UNL A   1      43.676  25.216  25.081  1.00  0.00     0.261 C 
BRANCH   7   8
ATOM      8  O   UNL A   1      44.675  26.085  25.639  1.00  0.00    -0.459 OA
BRANCH   8   9
ATOM      9  C   UNL A   1      44.391  27.409  25.548  1.00  0.00     0.368 C 
ATOM     10  O   UNL A   1      43.410  27.838  24.945  1.00  0.00    -0.245 OA
BRANCH   9  11
ATOM     11  C   UNL A   1      45.427  28.345  26.275  1.00  0.00     0.193 C 
ATOM     12  C   UNL A   1      45.054  28.379  27.762  1.00  0.00     0.082 C 
ATOM     13  C   UNL A   1      45.544  29.841  25.896  1.00  0.00     0.095 C 
ATOM     14  C   UNL A   1      44.214  29.644  27.917  1.00  0.00     0.022 C 
ATOM     15  C   UNL A   1      44.841  30.664  26.976  1.00  0.00     0.059 C 
BRANCH  11  16
ATOM     16  N   UNL A   1      46.754  27.707  26.086  1.00  0.00    -0.343 N 
ATOM     17  H   UNL A   1      46.691  27.004  25.349  1.00  0.00     0.345 HD
ATOM     18  H   UNL A   1      47.044  27.262  26.957  1.00  0.00     0.345 HD
ATOM     19  H   UNL A   1      47.438  28.416  25.822  1.00  0.00     0.345 HD
ENDBRANCH  11  16
BRANCH  15  20
ATOM     20  S   UNL A   1      45.923  31.951  27.739  1.00  0.00    -0.122 SA
BRANCH  20  21
ATOM     21  C   UNL A   1      44.990  33.444  27.496  1.00  0.00     0.009 A 
ATOM     22  C   UNL A   1      44.550  33.770  26.212  1.00  0.00     0.017 A 
ATOM     23  C   UNL A   1      44.703  34.303  28.559  1.00  0.00     0.037 A 
ATOM     24  C   UNL A   1      43.767  34.909  26.004  1.00  0.00     0.023 A 
ATOM     25  C   UNL A   1      43.894  35.426  28.362  1.00  0.00     0.060 A 
ATOM     26  C   UNL A   1      43.421  35.728  27.082  1.00  0.00     0.059 A 
ATOM     27  Cl  UNL A   1      43.493  36.377  29.748  1.00  0.00    -0.083 Cl
ATOM     28  Cl  UNL A   1      42.409  37.090  26.763  1.00  0.00    -0.083 Cl
ENDBRANCH  20  21
ENDBRANCH  15  20
ENDBRANCH   9  11
ENDBRANCH   8   9
ENDBRANCH   7   8
ENDBRANCH   6   7
ENDBRANCH   5   6
ENDBRANCH   4   5
ENDBRANCH   3   4
ENDBRANCH   2   3
ENDBRANCH   1   2
BRANCH   1  29
ATOM     29  C   UNL A   1      43.194  18.794  26.211  1.00  0.00     0.188 C 
BRANCH  29  30
ATOM     30  O   UNL A   1      42.178  19.780  26.182  1.00  0.00    -0.376 OA
BRANCH  30  31
ATOM     31  C   UNL A   1      41.791  20.501  27.344  1.00  0.00     0.202 C 
BRANCH  31  32
ATOM     32  C   UNL A   1      40.672  21.567  27.488  1.00  0.00     0.261 C 
BRANCH  32  33
ATOM     33  O   UNL A   1      40.749  22.804  26.779  1.00  0.00    -0.460 OA
BRANCH  33  34
ATOM     34  C   UNL A   1      39.600  23.450  26.505  1.00  0.00     0.338 C 
ATOM     35  O   UNL A   1      38.638  23.003  25.907  1.00  0.00    -0.246 OA
BRANCH  34  36
ATOM     36  C   UNL A   1      39.643  24.731  27.250  1.00  0.00     0.060 A 
ATOM     37  C   UNL A   1      40.320  25.818  26.682  1.00  0.00     0.016 A 
ATOM     38  C   UNL A   1      38.981  24.877  28.474  1.00  0.00     0.016 A 
ATOM     39  C   UNL A   1      40.364  27.043  27.347  1.00  0.00     0.010 A 
ATOM     40  C   UNL A   1      39.055  26.096  29.157  1.00  0.00     0.010 A 
ATOM     41  C   UNL A   1      39.776  27.173  28.611  1.00  0.00    -0.014 A 
BRANCH  41  42
ATOM     42  C   UNL A   1      40.130  28.342  29.454  1.00  0.00     0.031 A 
ATOM     43  C   UNL A   1      41.454  28.314  30.169  1.00  0.00     0.074 A 
ATOM     44  C   UNL A   1      39.330  29.418  29.551  1.00  0.00     0.049 A 
ATOM     45  N   UNL A   1      41.984  29.188  30.982  1.00  0.00    -0.248 NA
ATOM     46  C   UNL A   1      42.291  27.127  29.928  1.00  0.00     0.031 C 
ATOM     47  C   UNL A   1      38.056  29.589  28.857  1.00  0.00     0.029 A 
ATOM     48  N   UNL A   1      39.476  30.573  30.277  1.00  0.00    -0.354 N 
ATOM     49  C   UNL A   1      43.216  28.659  31.352  1.00  0.00     0.074 A 
ATOM     50  C   UNL A   1      43.329  27.366  30.711  1.00  0.00     0.031 C 
ATOM     51  C   UNL A   1      37.533  30.781  29.195  1.00  0.00     0.029 A 
ATOM     52  C   UNL A   1      38.414  31.438  30.161  1.00  0.00     0.049 A 
ATOM     53  H   UNL A   1      40.269  30.765  30.829  1.00  0.00     0.167 HD
ATOM     54  C   UNL A   1      44.170  29.204  32.145  1.00  0.00     0.034 A 
ATOM     55  C   UNL A   1      38.173  32.612  30.782  1.00  0.00     0.034 A 
ATOM     56  C   UNL A   1      44.029  30.483  32.799  1.00  0.00     0.049 A 
ATOM     57  C   UNL A   1      39.196  33.147  31.758  1.00  0.00     0.074 A 
ATOM     58  C   UNL A   1      44.929  31.132  33.624  1.00  0.00     0.029 A 
ATOM     59  N   UNL A   1      42.906  31.297  32.717  1.00  0.00    -0.354 N 
ATOM     60  N   UNL A   1      40.359  32.642  32.102  1.00  0.00    -0.248 NA
ATOM     61  C   UNL A   1      38.873  34.416  32.425  1.00  0.00     0.031 C 
ATOM     62  C   UNL A   1      44.318  32.295  34.108  1.00  0.00     0.029 A 
ATOM     63  C   UNL A   1      43.074  32.422  33.510  1.00  0.00     0.049 A 
ATOM     64  H   UNL A   1      42.109  31.104  32.173  1.00  0.00     0.167 HD
ATOM     65  C   UNL A   1      40.919  33.549  32.999  1.00  0.00     0.074 A 
ATOM     66  C   UNL A   1      39.972  34.636  33.133  1.00  0.00     0.031 C 
ATOM     67  C   UNL A   1      42.113  33.494  33.647  1.00  0.00     0.034 A 
BRANCH  54  68
ATOM     68  C   UNL A   1      45.411  28.380  32.393  1.00  0.00     0.023 A 
ATOM     69  C   UNL A   1      45.480  27.439  33.437  1.00  0.00     0.031 A 
ATOM     70  C   UNL A   1      46.566  28.583  31.617  1.00  0.00     0.131 A 
ATOM     71  C   UNL A   1      46.698  26.809  33.733  1.00  0.00     0.055 A 
ATOM     72  C   UNL A   1      47.749  27.882  31.858  1.00  0.00     0.041 A 
ATOM     73  F   UNL A   1      46.573  29.486  30.625  1.00  0.00    -0.206 F 
ATOM     74  C   UNL A   1      47.826  27.002  32.934  1.00  0.00     0.022 A 
BRANCH  71  75
ATOM     75  S   UNL A   1      46.833  25.877  35.284  1.00  0.00     0.124 S 
ATOM     76  O   UNL A   1      48.117  25.200  35.109  1.00  0.00    -0.237 OA
ATOM     77  O   UNL A   1      46.799  26.931  36.290  1.00  0.00    -0.237 OA
ATOM     78  O   UNL A   1      45.666  24.997  35.259  1.00  0.00    -0.744 OA
ENDBRANCH  71  75
ENDBRANCH  54  68
BRANCH  55  79
ATOM     79  C   UNL A   1      36.899  33.348  30.538  1.00  0.00     0.023 A 
ATOM     80  C   UNL A   1      36.001  33.618  31.583  1.00  0.00     0.031 A 
ATOM     81  C   UNL A   1      36.536  33.749  29.239  1.00  0.00     0.131 A 
ATOM     82  C   UNL A   1      34.770  34.234  31.307  1.00  0.00     0.055 A 
ATOM     83  C   UNL A   1      35.334  34.410  28.977  1.00  0.00     0.041 A 
ATOM     84  F   UNL A   1      37.354  33.512  28.201  1.00  0.00    -0.206 F 
ATOM     85  C   UNL A   1      34.437  34.646  30.014  1.00  0.00     0.022 A 
BRANCH  82  86
ATOM     86  S   UNL A   1      33.570  34.425  32.655  1.00  0.00     0.124 S 
ATOM     87  O   UNL A   1      33.423  33.049  33.116  1.00  0.00    -0.237 OA
ATOM     88  O   UNL A   1      34.271  35.334  33.556  1.00  0.00    -0.237 OA
ATOM     89  O   UNL A   1      32.400  34.991  31.989  1.00  0.00    -0.744 OA
ENDBRANCH  82  86
ENDBRANCH  55  79
BRANCH  67  90
ATOM     90  C   UNL A   1      42.481  34.669  34.524  1.00  0.00     0.023 A 
ATOM     91  C   UNL A   1      42.344  34.627  35.922  1.00  0.00     0.031 A 
ATOM     92  C   UNL A   1      42.977  35.853  33.946  1.00  0.00     0.131 A 
ATOM     93  C   UNL A   1      42.643  35.764  36.690  1.00  0.00     0.055 A 
ATOM     94  C   UNL A   1      43.338  36.956  34.720  1.00  0.00     0.041 A 
ATOM     95  F   UNL A   1      43.125  35.954  32.616  1.00  0.00    -0.206 F 
ATOM     96  C   UNL A   1      43.158  36.921  36.100  1.00  0.00     0.022 A 
BRANCH  93  97
ATOM     97  S   UNL A   1      42.250  35.747  38.461  1.00  0.00     0.124 S 
ATOM     98  O   UNL A   1      43.218  36.700  38.994  1.00  0.00    -0.237 OA
ATOM     99  O   UNL A   1      40.857  36.179  38.476  1.00  0.00    -0.237 OA
ATOM    100  O   UNL A   1      42.471  34.355  38.848  1.00  0.00    -0.744 OA
ENDBRANCH  93  97
ENDBRANCH  67  90
ENDBRANCH  41  42
ENDBRANCH  34  36
ENDBRANCH  33  34
ENDBRANCH  32  33
ENDBRANCH  31  32
ENDBRANCH  30  31
ENDBRANCH  29  30
ENDBRANCH   1  29
TORSDOF 26
ENDMDL
MODEL 2
REMARK VINA RESULT:      -8.0      5.276      8.183
REMARK SMILES [NH3+][C@@]1(C(=O)OCCOCCOCCOCCOC(=O)c2ccc(-c3c4nc(c(-c5cc(S(=O)(=O)[O-])ccc5F)c5ccc([nH]5)c(-c5cc(S(=O)(=O)[O-])ccc5F)c5nc(c(-c6cc(S(=O)(=O)[O-])ccc6F)c6ccc3[nH]6)C=C5)C=C4)cc2)CC[C@@H](Sc2ccc(Cl)c(Cl)c2)C1
REMARK SMILES IDX 12 1 11 2 10 3 9 4 8 5 7 6 6 7 5 8 3 9 4 10 2 11 83 12 95 13
REMARK SMILES IDX 84 14 85 15 1 16 86 20 87 21 88 22 94 23 89 24 92 25 90 26
REMARK SMILES IDX 93 27 91 28 13 29 14 30 15 31 16 32 17 33 18 34 19 35 20 36
REMARK SMILES IDX 21 37 82 38 22 39 81 40 23 41 24 42 25 43 75 44 26 45 80 46
REMARK SMILES IDX 74 47 76 48 27 49 79 50 73 51 72 52 28 54 60 55 40 56 59 57
REMARK SMILES IDX 41 58 44 59 58 60 77 61 42 62 43 63 57 65 78 66 45 67 29 68
REMARK SMILES IDX 30 69 38 70 31 71 37 72 39 73 36 74 32 75 33 76 34 77 35 78
REMARK SMILES IDX 61 79 62 80 70 81 63 82 69 83 71 84 68 85 64 86 65 87 66 88
REMARK SMILES IDX 67 89 46 90 47 91 55 92 48 93 54 94 56 95 53 96 49 97 50 98
REMARK SMILES IDX 51 99 52 100
REMARK H PARENT 1 17 1 18 1 19 76 53 44 64
REMARK Flexibility Score: inf
ROOT
ATOM      1  C   UNL A   1      41.943  23.363  26.941  1.00  0.00     0.188 C 
ENDROOT
BRANCH   1   2
ATOM      2  O   UNL A   1      40.627  23.760  26.599  1.00  0.00    -0.377 OA
BRANCH   2   3
ATOM      3  C   UNL A   1      39.649  22.802  26.908  1.00  0.00     0.188 C 
BRANCH   3   4
ATOM      4  C   UNL A   1      38.867  22.053  25.834  1.00  0.00     0.188 C 
BRANCH   4   5
ATOM      5  O   UNL A   1      37.552  22.444  25.494  1.00  0.00    -0.376 OA
BRANCH   5   6
ATOM      6  C   UNL A   1      36.467  21.579  25.221  1.00  0.00     0.202 C 
BRANCH   6   7
ATOM      7  C   UNL A   1      35.154  21.433  26.024  1.00  0.00     0.261 C 
BRANCH   7   8
ATOM      8  O   UNL A   1      33.960  22.077  25.552  1.00  0.00    -0.459 OA
BRANCH   8   9
ATOM      9  C   UNL A   1      33.403  21.507  24.453  1.00  0.00     0.368 C 
ATOM     10  O   UNL A   1      33.310  20.289  24.311  1.00  0.00    -0.245 OA
BRANCH   9  11
ATOM     11  C   UNL A   1      32.891  22.536  23.377  1.00  0.00     0.193 C 
ATOM     12  C   UNL A   1      34.124  23.189  22.741  1.00  0.00     0.082 C 
ATOM     13  C   UNL A   1      32.014  23.742  23.790  1.00  0.00     0.095 C 
ATOM     14  C   UNL A   1      34.304  24.496  23.509  1.00  0.00     0.022 C 
ATOM     15  C   UNL A   1      32.893  24.992  23.799  1.00  0.00     0.059 C 
BRANCH  11  16
ATOM     16  N   UNL A   1      32.148  21.736  22.371  1.00  0.00    -0.343 N 
ATOM     17  H   UNL A   1      32.177  22.213  21.470  1.00  0.00     0.345 HD
ATOM     18  H   UNL A   1      31.179  21.630  22.669  1.00  0.00     0.345 HD
ATOM     19  H   UNL A   1      32.580  20.817  22.283  1.00  0.00     0.345 HD
ENDBRANCH  11  16
BRANCH  15  20
ATOM     20  S   UNL A   1      32.248  26.351  22.729  1.00  0.00    -0.122 SA
BRANCH  20  21
ATOM     21  C   UNL A   1      32.191  27.735  23.841  1.00  0.00     0.009 A 
ATOM     22  C   UNL A   1      31.160  28.669  23.713  1.00  0.00     0.017 A 
ATOM     23  C   UNL A   1      33.162  27.916  24.829  1.00  0.00     0.037 A 
ATOM     24  C   UNL A   1      31.060  29.735  24.611  1.00  0.00     0.023 A 
ATOM     25  C   UNL A   1      33.049  28.964  25.748  1.00  0.00     0.060 A 
ATOM     26  C   UNL A   1      31.993  29.874  25.642  1.00  0.00     0.059 A 
ATOM     27  Cl  UNL A   1      34.230  29.054  27.006  1.00  0.00    -0.083 Cl
ATOM     28  Cl  UNL A   1      31.783  31.183  26.747  1.00  0.00    -0.083 Cl
ENDBRANCH  20  21
ENDBRANCH  15  20
ENDBRANCH   9  11
ENDBRANCH   8   9
ENDBRANCH   7   8
ENDBRANCH   6   7
ENDBRANCH   5   6
ENDBRANCH   4   5
ENDBRANCH   3   4
ENDBRANCH   2   3
ENDBRANCH   1   2
BRANCH   1  29
ATOM     29  C   UNL A   1      42.105  21.868  26.703  1.00  0.00     0.188 C 
BRANCH  29  30
ATOM     30  O   UNL A   1      42.641  21.523  25.439  1.00  0.00    -0.376 OA
BRANCH  30  31
ATOM     31  C   UNL A   1      43.971  21.860  25.064  1.00  0.00     0.202 C 
BRANCH  31  32
ATOM     32  C   UNL A   1      44.439  22.827  23.945  1.00  0.00     0.261 C 
BRANCH  32  33
ATOM     33  O   UNL A   1      45.246  23.963  24.254  1.00  0.00    -0.460 OA
BRANCH  33  34
ATOM     34  C   UNL A   1      45.858  23.999  25.453  1.00  0.00     0.338 C 
ATOM     35  O   UNL A   1      46.766  23.281  25.829  1.00  0.00    -0.246 OA
BRANCH  34  36
ATOM     36  C   UNL A   1      45.364  25.213  26.148  1.00  0.00     0.060 A 
ATOM     37  C   UNL A   1      44.893  26.284  25.379  1.00  0.00     0.016 A 
ATOM     38  C   UNL A   1      45.318  25.276  27.545  1.00  0.00     0.016 A 
ATOM     39  C   UNL A   1      44.404  27.433  26.000  1.00  0.00     0.010 A 
ATOM     40  C   UNL A   1      44.859  26.442  28.168  1.00  0.00     0.010 A 
ATOM     41  C   UNL A   1      44.432  27.537  27.396  1.00  0.00    -0.014 A 
BRANCH  41  42
ATOM     42  C   UNL A   1      44.254  28.871  28.023  1.00  0.00     0.031 A 
ATOM     43  C   UNL A   1      45.459  29.768  28.113  1.00  0.00     0.074 A 
ATOM     44  C   UNL A   1      43.056  29.298  28.457  1.00  0.00     0.049 A 
ATOM     45  N   UNL A   1      45.576  30.960  28.636  1.00  0.00    -0.248 NA
ATOM     46  C   UNL A   1      46.702  29.238  27.532  1.00  0.00     0.031 C 
ATOM     47  C   UNL A   1      41.806  28.547  28.365  1.00  0.00     0.029 A 
ATOM     48  N   UNL A   1      42.698  30.476  29.064  1.00  0.00    -0.354 N 
ATOM     49  C   UNL A   1      46.906  31.323  28.448  1.00  0.00     0.074 A 
ATOM     50  C   UNL A   1      47.562  30.203  27.807  1.00  0.00     0.031 C 
ATOM     51  C   UNL A   1      40.816  29.282  28.903  1.00  0.00     0.029 A 
ATOM     52  C   UNL A   1      41.369  30.536  29.414  1.00  0.00     0.049 A 
ATOM     53  H   UNL A   1      43.332  31.209  29.234  1.00  0.00     0.167 HD
ATOM     54  C   UNL A   1      47.521  32.487  28.771  1.00  0.00     0.034 A 
ATOM     55  C   UNL A   1      40.688  31.485  30.090  1.00  0.00     0.034 A 
ATOM     56  C   UNL A   1      46.858  33.582  29.435  1.00  0.00     0.049 A 
ATOM     57  C   UNL A   1      41.420  32.726  30.550  1.00  0.00     0.074 A 
ATOM     58  C   UNL A   1      47.382  34.806  29.811  1.00  0.00     0.029 A 
ATOM     59  N   UNL A   1      45.529  33.577  29.841  1.00  0.00    -0.354 N 
ATOM     60  N   UNL A   1      42.677  33.062  30.368  1.00  0.00    -0.248 NA
ATOM     61  C   UNL A   1      40.638  33.716  31.302  1.00  0.00     0.031 C 
ATOM     62  C   UNL A   1      46.396  35.504  30.517  1.00  0.00     0.029 A 
ATOM     63  C   UNL A   1      45.228  34.759  30.500  1.00  0.00     0.049 A 
ATOM     64  H   UNL A   1      44.894  32.842  29.681  1.00  0.00     0.167 HD
ATOM     65  C   UNL A   1      42.825  34.318  30.954  1.00  0.00     0.074 A 
ATOM     66  C   UNL A   1      41.527  34.681  31.484  1.00  0.00     0.031 C 
ATOM     67  C   UNL A   1      43.931  35.104  31.039  1.00  0.00     0.034 A 
BRANCH  54  68
ATOM     68  C   UNL A   1      48.997  32.591  28.466  1.00  0.00     0.023 A 
ATOM     69  C   UNL A   1      49.467  33.115  27.248  1.00  0.00     0.031 A 
ATOM     70  C   UNL A   1      49.948  32.099  29.377  1.00  0.00     0.131 A 
ATOM     71  C   UNL A   1      50.833  33.049  26.937  1.00  0.00     0.055 A 
ATOM     72  C   UNL A   1      51.316  32.123  29.100  1.00  0.00     0.041 A 
ATOM     73  F   UNL A   1      49.561  31.561  30.544  1.00  0.00    -0.206 F 
ATOM     74  C   UNL A   1      51.765  32.582  27.866  1.00  0.00     0.022 A 
BRANCH  71  75
ATOM     75  S   UNL A   1      51.351  33.411  25.236  1.00  0.00     0.124 S 
ATOM     76  O   UNL A   1      51.283  32.087  24.620  1.00  0.00    -0.237 OA
ATOM     77  O   UNL A   1      50.346  34.371  24.798  1.00  0.00    -0.237 OA
ATOM     78  O   UNL A   1      52.702  33.946  25.395  1.00  0.00    -0.744 OA
ENDBRANCH  71  75
ENDBRANCH  54  68
BRANCH  55  79
ATOM     79  C   UNL A   1      39.243  31.294  30.411  1.00  0.00     0.023 A 
ATOM     80  C   UNL A   1      38.239  31.874  29.620  1.00  0.00     0.031 A 
ATOM     81  C   UNL A   1      38.848  30.568  31.549  1.00  0.00     0.131 A 
ATOM     82  C   UNL A   1      36.892  31.749  29.998  1.00  0.00     0.055 A 
ATOM     83  C   UNL A   1      37.505  30.401  31.892  1.00  0.00     0.041 A 
ATOM     84  F   UNL A   1      39.767  29.996  32.344  1.00  0.00    -0.206 F 
ATOM     85  C   UNL A   1      36.518  31.005  31.119  1.00  0.00     0.022 A 
BRANCH  82  86
ATOM     86  S   UNL A   1      35.634  32.642  29.043  1.00  0.00     0.124 S 
ATOM     87  O   UNL A   1      35.693  33.969  29.643  1.00  0.00    -0.237 OA
ATOM     88  O   UNL A   1      36.150  32.527  27.683  1.00  0.00    -0.237 OA
ATOM     89  O   UNL A   1      34.410  31.889  29.307  1.00  0.00    -0.744 OA
ENDBRANCH  82  86
ENDBRANCH  55  79
BRANCH  67  90
ATOM     90  C   UNL A   1      43.770  36.459  31.690  1.00  0.00     0.023 A 
ATOM     91  C   UNL A   1      43.766  37.649  30.942  1.00  0.00     0.031 A 
ATOM     92  C   UNL A   1      43.621  36.558  33.086  1.00  0.00     0.131 A 
ATOM     93  C   UNL A   1      43.674  38.887  31.596  1.00  0.00     0.055 A 
ATOM     94  C   UNL A   1      43.460  37.789  33.725  1.00  0.00     0.041 A 
ATOM     95  F   UNL A   1      43.622  35.457  33.854  1.00  0.00    -0.206 F 
ATOM     96  C   UNL A   1      43.501  38.964  32.981  1.00  0.00     0.022 A 
BRANCH  93  97
ATOM     97  S   UNL A   1      43.888  40.404  30.625  1.00  0.00     0.124 S 
ATOM     98  O   UNL A   1      44.949  40.023  29.699  1.00  0.00    -0.237 OA
ATOM     99  O   UNL A   1      42.566  40.589  30.038  1.00  0.00    -0.237 OA
ATOM    100  O   UNL A   1      44.266  41.401  31.625  1.00  0.00    -0.744 OA
ENDBRANCH  93  97
ENDBRANCH  67  90
ENDBRANCH  41  42
ENDBRANCH  34  36
ENDBRANCH  33  34
ENDBRANCH  32  33
ENDBRANCH  31  32
ENDBRANCH  30  31
ENDBRANCH  29  30
ENDBRANCH   1  29
TORSDOF 26
ENDMDL
MODEL 3
REMARK VINA RESULT:      -7.8      4.723      7.542
REMARK SMILES [NH3+][C@@]1(C(=O)OCCOCCOCCOCCOC(=O)c2ccc(-c3c4nc(c(-c5cc(S(=O)(=O)[O-])ccc5F)c5ccc([nH]5)c(-c5cc(S(=O)(=O)[O-])ccc5F)c5nc(c(-c6cc(S(=O)(=O)[O-])ccc6F)c6ccc3[nH]6)C=C5)C=C4)cc2)CC[C@@H](Sc2ccc(Cl)c(Cl)c2)C1
REMARK SMILES IDX 12 1 11 2 10 3 9 4 8 5 7 6 6 7 5 8 3 9 4 10 2 11 83 12 95 13
REMARK SMILES IDX 84 14 85 15 1 16 86 20 87 21 88 22 94 23 89 24 92 25 90 26
REMARK SMILES IDX 93 27 91 28 13 29 14 30 15 31 16 32 17 33 18 34 19 35 20 36
REMARK SMILES IDX 21 37 82 38 22 39 81 40 23 41 24 42 25 43 75 44 26 45 80 46
REMARK SMILES IDX 74 47 76 48 27 49 79 50 73 51 72 52 28 54 60 55 40 56 59 57
REMARK SMILES IDX 41 58 44 59 58 60 77 61 42 62 43 63 57 65 78 66 45 67 29 68
REMARK SMILES IDX 30 69 38 70 31 71 37 72 39 73 36 74 32 75 33 76 34 77 35 78
REMARK SMILES IDX 61 79 62 80 70 81 63 82 69 83 71 84 68 85 64 86 65 87 66 88
REMARK SMILES IDX 67 89 46 90 47 91 55 92 48 93 54 94 56 95 53 96 49 97 50 98
REMARK SMILES IDX 51 99 52 100
REMARK H PARENT 1 17 1 18 1 19 76 53 44 64
REMARK Flexibility Score: inf
ROOT
ATOM      1  C   UNL A   1      42.338  26.076  26.338  1.00  0.00     0.188 C 
ENDROOT
BRANCH   1   2
ATOM      2  O   UNL A   1      41.612  24.945  26.786  1.00  0.00    -0.377 OA
BRANCH   2   3
ATOM      3  C   UNL A   1      40.283  24.911  26.335  1.00  0.00     0.188 C 
BRANCH   3   4
ATOM      4  C   UNL A   1      39.094  24.861  27.288  1.00  0.00     0.188 C 
BRANCH   4   5
ATOM      5  O   UNL A   1      37.902  24.196  26.923  1.00  0.00    -0.376 OA
BRANCH   5   6
ATOM      6  C   UNL A   1      37.507  23.848  25.610  1.00  0.00     0.202 C 
BRANCH   6   7
ATOM      7  C   UNL A   1      36.949  22.491  25.124  1.00  0.00     0.261 C 
BRANCH   7   8
ATOM      8  O   UNL A   1      36.182  21.676  26.024  1.00  0.00    -0.459 OA
BRANCH   8   9
ATOM      9  C   UNL A   1      35.365  20.775  25.421  1.00  0.00     0.368 C 
ATOM     10  O   UNL A   1      35.792  19.811  24.789  1.00  0.00    -0.245 OA
BRANCH   9  11
ATOM     11  C   UNL A   1      33.829  21.073  25.596  1.00  0.00     0.193 C 
ATOM     12  C   UNL A   1      33.137  20.718  24.275  1.00  0.00     0.082 C 
ATOM     13  C   UNL A   1      33.330  22.507  25.893  1.00  0.00     0.095 C 
ATOM     14  C   UNL A   1      33.032  22.046  23.529  1.00  0.00     0.022 C 
ATOM     15  C   UNL A   1      32.757  23.091  24.602  1.00  0.00     0.059 C 
BRANCH  11  16
ATOM     16  N   UNL A   1      33.363  20.178  26.684  1.00  0.00    -0.343 N 
ATOM     17  H   UNL A   1      32.345  20.212  26.740  1.00  0.00     0.345 HD
ATOM     18  H   UNL A   1      33.764  20.484  27.571  1.00  0.00     0.345 HD
ATOM     19  H   UNL A   1      33.661  19.222  26.488  1.00  0.00     0.345 HD
ENDBRANCH  11  16
BRANCH  15  20
ATOM     20  S   UNL A   1      31.016  23.680  24.771  1.00  0.00    -0.122 SA
BRANCH  20  21
ATOM     21  C   UNL A   1      31.207  25.439  24.929  1.00  0.00     0.009 A 
ATOM     22  C   UNL A   1      31.161  26.234  23.782  1.00  0.00     0.017 A 
ATOM     23  C   UNL A   1      31.418  26.040  26.172  1.00  0.00     0.037 A 
ATOM     24  C   UNL A   1      31.251  27.625  23.885  1.00  0.00     0.023 A 
ATOM     25  C   UNL A   1      31.478  27.432  26.283  1.00  0.00     0.060 A 
ATOM     26  C   UNL A   1      31.391  28.228  25.137  1.00  0.00     0.059 A 
ATOM     27  Cl  UNL A   1      31.630  28.102  27.869  1.00  0.00    -0.083 Cl
ATOM     28  Cl  UNL A   1      31.446  29.952  25.198  1.00  0.00    -0.083 Cl
ENDBRANCH  20  21
ENDBRANCH  15  20
ENDBRANCH   9  11
ENDBRANCH   8   9
ENDBRANCH   7   8
ENDBRANCH   6   7
ENDBRANCH   5   6
ENDBRANCH   4   5
ENDBRANCH   3   4
ENDBRANCH   2   3
ENDBRANCH   1   2
BRANCH   1  29
ATOM     29  C   UNL A   1      43.198  25.692  25.142  1.00  0.00     0.188 C 
BRANCH  29  30
ATOM     30  O   UNL A   1      43.193  24.312  24.827  1.00  0.00    -0.376 OA
BRANCH  30  31
ATOM     31  C   UNL A   1      44.387  23.541  24.784  1.00  0.00     0.202 C 
BRANCH  31  32
ATOM     32  C   UNL A   1      44.953  22.582  25.865  1.00  0.00     0.261 C 
BRANCH  32  33
ATOM     33  O   UNL A   1      45.089  23.011  27.219  1.00  0.00    -0.460 OA
BRANCH  33  34
ATOM     34  C   UNL A   1      46.028  23.935  27.501  1.00  0.00     0.338 C 
ATOM     35  O   UNL A   1      47.144  24.009  27.020  1.00  0.00    -0.246 OA
BRANCH  34  36
ATOM     36  C   UNL A   1      45.374  24.964  28.344  1.00  0.00     0.060 A 
ATOM     37  C   UNL A   1      45.871  26.274  28.317  1.00  0.00     0.016 A 
ATOM     38  C   UNL A   1      44.249  24.656  29.117  1.00  0.00     0.016 A 
ATOM     39  C   UNL A   1      45.268  27.270  29.084  1.00  0.00     0.010 A 
ATOM     40  C   UNL A   1      43.665  25.648  29.912  1.00  0.00     0.010 A 
ATOM     41  C   UNL A   1      44.194  26.951  29.924  1.00  0.00    -0.014 A 
BRANCH  41  42
ATOM     42  C   UNL A   1      43.799  27.911  30.984  1.00  0.00     0.031 A 
ATOM     43  C   UNL A   1      44.458  27.777  32.330  1.00  0.00     0.074 A 
ATOM     44  C   UNL A   1      42.920  28.902  30.754  1.00  0.00     0.049 A 
ATOM     45  N   UNL A   1      44.270  28.465  33.425  1.00  0.00    -0.248 NA
ATOM     46  C   UNL A   1      45.467  26.713  32.451  1.00  0.00     0.031 C 
ATOM     47  C   UNL A   1      42.266  29.172  29.476  1.00  0.00     0.029 A 
ATOM     48  N   UNL A   1      42.427  29.867  31.597  1.00  0.00    -0.354 N 
ATOM     49  C   UNL A   1      45.136  27.918  34.366  1.00  0.00     0.074 A 
ATOM     50  C   UNL A   1      45.812  26.810  33.723  1.00  0.00     0.031 C 
ATOM     51  C   UNL A   1      41.451  30.233  29.621  1.00  0.00     0.029 A 
ATOM     52  C   UNL A   1      41.495  30.690  31.010  1.00  0.00     0.049 A 
ATOM     53  H   UNL A   1      42.715  29.961  32.533  1.00  0.00     0.167 HD
ATOM     54  C   UNL A   1      45.356  28.308  35.645  1.00  0.00     0.034 A 
ATOM     55  C   UNL A   1      40.748  31.680  31.542  1.00  0.00     0.034 A 
ATOM     56  C   UNL A   1      44.653  29.397  36.278  1.00  0.00     0.049 A 
ATOM     57  C   UNL A   1      40.920  32.022  33.005  1.00  0.00     0.074 A 
ATOM     58  C   UNL A   1      44.793  29.879  37.567  1.00  0.00     0.029 A 
ATOM     59  N   UNL A   1      43.661  30.160  35.675  1.00  0.00    -0.354 N 
ATOM     60  N   UNL A   1      41.742  31.501  33.887  1.00  0.00    -0.248 NA
ATOM     61  C   UNL A   1      40.065  33.091  33.540  1.00  0.00     0.031 C 
ATOM     62  C   UNL A   1      43.830  30.874  37.769  1.00  0.00     0.029 A 
ATOM     63  C   UNL A   1      43.152  31.081  36.578  1.00  0.00     0.049 A 
ATOM     64  H   UNL A   1      43.365  30.063  34.741  1.00  0.00     0.167 HD
ATOM     65  C   UNL A   1      41.525  32.203  35.072  1.00  0.00     0.074 A 
ATOM     66  C   UNL A   1      40.505  33.190  34.786  1.00  0.00     0.031 C 
ATOM     67  C   UNL A   1      42.121  32.052  36.284  1.00  0.00     0.034 A 
BRANCH  54  68
ATOM     68  C   UNL A   1      46.349  27.502  36.448  1.00  0.00     0.023 A 
ATOM     69  C   UNL A   1      45.969  26.343  37.150  1.00  0.00     0.031 A 
ATOM     70  C   UNL A   1      47.682  27.933  36.569  1.00  0.00     0.131 A 
ATOM     71  C   UNL A   1      46.881  25.713  38.009  1.00  0.00     0.055 A 
ATOM     72  C   UNL A   1      48.611  27.246  37.353  1.00  0.00     0.041 A 
ATOM     73  F   UNL A   1      48.099  29.047  35.947  1.00  0.00    -0.206 F 
ATOM     74  C   UNL A   1      48.208  26.139  38.094  1.00  0.00     0.022 A 
BRANCH  71  75
ATOM     75  S   UNL A   1      46.260  24.445  39.149  1.00  0.00     0.124 S 
ATOM     76  O   UNL A   1      47.478  24.071  39.864  1.00  0.00    -0.237 OA
ATOM     77  O   UNL A   1      45.264  25.176  39.922  1.00  0.00    -0.237 OA
ATOM     78  O   UNL A   1      45.730  23.414  38.258  1.00  0.00    -0.744 OA
ENDBRANCH  71  75
ENDBRANCH  54  68
BRANCH  55  79
ATOM     79  C   UNL A   1      39.741  32.398  30.708  1.00  0.00     0.023 A 
ATOM     80  C   UNL A   1      38.503  31.813  30.397  1.00  0.00     0.031 A 
ATOM     81  C   UNL A   1      40.026  33.664  30.165  1.00  0.00     0.131 A 
ATOM     82  C   UNL A   1      37.613  32.477  29.537  1.00  0.00     0.055 A 
ATOM     83  C   UNL A   1      39.115  34.344  29.353  1.00  0.00     0.041 A 
ATOM     84  F   UNL A   1      41.197  34.267  30.425  1.00  0.00    -0.206 F 
ATOM     85  C   UNL A   1      37.904  33.744  29.026  1.00  0.00     0.022 A 
BRANCH  82  86
ATOM     86  S   UNL A   1      36.092  31.624  29.032  1.00  0.00     0.124 S 
ATOM     87  O   UNL A   1      36.551  30.245  28.917  1.00  0.00    -0.237 OA
ATOM     88  O   UNL A   1      35.199  31.915  30.149  1.00  0.00    -0.237 OA
ATOM     89  O   UNL A   1      35.742  32.275  27.772  1.00  0.00    -0.744 OA
ENDBRANCH  82  86
ENDBRANCH  55  79
BRANCH  67  90
ATOM     90  C   UNL A   1      41.717  33.011  37.380  1.00  0.00     0.023 A 
ATOM     91  C   UNL A   1      40.655  32.734  38.258  1.00  0.00     0.031 A 
ATOM     92  C   UNL A   1      42.408  34.226  37.545  1.00  0.00     0.131 A 
ATOM     93  C   UNL A   1      40.278  33.682  39.223  1.00  0.00     0.055 A 
ATOM     94  C   UNL A   1      42.073  35.134  38.551  1.00  0.00     0.041 A 
ATOM     95  F   UNL A   1      43.428  34.548  36.734  1.00  0.00    -0.206 F 
ATOM     96  C   UNL A   1      40.993  34.871  39.388  1.00  0.00     0.022 A 
BRANCH  93  97
ATOM     97  S   UNL A   1      38.773  33.388  40.192  1.00  0.00     0.124 S 
ATOM     98  O   UNL A   1      39.052  32.090  40.797  1.00  0.00    -0.237 OA
ATOM     99  O   UNL A   1      38.761  34.527  41.104  1.00  0.00    -0.237 OA
ATOM    100  O   UNL A   1      37.712  33.388  39.187  1.00  0.00    -0.744 OA
ENDBRANCH  93  97
ENDBRANCH  67  90
ENDBRANCH  41  42
ENDBRANCH  34  36
ENDBRANCH  33  34
ENDBRANCH  32  33
ENDBRANCH  31  32
ENDBRANCH  30  31
ENDBRANCH  29  30
ENDBRANCH   1  29
TORSDOF 26
ENDMDL
